MODEL 1
REMARK VINA RESULT:    -6.366      0.000      0.000
REMARK INTER + INTRA:         -10.691
REMARK INTER:                  -9.344
REMARK INTRA:                  -1.348
REMARK UNBOUND:                -1.348
REMARK SMILES O=c1c(O[C@@H]2O[C@H](CO)[C@@H](O)[C@H](O)[C@H]2O)c(-c2ccc(O)c(O)c2)oc2cc(O)cc(O)c12
REMARK SMILES IDX 4 1 3 2 16 3 25 4 2 5 26 6 1 7 33 8 27 9 31 10 28 11 30 12
REMARK SMILES IDX 17 13 18 14 19 15 20 16 24 17 22 18 21 19 23 21 32 23 29 25
REMARK SMILES IDX 5 27 14 28 6 29 12 30 7 31 10 32 15 33 13 35 8 37 9 38 11 40
REMARK H PARENT 21 20 23 22 32 24 29 26 15 34 13 36 9 39 11 41
REMARK Flexibility Score: inf
ROOT
ATOM      1  O   UNL     1      -6.065   6.540  14.260  1.00  0.00    -0.454 OA
ENDROOT
BRANCH   1   2
ATOM      2  C   UNL     1      -5.075   5.651  14.730  1.00  0.00     0.214 A 
ATOM      3  C   UNL     1      -3.741   5.874  14.345  1.00  0.00     0.180 A 
ATOM      4  O   UNL     1      -2.770   5.107  14.817  1.00  0.00    -0.452 OA
ATOM      5  C   UNL     1      -5.351   4.555  15.587  1.00  0.00     0.239 A 
ATOM      6  C   UNL     1      -2.977   4.082  15.629  1.00  0.00     0.146 A 
ATOM      7  O   UNL     1      -6.539   4.311  15.910  1.00  0.00    -0.285 OA
ATOM      8  C   UNL     1      -4.290   3.736  16.054  1.00  0.00     0.111 A 
ATOM      9  C   UNL     1      -1.868   3.349  16.058  1.00  0.00     0.094 A 
ATOM     10  C   UNL     1      -4.438   2.612  16.934  1.00  0.00     0.134 A 
ATOM     11  C   UNL     1      -2.024   2.271  16.924  1.00  0.00     0.123 A 
ATOM     12  C   UNL     1      -3.302   1.915  17.364  1.00  0.00     0.093 A 
BRANCH   3  13
ATOM     13  C   UNL     1      -3.361   6.971  13.430  1.00  0.00     0.025 A 
ATOM     14  C   UNL     1      -2.476   7.971  13.864  1.00  0.00     0.016 A 
ATOM     15  C   UNL     1      -2.121   9.017  13.002  1.00  0.00     0.051 A 
ATOM     16  C   UNL     1      -2.641   9.066  11.701  1.00  0.00     0.157 A 
ATOM     17  C   UNL     1      -3.827   6.988  12.107  1.00  0.00     0.062 A 
ATOM     18  C   UNL     1      -3.488   8.039  11.249  1.00  0.00     0.158 A 
BRANCH  16  19
ATOM     19  O   UNL     1      -2.317  10.125  10.848  1.00  0.00    -0.504 OA
ATOM     20  H   UNL     1      -1.762  10.916  11.161  1.00  0.00     0.293 HD
ENDBRANCH  16  19
BRANCH  18  21
ATOM     21  O   UNL     1      -3.970   8.034   9.939  1.00  0.00    -0.504 OA
ATOM     22  H   UNL     1      -4.899   8.361   9.700  1.00  0.00     0.293 HD
ENDBRANCH  18  21
ENDBRANCH   3  13
BRANCH  10  23
ATOM     23  O   UNL     1      -5.666   2.129  17.408  1.00  0.00    -0.507 OA
ATOM     24  H   UNL     1      -6.572   2.524  17.218  1.00  0.00     0.293 HD
ENDBRANCH  10  23
BRANCH  11  25
ATOM     25  O   UNL     1      -0.902   1.557  17.342  1.00  0.00    -0.508 OA
ATOM     26  H   UNL     1      -0.451   1.748  18.230  1.00  0.00     0.293 HD
ENDBRANCH  11  25
ENDBRANCH   1   2
BRANCH   1  27
ATOM     27  C   UNL     1      -6.509   7.734  14.917  1.00  0.00     0.339 C 
ATOM     28  C   UNL     1      -6.242   8.973  14.054  1.00  0.00     0.214 C 
ATOM     29  O   UNL     1      -7.868   7.646  15.323  1.00  0.00    -0.332 OA
ATOM     30  C   UNL     1      -7.104   8.925  12.788  1.00  0.00     0.180 C 
ATOM     31  C   UNL     1      -8.811   7.635  14.252  1.00  0.00     0.179 C 
ATOM     32  C   UNL     1      -8.593   8.725  13.159  1.00  0.00     0.177 C 
BRANCH  28  33
ATOM     33  O   UNL     1      -6.516  10.125  14.811  1.00  0.00    -0.384 OA
ATOM     34  H   UNL     1      -7.410   9.989  15.228  1.00  0.00     0.211 HD
ENDBRANCH  28  33
BRANCH  30  35
ATOM     35  O   UNL     1      -6.584   7.955  11.911  1.00  0.00    -0.387 OA
ATOM     36  H   UNL     1      -6.383   7.128  12.414  1.00  0.00     0.211 HD
ENDBRANCH  30  35
BRANCH  31  37
ATOM     37  C   UNL     1      -9.057   6.212  13.699  1.00  0.00     0.191 C 
BRANCH  37  38
ATOM     38  O   UNL     1      -8.838   5.244  14.694  1.00  0.00    -0.394 OA
ATOM     39  H   UNL     1      -9.163   5.637  15.553  1.00  0.00     0.210 HD
ENDBRANCH  37  38
ENDBRANCH  31  37
BRANCH  32  40
ATOM     40  O   UNL     1      -9.119   9.939  13.639  1.00  0.00    -0.387 OA
ATOM     41  H   UNL     1      -8.880   9.999  14.599  1.00  0.00     0.211 HD
ENDBRANCH  32  40
ENDBRANCH   1  27
TORSDOF 12
ENDMDL
MODEL 2
REMARK VINA RESULT:    -5.635      1.048      2.414
REMARK INTER + INTRA:          -9.619
REMARK INTER:                  -8.762
REMARK INTRA:                  -0.857
REMARK UNBOUND:                -1.348
REMARK SMILES O=c1c(O[C@@H]2O[C@H](CO)[C@@H](O)[C@H](O)[C@H]2O)c(-c2ccc(O)c(O)c2)oc2cc(O)cc(O)c12
REMARK SMILES IDX 4 1 3 2 16 3 25 4 2 5 26 6 1 7 33 8 27 9 31 10 28 11 30 12
REMARK SMILES IDX 17 13 18 14 19 15 20 16 24 17 22 18 21 19 23 21 32 23 29 25
REMARK SMILES IDX 5 27 14 28 6 29 12 30 7 31 10 32 15 33 13 35 8 37 9 38 11 40
REMARK H PARENT 21 20 23 22 32 24 29 26 15 34 13 36 9 39 11 41
REMARK Flexibility Score: inf
ROOT
ATOM      1  O   UNL     1      -5.493   6.930  14.525  1.00  0.00    -0.454 OA
ENDROOT
BRANCH   1   2
ATOM      2  C   UNL     1      -4.596   5.935  14.966  1.00  0.00     0.214 A 
ATOM      3  C   UNL     1      -3.248   6.030  14.576  1.00  0.00     0.180 A 
ATOM      4  O   UNL     1      -2.357   5.158  15.023  1.00  0.00    -0.452 OA
ATOM      5  C   UNL     1      -4.976   4.853  15.801  1.00  0.00     0.239 A 
ATOM      6  C   UNL     1      -2.662   4.141  15.813  1.00  0.00     0.146 A 
ATOM      7  O   UNL     1      -6.181   4.723  16.129  1.00  0.00    -0.285 OA
ATOM      8  C   UNL     1      -4.001   3.920  16.242  1.00  0.00     0.111 A 
ATOM      9  C   UNL     1      -1.631   3.289  16.217  1.00  0.00     0.094 A 
ATOM     10  C   UNL     1      -4.257   2.797  17.097  1.00  0.00     0.134 A 
ATOM     11  C   UNL     1      -1.890   2.213  17.060  1.00  0.00     0.123 A 
ATOM     12  C   UNL     1      -3.195   1.979  17.503  1.00  0.00     0.093 A 
BRANCH   3  13
ATOM     13  C   UNL     1      -2.764   7.104  13.682  1.00  0.00     0.025 A 
ATOM     14  C   UNL     1      -3.278   7.215  12.380  1.00  0.00     0.016 A 
ATOM     15  C   UNL     1      -2.816   8.227  11.528  1.00  0.00     0.051 A 
ATOM     16  C   UNL     1      -1.845   9.135  11.972  1.00  0.00     0.157 A 
ATOM     17  C   UNL     1      -1.842   8.054  14.145  1.00  0.00     0.062 A 
ATOM     18  C   UNL     1      -1.366   9.054  13.292  1.00  0.00     0.158 A 
BRANCH  16  19
ATOM     19  O   UNL     1      -1.356  10.125  11.115  1.00  0.00    -0.504 OA
ATOM     20  H   UNL     1      -1.252  11.090  11.415  1.00  0.00     0.293 HD
ENDBRANCH  16  19
BRANCH  18  21
ATOM     21  O   UNL     1      -0.445   9.984  13.776  1.00  0.00    -0.504 OA
ATOM     22  H   UNL     1      -0.046  10.710  13.192  1.00  0.00     0.293 HD
ENDBRANCH  18  21
ENDBRANCH   3  13
BRANCH  10  23
ATOM     23  O   UNL     1      -5.524   2.430  17.571  1.00  0.00    -0.507 OA
ATOM     24  H   UNL     1      -5.713   1.865  18.382  1.00  0.00     0.293 HD
ENDBRANCH  10  23
BRANCH  11  25
ATOM     25  O   UNL     1      -0.844   1.380  17.453  1.00  0.00    -0.508 OA
ATOM     26  H   UNL     1      -0.014   1.264  16.883  1.00  0.00     0.293 HD
ENDBRANCH  11  25
ENDBRANCH   1   2
BRANCH   1  27
ATOM     27  C   UNL     1      -6.302   6.875  13.343  1.00  0.00     0.339 C 
ATOM     28  C   UNL     1      -7.759   6.538  13.686  1.00  0.00     0.214 C 
ATOM     29  O   UNL     1      -6.193   8.059  12.567  1.00  0.00    -0.332 OA
ATOM     30  C   UNL     1      -8.385   7.682  14.490  1.00  0.00     0.180 C 
ATOM     31  C   UNL     1      -6.773   9.219  13.162  1.00  0.00     0.179 C 
ATOM     32  C   UNL     1      -8.208   9.026  13.742  1.00  0.00     0.177 C 
BRANCH  28  33
ATOM     33  O   UNL     1      -8.467   6.309  12.494  1.00  0.00    -0.384 OA
ATOM     34  H   UNL     1      -7.835   6.491  11.745  1.00  0.00     0.211 HD
ENDBRANCH  28  33
BRANCH  30  35
ATOM     35  O   UNL     1      -7.864   7.668  15.797  1.00  0.00    -0.387 OA
ATOM     36  H   UNL     1      -8.556   7.976  16.433  1.00  0.00     0.211 HD
ENDBRANCH  30  35
BRANCH  31  37
ATOM     37  C   UNL     1      -5.792   9.949  14.108  1.00  0.00     0.191 C 
BRANCH  37  38
ATOM     38  O   UNL     1      -5.934   9.490  15.428  1.00  0.00    -0.394 OA
ATOM     39  H   UNL     1      -6.111  10.296  15.993  1.00  0.00     0.210 HD
ENDBRANCH  37  38
ENDBRANCH  31  37
BRANCH  32  40
ATOM     40  O   UNL     1      -9.125   9.088  12.675  1.00  0.00    -0.387 OA
ATOM     41  H   UNL     1      -9.231   8.165  12.331  1.00  0.00     0.211 HD
ENDBRANCH  32  40
ENDBRANCH   1  27
TORSDOF 12
ENDMDL
MODEL 3
REMARK VINA RESULT:    -5.079      1.915      4.856
REMARK INTER + INTRA:          -8.802
REMARK INTER:                  -7.298
REMARK INTRA:                  -1.504
REMARK UNBOUND:                -1.348
REMARK SMILES O=c1c(O[C@@H]2O[C@H](CO)[C@@H](O)[C@H](O)[C@H]2O)c(-c2ccc(O)c(O)c2)oc2cc(O)cc(O)c12
REMARK SMILES IDX 4 1 3 2 16 3 25 4 2 5 26 6 1 7 33 8 27 9 31 10 28 11 30 12
REMARK SMILES IDX 17 13 18 14 19 15 20 16 24 17 22 18 21 19 23 21 32 23 29 25
REMARK SMILES IDX 5 27 14 28 6 29 12 30 7 31 10 32 15 33 13 35 8 37 9 38 11 40
REMARK H PARENT 21 20 23 22 32 24 29 26 15 34 13 36 9 39 11 41
REMARK Flexibility Score: inf
ROOT
ATOM      1  O   UNL     1      -3.598   7.169  13.633  1.00  0.00    -0.454 OA
ENDROOT
BRANCH   1   2
ATOM      2  C   UNL     1      -3.381   6.068  14.487  1.00  0.00     0.214 A 
ATOM      3  C   UNL     1      -4.348   5.047  14.520  1.00  0.00     0.180 A 
ATOM      4  O   UNL     1      -4.153   3.962  15.253  1.00  0.00    -0.452 OA
ATOM      5  C   UNL     1      -2.228   5.923  15.301  1.00  0.00     0.239 A 
ATOM      6  C   UNL     1      -3.088   3.777  16.018  1.00  0.00     0.146 A 
ATOM      7  O   UNL     1      -1.370   6.840  15.321  1.00  0.00    -0.285 OA
ATOM      8  C   UNL     1      -2.062   4.759  16.096  1.00  0.00     0.111 A 
ATOM      9  C   UNL     1      -3.000   2.587  16.745  1.00  0.00     0.094 A 
ATOM     10  C   UNL     1      -0.937   4.491  16.945  1.00  0.00     0.134 A 
ATOM     11  C   UNL     1      -1.895   2.332  17.553  1.00  0.00     0.123 A 
ATOM     12  C   UNL     1      -0.869   3.276  17.641  1.00  0.00     0.093 A 
BRANCH   3  13
ATOM     13  C   UNL     1      -5.596   5.125  13.731  1.00  0.00     0.025 A 
ATOM     14  C   UNL     1      -5.746   4.338  12.578  1.00  0.00     0.016 A 
ATOM     15  C   UNL     1      -6.924   4.415  11.824  1.00  0.00     0.051 A 
ATOM     16  C   UNL     1      -7.961   5.271  12.221  1.00  0.00     0.157 A 
ATOM     17  C   UNL     1      -6.661   5.930  14.161  1.00  0.00     0.062 A 
ATOM     18  C   UNL     1      -7.832   6.023  13.403  1.00  0.00     0.158 A 
BRANCH  16  19
ATOM     19  O   UNL     1      -9.125   5.378  11.454  1.00  0.00    -0.504 OA
ATOM     20  H   UNL     1      -9.238   4.877  10.578  1.00  0.00     0.293 HD
ENDBRANCH  16  19
BRANCH  18  21
ATOM     21  O   UNL     1      -8.874   6.836  13.851  1.00  0.00    -0.504 OA
ATOM     22  H   UNL     1      -8.714   7.667  14.408  1.00  0.00     0.293 HD
ENDBRANCH  18  21
ENDBRANCH   3  13
BRANCH  10  23
ATOM     23  O   UNL     1       0.132   5.373  17.154  1.00  0.00    -0.507 OA
ATOM     24  H   UNL     1       0.734   5.395  17.960  1.00  0.00     0.293 HD
ENDBRANCH  10  23
BRANCH  11  25
ATOM     25  O   UNL     1      -1.827   1.137  18.265  1.00  0.00    -0.508 OA
ATOM     26  H   UNL     1      -1.222   1.032  19.072  1.00  0.00     0.293 HD
ENDBRANCH  11  25
ENDBRANCH   1   2
BRANCH   1  27
ATOM     27  C   UNL     1      -3.498   7.163  12.203  1.00  0.00     0.339 C 
ATOM     28  C   UNL     1      -4.814   7.610  11.555  1.00  0.00     0.214 C 
ATOM     29  O   UNL     1      -2.388   7.920  11.742  1.00  0.00    -0.332 OA
ATOM     30  C   UNL     1      -5.085   9.081  11.884  1.00  0.00     0.180 C 
ATOM     31  C   UNL     1      -2.505   9.329  11.936  1.00  0.00     0.179 C 
ATOM     32  C   UNL     1      -3.866   9.953  11.498  1.00  0.00     0.177 C 
BRANCH  28  33
ATOM     33  O   UNL     1      -4.731   7.407  10.167  1.00  0.00    -0.384 OA
ATOM     34  H   UNL     1      -3.773   7.516   9.917  1.00  0.00     0.211 HD
ENDBRANCH  28  33
BRANCH  30  35
ATOM     35  O   UNL     1      -5.480   9.189  13.230  1.00  0.00    -0.387 OA
ATOM     36  H   UNL     1      -6.425   9.474  13.277  1.00  0.00     0.211 HD
ENDBRANCH  30  35
BRANCH  31  37
ATOM     37  C   UNL     1      -2.016   9.774  13.334  1.00  0.00     0.191 C 
BRANCH  37  38
ATOM     38  O   UNL     1      -0.928   8.991  13.756  1.00  0.00    -0.394 OA
ATOM     39  H   UNL     1      -0.708   9.284  14.686  1.00  0.00     0.210 HD
ENDBRANCH  37  38
ENDBRANCH  31  37
BRANCH  32  40
ATOM     40  O   UNL     1      -3.840  10.125  10.102  1.00  0.00    -0.387 OA
ATOM     41  H   UNL     1      -2.898  10.018   9.813  1.00  0.00     0.211 HD
ENDBRANCH  32  40
ENDBRANCH   1  27
TORSDOF 12
ENDMDL
MODEL 4
REMARK VINA RESULT:    -4.939      2.164      6.197
REMARK INTER + INTRA:          -8.597
REMARK INTER:                  -7.837
REMARK INTRA:                  -0.760
REMARK UNBOUND:                -1.348
REMARK SMILES O=c1c(O[C@@H]2O[C@H](CO)[C@@H](O)[C@H](O)[C@H]2O)c(-c2ccc(O)c(O)c2)oc2cc(O)cc(O)c12
REMARK SMILES IDX 4 1 3 2 16 3 25 4 2 5 26 6 1 7 33 8 27 9 31 10 28 11 30 12
REMARK SMILES IDX 17 13 18 14 19 15 20 16 24 17 22 18 21 19 23 21 32 23 29 25
REMARK SMILES IDX 5 27 14 28 6 29 12 30 7 31 10 32 15 33 13 35 8 37 9 38 11 40
REMARK H PARENT 21 20 23 22 32 24 29 26 15 34 13 36 9 39 11 41
REMARK Flexibility Score: inf
ROOT
ATOM      1  O   UNL     1      -5.441   5.990  12.854  1.00  0.00    -0.454 OA
ENDROOT
BRANCH   1   2
ATOM      2  C   UNL     1      -4.287   6.732  13.181  1.00  0.00     0.214 A 
ATOM      3  C   UNL     1      -3.642   6.462  14.401  1.00  0.00     0.180 A 
ATOM      4  O   UNL     1      -2.518   7.085  14.718  1.00  0.00    -0.452 OA
ATOM      5  C   UNL     1      -3.728   7.724  12.334  1.00  0.00     0.239 A 
ATOM      6  C   UNL     1      -1.952   8.007  13.954  1.00  0.00     0.146 A 
ATOM      7  O   UNL     1      -4.308   8.012  11.259  1.00  0.00    -0.285 OA
ATOM      8  C   UNL     1      -2.535   8.392  12.715  1.00  0.00     0.111 A 
ATOM      9  C   UNL     1      -0.764   8.591  14.400  1.00  0.00     0.094 A 
ATOM     10  C   UNL     1      -1.867   9.398  11.941  1.00  0.00     0.134 A 
ATOM     11  C   UNL     1      -0.117   9.555  13.632  1.00  0.00     0.123 A 
ATOM     12  C   UNL     1      -0.664   9.945  12.406  1.00  0.00     0.093 A 
BRANCH   3  13
ATOM     13  C   UNL     1      -4.168   5.469  15.363  1.00  0.00     0.025 A 
ATOM     14  C   UNL     1      -3.877   4.107  15.191  1.00  0.00     0.016 A 
ATOM     15  C   UNL     1      -4.381   3.163  16.096  1.00  0.00     0.051 A 
ATOM     16  C   UNL     1      -5.170   3.574  17.179  1.00  0.00     0.157 A 
ATOM     17  C   UNL     1      -4.903   5.884  16.483  1.00  0.00     0.062 A 
ATOM     18  C   UNL     1      -5.421   4.943  17.379  1.00  0.00     0.158 A 
BRANCH  16  19
ATOM     19  O   UNL     1      -5.703   2.634  18.065  1.00  0.00    -0.504 OA
ATOM     20  H   UNL     1      -6.504   2.059  17.819  1.00  0.00     0.293 HD
ENDBRANCH  16  19
BRANCH  18  21
ATOM     21  O   UNL     1      -6.153   5.382  18.483  1.00  0.00    -0.504 OA
ATOM     22  H   UNL     1      -6.087   4.937  19.391  1.00  0.00     0.293 HD
ENDBRANCH  18  21
ENDBRANCH   3  13
BRANCH  10  23
ATOM     23  O   UNL     1      -2.335   9.906  10.721  1.00  0.00    -0.507 OA
ATOM     24  H   UNL     1      -2.260   9.456   9.824  1.00  0.00     0.293 HD
ENDBRANCH  10  23
BRANCH  11  25
ATOM     25  O   UNL     1       1.069  10.121  14.095  1.00  0.00    -0.508 OA
ATOM     26  H   UNL     1       1.972   9.715  13.877  1.00  0.00     0.293 HD
ENDBRANCH  11  25
ENDBRANCH   1   2
BRANCH   1  27
ATOM     27  C   UNL     1      -5.749   5.426  11.572  1.00  0.00     0.339 C 
ATOM     28  C   UNL     1      -6.635   4.183  11.713  1.00  0.00     0.214 C 
ATOM     29  O   UNL     1      -6.309   6.387  10.688  1.00  0.00    -0.332 OA
ATOM     30  C   UNL     1      -8.009   4.579  12.265  1.00  0.00     0.180 C 
ATOM     31  C   UNL     1      -7.619   6.831  11.040  1.00  0.00     0.179 C 
ATOM     32  C   UNL     1      -8.632   5.702  11.400  1.00  0.00     0.177 C 
BRANCH  28  33
ATOM     33  O   UNL     1      -6.752   3.561  10.459  1.00  0.00    -0.384 OA
ATOM     34  H   UNL     1      -6.438   4.220   9.781  1.00  0.00     0.211 HD
ENDBRANCH  28  33
BRANCH  30  35
ATOM     35  O   UNL     1      -7.886   4.893  13.631  1.00  0.00    -0.387 OA
ATOM     36  H   UNL     1      -7.421   4.156  14.099  1.00  0.00     0.211 HD
ENDBRANCH  30  35
BRANCH  31  37
ATOM     37  C   UNL     1      -7.591   8.011  12.038  1.00  0.00     0.191 C 
BRANCH  37  38
ATOM     38  O   UNL     1      -7.978   7.591  13.322  1.00  0.00    -0.394 OA
ATOM     39  H   UNL     1      -8.894   7.958  13.479  1.00  0.00     0.210 HD
ENDBRANCH  37  38
ENDBRANCH  31  37
BRANCH  32  40
ATOM     40  O   UNL     1      -9.118   5.149  10.201  1.00  0.00    -0.387 OA
ATOM     41  H   UNL     1      -8.729   5.678   9.459  1.00  0.00     0.211 HD
ENDBRANCH  32  40
ENDBRANCH   1  27
TORSDOF 12
ENDMDL
MODEL 5
REMARK VINA RESULT:    -4.911      1.574      4.916
REMARK INTER + INTRA:          -8.556
REMARK INTER:                  -6.855
REMARK INTRA:                  -1.701
REMARK UNBOUND:                -1.348
REMARK SMILES O=c1c(O[C@@H]2O[C@H](CO)[C@@H](O)[C@H](O)[C@H]2O)c(-c2ccc(O)c(O)c2)oc2cc(O)cc(O)c12
REMARK SMILES IDX 4 1 3 2 16 3 25 4 2 5 26 6 1 7 33 8 27 9 31 10 28 11 30 12
REMARK SMILES IDX 17 13 18 14 19 15 20 16 24 17 22 18 21 19 23 21 32 23 29 25
REMARK SMILES IDX 5 27 14 28 6 29 12 30 7 31 10 32 15 33 13 35 8 37 9 38 11 40
REMARK H PARENT 21 20 23 22 32 24 29 26 15 34 13 36 9 39 11 41
REMARK Flexibility Score: inf
ROOT
ATOM      1  O   UNL     1      -3.553   7.384  13.562  1.00  0.00    -0.454 OA
ENDROOT
BRANCH   1   2
ATOM      2  C   UNL     1      -4.001   6.318  14.369  1.00  0.00     0.214 A 
ATOM      3  C   UNL     1      -5.379   6.039  14.402  1.00  0.00     0.180 A 
ATOM      4  O   UNL     1      -5.837   5.005  15.091  1.00  0.00    -0.452 OA
ATOM      5  C   UNL     1      -3.133   5.498  15.135  1.00  0.00     0.239 A 
ATOM      6  C   UNL     1      -5.065   4.204  15.809  1.00  0.00     0.146 A 
ATOM      7  O   UNL     1      -1.904   5.753  15.155  1.00  0.00    -0.285 OA
ATOM      8  C   UNL     1      -3.660   4.413  15.884  1.00  0.00     0.111 A 
ATOM      9  C   UNL     1      -5.670   3.146  16.492  1.00  0.00     0.094 A 
ATOM     10  C   UNL     1      -2.886   3.506  16.682  1.00  0.00     0.134 A 
ATOM     11  C   UNL     1      -4.906   2.264  17.250  1.00  0.00     0.123 A 
ATOM     12  C   UNL     1      -3.522   2.441  17.333  1.00  0.00     0.093 A 
BRANCH   3  13
ATOM     13  C   UNL     1      -6.363   6.858  13.663  1.00  0.00     0.025 A 
ATOM     14  C   UNL     1      -6.880   6.398  12.441  1.00  0.00     0.016 A 
ATOM     15  C   UNL     1      -7.806   7.175  11.734  1.00  0.00     0.051 A 
ATOM     16  C   UNL     1      -8.227   8.411  12.245  1.00  0.00     0.157 A 
ATOM     17  C   UNL     1      -6.835   8.064  14.203  1.00  0.00     0.062 A 
ATOM     18  C   UNL     1      -7.746   8.850  13.492  1.00  0.00     0.158 A 
BRANCH  16  19
ATOM     19  O   UNL     1      -9.124   9.207  11.528  1.00  0.00    -0.504 OA
ATOM     20  H   UNL     1      -9.044   9.333  10.523  1.00  0.00     0.293 HD
ENDBRANCH  16  19
BRANCH  18  21
ATOM     21  O   UNL     1      -8.196  10.048  14.050  1.00  0.00    -0.504 OA
ATOM     22  H   UNL     1      -8.968  10.087  14.705  1.00  0.00     0.293 HD
ENDBRANCH  18  21
ENDBRANCH   3  13
BRANCH  10  23
ATOM     23  O   UNL     1      -1.502   3.603  16.881  1.00  0.00    -0.507 OA
ATOM     24  H   UNL     1      -0.963   4.453  16.895  1.00  0.00     0.293 HD
ENDBRANCH  10  23
BRANCH  11  25
ATOM     25  O   UNL     1      -5.531   1.213  17.919  1.00  0.00    -0.508 OA
ATOM     26  H   UNL     1      -5.084   0.735  18.693  1.00  0.00     0.293 HD
ENDBRANCH  11  25
ENDBRANCH   1   2
BRANCH   1  27
ATOM     27  C   UNL     1      -3.083   7.282  12.211  1.00  0.00     0.339 C 
ATOM     28  C   UNL     1      -4.009   8.031  11.245  1.00  0.00     0.214 C 
ATOM     29  O   UNL     1      -1.729   7.694  12.085  1.00  0.00    -0.332 OA
ATOM     30  C   UNL     1      -3.952   9.536  11.527  1.00  0.00     0.180 C 
ATOM     31  C   UNL     1      -1.510   9.092  12.276  1.00  0.00     0.179 C 
ATOM     32  C   UNL     1      -2.486  10.033  11.505  1.00  0.00     0.177 C 
BRANCH  28  33
ATOM     33  O   UNL     1      -3.619   7.746   9.925  1.00  0.00    -0.384 OA
ATOM     34  H   UNL     1      -3.507   8.621   9.464  1.00  0.00     0.211 HD
ENDBRANCH  28  33
BRANCH  30  35
ATOM     35  O   UNL     1      -4.645   9.810  12.720  1.00  0.00    -0.387 OA
ATOM     36  H   UNL     1      -5.153  10.652  12.622  1.00  0.00     0.211 HD
ENDBRANCH  30  35
BRANCH  31  37
ATOM     37  C   UNL     1      -1.308   9.457  13.765  1.00  0.00     0.191 C 
BRANCH  37  38
ATOM     38  O   UNL     1      -0.897   8.335  14.505  1.00  0.00    -0.394 OA
ATOM     39  H   UNL     1       0.100   8.381  14.563  1.00  0.00     0.210 HD
ENDBRANCH  37  38
ENDBRANCH  31  37
BRANCH  32  40
ATOM     40  O   UNL     1      -2.046  10.124  10.171  1.00  0.00    -0.387 OA
ATOM     41  H   UNL     1      -1.070  10.296  10.199  1.00  0.00     0.211 HD
ENDBRANCH  32  40
ENDBRANCH   1  27
TORSDOF 12
ENDMDL
MODEL 6
REMARK VINA RESULT:    -4.901     12.374     15.482
REMARK INTER + INTRA:          -8.542
REMARK INTER:                  -7.015
REMARK INTRA:                  -1.526
REMARK UNBOUND:                -1.348
REMARK SMILES O=c1c(O[C@@H]2O[C@H](CO)[C@@H](O)[C@H](O)[C@H]2O)c(-c2ccc(O)c(O)c2)oc2cc(O)cc(O)c12
REMARK SMILES IDX 4 1 3 2 16 3 25 4 2 5 26 6 1 7 33 8 27 9 31 10 28 11 30 12
REMARK SMILES IDX 17 13 18 14 19 15 20 16 24 17 22 18 21 19 23 21 32 23 29 25
REMARK SMILES IDX 5 27 14 28 6 29 12 30 7 31 10 32 15 33 13 35 8 37 9 38 11 40
REMARK H PARENT 21 20 23 22 32 24 29 26 15 34 13 36 9 39 11 41
REMARK Flexibility Score: inf
ROOT
ATOM      1  O   UNL     1      -7.059  -6.321  21.747  1.00  0.00    -0.454 OA
ENDROOT
BRANCH   1   2
ATOM      2  C   UNL     1      -6.610  -6.928  22.938  1.00  0.00     0.214 A 
ATOM      3  C   UNL     1      -5.224  -7.021  23.160  1.00  0.00     0.180 A 
ATOM      4  O   UNL     1      -4.759  -7.520  24.294  1.00  0.00    -0.452 OA
ATOM      5  C   UNL     1      -7.483  -7.434  23.936  1.00  0.00     0.239 A 
ATOM      6  C   UNL     1      -5.533  -7.991  25.259  1.00  0.00     0.146 A 
ATOM      7  O   UNL     1      -8.722  -7.401  23.743  1.00  0.00    -0.285 OA
ATOM      8  C   UNL     1      -6.950  -7.987  25.130  1.00  0.00     0.111 A 
ATOM      9  C   UNL     1      -4.919  -8.493  26.410  1.00  0.00     0.094 A 
ATOM     10  C   UNL     1      -7.726  -8.514  26.215  1.00  0.00     0.134 A 
ATOM     11  C   UNL     1      -5.684  -8.986  27.462  1.00  0.00     0.123 A 
ATOM     12  C   UNL     1      -7.078  -8.985  27.365  1.00  0.00     0.093 A 
BRANCH   3  13
ATOM     13  C   UNL     1      -4.238  -6.551  22.164  1.00  0.00     0.025 A 
ATOM     14  C   UNL     1      -3.988  -5.177  22.021  1.00  0.00     0.016 A 
ATOM     15  C   UNL     1      -3.059  -4.728  21.072  1.00  0.00     0.051 A 
ATOM     16  C   UNL     1      -2.372  -5.647  20.267  1.00  0.00     0.157 A 
ATOM     17  C   UNL     1      -3.501  -7.471  21.403  1.00  0.00     0.062 A 
ATOM     18  C   UNL     1      -2.586  -7.026  20.443  1.00  0.00     0.158 A 
BRANCH  16  19
ATOM     19  O   UNL     1      -1.471  -5.203  19.296  1.00  0.00    -0.504 OA
ATOM     20  H   UNL     1      -1.588  -5.428  18.312  1.00  0.00     0.293 HD
ENDBRANCH  16  19
BRANCH  18  21
ATOM     21  O   UNL     1      -1.870  -7.962  19.696  1.00  0.00    -0.504 OA
ATOM     22  H   UNL     1      -0.874  -8.106  19.816  1.00  0.00     0.293 HD
ENDBRANCH  18  21
ENDBRANCH   3  13
BRANCH  10  23
ATOM     23  O   UNL     1      -9.124  -8.610  26.221  1.00  0.00    -0.507 OA
ATOM     24  H   UNL     1      -9.702  -8.894  25.447  1.00  0.00     0.293 HD
ENDBRANCH  10  23
BRANCH  11  25
ATOM     25  O   UNL     1      -5.050  -9.477  28.602  1.00  0.00    -0.508 OA
ATOM     26  H   UNL     1      -5.438 -10.245  29.138  1.00  0.00     0.293 HD
ENDBRANCH  11  25
ENDBRANCH   1   2
BRANCH   1  27
ATOM     27  C   UNL     1      -7.749  -5.069  21.645  1.00  0.00     0.339 C 
ATOM     28  C   UNL     1      -6.929  -4.048  20.847  1.00  0.00     0.214 C 
ATOM     29  O   UNL     1      -9.063  -5.224  21.126  1.00  0.00    -0.332 OA
ATOM     30  C   UNL     1      -6.803  -4.502  19.390  1.00  0.00     0.180 C 
ATOM     31  C   UNL     1      -9.120  -5.606  19.752  1.00  0.00     0.179 C 
ATOM     32  C   UNL     1      -8.202  -4.789  18.792  1.00  0.00     0.177 C 
BRANCH  28  33
ATOM     33  O   UNL     1      -7.552  -2.792  20.936  1.00  0.00    -0.384 OA
ATOM     34  H   UNL     1      -8.381  -2.843  20.387  1.00  0.00     0.211 HD
ENDBRANCH  28  33
BRANCH  30  35
ATOM     35  O   UNL     1      -5.903  -5.582  19.317  1.00  0.00    -0.387 OA
ATOM     36  H   UNL     1      -6.208  -6.221  18.628  1.00  0.00     0.211 HD
ENDBRANCH  30  35
BRANCH  31  37
ATOM     37  C   UNL     1      -9.044  -7.139  19.564  1.00  0.00     0.191 C 
BRANCH  37  38
ATOM     38  O   UNL     1      -7.801  -7.516  19.029  1.00  0.00    -0.394 OA
ATOM     39  H   UNL     1      -7.733  -7.084  18.130  1.00  0.00     0.210 HD
ENDBRANCH  37  38
ENDBRANCH  31  37
BRANCH  32  40
ATOM     40  O   UNL     1      -8.843  -3.570  18.504  1.00  0.00    -0.387 OA
ATOM     41  H   UNL     1      -9.813  -3.710  18.651  1.00  0.00     0.211 HD
ENDBRANCH  32  40
ENDBRANCH   1  27
TORSDOF 12
ENDMDL
MODEL 7
REMARK VINA RESULT:    -4.612     11.959     16.385
REMARK INTER + INTRA:          -8.116
REMARK INTER:                  -6.866
REMARK INTRA:                  -1.250
REMARK UNBOUND:                -1.348
REMARK SMILES O=c1c(O[C@@H]2O[C@H](CO)[C@@H](O)[C@H](O)[C@H]2O)c(-c2ccc(O)c(O)c2)oc2cc(O)cc(O)c12
REMARK SMILES IDX 4 1 3 2 16 3 25 4 2 5 26 6 1 7 33 8 27 9 31 10 28 11 30 12
REMARK SMILES IDX 17 13 18 14 19 15 20 16 24 17 22 18 21 19 23 21 32 23 29 25
REMARK SMILES IDX 5 27 14 28 6 29 12 30 7 31 10 32 15 33 13 35 8 37 9 38 11 40
REMARK H PARENT 21 20 23 22 32 24 29 26 15 34 13 36 9 39 11 41
REMARK Flexibility Score: inf
ROOT
ATOM      1  O   UNL     1      -6.761  -6.015  22.140  1.00  0.00    -0.454 OA
ENDROOT
BRANCH   1   2
ATOM      2  C   UNL     1      -6.928  -6.844  23.269  1.00  0.00     0.214 A 
ATOM      3  C   UNL     1      -6.340  -8.121  23.253  1.00  0.00     0.180 A 
ATOM      4  O   UNL     1      -6.410  -8.906  24.317  1.00  0.00    -0.452 OA
ATOM      5  C   UNL     1      -7.640  -6.450  24.431  1.00  0.00     0.239 A 
ATOM      6  C   UNL     1      -7.052  -8.577  25.427  1.00  0.00     0.146 A 
ATOM      7  O   UNL     1      -8.209  -5.332  24.454  1.00  0.00    -0.285 OA
ATOM      8  C   UNL     1      -7.720  -7.326  25.546  1.00  0.00     0.111 A 
ATOM      9  C   UNL     1      -7.054  -9.493  26.482  1.00  0.00     0.094 A 
ATOM     10  C   UNL     1      -8.395  -7.037  26.778  1.00  0.00     0.134 A 
ATOM     11  C   UNL     1      -7.700  -9.194  27.678  1.00  0.00     0.123 A 
ATOM     12  C   UNL     1      -8.355  -7.969  27.824  1.00  0.00     0.093 A 
BRANCH   3  13
ATOM     13  C   UNL     1      -5.606  -8.631  22.075  1.00  0.00     0.025 A 
ATOM     14  C   UNL     1      -6.205  -9.582  21.234  1.00  0.00     0.016 A 
ATOM     15  C   UNL     1      -5.509 -10.073  20.122  1.00  0.00     0.051 A 
ATOM     16  C   UNL     1      -4.215  -9.614  19.840  1.00  0.00     0.157 A 
ATOM     17  C   UNL     1      -4.337  -8.126  21.753  1.00  0.00     0.062 A 
ATOM     18  C   UNL     1      -3.633  -8.626  20.654  1.00  0.00     0.158 A 
BRANCH  16  19
ATOM     19  O   UNL     1      -3.503 -10.125  18.751  1.00  0.00    -0.504 OA
ATOM     20  H   UNL     1      -3.669 -11.061  18.393  1.00  0.00     0.293 HD
ENDBRANCH  16  19
BRANCH  18  21
ATOM     21  O   UNL     1      -2.370  -8.109  20.359  1.00  0.00    -0.504 OA
ATOM     22  H   UNL     1      -2.221  -7.131  20.135  1.00  0.00     0.293 HD
ENDBRANCH  18  21
ENDBRANCH   3  13
BRANCH  10  23
ATOM     23  O   UNL     1      -9.124  -5.867  27.031  1.00  0.00    -0.507 OA
ATOM     24  H   UNL     1     -10.019  -5.629  26.637  1.00  0.00     0.293 HD
ENDBRANCH  10  23
BRANCH  11  25
ATOM     25  O   UNL     1      -7.684 -10.122  28.718  1.00  0.00    -0.508 OA
ATOM     26  H   UNL     1      -7.128  -9.977  29.552  1.00  0.00     0.293 HD
ENDBRANCH  11  25
ENDBRANCH   1   2
BRANCH   1  27
ATOM     27  C   UNL     1      -7.344  -6.222  20.847  1.00  0.00     0.339 C 
ATOM     28  C   UNL     1      -8.459  -5.205  20.573  1.00  0.00     0.214 C 
ATOM     29  O   UNL     1      -6.365  -6.235  19.817  1.00  0.00    -0.332 OA
ATOM     30  C   UNL     1      -7.868  -3.795  20.474  1.00  0.00     0.180 C 
ATOM     31  C   UNL     1      -5.745  -4.975  19.567  1.00  0.00     0.179 C 
ATOM     32  C   UNL     1      -6.720  -3.764  19.436  1.00  0.00     0.177 C 
BRANCH  28  33
ATOM     33  O   UNL     1      -9.122  -5.563  19.387  1.00  0.00    -0.384 OA
ATOM     34  H   UNL     1      -9.853  -4.900  19.256  1.00  0.00     0.211 HD
ENDBRANCH  28  33
BRANCH  30  35
ATOM     35  O   UNL     1      -7.506  -3.353  21.760  1.00  0.00    -0.387 OA
ATOM     36  H   UNL     1      -6.926  -4.028  22.190  1.00  0.00     0.211 HD
ENDBRANCH  30  35
BRANCH  31  37
ATOM     37  C   UNL     1      -4.530  -4.723  20.489  1.00  0.00     0.191 C 
BRANCH  37  38
ATOM     38  O   UNL     1      -3.380  -5.356  19.986  1.00  0.00    -0.394 OA
ATOM     39  H   UNL     1      -3.389  -5.221  18.996  1.00  0.00     0.210 HD
ENDBRANCH  37  38
ENDBRANCH  31  37
BRANCH  32  40
ATOM     40  O   UNL     1      -7.265  -3.779  18.139  1.00  0.00    -0.387 OA
ATOM     41  H   UNL     1      -6.851  -4.540  17.658  1.00  0.00     0.211 HD
ENDBRANCH  32  40
ENDBRANCH   1  27
TORSDOF 12
ENDMDL
MODEL 8
REMARK VINA RESULT:    -4.595     11.658     16.145
REMARK INTER + INTRA:          -8.092
REMARK INTER:                  -6.501
REMARK INTRA:                  -1.592
REMARK UNBOUND:                -1.348
REMARK SMILES O=c1c(O[C@@H]2O[C@H](CO)[C@@H](O)[C@H](O)[C@H]2O)c(-c2ccc(O)c(O)c2)oc2cc(O)cc(O)c12
REMARK SMILES IDX 4 1 3 2 16 3 25 4 2 5 26 6 1 7 33 8 27 9 31 10 28 11 30 12
REMARK SMILES IDX 17 13 18 14 19 15 20 16 24 17 22 18 21 19 23 21 32 23 29 25
REMARK SMILES IDX 5 27 14 28 6 29 12 30 7 31 10 32 15 33 13 35 8 37 9 38 11 40
REMARK H PARENT 21 20 23 22 32 24 29 26 15 34 13 36 9 39 11 41
REMARK Flexibility Score: inf
ROOT
ATOM      1  O   UNL     1      -7.334  -6.048  21.862  1.00  0.00    -0.454 OA
ENDROOT
BRANCH   1   2
ATOM      2  C   UNL     1      -7.342  -6.859  23.015  1.00  0.00     0.214 A 
ATOM      3  C   UNL     1      -6.717  -8.117  22.951  1.00  0.00     0.180 A 
ATOM      4  O   UNL     1      -6.640  -8.883  24.029  1.00  0.00    -0.452 OA
ATOM      5  C   UNL     1      -7.930  -6.465  24.245  1.00  0.00     0.239 A 
ATOM      6  C   UNL     1      -7.161  -8.553  25.200  1.00  0.00     0.146 A 
ATOM      7  O   UNL     1      -8.530  -5.365  24.316  1.00  0.00    -0.285 OA
ATOM      8  C   UNL     1      -7.852  -7.322  25.375  1.00  0.00     0.111 A 
ATOM      9  C   UNL     1      -7.012  -9.448  26.262  1.00  0.00     0.094 A 
ATOM     10  C   UNL     1      -8.391  -7.030  26.672  1.00  0.00     0.134 A 
ATOM     11  C   UNL     1      -7.525  -9.146  27.520  1.00  0.00     0.123 A 
ATOM     12  C   UNL     1      -8.201  -7.940  27.721  1.00  0.00     0.093 A 
BRANCH   3  13
ATOM     13  C   UNL     1      -6.106  -8.627  21.705  1.00  0.00     0.025 A 
ATOM     14  C   UNL     1      -6.920  -9.167  20.697  1.00  0.00     0.016 A 
ATOM     15  C   UNL     1      -6.343  -9.658  19.518  1.00  0.00     0.051 A 
ATOM     16  C   UNL     1      -4.954  -9.606  19.337  1.00  0.00     0.157 A 
ATOM     17  C   UNL     1      -4.724  -8.516  21.493  1.00  0.00     0.062 A 
ATOM     18  C   UNL     1      -4.143  -9.020  20.326  1.00  0.00     0.158 A 
BRANCH  16  19
ATOM     19  O   UNL     1      -4.369 -10.125  18.178  1.00  0.00    -0.504 OA
ATOM     20  H   UNL     1      -4.834 -10.830  17.613  1.00  0.00     0.293 HD
ENDBRANCH  16  19
BRANCH  18  21
ATOM     21  O   UNL     1      -2.764  -8.902  20.142  1.00  0.00    -0.504 OA
ATOM     22  H   UNL     1      -2.243  -9.515  19.527  1.00  0.00     0.293 HD
ENDBRANCH  18  21
ENDBRANCH   3  13
BRANCH  10  23
ATOM     23  O   UNL     1      -9.125  -5.879  26.989  1.00  0.00    -0.507 OA
ATOM     24  H   UNL     1      -8.748  -5.014  27.341  1.00  0.00     0.293 HD
ENDBRANCH  10  23
BRANCH  11  25
ATOM     25  O   UNL     1      -7.360 -10.053  28.565  1.00  0.00    -0.508 OA
ATOM     26  H   UNL     1      -6.984 -10.981  28.409  1.00  0.00     0.293 HD
ENDBRANCH  11  25
ENDBRANCH   1   2
BRANCH   1  27
ATOM     27  C   UNL     1      -6.279  -5.167  21.455  1.00  0.00     0.339 C 
ATOM     28  C   UNL     1      -5.928  -5.369  19.976  1.00  0.00     0.214 C 
ATOM     29  O   UNL     1      -6.571  -3.810  21.756  1.00  0.00    -0.332 OA
ATOM     30  C   UNL     1      -7.106  -4.940  19.096  1.00  0.00     0.180 C 
ATOM     31  C   UNL     1      -7.626  -3.240  20.983  1.00  0.00     0.179 C 
ATOM     32  C   UNL     1      -7.543  -3.497  19.447  1.00  0.00     0.177 C 
BRANCH  28  33
ATOM     33  O   UNL     1      -4.773  -4.628  19.675  1.00  0.00    -0.384 OA
ATOM     34  H   UNL     1      -4.571  -4.789  18.713  1.00  0.00     0.211 HD
ENDBRANCH  28  33
BRANCH  30  35
ATOM     35  O   UNL     1      -8.130  -5.900  19.191  1.00  0.00    -0.387 OA
ATOM     36  H   UNL     1      -7.792  -6.776  18.883  1.00  0.00     0.211 HD
ENDBRANCH  30  35
BRANCH  31  37
ATOM     37  C   UNL     1      -9.018  -3.503  21.603  1.00  0.00     0.191 C 
BRANCH  37  38
ATOM     38  O   UNL     1      -9.124  -2.902  22.869  1.00  0.00    -0.394 OA
ATOM     39  H   UNL     1      -9.147  -1.915  22.715  1.00  0.00     0.210 HD
ENDBRANCH  37  38
ENDBRANCH  31  37
BRANCH  32  40
ATOM     40  O   UNL     1      -6.620  -2.586  18.900  1.00  0.00    -0.387 OA
ATOM     41  H   UNL     1      -6.667  -2.682  17.914  1.00  0.00     0.211 HD
ENDBRANCH  32  40
ENDBRANCH   1  27
TORSDOF 12
ENDMDL
