MODEL 1
REMARK VINA RESULT:    -6.408      0.000      0.000
REMARK INTER + INTRA:          -8.286
REMARK INTER:                  -7.906
REMARK INTRA:                  -0.380
REMARK UNBOUND:                -0.380
REMARK SMILES Oc1cc(O)c2cc(O)c(-c3cc(O)c(O)c(O)c3)[o+]c2c1
REMARK SMILES IDX 10 1 20 2 21 3 22 4 2 5 3 6 4 7 6 8 7 9 8 10 11 11 12 12
REMARK SMILES IDX 13 13 19 14 15 15 17 16 14 17 16 19 18 21 9 23 1 25 5 27
REMARK H PARENT 14 18 16 20 18 22 9 24 1 26 5 28
REMARK Flexibility Score: inf
ROOT
ATOM      1  C   UNL     1       6.859  -1.088  -0.875  1.00  0.00     0.402 A 
ATOM      2  O   UNL     1       7.655  -0.024  -0.819  1.00  0.00    -0.202 OA
ATOM      3  C   UNL     1       7.795   0.836  -1.822  1.00  0.00     0.368 A 
ATOM      4  C   UNL     1       8.655   1.927  -1.667  1.00  0.00     0.162 A 
ATOM      5  C   UNL     1       8.819   2.848  -2.702  1.00  0.00     0.128 A 
ATOM      6  C   UNL     1       8.119   2.680  -3.902  1.00  0.00     0.093 A 
ATOM      7  C   UNL     1       7.252   1.594  -4.082  1.00  0.00     0.136 A 
ATOM      8  C   UNL     1       7.084   0.655  -3.032  1.00  0.00     0.125 A 
ATOM      9  C   UNL     1       6.247  -0.469  -3.128  1.00  0.00     0.078 A 
ATOM     10  C   UNL     1       6.135  -1.354  -2.052  1.00  0.00     0.223 A 
ENDROOT
BRANCH   1  11
ATOM     11  C   UNL     1       6.779  -1.967   0.314  1.00  0.00     0.091 A 
ATOM     12  C   UNL     1       7.659  -3.047   0.485  1.00  0.00     0.068 A 
ATOM     13  C   UNL     1       7.555  -3.881   1.602  1.00  0.00     0.162 A 
ATOM     14  C   UNL     1       5.769  -1.755   1.263  1.00  0.00     0.068 A 
ATOM     15  C   UNL     1       6.557  -3.653   2.567  1.00  0.00     0.200 A 
ATOM     16  C   UNL     1       5.651  -2.579   2.388  1.00  0.00     0.162 A 
BRANCH  13  17
ATOM     17  O   UNL     1       8.456  -4.938   1.734  1.00  0.00    -0.504 OA
ATOM     18  H   UNL     1       9.416  -4.798   2.023  1.00  0.00     0.293 HD
ENDBRANCH  13  17
BRANCH  15  19
ATOM     19  O   UNL     1       6.493  -4.504   3.673  1.00  0.00    -0.502 OA
ATOM     20  H   UNL     1       5.872  -5.298   3.745  1.00  0.00     0.293 HD
ENDBRANCH  15  19
BRANCH  16  21
ATOM     21  O   UNL     1       4.626  -2.296   3.294  1.00  0.00    -0.504 OA
ATOM     22  H   UNL     1       4.775  -1.925   4.221  1.00  0.00     0.293 HD
ENDBRANCH  16  21
ENDBRANCH   1  11
BRANCH  10  23
ATOM     23  O   UNL     1       5.343  -2.497  -2.165  1.00  0.00    -0.500 OA
ATOM     24  H   UNL     1       4.538  -2.528  -2.779  1.00  0.00     0.294 HD
ENDBRANCH  10  23
BRANCH   5  25
ATOM     25  O   UNL     1       9.681   3.928  -2.529  1.00  0.00    -0.507 OA
ATOM     26  H   UNL     1       9.409   4.869  -2.788  1.00  0.00     0.293 HD
ENDBRANCH   5  25
BRANCH   7  27
ATOM     27  O   UNL     1       6.587   1.499  -5.308  1.00  0.00    -0.507 OA
ATOM     28  H   UNL     1       6.134   0.663  -5.647  1.00  0.00     0.293 HD
ENDBRANCH   7  27
TORSDOF 7
ENDMDL
MODEL 2
REMARK VINA RESULT:    -6.364      0.192      1.816
REMARK INTER + INTRA:          -8.232
REMARK INTER:                  -7.847
REMARK INTRA:                  -0.385
REMARK UNBOUND:                -0.380
REMARK SMILES Oc1cc(O)c2cc(O)c(-c3cc(O)c(O)c(O)c3)[o+]c2c1
REMARK SMILES IDX 10 1 20 2 21 3 22 4 2 5 3 6 4 7 6 8 7 9 8 10 11 11 12 12
REMARK SMILES IDX 13 13 19 14 15 15 17 16 14 17 16 19 18 21 9 23 1 25 5 27
REMARK H PARENT 14 18 16 20 18 22 9 24 1 26 5 28
REMARK Flexibility Score: inf
ROOT
ATOM      1  C   UNL     1       6.795  -1.077  -0.804  1.00  0.00     0.402 A 
ATOM      2  O   UNL     1       7.620  -0.041  -0.685  1.00  0.00    -0.202 OA
ATOM      3  C   UNL     1       7.824   0.845  -1.655  1.00  0.00     0.368 A 
ATOM      4  C   UNL     1       8.709   1.903  -1.434  1.00  0.00     0.162 A 
ATOM      5  C   UNL     1       8.940   2.850  -2.432  1.00  0.00     0.128 A 
ATOM      6  C   UNL     1       8.280   2.741  -3.662  1.00  0.00     0.093 A 
ATOM      7  C   UNL     1       7.389   1.689  -3.908  1.00  0.00     0.136 A 
ATOM      8  C   UNL     1       7.153   0.723  -2.895  1.00  0.00     0.125 A 
ATOM      9  C   UNL     1       6.287  -0.371  -3.058  1.00  0.00     0.078 A 
ATOM     10  C   UNL     1       6.109  -1.285  -2.016  1.00  0.00     0.223 A 
ENDROOT
BRANCH   1  11
ATOM     11  C   UNL     1       6.645  -1.990   0.352  1.00  0.00     0.091 A 
ATOM     12  C   UNL     1       5.652  -1.785   1.322  1.00  0.00     0.068 A 
ATOM     13  C   UNL     1       5.540  -2.644   2.419  1.00  0.00     0.162 A 
ATOM     14  C   UNL     1       7.548  -3.051   0.515  1.00  0.00     0.068 A 
ATOM     15  C   UNL     1       6.430  -3.723   2.569  1.00  0.00     0.200 A 
ATOM     16  C   UNL     1       7.449  -3.922   1.606  1.00  0.00     0.162 A 
BRANCH  13  17
ATOM     17  O   UNL     1       4.533  -2.405   3.355  1.00  0.00    -0.504 OA
ATOM     18  H   UNL     1       4.437  -1.516   3.831  1.00  0.00     0.293 HD
ENDBRANCH  13  17
BRANCH  15  19
ATOM     19  O   UNL     1       6.278  -4.563   3.675  1.00  0.00    -0.502 OA
ATOM     20  H   UNL     1       6.568  -5.529   3.700  1.00  0.00     0.293 HD
ENDBRANCH  15  19
BRANCH  16  21
ATOM     21  O   UNL     1       8.378  -4.961   1.692  1.00  0.00    -0.504 OA
ATOM     22  H   UNL     1       8.212  -5.831   2.176  1.00  0.00     0.293 HD
ENDBRANCH  16  21
ENDBRANCH   1  11
BRANCH  10  23
ATOM     23  O   UNL     1       5.288  -2.398  -2.194  1.00  0.00    -0.500 OA
ATOM     24  H   UNL     1       4.316  -2.395  -1.907  1.00  0.00     0.294 HD
ENDBRANCH  10  23
BRANCH   5  25
ATOM     25  O   UNL     1       9.826   3.897  -2.193  1.00  0.00    -0.507 OA
ATOM     26  H   UNL     1       9.555   4.863  -2.330  1.00  0.00     0.293 HD
ENDBRANCH   5  25
BRANCH   7  27
ATOM     27  O   UNL     1       6.767   1.652  -5.160  1.00  0.00    -0.507 OA
ATOM     28  H   UNL     1       6.420   0.812  -5.599  1.00  0.00     0.293 HD
ENDBRANCH   7  27
TORSDOF 7
ENDMDL
MODEL 3
REMARK VINA RESULT:    -6.359      2.234      7.567
REMARK INTER + INTRA:          -8.226
REMARK INTER:                  -8.031
REMARK INTRA:                  -0.196
REMARK UNBOUND:                -0.380
REMARK SMILES Oc1cc(O)c2cc(O)c(-c3cc(O)c(O)c(O)c3)[o+]c2c1
REMARK SMILES IDX 10 1 20 2 21 3 22 4 2 5 3 6 4 7 6 8 7 9 8 10 11 11 12 12
REMARK SMILES IDX 13 13 19 14 15 15 17 16 14 17 16 19 18 21 9 23 1 25 5 27
REMARK H PARENT 14 18 16 20 18 22 9 24 1 26 5 28
REMARK Flexibility Score: inf
ROOT
ATOM      1  C   UNL     1       6.155  -3.434   0.132  1.00  0.00     0.402 A 
ATOM      2  O   UNL     1       7.277  -4.111   0.357  1.00  0.00    -0.202 OA
ATOM      3  C   UNL     1       7.336  -5.189   1.133  1.00  0.00     0.368 A 
ATOM      4  C   UNL     1       8.563  -5.834   1.306  1.00  0.00     0.162 A 
ATOM      5  C   UNL     1       8.654  -6.970   2.112  1.00  0.00     0.128 A 
ATOM      6  C   UNL     1       7.511  -7.466   2.750  1.00  0.00     0.093 A 
ATOM      7  C   UNL     1       6.270  -6.836   2.592  1.00  0.00     0.136 A 
ATOM      8  C   UNL     1       6.174  -5.680   1.774  1.00  0.00     0.125 A 
ATOM      9  C   UNL     1       4.976  -4.977   1.569  1.00  0.00     0.078 A 
ATOM     10  C   UNL     1       4.960  -3.842   0.753  1.00  0.00     0.223 A 
ENDROOT
BRANCH   1  11
ATOM     11  C   UNL     1       6.215  -2.254  -0.761  1.00  0.00     0.091 A 
ATOM     12  C   UNL     1       5.433  -2.175  -1.923  1.00  0.00     0.068 A 
ATOM     13  C   UNL     1       5.519  -1.063  -2.766  1.00  0.00     0.162 A 
ATOM     14  C   UNL     1       7.113  -1.217  -0.473  1.00  0.00     0.068 A 
ATOM     15  C   UNL     1       6.403  -0.011  -2.464  1.00  0.00     0.200 A 
ATOM     16  C   UNL     1       7.212  -0.096  -1.305  1.00  0.00     0.162 A 
BRANCH  13  17
ATOM     17  O   UNL     1       4.717  -1.025  -3.907  1.00  0.00    -0.504 OA
ATOM     18  H   UNL     1       3.729  -1.248  -3.882  1.00  0.00     0.293 HD
ENDBRANCH  13  17
BRANCH  15  19
ATOM     19  O   UNL     1       6.452   1.085  -3.328  1.00  0.00    -0.502 OA
ATOM     20  H   UNL     1       7.295   1.594  -3.554  1.00  0.00     0.293 HD
ENDBRANCH  15  19
BRANCH  16  21
ATOM     21  O   UNL     1       8.122   0.901  -0.945  1.00  0.00    -0.504 OA
ATOM     22  H   UNL     1       8.181   1.308  -0.023  1.00  0.00     0.293 HD
ENDBRANCH  16  21
ENDBRANCH   1  11
BRANCH  10  23
ATOM     23  O   UNL     1       3.780  -3.115   0.589  1.00  0.00    -0.500 OA
ATOM     24  H   UNL     1       3.381  -2.571   1.344  1.00  0.00     0.294 HD
ENDBRANCH  10  23
BRANCH   5  25
ATOM     25  O   UNL     1       9.886  -7.600   2.274  1.00  0.00    -0.507 OA
ATOM     26  H   UNL     1      10.003  -8.590   2.092  1.00  0.00     0.293 HD
ENDBRANCH   5  25
BRANCH   7  27
ATOM     27  O   UNL     1       5.176  -7.395   3.258  1.00  0.00    -0.507 OA
ATOM     28  H   UNL     1       4.304  -7.644   2.814  1.00  0.00     0.293 HD
ENDBRANCH   7  27
TORSDOF 7
ENDMDL
MODEL 4
REMARK VINA RESULT:    -6.166      5.184      6.835
REMARK INTER + INTRA:          -7.988
REMARK INTER:                  -7.728
REMARK INTRA:                  -0.260
REMARK UNBOUND:                -0.380
REMARK SMILES Oc1cc(O)c2cc(O)c(-c3cc(O)c(O)c(O)c3)[o+]c2c1
REMARK SMILES IDX 10 1 20 2 21 3 22 4 2 5 3 6 4 7 6 8 7 9 8 10 11 11 12 12
REMARK SMILES IDX 13 13 19 14 15 15 17 16 14 17 16 19 18 21 9 23 1 25 5 27
REMARK H PARENT 14 18 16 20 18 22 9 24 1 26 5 28
REMARK Flexibility Score: inf
ROOT
ATOM      1  C   UNL     1       6.594  -5.046   0.845  1.00  0.00     0.402 A 
ATOM      2  O   UNL     1       6.862  -5.103  -0.456  1.00  0.00    -0.202 OA
ATOM      3  C   UNL     1       7.862  -5.815  -0.964  1.00  0.00     0.368 A 
ATOM      4  C   UNL     1       8.063  -5.815  -2.347  1.00  0.00     0.162 A 
ATOM      5  C   UNL     1       9.103  -6.556  -2.909  1.00  0.00     0.128 A 
ATOM      6  C   UNL     1       9.950  -7.306  -2.084  1.00  0.00     0.093 A 
ATOM      7  C   UNL     1       9.769  -7.323  -0.695  1.00  0.00     0.136 A 
ATOM      8  C   UNL     1       8.714  -6.568  -0.120  1.00  0.00     0.125 A 
ATOM      9  C   UNL     1       8.466  -6.515   1.261  1.00  0.00     0.078 A 
ATOM     10  C   UNL     1       7.409  -5.746   1.755  1.00  0.00     0.223 A 
ENDROOT
BRANCH   1  11
ATOM     11  C   UNL     1       5.445  -4.224   1.289  1.00  0.00     0.091 A 
ATOM     12  C   UNL     1       4.124  -4.587   0.983  1.00  0.00     0.068 A 
ATOM     13  C   UNL     1       3.053  -3.787   1.390  1.00  0.00     0.162 A 
ATOM     14  C   UNL     1       5.679  -3.027   1.980  1.00  0.00     0.068 A 
ATOM     15  C   UNL     1       3.287  -2.599   2.105  1.00  0.00     0.200 A 
ATOM     16  C   UNL     1       4.618  -2.215   2.397  1.00  0.00     0.162 A 
BRANCH  13  17
ATOM     17  O   UNL     1       1.757  -4.192   1.070  1.00  0.00    -0.504 OA
ATOM     18  H   UNL     1       1.376  -5.079   1.375  1.00  0.00     0.293 HD
ENDBRANCH  13  17
BRANCH  15  19
ATOM     19  O   UNL     1       2.188  -1.833   2.501  1.00  0.00    -0.502 OA
ATOM     20  H   UNL     1       2.062  -0.858   2.271  1.00  0.00     0.293 HD
ENDBRANCH  15  19
BRANCH  16  21
ATOM     21  O   UNL     1       4.932  -1.043   3.090  1.00  0.00    -0.504 OA
ATOM     22  H   UNL     1       5.560  -1.004   3.879  1.00  0.00     0.293 HD
ENDBRANCH  16  21
ENDBRANCH   1  11
BRANCH  10  23
ATOM     23  O   UNL     1       7.194  -5.653   3.130  1.00  0.00    -0.500 OA
ATOM     24  H   UNL     1       6.604  -6.313   3.622  1.00  0.00     0.294 HD
ENDBRANCH  10  23
BRANCH   5  25
ATOM     25  O   UNL     1       9.288  -6.542  -4.289  1.00  0.00    -0.507 OA
ATOM     26  H   UNL     1       8.675  -7.056  -4.912  1.00  0.00     0.293 HD
ENDBRANCH   5  25
BRANCH   7  27
ATOM     27  O   UNL     1      10.654  -8.099   0.059  1.00  0.00    -0.507 OA
ATOM     28  H   UNL     1      11.428  -7.727   0.590  1.00  0.00     0.293 HD
ENDBRANCH   7  27
TORSDOF 7
ENDMDL
MODEL 5
REMARK VINA RESULT:    -6.166      1.829      7.212
REMARK INTER + INTRA:          -7.987
REMARK INTER:                  -7.793
REMARK INTRA:                  -0.194
REMARK UNBOUND:                -0.380
REMARK SMILES Oc1cc(O)c2cc(O)c(-c3cc(O)c(O)c(O)c3)[o+]c2c1
REMARK SMILES IDX 10 1 20 2 21 3 22 4 2 5 3 6 4 7 6 8 7 9 8 10 11 11 12 12
REMARK SMILES IDX 13 13 19 14 15 15 17 16 14 17 16 19 18 21 9 23 1 25 5 27
REMARK H PARENT 14 18 16 20 18 22 9 24 1 26 5 28
REMARK Flexibility Score: inf
ROOT
ATOM      1  C   UNL     1       6.597  -2.211  -0.893  1.00  0.00     0.402 A 
ATOM      2  O   UNL     1       5.969  -2.207   0.279  1.00  0.00    -0.202 OA
ATOM      3  C   UNL     1       5.771  -3.302   1.005  1.00  0.00     0.368 A 
ATOM      4  C   UNL     1       5.101  -3.197   2.226  1.00  0.00     0.162 A 
ATOM      5  C   UNL     1       4.883  -4.330   3.011  1.00  0.00     0.128 A 
ATOM      6  C   UNL     1       5.338  -5.579   2.573  1.00  0.00     0.093 A 
ATOM      7  C   UNL     1       6.011  -5.711   1.352  1.00  0.00     0.136 A 
ATOM      8  C   UNL     1       6.234  -4.561   0.551  1.00  0.00     0.125 A 
ATOM      9  C   UNL     1       6.887  -4.601  -0.692  1.00  0.00     0.078 A 
ATOM     10  C   UNL     1       7.065  -3.426  -1.428  1.00  0.00     0.223 A 
ENDROOT
BRANCH   1  11
ATOM     11  C   UNL     1       6.764  -0.922  -1.603  1.00  0.00     0.091 A 
ATOM     12  C   UNL     1       6.185  -0.700  -2.862  1.00  0.00     0.068 A 
ATOM     13  C   UNL     1       6.373   0.515  -3.528  1.00  0.00     0.162 A 
ATOM     14  C   UNL     1       7.565   0.080  -1.035  1.00  0.00     0.068 A 
ATOM     15  C   UNL     1       7.155   1.529  -2.947  1.00  0.00     0.200 A 
ATOM     16  C   UNL     1       7.762   1.302  -1.688  1.00  0.00     0.162 A 
BRANCH  13  17
ATOM     17  O   UNL     1       5.772   0.693  -4.775  1.00  0.00    -0.504 OA
ATOM     18  H   UNL     1       6.159   0.299  -5.623  1.00  0.00     0.293 HD
ENDBRANCH  13  17
BRANCH  15  19
ATOM     19  O   UNL     1       7.310   2.731  -3.642  1.00  0.00    -0.502 OA
ATOM     20  H   UNL     1       6.546   3.333  -3.915  1.00  0.00     0.293 HD
ENDBRANCH  15  19
BRANCH  16  21
ATOM     21  O   UNL     1       8.562   2.254  -1.052  1.00  0.00    -0.504 OA
ATOM     22  H   UNL     1       8.204   3.008  -0.485  1.00  0.00     0.293 HD
ENDBRANCH  16  21
ENDBRANCH   1  11
BRANCH  10  23
ATOM     23  O   UNL     1       7.670  -3.472  -2.684  1.00  0.00    -0.500 OA
ATOM     24  H   UNL     1       8.533  -3.978  -2.841  1.00  0.00     0.294 HD
ENDBRANCH  10  23
BRANCH   5  25
ATOM     25  O   UNL     1       4.213  -4.205   4.225  1.00  0.00    -0.507 OA
ATOM     26  H   UNL     1       4.088  -3.304   4.672  1.00  0.00     0.293 HD
ENDBRANCH   5  25
BRANCH   7  27
ATOM     27  O   UNL     1       6.437  -6.992   0.988  1.00  0.00    -0.507 OA
ATOM     28  H   UNL     1       6.216  -7.833   1.500  1.00  0.00     0.293 HD
ENDBRANCH   7  27
TORSDOF 7
ENDMDL
MODEL 6
REMARK VINA RESULT:    -6.152      1.875      2.328
REMARK INTER + INTRA:          -7.970
REMARK INTER:                  -7.605
REMARK INTRA:                  -0.365
REMARK UNBOUND:                -0.380
REMARK SMILES Oc1cc(O)c2cc(O)c(-c3cc(O)c(O)c(O)c3)[o+]c2c1
REMARK SMILES IDX 10 1 20 2 21 3 22 4 2 5 3 6 4 7 6 8 7 9 8 10 11 11 12 12
REMARK SMILES IDX 13 13 19 14 15 15 17 16 14 17 16 19 18 21 9 23 1 25 5 27
REMARK H PARENT 14 18 16 20 18 22 9 24 1 26 5 28
REMARK Flexibility Score: inf
ROOT
ATOM      1  C   UNL     1       6.139  -2.524  -0.865  1.00  0.00     0.402 A 
ATOM      2  O   UNL     1       6.233  -1.213  -1.068  1.00  0.00    -0.202 OA
ATOM      3  C   UNL     1       6.668  -0.680  -2.205  1.00  0.00     0.368 A 
ATOM      4  C   UNL     1       6.729   0.711  -2.325  1.00  0.00     0.162 A 
ATOM      5  C   UNL     1       7.177   1.298  -3.508  1.00  0.00     0.128 A 
ATOM      6  C   UNL     1       7.567   0.490  -4.583  1.00  0.00     0.093 A 
ATOM      7  C   UNL     1       7.515  -0.906  -4.488  1.00  0.00     0.136 A 
ATOM      8  C   UNL     1       7.062  -1.507  -3.285  1.00  0.00     0.125 A 
ATOM      9  C   UNL     1       6.989  -2.897  -3.095  1.00  0.00     0.078 A 
ATOM     10  C   UNL     1       6.536  -3.416  -1.879  1.00  0.00     0.223 A 
ENDROOT
BRANCH   1  11
ATOM     11  C   UNL     1       5.631  -2.996   0.444  1.00  0.00     0.091 A 
ATOM     12  C   UNL     1       6.504  -3.377   1.474  1.00  0.00     0.068 A 
ATOM     13  C   UNL     1       6.007  -3.841   2.695  1.00  0.00     0.162 A 
ATOM     14  C   UNL     1       4.248  -3.120   0.643  1.00  0.00     0.068 A 
ATOM     15  C   UNL     1       4.619  -3.943   2.903  1.00  0.00     0.200 A 
ATOM     16  C   UNL     1       3.733  -3.582   1.859  1.00  0.00     0.162 A 
BRANCH  13  17
ATOM     17  O   UNL     1       6.913  -4.203   3.692  1.00  0.00    -0.504 OA
ATOM     18  H   UNL     1       7.369  -3.518   4.283  1.00  0.00     0.293 HD
ENDBRANCH  13  17
BRANCH  15  19
ATOM     19  O   UNL     1       4.164  -4.403   4.140  1.00  0.00    -0.502 OA
ATOM     20  H   UNL     1       4.180  -5.371   4.428  1.00  0.00     0.293 HD
ENDBRANCH  15  19
BRANCH  16  21
ATOM     21  O   UNL     1       2.344  -3.666   1.984  1.00  0.00    -0.504 OA
ATOM     22  H   UNL     1       1.867  -4.343   2.560  1.00  0.00     0.293 HD
ENDBRANCH  16  21
ENDBRANCH   1  11
BRANCH  10  23
ATOM     23  O   UNL     1       6.511  -4.795  -1.672  1.00  0.00    -0.500 OA
ATOM     24  H   UNL     1       6.539  -5.450  -2.445  1.00  0.00     0.294 HD
ENDBRANCH  10  23
BRANCH   5  25
ATOM     25  O   UNL     1       7.231   2.686  -3.608  1.00  0.00    -0.507 OA
ATOM     26  H   UNL     1       7.951   3.223  -3.140  1.00  0.00     0.293 HD
ENDBRANCH   5  25
BRANCH   7  27
ATOM     27  O   UNL     1       7.918  -1.643  -5.606  1.00  0.00    -0.507 OA
ATOM     28  H   UNL     1       7.454  -2.476  -5.937  1.00  0.00     0.293 HD
ENDBRANCH   7  27
TORSDOF 7
ENDMDL
MODEL 7
REMARK VINA RESULT:    -6.098      1.888      2.802
REMARK INTER + INTRA:          -7.904
REMARK INTER:                  -7.542
REMARK INTRA:                  -0.362
REMARK UNBOUND:                -0.380
REMARK SMILES Oc1cc(O)c2cc(O)c(-c3cc(O)c(O)c(O)c3)[o+]c2c1
REMARK SMILES IDX 10 1 20 2 21 3 22 4 2 5 3 6 4 7 6 8 7 9 8 10 11 11 12 12
REMARK SMILES IDX 13 13 19 14 15 15 17 16 14 17 16 19 18 21 9 23 1 25 5 27
REMARK H PARENT 14 18 16 20 18 22 9 24 1 26 5 28
REMARK Flexibility Score: inf
ROOT
ATOM      1  C   UNL     1       6.101  -2.613  -0.884  1.00  0.00     0.402 A 
ATOM      2  O   UNL     1       6.197  -1.300  -1.076  1.00  0.00    -0.202 OA
ATOM      3  C   UNL     1       6.635  -0.758  -2.208  1.00  0.00     0.368 A 
ATOM      4  C   UNL     1       6.697   0.633  -2.315  1.00  0.00     0.162 A 
ATOM      5  C   UNL     1       7.149   1.231  -3.493  1.00  0.00     0.128 A 
ATOM      6  C   UNL     1       7.541   0.432  -4.573  1.00  0.00     0.093 A 
ATOM      7  C   UNL     1       7.489  -0.966  -4.490  1.00  0.00     0.136 A 
ATOM      8  C   UNL     1       7.031  -1.576  -3.293  1.00  0.00     0.125 A 
ATOM      9  C   UNL     1       6.957  -2.967  -3.116  1.00  0.00     0.078 A 
ATOM     10  C   UNL     1       6.500  -3.496  -1.905  1.00  0.00     0.223 A 
ENDROOT
BRANCH   1  11
ATOM     11  C   UNL     1       5.589  -3.095   0.418  1.00  0.00     0.091 A 
ATOM     12  C   UNL     1       4.213  -3.152   0.689  1.00  0.00     0.068 A 
ATOM     13  C   UNL     1       3.748  -3.588   1.932  1.00  0.00     0.162 A 
ATOM     14  C   UNL     1       6.496  -3.451   1.427  1.00  0.00     0.068 A 
ATOM     15  C   UNL     1       4.658  -3.968   2.936  1.00  0.00     0.200 A 
ATOM     16  C   UNL     1       6.048  -3.891   2.678  1.00  0.00     0.162 A 
BRANCH  13  17
ATOM     17  O   UNL     1       2.371  -3.634   2.153  1.00  0.00    -0.504 OA
ATOM     18  H   UNL     1       1.834  -2.809   2.390  1.00  0.00     0.293 HD
ENDBRANCH  13  17
BRANCH  15  19
ATOM     19  O   UNL     1       4.151  -4.407   4.162  1.00  0.00    -0.502 OA
ATOM     20  H   UNL     1       4.169  -5.367   4.474  1.00  0.00     0.293 HD
ENDBRANCH  15  19
BRANCH  16  21
ATOM     21  O   UNL     1       7.013  -4.239   3.627  1.00  0.00    -0.504 OA
ATOM     22  H   UNL     1       7.855  -3.709   3.798  1.00  0.00     0.293 HD
ENDBRANCH  16  21
ENDBRANCH   1  11
BRANCH  10  23
ATOM     23  O   UNL     1       6.473  -4.877  -1.711  1.00  0.00    -0.500 OA
ATOM     24  H   UNL     1       5.883  -5.482  -2.269  1.00  0.00     0.294 HD
ENDBRANCH  10  23
BRANCH   5  25
ATOM     25  O   UNL     1       7.205   2.619  -3.581  1.00  0.00    -0.507 OA
ATOM     26  H   UNL     1       6.772   3.120  -4.348  1.00  0.00     0.293 HD
ENDBRANCH   5  25
BRANCH   7  27
ATOM     27  O   UNL     1       7.894  -1.693  -5.613  1.00  0.00    -0.507 OA
ATOM     28  H   UNL     1       7.345  -2.418  -6.051  1.00  0.00     0.293 HD
ENDBRANCH   7  27
TORSDOF 7
ENDMDL
MODEL 8
REMARK VINA RESULT:    -6.030      1.797      7.188
REMARK INTER + INTRA:          -7.820
REMARK INTER:                  -7.607
REMARK INTRA:                  -0.212
REMARK UNBOUND:                -0.380
REMARK SMILES Oc1cc(O)c2cc(O)c(-c3cc(O)c(O)c(O)c3)[o+]c2c1
REMARK SMILES IDX 10 1 20 2 21 3 22 4 2 5 3 6 4 7 6 8 7 9 8 10 11 11 12 12
REMARK SMILES IDX 13 13 19 14 15 15 17 16 14 17 16 19 18 21 9 23 1 25 5 27
REMARK H PARENT 14 18 16 20 18 22 9 24 1 26 5 28
REMARK Flexibility Score: inf
ROOT
ATOM      1  C   UNL     1       6.565  -2.095  -1.052  1.00  0.00     0.402 A 
ATOM      2  O   UNL     1       5.901  -2.044   0.100  1.00  0.00    -0.202 OA
ATOM      3  C   UNL     1       5.644  -3.115   0.842  1.00  0.00     0.368 A 
ATOM      4  C   UNL     1       4.941  -2.960   2.040  1.00  0.00     0.162 A 
ATOM      5  C   UNL     1       4.660  -4.067   2.842  1.00  0.00     0.128 A 
ATOM      6  C   UNL     1       5.086  -5.340   2.446  1.00  0.00     0.093 A 
ATOM      7  C   UNL     1       5.791  -5.522   1.250  1.00  0.00     0.136 A 
ATOM      8  C   UNL     1       6.077  -4.399   0.431  1.00  0.00     0.125 A 
ATOM      9  C   UNL     1       6.767  -4.488  -0.790  1.00  0.00     0.078 A 
ATOM     10  C   UNL     1       7.008  -3.337  -1.545  1.00  0.00     0.223 A 
ENDROOT
BRANCH   1  11
ATOM     11  C   UNL     1       6.798  -0.830  -1.784  1.00  0.00     0.091 A 
ATOM     12  C   UNL     1       7.579   0.200  -1.237  1.00  0.00     0.068 A 
ATOM     13  C   UNL     1       7.769   1.397  -1.933  1.00  0.00     0.162 A 
ATOM     14  C   UNL     1       6.179  -0.628  -3.027  1.00  0.00     0.068 A 
ATOM     15  C   UNL     1       7.169   1.590  -3.190  1.00  0.00     0.200 A 
ATOM     16  C   UNL     1       6.360   0.564  -3.737  1.00  0.00     0.162 A 
BRANCH  13  17
ATOM     17  O   UNL     1       8.559   2.389  -1.352  1.00  0.00    -0.504 OA
ATOM     18  H   UNL     1       8.403   2.722  -0.408  1.00  0.00     0.293 HD
ENDBRANCH  13  17
BRANCH  15  19
ATOM     19  O   UNL     1       7.391   2.797  -3.856  1.00  0.00    -0.502 OA
ATOM     20  H   UNL     1       8.236   3.346  -3.772  1.00  0.00     0.293 HD
ENDBRANCH  15  19
BRANCH  16  21
ATOM     21  O   UNL     1       5.720   0.685  -4.974  1.00  0.00    -0.504 OA
ATOM     22  H   UNL     1       5.949   0.133  -5.786  1.00  0.00     0.293 HD
ENDBRANCH  16  21
ENDBRANCH   1  11
BRANCH  10  23
ATOM     23  O   UNL     1       7.649  -3.432  -2.780  1.00  0.00    -0.500 OA
ATOM     24  H   UNL     1       8.509  -2.934  -2.974  1.00  0.00     0.294 HD
ENDBRANCH  10  23
BRANCH   5  25
ATOM     25  O   UNL     1       3.958  -3.892   4.031  1.00  0.00    -0.507 OA
ATOM     26  H   UNL     1       3.478  -3.024   4.241  1.00  0.00     0.293 HD
ENDBRANCH   5  25
BRANCH   7  27
ATOM     27  O   UNL     1       6.184  -6.824   0.926  1.00  0.00    -0.507 OA
ATOM     28  H   UNL     1       7.142  -7.142   0.908  1.00  0.00     0.293 HD
ENDBRANCH   7  27
TORSDOF 7
ENDMDL
MODEL 9
REMARK VINA RESULT:    -5.993      2.314      3.779
REMARK INTER + INTRA:          -7.774
REMARK INTER:                  -7.415
REMARK INTRA:                  -0.359
REMARK UNBOUND:                -0.380
REMARK SMILES Oc1cc(O)c2cc(O)c(-c3cc(O)c(O)c(O)c3)[o+]c2c1
REMARK SMILES IDX 10 1 20 2 21 3 22 4 2 5 3 6 4 7 6 8 7 9 8 10 11 11 12 12
REMARK SMILES IDX 13 13 19 14 15 15 17 16 14 17 16 19 18 21 9 23 1 25 5 27
REMARK H PARENT 14 18 16 20 18 22 9 24 1 26 5 28
REMARK Flexibility Score: inf
ROOT
ATOM      1  C   UNL     1       7.005  -3.316  -0.284  1.00  0.00     0.402 A 
ATOM      2  O   UNL     1       6.829  -3.429  -1.598  1.00  0.00    -0.202 OA
ATOM      3  C   UNL     1       6.686  -2.385  -2.407  1.00  0.00     0.368 A 
ATOM      4  C   UNL     1       6.508  -2.605  -3.776  1.00  0.00     0.162 A 
ATOM      5  C   UNL     1       6.359  -1.528  -4.650  1.00  0.00     0.128 A 
ATOM      6  C   UNL     1       6.389  -0.219  -4.155  1.00  0.00     0.093 A 
ATOM      7  C   UNL     1       6.566   0.028  -2.787  1.00  0.00     0.136 A 
ATOM      8  C   UNL     1       6.716  -1.065  -1.895  1.00  0.00     0.125 A 
ATOM      9  C   UNL     1       6.885  -0.913  -0.509  1.00  0.00     0.078 A 
ATOM     10  C   UNL     1       7.022  -2.039   0.308  1.00  0.00     0.223 A 
ENDROOT
BRANCH   1  11
ATOM     11  C   UNL     1       7.162  -4.555   0.511  1.00  0.00     0.091 A 
ATOM     12  C   UNL     1       8.421  -4.983   0.959  1.00  0.00     0.068 A 
ATOM     13  C   UNL     1       8.553  -6.167   1.689  1.00  0.00     0.162 A 
ATOM     14  C   UNL     1       6.039  -5.351   0.776  1.00  0.00     0.068 A 
ATOM     15  C   UNL     1       7.423  -6.953   1.976  1.00  0.00     0.200 A 
ATOM     16  C   UNL     1       6.152  -6.539   1.507  1.00  0.00     0.162 A 
BRANCH  13  17
ATOM     17  O   UNL     1       9.825  -6.549   2.120  1.00  0.00    -0.504 OA
ATOM     18  H   UNL     1      10.635  -6.511   1.514  1.00  0.00     0.293 HD
ENDBRANCH  13  17
BRANCH  15  19
ATOM     19  O   UNL     1       7.597  -8.125   2.716  1.00  0.00    -0.502 OA
ATOM     20  H   UNL     1       6.847  -8.631   3.166  1.00  0.00     0.293 HD
ENDBRANCH  15  19
BRANCH  16  21
ATOM     21  O   UNL     1       4.985  -7.271   1.740  1.00  0.00    -0.504 OA
ATOM     22  H   UNL     1       4.880  -8.252   1.526  1.00  0.00     0.293 HD
ENDBRANCH  16  21
ENDBRANCH   1  11
BRANCH  10  23
ATOM     23  O   UNL     1       7.139  -1.890   1.690  1.00  0.00    -0.500 OA
ATOM     24  H   UNL     1       7.303  -2.683   2.299  1.00  0.00     0.294 HD
ENDBRANCH  10  23
BRANCH   5  25
ATOM     25  O   UNL     1       6.182  -1.767  -6.010  1.00  0.00    -0.507 OA
ATOM     26  H   UNL     1       6.497  -1.106  -6.710  1.00  0.00     0.293 HD
ENDBRANCH   5  25
BRANCH   7  27
ATOM     27  O   UNL     1       6.589   1.363  -2.372  1.00  0.00    -0.507 OA
ATOM     28  H   UNL     1       6.113   1.714  -1.554  1.00  0.00     0.293 HD
ENDBRANCH   7  27
TORSDOF 7
ENDMDL
