MODEL 1
REMARK VINA RESULT:    -3.106      0.000      0.000
REMARK INTER + INTRA:          -6.051
REMARK INTER:                  -4.923
REMARK INTRA:                  -1.128
REMARK UNBOUND:                -1.128
REMARK SMILES CCCCCCCCCCCC(=O)[O-]
REMARK SMILES IDX 7 1 8 2 9 3 10 4 11 5 12 6 13 7 14 8 6 9 5 10 4 11 3 12 2 13
REMARK SMILES IDX 1 14
REMARK H PARENT
REMARK Flexibility Score: inf
ROOT
ATOM      1  C   UNL     1       3.945  68.993  22.626  1.00  0.00     0.000 C 
ENDROOT
BRANCH   1   2
ATOM      2  C   UNL     1       4.401  69.480  21.244  1.00  0.00     0.000 C 
BRANCH   2   3
ATOM      3  C   UNL     1       3.897  68.547  20.137  1.00  0.00     0.000 C 
BRANCH   3   4
ATOM      4  C   UNL     1       2.834  69.242  19.273  1.00  0.00     0.006 C 
BRANCH   4   5
ATOM      5  C   UNL     1       2.938  70.772  19.342  1.00  0.00     0.053 C 
BRANCH   5   6
ATOM      6  C   UNL     1       1.608  71.428  19.132  1.00  0.00     0.041 C 
ATOM      7  O   UNL     1       0.616  70.747  18.763  1.00  0.00    -0.550 OA
ATOM      8  O   UNL     1       1.457  72.787  19.375  1.00  0.00    -0.550 OA
ENDBRANCH   5   6
ENDBRANCH   4   5
ENDBRANCH   3   4
ENDBRANCH   2   3
ENDBRANCH   1   2
BRANCH   1   9
ATOM      9  C   UNL     1       5.029  69.248  23.684  1.00  0.00     0.000 C 
BRANCH   9  10
ATOM     10  C   UNL     1       6.441  69.298  23.081  1.00  0.00    -0.000 C 
BRANCH  10  11
ATOM     11  C   UNL     1       7.176  67.949  23.183  1.00  0.00    -0.000 C 
BRANCH  11  12
ATOM     12  C   UNL     1       7.327  67.247  21.821  1.00  0.00    -0.000 C 
BRANCH  12  13
ATOM     13  C   UNL     1       6.622  65.883  21.719  1.00  0.00    -0.003 C 
ATOM     14  C   UNL     1       5.627  65.638  22.853  1.00  0.00     0.004 C 
ENDBRANCH  12  13
ENDBRANCH  11  12
ENDBRANCH  10  11
ENDBRANCH   9  10
ENDBRANCH   1   9
TORSDOF 10
ENDMDL
MODEL 2
REMARK VINA RESULT:    -3.011     13.232     15.103
REMARK INTER + INTRA:          -5.899
REMARK INTER:                  -4.759
REMARK INTRA:                  -1.140
REMARK UNBOUND:                -1.128
REMARK SMILES CCCCCCCCCCCC(=O)[O-]
REMARK SMILES IDX 7 1 8 2 9 3 10 4 11 5 12 6 13 7 14 8 6 9 5 10 4 11 3 12 2 13
REMARK SMILES IDX 1 14
REMARK H PARENT
REMARK Flexibility Score: inf
ROOT
ATOM      1  C   UNL     1       0.295  66.053   7.221  1.00  0.00     0.000 C 
ENDROOT
BRANCH   1   2
ATOM      2  C   UNL     1       1.222  67.202   6.802  1.00  0.00     0.000 C 
BRANCH   2   3
ATOM      3  C   UNL     1       2.003  66.844   5.533  1.00  0.00     0.000 C 
BRANCH   3   4
ATOM      4  C   UNL     1       3.331  66.155   5.880  1.00  0.00     0.006 C 
BRANCH   4   5
ATOM      5  C   UNL     1       4.508  67.138   5.902  1.00  0.00     0.053 C 
BRANCH   5   6
ATOM      6  C   UNL     1       5.501  66.840   4.820  1.00  0.00     0.041 C 
ATOM      7  O   UNL     1       5.245  65.969   3.947  1.00  0.00    -0.550 OA
ATOM      8  O   UNL     1       6.694  67.548   4.756  1.00  0.00    -0.550 OA
ENDBRANCH   5   6
ENDBRANCH   4   5
ENDBRANCH   3   4
ENDBRANCH   2   3
ENDBRANCH   1   2
BRANCH   1   9
ATOM      9  C   UNL     1       0.162  65.985   8.749  1.00  0.00     0.000 C 
BRANCH   9  10
ATOM     10  C   UNL     1       1.493  66.250   9.470  1.00  0.00    -0.000 C 
BRANCH  10  11
ATOM     11  C   UNL     1       2.163  64.957   9.969  1.00  0.00    -0.000 C 
BRANCH  11  12
ATOM     12  C   UNL     1       2.991  64.254   8.877  1.00  0.00    -0.000 C 
BRANCH  12  13
ATOM     13  C   UNL     1       2.597  62.790   8.612  1.00  0.00    -0.003 C 
ATOM     14  C   UNL     1       1.295  62.655   7.822  1.00  0.00     0.004 C 
ENDBRANCH  12  13
ENDBRANCH  11  12
ENDBRANCH  10  11
ENDBRANCH   9  10
ENDBRANCH   1   9
TORSDOF 10
ENDMDL
MODEL 3
REMARK VINA RESULT:    -3.003     14.412     16.048
REMARK INTER + INTRA:          -5.888
REMARK INTER:                  -4.755
REMARK INTRA:                  -1.132
REMARK UNBOUND:                -1.128
REMARK SMILES CCCCCCCCCCCC(=O)[O-]
REMARK SMILES IDX 7 1 8 2 9 3 10 4 11 5 12 6 13 7 14 8 6 9 5 10 4 11 3 12 2 13
REMARK SMILES IDX 1 14
REMARK H PARENT
REMARK Flexibility Score: inf
ROOT
ATOM      1  C   UNL     1       2.285  66.912   5.187  1.00  0.00     0.000 C 
ENDROOT
BRANCH   1   2
ATOM      2  C   UNL     1       2.387  67.558   6.575  1.00  0.00     0.000 C 
BRANCH   2   3
ATOM      3  C   UNL     1       3.356  66.782   7.473  1.00  0.00     0.000 C 
BRANCH   3   4
ATOM      4  C   UNL     1       3.189  65.267   7.284  1.00  0.00     0.006 C 
BRANCH   4   5
ATOM      5  C   UNL     1       1.956  64.722   8.016  1.00  0.00     0.053 C 
BRANCH   5   6
ATOM      6  C   UNL     1       2.031  63.238   8.202  1.00  0.00     0.041 C 
ATOM      7  O   UNL     1       3.048  62.715   8.730  1.00  0.00    -0.550 OA
ATOM      8  O   UNL     1       0.965  62.433   7.821  1.00  0.00    -0.550 OA
ENDBRANCH   5   6
ENDBRANCH   4   5
ENDBRANCH   3   4
ENDBRANCH   2   3
ENDBRANCH   1   2
BRANCH   1   9
ATOM      9  C   UNL     1       3.423  67.390   4.273  1.00  0.00     0.000 C 
BRANCH   9  10
ATOM     10  C   UNL     1       4.443  66.281   3.973  1.00  0.00    -0.000 C 
BRANCH  10  11
ATOM     11  C   UNL     1       5.858  66.627   4.471  1.00  0.00    -0.000 C 
BRANCH  11  12
ATOM     12  C   UNL     1       6.224  68.106   4.246  1.00  0.00    -0.000 C 
BRANCH  12  13
ATOM     13  C   UNL     1       6.801  68.822   5.481  1.00  0.00    -0.003 C 
ATOM     14  C   UNL     1       5.721  69.414   6.386  1.00  0.00     0.004 C 
ENDBRANCH  12  13
ENDBRANCH  11  12
ENDBRANCH  10  11
ENDBRANCH   9  10
ENDBRANCH   1   9
TORSDOF 10
ENDMDL
MODEL 4
REMARK VINA RESULT:    -3.002     13.635     15.382
REMARK INTER + INTRA:          -5.885
REMARK INTER:                  -4.603
REMARK INTRA:                  -1.282
REMARK UNBOUND:                -1.128
REMARK SMILES CCCCCCCCCCCC(=O)[O-]
REMARK SMILES IDX 7 1 8 2 9 3 10 4 11 5 12 6 13 7 14 8 6 9 5 10 4 11 3 12 2 13
REMARK SMILES IDX 1 14
REMARK H PARENT
REMARK Flexibility Score: inf
ROOT
ATOM      1  C   UNL     1       3.863  66.063   6.116  1.00  0.00     0.000 C 
ENDROOT
BRANCH   1   2
ATOM      2  C   UNL     1       2.533  66.662   5.640  1.00  0.00     0.000 C 
BRANCH   2   3
ATOM      3  C   UNL     1       1.419  66.411   6.662  1.00  0.00     0.000 C 
BRANCH   3   4
ATOM      4  C   UNL     1       2.002  66.071   8.041  1.00  0.00     0.006 C 
BRANCH   4   5
ATOM      5  C   UNL     1       1.281  64.890   8.703  1.00  0.00     0.053 C 
BRANCH   5   6
ATOM      6  C   UNL     1       1.803  63.575   8.210  1.00  0.00     0.041 C 
ATOM      7  O   UNL     1       1.044  62.781   7.594  1.00  0.00    -0.550 OA
ATOM      8  O   UNL     1       3.138  63.240   8.402  1.00  0.00    -0.550 OA
ENDBRANCH   5   6
ENDBRANCH   4   5
ENDBRANCH   3   4
ENDBRANCH   2   3
ENDBRANCH   1   2
BRANCH   1   9
ATOM      9  C   UNL     1       4.995  66.388   5.131  1.00  0.00     0.000 C 
BRANCH   9  10
ATOM     10  C   UNL     1       5.115  67.893   4.846  1.00  0.00    -0.000 C 
BRANCH  10  11
ATOM     11  C   UNL     1       6.213  68.569   5.689  1.00  0.00    -0.000 C 
BRANCH  11  12
ATOM     12  C   UNL     1       5.701  69.801   6.457  1.00  0.00    -0.000 C 
BRANCH  12  13
ATOM     13  C   UNL     1       4.208  69.753   6.830  1.00  0.00    -0.003 C 
ATOM     14  C   UNL     1       3.961  69.200   8.233  1.00  0.00     0.004 C 
ENDBRANCH  12  13
ENDBRANCH  11  12
ENDBRANCH  10  11
ENDBRANCH   9  10
ENDBRANCH   1   9
TORSDOF 10
ENDMDL
MODEL 5
REMARK VINA RESULT:    -2.998      5.768      7.990
REMARK INTER + INTRA:          -5.879
REMARK INTER:                  -5.097
REMARK INTRA:                  -0.782
REMARK UNBOUND:                -1.128
REMARK SMILES CCCCCCCCCCCC(=O)[O-]
REMARK SMILES IDX 7 1 8 2 9 3 10 4 11 5 12 6 13 7 14 8 6 9 5 10 4 11 3 12 2 13
REMARK SMILES IDX 1 14
REMARK H PARENT
REMARK Flexibility Score: inf
ROOT
ATOM      1  C   UNL     1       2.128  70.012  15.214  1.00  0.00     0.000 C 
ENDROOT
BRANCH   1   2
ATOM      2  C   UNL     1       2.806  70.870  14.138  1.00  0.00     0.000 C 
BRANCH   2   3
ATOM      3  C   UNL     1       2.489  70.344  12.733  1.00  0.00     0.000 C 
BRANCH   3   4
ATOM      4  C   UNL     1       1.894  71.452  11.852  1.00  0.00     0.006 C 
BRANCH   4   5
ATOM      5  C   UNL     1       2.451  72.838  12.204  1.00  0.00     0.053 C 
BRANCH   5   6
ATOM      6  C   UNL     1       3.606  73.210  11.326  1.00  0.00     0.041 C 
ATOM      7  O   UNL     1       3.879  72.520  10.309  1.00  0.00    -0.550 OA
ATOM      8  O   UNL     1       4.362  74.339  11.614  1.00  0.00    -0.550 OA
ENDBRANCH   5   6
ENDBRANCH   4   5
ENDBRANCH   3   4
ENDBRANCH   2   3
ENDBRANCH   1   2
BRANCH   1   9
ATOM      9  C   UNL     1       3.171  69.359  16.133  1.00  0.00     0.000 C 
BRANCH   9  10
ATOM     10  C   UNL     1       2.806  69.482  17.620  1.00  0.00    -0.000 C 
BRANCH  10  11
ATOM     11  C   UNL     1       1.483  70.238  17.844  1.00  0.00    -0.000 C 
BRANCH  11  12
ATOM     12  C   UNL     1       1.640  71.448  18.783  1.00  0.00    -0.000 C 
BRANCH  12  13
ATOM     13  C   UNL     1       3.042  72.083  18.788  1.00  0.00    -0.003 C 
ATOM     14  C   UNL     1       3.113  73.382  17.986  1.00  0.00     0.004 C 
ENDBRANCH  12  13
ENDBRANCH  11  12
ENDBRANCH  10  11
ENDBRANCH   9  10
ENDBRANCH   1   9
TORSDOF 10
ENDMDL
MODEL 6
REMARK VINA RESULT:    -2.997      9.554     11.962
REMARK INTER + INTRA:          -5.877
REMARK INTER:                  -5.255
REMARK INTRA:                  -0.622
REMARK UNBOUND:                -1.128
REMARK SMILES CCCCCCCCCCCC(=O)[O-]
REMARK SMILES IDX 7 1 8 2 9 3 10 4 11 5 12 6 13 7 14 8 6 9 5 10 4 11 3 12 2 13
REMARK SMILES IDX 1 14
REMARK H PARENT
REMARK Flexibility Score: inf
ROOT
ATOM      1  C   UNL     1       2.326  65.563  11.928  1.00  0.00     0.000 C 
ENDROOT
BRANCH   1   2
ATOM      2  C   UNL     1       2.427  65.592  13.458  1.00  0.00     0.000 C 
BRANCH   2   3
ATOM      3  C   UNL     1       1.208  64.925  14.103  1.00  0.00     0.000 C 
BRANCH   3   4
ATOM      4  C   UNL     1       1.611  63.648  14.855  1.00  0.00     0.006 C 
BRANCH   4   5
ATOM      5  C   UNL     1       3.091  63.296  14.651  1.00  0.00     0.053 C 
BRANCH   5   6
ATOM      6  C   UNL     1       3.580  62.331  15.687  1.00  0.00     0.041 C 
ATOM      7  O   UNL     1       3.216  62.451  16.887  1.00  0.00    -0.550 OA
ATOM      8  O   UNL     1       4.411  61.280  15.322  1.00  0.00    -0.550 OA
ENDBRANCH   5   6
ENDBRANCH   4   5
ENDBRANCH   3   4
ENDBRANCH   2   3
ENDBRANCH   1   2
BRANCH   1   9
ATOM      9  C   UNL     1       1.144  66.412  11.439  1.00  0.00     0.000 C 
BRANCH   9  10
ATOM     10  C   UNL     1       0.867  66.230   9.939  1.00  0.00    -0.000 C 
BRANCH  10  11
ATOM     11  C   UNL     1       1.856  65.258   9.269  1.00  0.00    -0.000 C 
BRANCH  11  12
ATOM     12  C   UNL     1       1.194  64.387   8.185  1.00  0.00    -0.000 C 
BRANCH  12  13
ATOM     13  C   UNL     1       1.785  62.972   8.047  1.00  0.00    -0.003 C 
ATOM     14  C   UNL     1       2.908  62.694   9.046  1.00  0.00     0.004 C 
ENDBRANCH  12  13
ENDBRANCH  11  12
ENDBRANCH  10  11
ENDBRANCH   9  10
ENDBRANCH   1   9
TORSDOF 10
ENDMDL
MODEL 7
REMARK VINA RESULT:    -2.987      3.458      6.630
REMARK INTER + INTRA:          -5.862
REMARK INTER:                  -5.256
REMARK INTRA:                  -0.606
REMARK UNBOUND:                -1.128
REMARK SMILES CCCCCCCCCCCC(=O)[O-]
REMARK SMILES IDX 7 1 8 2 9 3 10 4 11 5 12 6 13 7 14 8 6 9 5 10 4 11 3 12 2 13
REMARK SMILES IDX 1 14
REMARK H PARENT
REMARK Flexibility Score: inf
ROOT
ATOM      1  C   UNL     1       4.867  69.563  21.454  1.00  0.00     0.000 C 
ENDROOT
BRANCH   1   2
ATOM      2  C   UNL     1       4.714  69.280  22.954  1.00  0.00     0.000 C 
BRANCH   2   3
ATOM      3  C   UNL     1       5.923  69.800  23.739  1.00  0.00     0.000 C 
BRANCH   3   4
ATOM      4  C   UNL     1       7.162  68.927  23.485  1.00  0.00     0.006 C 
BRANCH   4   5
ATOM      5  C   UNL     1       6.869  67.433  23.675  1.00  0.00     0.053 C 
BRANCH   5   6
ATOM      6  C   UNL     1       7.192  66.644  22.443  1.00  0.00     0.041 C 
ATOM      7  O   UNL     1       6.532  65.609  22.161  1.00  0.00    -0.550 OA
ATOM      8  O   UNL     1       8.202  67.069  21.589  1.00  0.00    -0.550 OA
ENDBRANCH   5   6
ENDBRANCH   4   5
ENDBRANCH   3   4
ENDBRANCH   2   3
ENDBRANCH   1   2
BRANCH   1   9
ATOM      9  C   UNL     1       3.964  68.638  20.625  1.00  0.00     0.000 C 
BRANCH   9  10
ATOM     10  C   UNL     1       3.276  69.372  19.463  1.00  0.00    -0.000 C 
BRANCH  10  11
ATOM     11  C   UNL     1       1.963  70.052  19.888  1.00  0.00    -0.000 C 
BRANCH  11  12
ATOM     12  C   UNL     1       1.465  71.084  18.859  1.00  0.00    -0.000 C 
BRANCH  12  13
ATOM     13  C   UNL     1       1.972  72.519  19.088  1.00  0.00    -0.003 C 
ATOM     14  C   UNL     1       3.117  72.904  18.151  1.00  0.00     0.004 C 
ENDBRANCH  12  13
ENDBRANCH  11  12
ENDBRANCH  10  11
ENDBRANCH   9  10
ENDBRANCH   1   9
TORSDOF 10
ENDMDL
MODEL 8
REMARK VINA RESULT:    -2.970      1.633      2.339
REMARK INTER + INTRA:          -5.834
REMARK INTER:                  -5.260
REMARK INTRA:                  -0.574
REMARK UNBOUND:                -1.128
REMARK SMILES CCCCCCCCCCCC(=O)[O-]
REMARK SMILES IDX 7 1 8 2 9 3 10 4 11 5 12 6 13 7 14 8 6 9 5 10 4 11 3 12 2 13
REMARK SMILES IDX 1 14
REMARK H PARENT
REMARK Flexibility Score: inf
ROOT
ATOM      1  C   UNL     1       2.996  68.898  21.974  1.00  0.00     0.000 C 
ENDROOT
BRANCH   1   2
ATOM      2  C   UNL     1       2.249  68.191  20.837  1.00  0.00     0.000 C 
BRANCH   2   3
ATOM      3  C   UNL     1       1.884  69.176  19.721  1.00  0.00     0.000 C 
BRANCH   3   4
ATOM      4  C   UNL     1       2.830  70.386  19.723  1.00  0.00     0.006 C 
BRANCH   4   5
ATOM      5  C   UNL     1       2.737  71.199  18.425  1.00  0.00     0.053 C 
BRANCH   5   6
ATOM      6  C   UNL     1       2.348  72.622  18.689  1.00  0.00     0.041 C 
ATOM      7  O   UNL     1       2.977  73.564  18.140  1.00  0.00    -0.550 OA
ATOM      8  O   UNL     1       1.269  72.906  19.517  1.00  0.00    -0.550 OA
ENDBRANCH   5   6
ENDBRANCH   4   5
ENDBRANCH   3   4
ENDBRANCH   2   3
ENDBRANCH   1   2
BRANCH   1   9
ATOM      9  C   UNL     1       4.288  68.149  22.333  1.00  0.00     0.000 C 
BRANCH   9  10
ATOM     10  C   UNL     1       5.552  68.936  21.951  1.00  0.00    -0.000 C 
BRANCH  10  11
ATOM     11  C   UNL     1       6.303  69.480  23.179  1.00  0.00    -0.000 C 
BRANCH  11  12
ATOM     12  C   UNL     1       7.112  68.394  23.913  1.00  0.00    -0.000 C 
BRANCH  12  13
ATOM     13  C   UNL     1       8.257  67.777  23.090  1.00  0.00    -0.003 C 
ATOM     14  C   UNL     1       9.639  68.075  23.672  1.00  0.00     0.004 C 
ENDBRANCH  12  13
ENDBRANCH  11  12
ENDBRANCH  10  11
ENDBRANCH   9  10
ENDBRANCH   1   9
TORSDOF 10
ENDMDL
MODEL 9
REMARK VINA RESULT:    -2.903      3.635      6.674
REMARK INTER + INTRA:          -5.728
REMARK INTER:                  -4.854
REMARK INTRA:                  -0.874
REMARK UNBOUND:                -1.128
REMARK SMILES CCCCCCCCCCCC(=O)[O-]
REMARK SMILES IDX 7 1 8 2 9 3 10 4 11 5 12 6 13 7 14 8 6 9 5 10 4 11 3 12 2 13
REMARK SMILES IDX 1 14
REMARK H PARENT
REMARK Flexibility Score: inf
ROOT
ATOM      1  C   UNL     1       2.598  67.836  20.367  1.00  0.00     0.000 C 
ENDROOT
BRANCH   1   2
ATOM      2  C   UNL     1       2.928  69.018  21.288  1.00  0.00     0.000 C 
BRANCH   2   3
ATOM      3  C   UNL     1       4.382  69.468  21.106  1.00  0.00     0.000 C 
BRANCH   3   4
ATOM      4  C   UNL     1       5.200  69.216  22.381  1.00  0.00     0.006 C 
BRANCH   4   5
ATOM      5  C   UNL     1       6.335  68.209  22.153  1.00  0.00     0.053 C 
BRANCH   5   6
ATOM      6  C   UNL     1       7.370  68.286  23.233  1.00  0.00     0.041 C 
ATOM      7  O   UNL     1       7.557  69.363  23.858  1.00  0.00    -0.550 OA
ATOM      8  O   UNL     1       8.106  67.158  23.573  1.00  0.00    -0.550 OA
ENDBRANCH   5   6
ENDBRANCH   4   5
ENDBRANCH   3   4
ENDBRANCH   2   3
ENDBRANCH   1   2
BRANCH   1   9
ATOM      9  C   UNL     1       1.896  68.315  19.088  1.00  0.00     0.000 C 
BRANCH   9  10
ATOM     10  C   UNL     1       0.872  69.429  19.359  1.00  0.00    -0.000 C 
BRANCH  10  11
ATOM     11  C   UNL     1       1.120  70.682  18.499  1.00  0.00    -0.000 C 
BRANCH  11  12
ATOM     12  C   UNL     1       2.588  70.820  18.054  1.00  0.00    -0.000 C 
BRANCH  12  13
ATOM     13  C   UNL     1       3.198  72.215  18.274  1.00  0.00    -0.003 C 
ATOM     14  C   UNL     1       2.221  73.201  18.915  1.00  0.00     0.004 C 
ENDBRANCH  12  13
ENDBRANCH  11  12
ENDBRANCH  10  11
ENDBRANCH   9  10
ENDBRANCH   1   9
TORSDOF 10
ENDMDL
