MODEL 1
REMARK VINA RESULT:    -7.447      0.000      0.000
REMARK INTER + INTRA:         -11.966
REMARK INTER:                 -10.930
REMARK INTRA:                  -1.036
REMARK UNBOUND:                -1.036
REMARK SMILES O=c1c(O[C@@H]2O[C@H](CO)[C@H](O)[C@@H](O)[C@H]2O)c(-c2ccc(O)c(O)c2)oc2cc(O)cc(O)c12
REMARK SMILES IDX 4 1 3 2 16 3 25 4 2 5 26 6 1 7 33 8 27 9 31 10 28 11 30 12
REMARK SMILES IDX 17 13 18 14 19 15 20 16 24 17 22 18 21 19 23 21 32 23 29 25
REMARK SMILES IDX 5 27 14 28 6 29 12 30 7 31 10 32 15 33 13 35 8 37 9 38 11 40
REMARK H PARENT 21 20 23 22 32 24 29 26 15 34 13 36 9 39 11 41
REMARK Flexibility Score: inf
ROOT
ATOM      1  O   UNL     1      60.507 151.685   5.890  1.00  0.00    -0.454 OA
ENDROOT
BRANCH   1   2
ATOM      2  C   UNL     1      60.679 152.167   4.578  1.00  0.00     0.214 A 
ATOM      3  C   UNL     1      61.847 151.805   3.878  1.00  0.00     0.180 A 
ATOM      4  O   UNL     1      62.029 152.207   2.625  1.00  0.00    -0.452 OA
ATOM      5  C   UNL     1      59.728 152.978   3.918  1.00  0.00     0.239 A 
ATOM      6  C   UNL     1      61.165 152.972   1.971  1.00  0.00     0.146 A 
ATOM      7  O   UNL     1      58.676 153.330   4.512  1.00  0.00    -0.285 OA
ATOM      8  C   UNL     1      59.969 153.397   2.593  1.00  0.00     0.111 A 
ATOM      9  C   UNL     1      61.450 153.348   0.656  1.00  0.00     0.094 A 
ATOM     10  C   UNL     1      59.066 154.212   1.864  1.00  0.00     0.134 A 
ATOM     11  C   UNL     1      60.553 154.144  -0.061  1.00  0.00     0.123 A 
ATOM     12  C   UNL     1      59.368 154.575   0.543  1.00  0.00     0.093 A 
BRANCH   3  13
ATOM     13  C   UNL     1      62.877 150.935   4.482  1.00  0.00     0.025 A 
ATOM     14  C   UNL     1      64.189 151.383   4.676  1.00  0.00     0.016 A 
ATOM     15  C   UNL     1      65.151 150.533   5.229  1.00  0.00     0.051 A 
ATOM     16  C   UNL     1      64.824 149.221   5.585  1.00  0.00     0.157 A 
ATOM     17  C   UNL     1      62.545 149.616   4.826  1.00  0.00     0.062 A 
ATOM     18  C   UNL     1      63.503 148.755   5.382  1.00  0.00     0.158 A 
BRANCH  16  19
ATOM     19  O   UNL     1      65.834 148.421   6.126  1.00  0.00    -0.504 OA
ATOM     20  H   UNL     1      66.736 148.283   5.695  1.00  0.00     0.293 HD
ENDBRANCH  16  19
BRANCH  18  21
ATOM     21  O   UNL     1      63.103 147.461   5.710  1.00  0.00    -0.504 OA
ATOM     22  H   UNL     1      63.736 146.679   5.789  1.00  0.00     0.293 HD
ENDBRANCH  18  21
ENDBRANCH   3  13
BRANCH  10  23
ATOM     23  O   UNL     1      57.875 154.657   2.439  1.00  0.00    -0.507 OA
ATOM     24  H   UNL     1      57.857 155.120   3.342  1.00  0.00     0.293 HD
ENDBRANCH  10  23
BRANCH  11  25
ATOM     25  O   UNL     1      60.848 154.497  -1.375  1.00  0.00    -0.508 OA
ATOM     26  H   UNL     1      60.436 154.006  -2.161  1.00  0.00     0.293 HD
ENDBRANCH  11  25
ENDBRANCH   1   2
BRANCH   1  27
ATOM     27  C   UNL     1      61.247 152.090   7.044  1.00  0.00     0.339 C 
ATOM     28  C   UNL     1      61.336 153.623   7.099  1.00  0.00     0.214 C 
ATOM     29  O   UNL     1      60.723 151.528   8.243  1.00  0.00    -0.332 OA
ATOM     30  C   UNL     1      59.958 154.219   7.424  1.00  0.00     0.180 C 
ATOM     31  C   UNL     1      59.450 152.037   8.630  1.00  0.00     0.179 C 
ATOM     32  C   UNL     1      59.416 153.586   8.709  1.00  0.00     0.177 C 
BRANCH  28  33
ATOM     33  O   UNL     1      62.277 153.993   8.076  1.00  0.00    -0.384 OA
ATOM     34  H   UNL     1      61.768 154.264   8.884  1.00  0.00     0.211 HD
ENDBRANCH  28  33
BRANCH  30  35
ATOM     35  O   UNL     1      60.057 155.612   7.592  1.00  0.00    -0.387 OA
ATOM     36  H   UNL     1      60.838 155.909   7.056  1.00  0.00     0.211 HD
ENDBRANCH  30  35
BRANCH  31  37
ATOM     37  C   UNL     1      58.294 151.424   7.814  1.00  0.00     0.191 C 
BRANCH  37  38
ATOM     38  O   UNL     1      58.522 150.055   7.616  1.00  0.00    -0.394 OA
ATOM     39  H   UNL     1      57.848 149.755   6.962  1.00  0.00     0.210 HD
ENDBRANCH  37  38
ENDBRANCH  31  37
BRANCH  32  40
ATOM     40  O   UNL     1      58.113 154.051   8.948  1.00  0.00    -0.387 OA
ATOM     41  H   UNL     1      57.842 154.564   8.141  1.00  0.00     0.211 HD
ENDBRANCH  32  40
ENDBRANCH   1  27
TORSDOF 12
ENDMDL
MODEL 2
REMARK VINA RESULT:    -6.931      1.382      2.795
REMARK INTER + INTRA:         -11.208
REMARK INTER:                 -10.301
REMARK INTRA:                  -0.907
REMARK UNBOUND:                -1.036
REMARK SMILES O=c1c(O[C@@H]2O[C@H](CO)[C@H](O)[C@@H](O)[C@H]2O)c(-c2ccc(O)c(O)c2)oc2cc(O)cc(O)c12
REMARK SMILES IDX 4 1 3 2 16 3 25 4 2 5 26 6 1 7 33 8 27 9 31 10 28 11 30 12
REMARK SMILES IDX 17 13 18 14 19 15 20 16 24 17 22 18 21 19 23 21 32 23 29 25
REMARK SMILES IDX 5 27 14 28 6 29 12 30 7 31 10 32 15 33 13 35 8 37 9 38 11 40
REMARK H PARENT 21 20 23 22 32 24 29 26 15 34 13 36 9 39 11 41
REMARK Flexibility Score: inf
ROOT
ATOM      1  O   UNL     1      60.556 151.708   5.915  1.00  0.00    -0.454 OA
ENDROOT
BRANCH   1   2
ATOM      2  C   UNL     1      60.706 152.186   4.599  1.00  0.00     0.214 A 
ATOM      3  C   UNL     1      61.861 151.818   3.880  1.00  0.00     0.180 A 
ATOM      4  O   UNL     1      62.023 152.216   2.623  1.00  0.00    -0.452 OA
ATOM      5  C   UNL     1      59.747 152.998   3.954  1.00  0.00     0.239 A 
ATOM      6  C   UNL     1      61.150 152.982   1.982  1.00  0.00     0.146 A 
ATOM      7  O   UNL     1      58.707 153.356   4.566  1.00  0.00    -0.285 OA
ATOM      8  C   UNL     1      59.966 153.413   2.623  1.00  0.00     0.111 A 
ATOM      9  C   UNL     1      61.413 153.353   0.661  1.00  0.00     0.094 A 
ATOM     10  C   UNL     1      59.054 154.230   1.908  1.00  0.00     0.134 A 
ATOM     11  C   UNL     1      60.507 154.151  -0.042  1.00  0.00     0.123 A 
ATOM     12  C   UNL     1      59.334 154.588   0.582  1.00  0.00     0.093 A 
BRANCH   3  13
ATOM     13  C   UNL     1      62.898 150.945   4.468  1.00  0.00     0.025 A 
ATOM     14  C   UNL     1      64.212 151.394   4.652  1.00  0.00     0.016 A 
ATOM     15  C   UNL     1      65.180 150.542   5.190  1.00  0.00     0.051 A 
ATOM     16  C   UNL     1      64.859 149.227   5.541  1.00  0.00     0.157 A 
ATOM     17  C   UNL     1      62.571 149.624   4.808  1.00  0.00     0.062 A 
ATOM     18  C   UNL     1      63.536 148.761   5.348  1.00  0.00     0.158 A 
BRANCH  16  19
ATOM     19  O   UNL     1      65.875 148.425   6.067  1.00  0.00    -0.504 OA
ATOM     20  H   UNL     1      66.363 147.716   5.540  1.00  0.00     0.293 HD
ENDBRANCH  16  19
BRANCH  18  21
ATOM     21  O   UNL     1      63.141 147.464   5.672  1.00  0.00    -0.504 OA
ATOM     22  H   UNL     1      63.749 146.660   5.615  1.00  0.00     0.293 HD
ENDBRANCH  18  21
ENDBRANCH   3  13
BRANCH  10  23
ATOM     23  O   UNL     1      57.875 154.681   2.503  1.00  0.00    -0.507 OA
ATOM     24  H   UNL     1      56.962 154.397   2.164  1.00  0.00     0.293 HD
ENDBRANCH  10  23
BRANCH  11  25
ATOM     25  O   UNL     1      60.780 154.500  -1.362  1.00  0.00    -0.508 OA
ATOM     26  H   UNL     1      61.627 154.996  -1.615  1.00  0.00     0.293 HD
ENDBRANCH  11  25
ENDBRANCH   1   2
BRANCH   1  27
ATOM     27  C   UNL     1      59.356 151.195   6.498  1.00  0.00     0.339 C 
ATOM     28  C   UNL     1      59.212 149.701   6.172  1.00  0.00     0.214 C 
ATOM     29  O   UNL     1      59.280 151.463   7.895  1.00  0.00    -0.332 OA
ATOM     30  C   UNL     1      60.266 148.890   6.940  1.00  0.00     0.180 C 
ATOM     31  C   UNL     1      60.215 150.738   8.688  1.00  0.00     0.179 C 
ATOM     32  C   UNL     1      60.168 149.209   8.436  1.00  0.00     0.177 C 
BRANCH  28  33
ATOM     33  O   UNL     1      57.916 149.279   6.519  1.00  0.00    -0.384 OA
ATOM     34  H   UNL     1      57.938 148.288   6.583  1.00  0.00     0.211 HD
ENDBRANCH  28  33
BRANCH  30  35
ATOM     35  O   UNL     1      60.064 147.514   6.740  1.00  0.00    -0.387 OA
ATOM     36  H   UNL     1      60.654 147.042   7.384  1.00  0.00     0.211 HD
ENDBRANCH  30  35
BRANCH  31  37
ATOM     37  C   UNL     1      61.633 151.341   8.631  1.00  0.00     0.191 C 
BRANCH  37  38
ATOM     38  O   UNL     1      61.563 152.739   8.718  1.00  0.00    -0.394 OA
ATOM     39  H   UNL     1      62.084 152.992   9.515  1.00  0.00     0.210 HD
ENDBRANCH  37  38
ENDBRANCH  31  37
BRANCH  32  40
ATOM     40  O   UNL     1      61.200 148.551   9.125  1.00  0.00    -0.387 OA
ATOM     41  H   UNL     1      60.958 148.575  10.089  1.00  0.00     0.211 HD
ENDBRANCH  32  40
ENDBRANCH   1  27
TORSDOF 12
ENDMDL
MODEL 3
REMARK VINA RESULT:    -5.201      1.559      5.924
REMARK INTER + INTRA:          -8.670
REMARK INTER:                 -10.194
REMARK INTRA:                   1.524
REMARK UNBOUND:                -1.036
REMARK SMILES O=c1c(O[C@@H]2O[C@H](CO)[C@H](O)[C@@H](O)[C@H]2O)c(-c2ccc(O)c(O)c2)oc2cc(O)cc(O)c12
REMARK SMILES IDX 4 1 3 2 16 3 25 4 2 5 26 6 1 7 33 8 27 9 31 10 28 11 30 12
REMARK SMILES IDX 17 13 18 14 19 15 20 16 24 17 22 18 21 19 23 21 32 23 29 25
REMARK SMILES IDX 5 27 14 28 6 29 12 30 7 31 10 32 15 33 13 35 8 37 9 38 11 40
REMARK H PARENT 21 20 23 22 32 24 29 26 15 34 13 36 9 39 11 41
REMARK Flexibility Score: inf
ROOT
ATOM      1  O   UNL     1      59.419 152.639   5.267  1.00  0.00    -0.454 OA
ENDROOT
BRANCH   1   2
ATOM      2  C   UNL     1      60.583 151.899   4.985  1.00  0.00     0.214 A 
ATOM      3  C   UNL     1      61.100 151.934   3.674  1.00  0.00     0.180 A 
ATOM      4  O   UNL     1      62.218 151.280   3.376  1.00  0.00    -0.452 OA
ATOM      5  C   UNL     1      61.274 151.139   5.955  1.00  0.00     0.239 A 
ATOM      6  C   UNL     1      62.893 150.553   4.256  1.00  0.00     0.146 A 
ATOM      7  O   UNL     1      60.839 151.074   7.135  1.00  0.00    -0.285 OA
ATOM      8  C   UNL     1      62.448 150.445   5.593  1.00  0.00     0.111 A 
ATOM      9  C   UNL     1      64.056 149.896   3.844  1.00  0.00     0.094 A 
ATOM     10  C   UNL     1      63.195 149.660   6.507  1.00  0.00     0.134 A 
ATOM     11  C   UNL     1      64.794 149.131   4.750  1.00  0.00     0.123 A 
ATOM     12  C   UNL     1      64.362 149.013   6.076  1.00  0.00     0.093 A 
BRANCH   3  13
ATOM     13  C   UNL     1      60.458 152.729   2.607  1.00  0.00     0.025 A 
ATOM     14  C   UNL     1      59.078 152.969   2.606  1.00  0.00     0.016 A 
ATOM     15  C   UNL     1      58.491 153.706   1.574  1.00  0.00     0.051 A 
ATOM     16  C   UNL     1      59.266 154.202   0.521  1.00  0.00     0.157 A 
ATOM     17  C   UNL     1      61.240 153.215   1.548  1.00  0.00     0.062 A 
ATOM     18  C   UNL     1      60.659 153.955   0.507  1.00  0.00     0.158 A 
BRANCH  16  19
ATOM     19  O   UNL     1      58.616 154.924  -0.484  1.00  0.00    -0.504 OA
ATOM     20  H   UNL     1      57.812 154.584  -0.992  1.00  0.00     0.293 HD
ENDBRANCH  16  19
BRANCH  18  21
ATOM     21  O   UNL     1      61.495 154.416  -0.508  1.00  0.00    -0.504 OA
ATOM     22  H   UNL     1      61.649 155.393  -0.711  1.00  0.00     0.293 HD
ENDBRANCH  18  21
ENDBRANCH   3  13
BRANCH  10  23
ATOM     23  O   UNL     1      62.791 149.525   7.835  1.00  0.00    -0.507 OA
ATOM     24  H   UNL     1      63.458 149.511   8.599  1.00  0.00     0.293 HD
ENDBRANCH  10  23
BRANCH  11  25
ATOM     25  O   UNL     1      65.957 148.495   4.325  1.00  0.00    -0.508 OA
ATOM     26  H   UNL     1      66.030 148.087   3.399  1.00  0.00     0.293 HD
ENDBRANCH  11  25
ENDBRANCH   1   2
BRANCH   1  27
ATOM     27  C   UNL     1      58.987 153.079   6.556  1.00  0.00     0.339 C 
ATOM     28  C   UNL     1      60.172 153.673   7.332  1.00  0.00     0.214 C 
ATOM     29  O   UNL     1      57.880 153.972   6.476  1.00  0.00    -0.332 OA
ATOM     30  C   UNL     1      60.595 155.010   6.706  1.00  0.00     0.180 C 
ATOM     31  C   UNL     1      58.187 155.247   5.920  1.00  0.00     0.179 C 
ATOM     32  C   UNL     1      59.383 155.943   6.622  1.00  0.00     0.177 C 
BRANCH  28  33
ATOM     33  O   UNL     1      59.796 153.854   8.675  1.00  0.00    -0.384 OA
ATOM     34  H   UNL     1      58.919 153.405   8.797  1.00  0.00     0.211 HD
ENDBRANCH  28  33
BRANCH  30  35
ATOM     35  O   UNL     1      61.600 155.615   7.481  1.00  0.00    -0.387 OA
ATOM     36  H   UNL     1      62.270 155.979   6.846  1.00  0.00     0.211 HD
ENDBRANCH  30  35
BRANCH  31  37
ATOM     37  C   UNL     1      58.295 155.213   4.382  1.00  0.00     0.191 C 
BRANCH  37  38
ATOM     38  O   UNL     1      57.875 156.438   3.845  1.00  0.00    -0.394 OA
ATOM     39  H   UNL     1      57.197 156.794   4.465  1.00  0.00     0.210 HD
ENDBRANCH  37  38
ENDBRANCH  31  37
BRANCH  32  40
ATOM     40  O   UNL     1      59.745 157.123   5.952  1.00  0.00    -0.387 OA
ATOM     41  H   UNL     1      58.904 157.630   5.796  1.00  0.00     0.211 HD
ENDBRANCH  32  40
ENDBRANCH   1  27
TORSDOF 12
ENDMDL
