MODEL 1
REMARK VINA RESULT:    -3.558      0.000      0.000
REMARK INTER + INTRA:         -12.055
REMARK INTER:                  -8.133
REMARK INTRA:                  -3.922
REMARK UNBOUND:                -3.922
REMARK SMILES CCCCCCCCCCCCCCCCCCCCCCCC(=O)[O-]
REMARK SMILES IDX 13 1 14 2 15 3 16 4 17 5 18 6 19 7 20 8 21 9 22 10 23 11
REMARK SMILES IDX 24 12 25 13 26 14 12 15 11 16 10 17 9 18 8 19 7 20 6 21 5 22
REMARK SMILES IDX 4 23 3 24 2 25 1 26
REMARK H PARENT
REMARK Flexibility Score: inf
ROOT
ATOM      1  C   UNL     1     169.333 169.981 151.004  1.00  0.00     0.000 C 
ENDROOT
BRANCH   1   2
ATOM      2  C   UNL     1     169.715 170.948 149.874  1.00  0.00     0.000 C 
BRANCH   2   3
ATOM      3  C   UNL     1     171.174 171.432 149.964  1.00  0.00     0.000 C 
BRANCH   3   4
ATOM      4  C   UNL     1     171.980 170.781 151.109  1.00  0.00     0.000 C 
BRANCH   4   5
ATOM      5  C   UNL     1     172.525 171.819 152.106  1.00  0.00     0.000 C 
BRANCH   5   6
ATOM      6  C   UNL     1     171.714 173.126 152.113  1.00  0.00     0.000 C 
BRANCH   6   7
ATOM      7  C   UNL     1     170.599 173.151 153.181  1.00  0.00     0.000 C 
BRANCH   7   8
ATOM      8  C   UNL     1     170.993 172.351 154.437  1.00  0.00     0.000 C 
BRANCH   8   9
ATOM      9  C   UNL     1     169.973 171.245 154.783  1.00  0.00     0.000 C 
BRANCH   9  10
ATOM     10  C   UNL     1     170.459 169.824 154.449  1.00  0.00     0.006 C 
BRANCH  10  11
ATOM     11  C   UNL     1     170.133 168.808 155.552  1.00  0.00     0.053 C 
BRANCH  11  12
ATOM     12  C   UNL     1     171.160 167.716 155.609  1.00  0.00     0.041 C 
ATOM     13  O   UNL     1     171.088 166.816 156.487  1.00  0.00    -0.550 OA
ATOM     14  O   UNL     1     172.235 167.729 154.726  1.00  0.00    -0.550 OA
ENDBRANCH  11  12
ENDBRANCH  10  11
ENDBRANCH   9  10
ENDBRANCH   8   9
ENDBRANCH   7   8
ENDBRANCH   6   7
ENDBRANCH   5   6
ENDBRANCH   4   5
ENDBRANCH   3   4
ENDBRANCH   2   3
ENDBRANCH   1   2
BRANCH   1  15
ATOM     15  C   UNL     1     167.823 170.020 151.285  1.00  0.00     0.000 C 
BRANCH  15  16
ATOM     16  C   UNL     1     167.411 171.191 152.193  1.00  0.00     0.000 C 
BRANCH  16  17
ATOM     17  C   UNL     1     166.389 170.847 153.297  1.00  0.00     0.000 C 
BRANCH  17  18
ATOM     18  C   UNL     1     166.734 169.586 154.116  1.00  0.00    -0.000 C 
BRANCH  18  19
ATOM     19  C   UNL     1     165.767 168.414 153.855  1.00  0.00    -0.000 C 
BRANCH  19  20
ATOM     20  C   UNL     1     164.482 168.498 154.692  1.00  0.00    -0.000 C 
BRANCH  20  21
ATOM     21  C   UNL     1     163.224 168.109 153.895  1.00  0.00    -0.000 C 
BRANCH  21  22
ATOM     22  C   UNL     1     162.119 169.184 153.980  1.00  0.00    -0.000 C 
BRANCH  22  23
ATOM     23  C   UNL     1     161.821 169.879 152.640  1.00  0.00    -0.000 C 
BRANCH  23  24
ATOM     24  C   UNL     1     162.820 171.002 152.318  1.00  0.00    -0.000 C 
BRANCH  24  25
ATOM     25  C   UNL     1     163.421 170.876 150.910  1.00  0.00    -0.003 C 
ATOM     26  C   UNL     1     164.077 169.518 150.664  1.00  0.00     0.004 C 
ENDBRANCH  24  25
ENDBRANCH  23  24
ENDBRANCH  22  23
ENDBRANCH  21  22
ENDBRANCH  20  21
ENDBRANCH  19  20
ENDBRANCH  18  19
ENDBRANCH  17  18
ENDBRANCH  16  17
ENDBRANCH  15  16
ENDBRANCH   1  15
TORSDOF 22
ENDMDL
MODEL 2
REMARK VINA RESULT:    -3.457     12.857     17.076
REMARK INTER + INTRA:         -11.824
REMARK INTER:                  -9.711
REMARK INTRA:                  -2.112
REMARK UNBOUND:                -3.922
REMARK SMILES CCCCCCCCCCCCCCCCCCCCCCCC(=O)[O-]
REMARK SMILES IDX 13 1 14 2 15 3 16 4 17 5 18 6 19 7 20 8 21 9 22 10 23 11
REMARK SMILES IDX 24 12 25 13 26 14 12 15 11 16 10 17 9 18 8 19 7 20 6 21 5 22
REMARK SMILES IDX 4 23 3 24 2 25 1 26
REMARK H PARENT
REMARK Flexibility Score: inf
ROOT
ATOM      1  C   UNL     1     159.625 173.973 165.011  1.00  0.00     0.000 C 
ENDROOT
BRANCH   1   2
ATOM      2  C   UNL     1     158.317 174.716 164.700  1.00  0.00     0.000 C 
BRANCH   2   3
ATOM      3  C   UNL     1     157.069 173.827 164.855  1.00  0.00     0.000 C 
BRANCH   3   4
ATOM      4  C   UNL     1     155.867 174.545 165.506  1.00  0.00     0.000 C 
BRANCH   4   5
ATOM      5  C   UNL     1     155.065 173.619 166.438  1.00  0.00     0.000 C 
BRANCH   5   6
ATOM      6  C   UNL     1     155.518 172.152 166.359  1.00  0.00     0.000 C 
BRANCH   6   7
ATOM      7  C   UNL     1     154.428 171.202 165.814  1.00  0.00     0.000 C 
BRANCH   7   8
ATOM      8  C   UNL     1     154.337 171.257 164.277  1.00  0.00     0.000 C 
BRANCH   8   9
ATOM      9  C   UNL     1     153.154 172.115 163.780  1.00  0.00     0.000 C 
BRANCH   9  10
ATOM     10  C   UNL     1     153.453 172.897 162.489  1.00  0.00     0.006 C 
BRANCH  10  11
ATOM     11  C   UNL     1     153.669 174.397 162.739  1.00  0.00     0.053 C 
BRANCH  11  12
ATOM     12  C   UNL     1     154.687 174.966 161.796  1.00  0.00     0.041 C 
ATOM     13  O   UNL     1     155.824 174.435 161.686  1.00  0.00    -0.550 OA
ATOM     14  O   UNL     1     154.399 176.125 161.081  1.00  0.00    -0.550 OA
ENDBRANCH  11  12
ENDBRANCH  10  11
ENDBRANCH   9  10
ENDBRANCH   8   9
ENDBRANCH   7   8
ENDBRANCH   6   7
ENDBRANCH   5   6
ENDBRANCH   4   5
ENDBRANCH   3   4
ENDBRANCH   2   3
ENDBRANCH   1   2
BRANCH   1  15
ATOM     15  C   UNL     1     160.048 174.178 166.473  1.00  0.00     0.000 C 
BRANCH  15  16
ATOM     16  C   UNL     1     161.083 175.303 166.647  1.00  0.00     0.000 C 
BRANCH  16  17
ATOM     17  C   UNL     1     161.550 175.983 165.344  1.00  0.00     0.000 C 
BRANCH  17  18
ATOM     18  C   UNL     1     163.025 175.713 164.976  1.00  0.00    -0.000 C 
BRANCH  18  19
ATOM     19  C   UNL     1     163.249 174.313 164.373  1.00  0.00    -0.000 C 
BRANCH  19  20
ATOM     20  C   UNL     1     164.417 173.558 165.024  1.00  0.00    -0.000 C 
BRANCH  20  21
ATOM     21  C   UNL     1     165.595 173.334 164.059  1.00  0.00    -0.000 C 
BRANCH  21  22
ATOM     22  C   UNL     1     165.818 174.537 163.117  1.00  0.00    -0.000 C 
BRANCH  22  23
ATOM     23  C   UNL     1     165.825 174.167 161.623  1.00  0.00    -0.000 C 
BRANCH  23  24
ATOM     24  C   UNL     1     167.072 174.685 160.889  1.00  0.00    -0.000 C 
BRANCH  24  25
ATOM     25  C   UNL     1     168.275 174.876 161.825  1.00  0.00    -0.003 C 
ATOM     26  C   UNL     1     169.199 173.659 161.861  1.00  0.00     0.004 C 
ENDBRANCH  24  25
ENDBRANCH  23  24
ENDBRANCH  22  23
ENDBRANCH  21  22
ENDBRANCH  20  21
ENDBRANCH  19  20
ENDBRANCH  18  19
ENDBRANCH  17  18
ENDBRANCH  16  17
ENDBRANCH  15  16
ENDBRANCH   1  15
TORSDOF 22
ENDMDL
MODEL 3
REMARK VINA RESULT:    -3.452      3.554      7.902
REMARK INTER + INTRA:         -11.812
REMARK INTER:                  -7.371
REMARK INTRA:                  -4.441
REMARK UNBOUND:                -3.922
REMARK SMILES CCCCCCCCCCCCCCCCCCCCCCCC(=O)[O-]
REMARK SMILES IDX 13 1 14 2 15 3 16 4 17 5 18 6 19 7 20 8 21 9 22 10 23 11
REMARK SMILES IDX 24 12 25 13 26 14 12 15 11 16 10 17 9 18 8 19 7 20 6 21 5 22
REMARK SMILES IDX 4 23 3 24 2 25 1 26
REMARK H PARENT
REMARK Flexibility Score: inf
ROOT
ATOM      1  C   UNL     1     167.338 169.680 151.342  1.00  0.00     0.000 C 
ENDROOT
BRANCH   1   2
ATOM      2  C   UNL     1     166.726 170.770 152.234  1.00  0.00     0.000 C 
BRANCH   2   3
ATOM      3  C   UNL     1     166.335 170.254 153.631  1.00  0.00     0.000 C 
BRANCH   3   4
ATOM      4  C   UNL     1     166.181 168.719 153.712  1.00  0.00     0.000 C 
BRANCH   4   5
ATOM      5  C   UNL     1     164.746 168.291 154.067  1.00  0.00     0.000 C 
BRANCH   5   6
ATOM      6  C   UNL     1     163.689 169.322 153.636  1.00  0.00     0.000 C 
BRANCH   6   7
ATOM      7  C   UNL     1     162.433 168.685 153.003  1.00  0.00     0.000 C 
BRANCH   7   8
ATOM      8  C   UNL     1     162.298 169.046 151.512  1.00  0.00     0.000 C 
BRANCH   8   9
ATOM      9  C   UNL     1     163.407 168.417 150.643  1.00  0.00     0.000 C 
BRANCH   9  10
ATOM     10  C   UNL     1     164.154 169.430 149.758  1.00  0.00     0.006 C 
BRANCH  10  11
ATOM     11  C   UNL     1     163.841 170.887 150.127  1.00  0.00     0.053 C 
BRANCH  11  12
ATOM     12  C   UNL     1     163.204 171.615 148.980  1.00  0.00     0.041 C 
ATOM     13  O   UNL     1     163.030 172.862 149.032  1.00  0.00    -0.550 OA
ATOM     14  O   UNL     1     162.747 170.904 147.876  1.00  0.00    -0.550 OA
ENDBRANCH  11  12
ENDBRANCH  10  11
ENDBRANCH   9  10
ENDBRANCH   8   9
ENDBRANCH   7   8
ENDBRANCH   6   7
ENDBRANCH   5   6
ENDBRANCH   4   5
ENDBRANCH   3   4
ENDBRANCH   2   3
ENDBRANCH   1   2
BRANCH   1  15
ATOM     15  C   UNL     1     168.702 170.117 150.786  1.00  0.00     0.000 C 
BRANCH  15  16
ATOM     16  C   UNL     1     169.835 169.134 151.129  1.00  0.00     0.000 C 
BRANCH  16  17
ATOM     17  C   UNL     1     169.708 168.427 152.494  1.00  0.00     0.000 C 
BRANCH  17  18
ATOM     18  C   UNL     1     170.996 168.446 153.346  1.00  0.00    -0.000 C 
BRANCH  18  19
ATOM     19  C   UNL     1     170.735 168.792 154.825  1.00  0.00    -0.000 C 
BRANCH  19  20
ATOM     20  C   UNL     1     169.677 169.890 155.008  1.00  0.00    -0.000 C 
BRANCH  20  21
ATOM     21  C   UNL     1     170.273 171.308 154.950  1.00  0.00    -0.000 C 
BRANCH  21  22
ATOM     22  C   UNL     1     169.587 172.191 153.884  1.00  0.00    -0.000 C 
BRANCH  22  23
ATOM     23  C   UNL     1     170.538 172.691 152.783  1.00  0.00    -0.000 C 
BRANCH  23  24
ATOM     24  C   UNL     1     171.973 172.170 152.954  1.00  0.00    -0.000 C 
BRANCH  24  25
ATOM     25  C   UNL     1     172.489 171.433 151.709  1.00  0.00    -0.003 C 
ATOM     26  C   UNL     1     171.987 172.050 150.403  1.00  0.00     0.004 C 
ENDBRANCH  24  25
ENDBRANCH  23  24
ENDBRANCH  22  23
ENDBRANCH  21  22
ENDBRANCH  20  21
ENDBRANCH  19  20
ENDBRANCH  18  19
ENDBRANCH  17  18
ENDBRANCH  16  17
ENDBRANCH  15  16
ENDBRANCH   1  15
TORSDOF 22
ENDMDL
MODEL 4
REMARK VINA RESULT:    -3.442      3.080      7.026
REMARK INTER + INTRA:         -11.790
REMARK INTER:                  -6.773
REMARK INTRA:                  -5.016
REMARK UNBOUND:                -3.922
REMARK SMILES CCCCCCCCCCCCCCCCCCCCCCCC(=O)[O-]
REMARK SMILES IDX 13 1 14 2 15 3 16 4 17 5 18 6 19 7 20 8 21 9 22 10 23 11
REMARK SMILES IDX 24 12 25 13 26 14 12 15 11 16 10 17 9 18 8 19 7 20 6 21 5 22
REMARK SMILES IDX 4 23 3 24 2 25 1 26
REMARK H PARENT
REMARK Flexibility Score: inf
ROOT
ATOM      1  C   UNL     1     168.816 170.261 151.297  1.00  0.00     0.000 C 
ENDROOT
BRANCH   1   2
ATOM      2  C   UNL     1     168.713 168.759 150.997  1.00  0.00     0.000 C 
BRANCH   2   3
ATOM      3  C   UNL     1     169.496 167.891 151.999  1.00  0.00     0.000 C 
BRANCH   3   4
ATOM      4  C   UNL     1     170.358 168.703 152.991  1.00  0.00     0.000 C 
BRANCH   4   5
ATOM      5  C   UNL     1     170.061 168.343 154.457  1.00  0.00     0.000 C 
BRANCH   5   6
ATOM      6  C   UNL     1     168.635 167.804 154.665  1.00  0.00     0.000 C 
BRANCH   6   7
ATOM      7  C   UNL     1     167.689 168.818 155.345  1.00  0.00     0.000 C 
BRANCH   7   8
ATOM      8  C   UNL     1     166.228 168.625 154.897  1.00  0.00     0.000 C 
BRANCH   8   9
ATOM      9  C   UNL     1     166.110 167.900 153.540  1.00  0.00     0.000 C 
BRANCH   9  10
ATOM     10  C   UNL     1     164.772 168.140 152.820  1.00  0.00     0.006 C 
BRANCH  10  11
ATOM     11  C   UNL     1     164.208 169.547 153.064  1.00  0.00     0.053 C 
BRANCH  11  12
ATOM     12  C   UNL     1     162.753 169.497 153.425  1.00  0.00     0.041 C 
ATOM     13  O   UNL     1     161.898 170.090 152.715  1.00  0.00    -0.550 OA
ATOM     14  O   UNL     1     162.349 168.843 154.584  1.00  0.00    -0.550 OA
ENDBRANCH  11  12
ENDBRANCH  10  11
ENDBRANCH   9  10
ENDBRANCH   8   9
ENDBRANCH   7   8
ENDBRANCH   6   7
ENDBRANCH   5   6
ENDBRANCH   4   5
ENDBRANCH   3   4
ENDBRANCH   2   3
ENDBRANCH   1   2
BRANCH   1  15
ATOM     15  C   UNL     1     167.463 170.834 151.747  1.00  0.00     0.000 C 
BRANCH  15  16
ATOM     16  C   UNL     1     167.545 171.590 153.084  1.00  0.00     0.000 C 
BRANCH  16  17
ATOM     17  C   UNL     1     168.786 172.489 153.263  1.00  0.00     0.000 C 
BRANCH  17  18
ATOM     18  C   UNL     1     169.771 172.010 154.351  1.00  0.00    -0.000 C 
BRANCH  18  19
ATOM     19  C   UNL     1     171.247 172.211 153.958  1.00  0.00    -0.000 C 
BRANCH  19  20
ATOM     20  C   UNL     1     171.434 173.230 152.824  1.00  0.00    -0.000 C 
BRANCH  20  21
ATOM     21  C   UNL     1     172.080 172.615 151.570  1.00  0.00    -0.000 C 
BRANCH  21  22
ATOM     22  C   UNL     1     172.674 171.215 151.842  1.00  0.00    -0.000 C 
BRANCH  22  23
ATOM     23  C   UNL     1     172.697 170.297 150.608  1.00  0.00    -0.000 C 
BRANCH  23  24
ATOM     24  C   UNL     1     171.990 170.917 149.392  1.00  0.00    -0.000 C 
BRANCH  24  25
ATOM     25  C   UNL     1     171.278 169.870 148.523  1.00  0.00    -0.003 C 
ATOM     26  C   UNL     1     171.702 168.438 148.850  1.00  0.00     0.004 C 
ENDBRANCH  24  25
ENDBRANCH  23  24
ENDBRANCH  22  23
ENDBRANCH  21  22
ENDBRANCH  20  21
ENDBRANCH  19  20
ENDBRANCH  18  19
ENDBRANCH  17  18
ENDBRANCH  16  17
ENDBRANCH  15  16
ENDBRANCH   1  15
TORSDOF 22
ENDMDL
MODEL 5
REMARK VINA RESULT:    -3.406      2.026      5.928
REMARK INTER + INTRA:         -11.709
REMARK INTER:                  -7.196
REMARK INTRA:                  -4.514
REMARK UNBOUND:                -3.922
REMARK SMILES CCCCCCCCCCCCCCCCCCCCCCCC(=O)[O-]
REMARK SMILES IDX 13 1 14 2 15 3 16 4 17 5 18 6 19 7 20 8 21 9 22 10 23 11
REMARK SMILES IDX 24 12 25 13 26 14 12 15 11 16 10 17 9 18 8 19 7 20 6 21 5 22
REMARK SMILES IDX 4 23 3 24 2 25 1 26
REMARK H PARENT
REMARK Flexibility Score: inf
ROOT
ATOM      1  C   UNL     1     171.216 171.582 150.145  1.00  0.00     0.000 C 
ENDROOT
BRANCH   1   2
ATOM      2  C   UNL     1     170.112 170.741 149.488  1.00  0.00     0.000 C 
BRANCH   2   3
ATOM      3  C   UNL     1     168.885 170.544 150.397  1.00  0.00     0.000 C 
BRANCH   3   4
ATOM      4  C   UNL     1     168.245 169.143 150.289  1.00  0.00     0.000 C 
BRANCH   4   5
ATOM      5  C   UNL     1     166.881 169.065 150.997  1.00  0.00     0.000 C 
BRANCH   5   6
ATOM      6  C   UNL     1     166.287 170.450 151.306  1.00  0.00     0.000 C 
BRANCH   6   7
ATOM      7  C   UNL     1     165.503 170.498 152.637  1.00  0.00     0.000 C 
BRANCH   7   8
ATOM      8  C   UNL     1     164.247 169.607 152.593  1.00  0.00     0.000 C 
BRANCH   8   9
ATOM      9  C   UNL     1     163.924 168.962 153.957  1.00  0.00     0.000 C 
BRANCH   9  10
ATOM     10  C   UNL     1     164.484 167.539 154.120  1.00  0.00     0.006 C 
BRANCH  10  11
ATOM     11  C   UNL     1     166.006 167.516 154.322  1.00  0.00     0.053 C 
BRANCH  11  12
ATOM     12  C   UNL     1     166.383 168.011 155.686  1.00  0.00     0.041 C 
ATOM     13  O   UNL     1     166.273 167.260 156.692  1.00  0.00    -0.550 OA
ATOM     14  O   UNL     1     166.800 169.327 155.855  1.00  0.00    -0.550 OA
ENDBRANCH  11  12
ENDBRANCH  10  11
ENDBRANCH   9  10
ENDBRANCH   8   9
ENDBRANCH   7   8
ENDBRANCH   6   7
ENDBRANCH   5   6
ENDBRANCH   4   5
ENDBRANCH   3   4
ENDBRANCH   2   3
ENDBRANCH   1   2
BRANCH   1  15
ATOM     15  C   UNL     1     171.898 170.813 151.287  1.00  0.00     0.000 C 
BRANCH  15  16
ATOM     16  C   UNL     1     172.345 171.724 152.443  1.00  0.00     0.000 C 
BRANCH  16  17
ATOM     17  C   UNL     1     171.641 173.094 152.518  1.00  0.00     0.000 C 
BRANCH  17  18
ATOM     18  C   UNL     1     170.655 173.242 153.697  1.00  0.00    -0.000 C 
BRANCH  18  19
ATOM     19  C   UNL     1     169.221 172.800 153.342  1.00  0.00    -0.000 C 
BRANCH  19  20
ATOM     20  C   UNL     1     168.875 171.400 153.869  1.00  0.00    -0.000 C 
BRANCH  20  21
ATOM     21  C   UNL     1     169.809 170.942 155.003  1.00  0.00    -0.000 C 
BRANCH  21  22
ATOM     22  C   UNL     1     170.376 169.526 154.763  1.00  0.00    -0.000 C 
BRANCH  22  23
ATOM     23  C   UNL     1     169.758 168.804 153.553  1.00  0.00    -0.000 C 
BRANCH  23  24
ATOM     24  C   UNL     1     169.674 167.282 153.748  1.00  0.00    -0.000 C 
BRANCH  24  25
ATOM     25  C   UNL     1     169.886 166.504 152.441  1.00  0.00    -0.003 C 
ATOM     26  C   UNL     1     171.036 167.057 151.599  1.00  0.00     0.004 C 
ENDBRANCH  24  25
ENDBRANCH  23  24
ENDBRANCH  22  23
ENDBRANCH  21  22
ENDBRANCH  20  21
ENDBRANCH  19  20
ENDBRANCH  18  19
ENDBRANCH  17  18
ENDBRANCH  16  17
ENDBRANCH  15  16
ENDBRANCH   1  15
TORSDOF 22
ENDMDL
MODEL 6
REMARK VINA RESULT:    -3.406      3.563      6.215
REMARK INTER + INTRA:         -11.709
REMARK INTER:                  -7.759
REMARK INTRA:                  -3.949
REMARK UNBOUND:                -3.922
REMARK SMILES CCCCCCCCCCCCCCCCCCCCCCCC(=O)[O-]
REMARK SMILES IDX 13 1 14 2 15 3 16 4 17 5 18 6 19 7 20 8 21 9 22 10 23 11
REMARK SMILES IDX 24 12 25 13 26 14 12 15 11 16 10 17 9 18 8 19 7 20 6 21 5 22
REMARK SMILES IDX 4 23 3 24 2 25 1 26
REMARK H PARENT
REMARK Flexibility Score: inf
ROOT
ATOM      1  C   UNL     1     172.095 171.959 151.896  1.00  0.00     0.000 C 
ENDROOT
BRANCH   1   2
ATOM      2  C   UNL     1     171.678 171.688 150.444  1.00  0.00     0.000 C 
BRANCH   2   3
ATOM      3  C   UNL     1     170.198 171.284 150.309  1.00  0.00     0.000 C 
BRANCH   3   4
ATOM      4  C   UNL     1     169.780 170.120 151.234  1.00  0.00     0.000 C 
BRANCH   4   5
ATOM      5  C   UNL     1     168.266 170.104 151.510  1.00  0.00     0.000 C 
BRANCH   5   6
ATOM      6  C   UNL     1     167.773 171.376 152.220  1.00  0.00     0.000 C 
BRANCH   6   7
ATOM      7  C   UNL     1     166.570 171.129 153.157  1.00  0.00     0.000 C 
BRANCH   7   8
ATOM      8  C   UNL     1     165.702 169.952 152.674  1.00  0.00     0.000 C 
BRANCH   8   9
ATOM      9  C   UNL     1     164.191 170.264 152.727  1.00  0.00     0.000 C 
BRANCH   9  10
ATOM     10  C   UNL     1     163.493 170.192 151.358  1.00  0.00     0.006 C 
BRANCH  10  11
ATOM     11  C   UNL     1     164.225 170.994 150.272  1.00  0.00     0.053 C 
BRANCH  11  12
ATOM     12  C   UNL     1     163.278 171.464 149.208  1.00  0.00     0.041 C 
ATOM     13  O   UNL     1     162.544 170.642 148.598  1.00  0.00    -0.550 OA
ATOM     14  O   UNL     1     163.252 172.807 148.848  1.00  0.00    -0.550 OA
ENDBRANCH  11  12
ENDBRANCH  10  11
ENDBRANCH   9  10
ENDBRANCH   8   9
ENDBRANCH   7   8
ENDBRANCH   6   7
ENDBRANCH   5   6
ENDBRANCH   4   5
ENDBRANCH   3   4
ENDBRANCH   2   3
ENDBRANCH   1   2
BRANCH   1  15
ATOM     15  C   UNL     1     171.492 173.274 152.414  1.00  0.00     0.000 C 
BRANCH  15  16
ATOM     16  C   UNL     1     170.588 173.077 153.643  1.00  0.00     0.000 C 
BRANCH  16  17
ATOM     17  C   UNL     1     171.094 172.056 154.682  1.00  0.00     0.000 C 
BRANCH  17  18
ATOM     18  C   UNL     1     170.137 170.870 154.930  1.00  0.00    -0.000 C 
BRANCH  18  19
ATOM     19  C   UNL     1     170.793 169.501 154.664  1.00  0.00    -0.000 C 
BRANCH  19  20
ATOM     20  C   UNL     1     169.775 168.354 154.573  1.00  0.00    -0.000 C 
BRANCH  20  21
ATOM     21  C   UNL     1     168.378 168.755 155.081  1.00  0.00    -0.000 C 
BRANCH  21  22
ATOM     22  C   UNL     1     167.574 167.545 155.605  1.00  0.00    -0.000 C 
BRANCH  22  23
ATOM     23  C   UNL     1     166.103 167.864 155.920  1.00  0.00    -0.000 C 
BRANCH  23  24
ATOM     24  C   UNL     1     165.122 167.070 155.042  1.00  0.00    -0.000 C 
BRANCH  24  25
ATOM     25  C   UNL     1     165.828 166.275 153.934  1.00  0.00    -0.003 C 
ATOM     26  C   UNL     1     165.128 166.393 152.579  1.00  0.00     0.004 C 
ENDBRANCH  24  25
ENDBRANCH  23  24
ENDBRANCH  22  23
ENDBRANCH  21  22
ENDBRANCH  20  21
ENDBRANCH  19  20
ENDBRANCH  18  19
ENDBRANCH  17  18
ENDBRANCH  16  17
ENDBRANCH  15  16
ENDBRANCH   1  15
TORSDOF 22
ENDMDL
MODEL 7
REMARK VINA RESULT:    -3.390      3.322      6.006
REMARK INTER + INTRA:         -11.671
REMARK INTER:                  -7.658
REMARK INTRA:                  -4.013
REMARK UNBOUND:                -3.922
REMARK SMILES CCCCCCCCCCCCCCCCCCCCCCCC(=O)[O-]
REMARK SMILES IDX 13 1 14 2 15 3 16 4 17 5 18 6 19 7 20 8 21 9 22 10 23 11
REMARK SMILES IDX 24 12 25 13 26 14 12 15 11 16 10 17 9 18 8 19 7 20 6 21 5 22
REMARK SMILES IDX 4 23 3 24 2 25 1 26
REMARK H PARENT
REMARK Flexibility Score: inf
ROOT
ATOM      1  C   UNL     1     172.027 171.540 150.767  1.00  0.00     0.000 C 
ENDROOT
BRANCH   1   2
ATOM      2  C   UNL     1     172.066 172.595 151.882  1.00  0.00     0.000 C 
BRANCH   2   3
ATOM      3  C   UNL     1     172.032 171.980 153.293  1.00  0.00     0.000 C 
BRANCH   3   4
ATOM      4  C   UNL     1     171.009 172.643 154.241  1.00  0.00     0.000 C 
BRANCH   4   5
ATOM      5  C   UNL     1     170.115 173.664 153.518  1.00  0.00     0.000 C 
BRANCH   5   6
ATOM      6  C   UNL     1     168.639 173.233 153.460  1.00  0.00     0.000 C 
BRANCH   6   7
ATOM      7  C   UNL     1     168.451 171.718 153.225  1.00  0.00     0.000 C 
BRANCH   7   8
ATOM      8  C   UNL     1     166.987 171.367 152.903  1.00  0.00     0.000 C 
BRANCH   8   9
ATOM      9  C   UNL     1     166.840 170.558 151.596  1.00  0.00     0.000 C 
BRANCH   9  10
ATOM     10  C   UNL     1     165.382 170.350 151.153  1.00  0.00     0.006 C 
BRANCH  10  11
ATOM     11  C   UNL     1     164.377 170.554 152.297  1.00  0.00     0.053 C 
BRANCH  11  12
ATOM     12  C   UNL     1     163.031 170.958 151.774  1.00  0.00     0.041 C 
ATOM     13  O   UNL     1     162.262 171.670 152.472  1.00  0.00    -0.550 OA
ATOM     14  O   UNL     1     162.600 170.494 150.535  1.00  0.00    -0.550 OA
ENDBRANCH  11  12
ENDBRANCH  10  11
ENDBRANCH   9  10
ENDBRANCH   8   9
ENDBRANCH   7   8
ENDBRANCH   6   7
ENDBRANCH   5   6
ENDBRANCH   4   5
ENDBRANCH   3   4
ENDBRANCH   2   3
ENDBRANCH   1   2
BRANCH   1  15
ATOM     15  C   UNL     1     170.588 171.279 150.296  1.00  0.00     0.000 C 
BRANCH  15  16
ATOM     16  C   UNL     1     170.280 169.784 150.106  1.00  0.00     0.000 C 
BRANCH  16  17
ATOM     17  C   UNL     1     170.176 168.958 151.405  1.00  0.00     0.000 C 
BRANCH  17  18
ATOM     18  C   UNL     1     171.279 167.891 151.572  1.00  0.00    -0.000 C 
BRANCH  18  19
ATOM     19  C   UNL     1     171.431 167.405 153.027  1.00  0.00    -0.000 C 
BRANCH  19  20
ATOM     20  C   UNL     1     171.625 168.555 154.028  1.00  0.00    -0.000 C 
BRANCH  20  21
ATOM     21  C   UNL     1     170.857 168.336 155.343  1.00  0.00    -0.000 C 
BRANCH  21  22
ATOM     22  C   UNL     1     169.537 169.135 155.393  1.00  0.00    -0.000 C 
BRANCH  22  23
ATOM     23  C   UNL     1     168.326 168.376 154.823  1.00  0.00    -0.000 C 
BRANCH  23  24
ATOM     24  C   UNL     1     167.108 168.411 155.760  1.00  0.00    -0.000 C 
BRANCH  24  25
ATOM     25  C   UNL     1     165.777 168.508 154.999  1.00  0.00    -0.003 C 
ATOM     26  C   UNL     1     165.672 167.500 153.854  1.00  0.00     0.004 C 
ENDBRANCH  24  25
ENDBRANCH  23  24
ENDBRANCH  22  23
ENDBRANCH  21  22
ENDBRANCH  20  21
ENDBRANCH  19  20
ENDBRANCH  18  19
ENDBRANCH  17  18
ENDBRANCH  16  17
ENDBRANCH  15  16
ENDBRANCH   1  15
TORSDOF 22
ENDMDL
MODEL 8
REMARK VINA RESULT:    -3.380      3.010      7.122
REMARK INTER + INTRA:         -11.649
REMARK INTER:                  -7.411
REMARK INTRA:                  -4.238
REMARK UNBOUND:                -3.922
REMARK SMILES CCCCCCCCCCCCCCCCCCCCCCCC(=O)[O-]
REMARK SMILES IDX 13 1 14 2 15 3 16 4 17 5 18 6 19 7 20 8 21 9 22 10 23 11
REMARK SMILES IDX 24 12 25 13 26 14 12 15 11 16 10 17 9 18 8 19 7 20 6 21 5 22
REMARK SMILES IDX 4 23 3 24 2 25 1 26
REMARK H PARENT
REMARK Flexibility Score: inf
ROOT
ATOM      1  C   UNL     1     170.878 173.394 153.326  1.00  0.00     0.000 C 
ENDROOT
BRANCH   1   2
ATOM      2  C   UNL     1     169.349 173.314 153.433  1.00  0.00     0.000 C 
BRANCH   2   3
ATOM      3  C   UNL     1     168.826 171.867 153.508  1.00  0.00     0.000 C 
BRANCH   3   4
ATOM      4  C   UNL     1     167.536 171.624 152.696  1.00  0.00     0.000 C 
BRANCH   4   5
ATOM      5  C   UNL     1     166.494 170.806 153.480  1.00  0.00     0.000 C 
BRANCH   5   6
ATOM      6  C   UNL     1     167.060 169.486 154.029  1.00  0.00     0.000 C 
BRANCH   6   7
ATOM      7  C   UNL     1     166.695 169.230 155.508  1.00  0.00     0.000 C 
BRANCH   7   8
ATOM      8  C   UNL     1     165.966 167.886 155.693  1.00  0.00     0.000 C 
BRANCH   8   9
ATOM      9  C   UNL     1     165.432 167.309 154.365  1.00  0.00     0.000 C 
BRANCH   9  10
ATOM     10  C   UNL     1     163.897 167.315 154.257  1.00  0.00     0.006 C 
BRANCH  10  11
ATOM     11  C   UNL     1     163.295 168.720 154.400  1.00  0.00     0.053 C 
BRANCH  11  12
ATOM     12  C   UNL     1     162.842 169.257 153.075  1.00  0.00     0.041 C 
ATOM     13  O   UNL     1     163.616 169.244 152.081  1.00  0.00    -0.550 OA
ATOM     14  O   UNL     1     161.581 169.831 152.954  1.00  0.00    -0.550 OA
ENDBRANCH  11  12
ENDBRANCH  10  11
ENDBRANCH   9  10
ENDBRANCH   8   9
ENDBRANCH   7   8
ENDBRANCH   6   7
ENDBRANCH   5   6
ENDBRANCH   4   5
ENDBRANCH   3   4
ENDBRANCH   2   3
ENDBRANCH   1   2
BRANCH   1  15
ATOM     15  C   UNL     1     171.528 172.029 153.598  1.00  0.00     0.000 C 
BRANCH  15  16
ATOM     16  C   UNL     1     172.418 171.545 152.440  1.00  0.00     0.000 C 
BRANCH  16  17
ATOM     17  C   UNL     1     172.208 172.271 151.095  1.00  0.00     0.000 C 
BRANCH  17  18
ATOM     18  C   UNL     1     171.684 171.368 149.957  1.00  0.00    -0.000 C 
BRANCH  18  19
ATOM     19  C   UNL     1     170.160 171.146 150.018  1.00  0.00    -0.000 C 
BRANCH  19  20
ATOM     20  C   UNL     1     169.776 169.732 150.480  1.00  0.00    -0.000 C 
BRANCH  20  21
ATOM     21  C   UNL     1     170.948 168.739 150.395  1.00  0.00    -0.000 C 
BRANCH  21  22
ATOM     22  C   UNL     1     171.248 168.067 151.753  1.00  0.00    -0.000 C 
BRANCH  22  23
ATOM     23  C   UNL     1     170.285 168.480 152.879  1.00  0.00    -0.000 C 
BRANCH  23  24
ATOM     24  C   UNL     1     169.964 167.324 153.840  1.00  0.00    -0.000 C 
BRANCH  24  25
ATOM     25  C   UNL     1     170.247 167.678 155.308  1.00  0.00    -0.003 C 
ATOM     26  C   UNL     1     170.398 169.181 155.539  1.00  0.00     0.004 C 
ENDBRANCH  24  25
ENDBRANCH  23  24
ENDBRANCH  22  23
ENDBRANCH  21  22
ENDBRANCH  20  21
ENDBRANCH  19  20
ENDBRANCH  18  19
ENDBRANCH  17  18
ENDBRANCH  16  17
ENDBRANCH  15  16
ENDBRANCH   1  15
TORSDOF 22
ENDMDL
MODEL 9
REMARK VINA RESULT:    -3.356     12.836     16.586
REMARK INTER + INTRA:         -11.595
REMARK INTER:                  -9.256
REMARK INTRA:                  -2.339
REMARK UNBOUND:                -3.922
REMARK SMILES CCCCCCCCCCCCCCCCCCCCCCCC(=O)[O-]
REMARK SMILES IDX 13 1 14 2 15 3 16 4 17 5 18 6 19 7 20 8 21 9 22 10 23 11
REMARK SMILES IDX 24 12 25 13 26 14 12 15 11 16 10 17 9 18 8 19 7 20 6 21 5 22
REMARK SMILES IDX 4 23 3 24 2 25 1 26
REMARK H PARENT
REMARK Flexibility Score: inf
ROOT
ATOM      1  C   UNL     1     160.032 174.070 165.774  1.00  0.00     0.000 C 
ENDROOT
BRANCH   1   2
ATOM      2  C   UNL     1     159.329 175.305 165.194  1.00  0.00     0.000 C 
BRANCH   2   3
ATOM      3  C   UNL     1     158.174 174.948 164.241  1.00  0.00     0.000 C 
BRANCH   3   4
ATOM      4  C   UNL     1     158.261 173.520 163.659  1.00  0.00     0.000 C 
BRANCH   4   5
ATOM      5  C   UNL     1     157.729 173.440 162.218  1.00  0.00     0.000 C 
BRANCH   5   6
ATOM      6  C   UNL     1     156.739 174.568 161.881  1.00  0.00     0.000 C 
BRANCH   6   7
ATOM      7  C   UNL     1     155.273 174.089 161.785  1.00  0.00     0.000 C 
BRANCH   7   8
ATOM      8  C   UNL     1     154.657 173.850 163.176  1.00  0.00     0.000 C 
BRANCH   8   9
ATOM      9  C   UNL     1     154.317 172.367 163.431  1.00  0.00     0.000 C 
BRANCH   9  10
ATOM     10  C   UNL     1     155.156 171.720 164.548  1.00  0.00     0.006 C 
BRANCH  10  11
ATOM     11  C   UNL     1     154.524 171.884 165.938  1.00  0.00     0.053 C 
BRANCH  11  12
ATOM     12  C   UNL     1     155.562 172.192 166.976  1.00  0.00     0.041 C 
ATOM     13  O   UNL     1     155.541 171.611 168.093  1.00  0.00    -0.550 OA
ATOM     14  O   UNL     1     156.519 173.171 166.729  1.00  0.00    -0.550 OA
ENDBRANCH  11  12
ENDBRANCH  10  11
ENDBRANCH   9  10
ENDBRANCH   8   9
ENDBRANCH   7   8
ENDBRANCH   6   7
ENDBRANCH   5   6
ENDBRANCH   4   5
ENDBRANCH   3   4
ENDBRANCH   2   3
ENDBRANCH   1   2
BRANCH   1  15
ATOM     15  C   UNL     1     160.202 174.188 167.297  1.00  0.00     0.000 C 
BRANCH  15  16
ATOM     16  C   UNL     1     161.656 174.458 167.720  1.00  0.00     0.000 C 
BRANCH  16  17
ATOM     17  C   UNL     1     162.197 175.862 167.380  1.00  0.00     0.000 C 
BRANCH  17  18
ATOM     18  C   UNL     1     163.481 175.862 166.523  1.00  0.00    -0.000 C 
BRANCH  18  19
ATOM     19  C   UNL     1     163.194 175.817 165.009  1.00  0.00    -0.000 C 
BRANCH  19  20
ATOM     20  C   UNL     1     163.337 174.408 164.412  1.00  0.00    -0.000 C 
BRANCH  20  21
ATOM     21  C   UNL     1     164.480 174.309 163.386  1.00  0.00    -0.000 C 
BRANCH  21  22
ATOM     22  C   UNL     1     165.619 173.382 163.865  1.00  0.00    -0.000 C 
BRANCH  22  23
ATOM     23  C   UNL     1     167.022 173.850 163.443  1.00  0.00    -0.000 C 
BRANCH  23  24
ATOM     24  C   UNL     1     166.986 175.064 162.501  1.00  0.00    -0.000 C 
BRANCH  24  25
ATOM     25  C   UNL     1     167.358 174.702 161.054  1.00  0.00    -0.003 C 
ATOM     26  C   UNL     1     166.600 175.535 160.020  1.00  0.00     0.004 C 
ENDBRANCH  24  25
ENDBRANCH  23  24
ENDBRANCH  22  23
ENDBRANCH  21  22
ENDBRANCH  20  21
ENDBRANCH  19  20
ENDBRANCH  18  19
ENDBRANCH  17  18
ENDBRANCH  16  17
ENDBRANCH  15  16
ENDBRANCH   1  15
TORSDOF 22
ENDMDL
