MODEL 1
REMARK VINA RESULT:    -5.449      0.000      0.000
REMARK INTER + INTRA:          -6.527
REMARK INTER:                  -6.245
REMARK INTRA:                  -0.281
REMARK UNBOUND:                -0.281
REMARK SMILES O=C([O-])C=Cc1ccc(O)cc1
REMARK SMILES IDX 6 1 7 2 12 3 8 4 11 5 9 6 5 7 4 8 2 9 1 10 3 11 10 12
REMARK H PARENT 10 13
REMARK Flexibility Score: inf
ROOT
ATOM      1  C   UNL     1     -36.978  -7.069 -13.385  1.00  0.00    -0.025 A 
ATOM      2  C   UNL     1     -38.281  -6.552 -13.282  1.00  0.00     0.012 A 
ATOM      3  C   UNL     1     -36.791  -8.459 -13.415  1.00  0.00     0.012 A 
ATOM      4  C   UNL     1     -39.382  -7.415 -13.263  1.00  0.00     0.047 A 
ATOM      5  C   UNL     1     -37.893  -9.320 -13.395  1.00  0.00     0.047 A 
ATOM      6  C   UNL     1     -39.190  -8.802 -13.324  1.00  0.00     0.115 A 
ENDROOT
BRANCH   1   7
ATOM      7  C   UNL     1     -35.798  -6.181 -13.353  1.00  0.00     0.010 C 
ATOM      8  C   UNL     1     -35.296  -5.515 -14.406  1.00  0.00     0.025 C 
BRANCH   8   9
ATOM      9  C   UNL     1     -35.713  -5.683 -15.811  1.00  0.00     0.064 C 
ATOM     10  O   UNL     1     -35.053  -6.393 -16.614  1.00  0.00    -0.545 OA
ATOM     11  O   UNL     1     -36.821  -4.987 -16.275  1.00  0.00    -0.545 OA
ENDBRANCH   8   9
ENDBRANCH   1   7
BRANCH   6  12
ATOM     12  O   UNL     1     -40.279  -9.671 -13.306  1.00  0.00    -0.508 OA
ATOM     13  H   UNL     1     -40.631 -10.061 -12.439  1.00  0.00     0.293 HD
ENDBRANCH   6  12
TORSDOF 3
ENDMDL
MODEL 2
REMARK VINA RESULT:    -5.373      0.113      1.403
REMARK INTER + INTRA:          -6.439
REMARK INTER:                  -6.176
REMARK INTRA:                  -0.263
REMARK UNBOUND:                -0.281
REMARK SMILES O=C([O-])C=Cc1ccc(O)cc1
REMARK SMILES IDX 6 1 7 2 12 3 8 4 11 5 9 6 5 7 4 8 2 9 1 10 3 11 10 12
REMARK H PARENT 10 13
REMARK Flexibility Score: inf
ROOT
ATOM      1  C   UNL     1     -36.949  -7.050 -13.337  1.00  0.00    -0.025 A 
ATOM      2  C   UNL     1     -36.752  -8.436 -13.465  1.00  0.00     0.012 A 
ATOM      3  C   UNL     1     -38.256  -6.546 -13.267  1.00  0.00     0.012 A 
ATOM      4  C   UNL     1     -37.848  -9.305 -13.470  1.00  0.00     0.047 A 
ATOM      5  C   UNL     1     -39.350  -7.416 -13.273  1.00  0.00     0.047 A 
ATOM      6  C   UNL     1     -39.150  -8.797 -13.369  1.00  0.00     0.115 A 
ENDROOT
BRANCH   1   7
ATOM      7  C   UNL     1     -35.811  -6.108 -13.383  1.00  0.00     0.010 C 
ATOM      8  C   UNL     1     -35.384  -5.456 -14.476  1.00  0.00     0.025 C 
BRANCH   8   9
ATOM      9  C   UNL     1     -35.851  -5.690 -15.857  1.00  0.00     0.064 C 
ATOM     10  O   UNL     1     -35.165  -6.351 -16.680  1.00  0.00    -0.545 OA
ATOM     11  O   UNL     1     -37.040  -5.109 -16.276  1.00  0.00    -0.545 OA
ENDBRANCH   8   9
ENDBRANCH   1   7
BRANCH   6  12
ATOM     12  O   UNL     1     -40.249  -9.653 -13.372  1.00  0.00    -0.508 OA
ATOM     13  H   UNL     1     -40.664  -9.985 -12.508  1.00  0.00     0.293 HD
ENDBRANCH   6  12
TORSDOF 3
ENDMDL
MODEL 3
REMARK VINA RESULT:    -5.085      5.684      9.130
REMARK INTER + INTRA:          -6.109
REMARK INTER:                  -6.164
REMARK INTRA:                   0.054
REMARK UNBOUND:                -0.281
REMARK SMILES O=C([O-])C=Cc1ccc(O)cc1
REMARK SMILES IDX 6 1 7 2 12 3 8 4 11 5 9 6 5 7 4 8 2 9 1 10 3 11 10 12
REMARK H PARENT 10 13
REMARK Flexibility Score: inf
ROOT
ATOM      1  C   UNL     1     -31.094  -3.177 -17.833  1.00  0.00    -0.025 A 
ATOM      2  C   UNL     1     -29.855  -3.322 -18.481  1.00  0.00     0.012 A 
ATOM      3  C   UNL     1     -32.160  -2.574 -18.516  1.00  0.00     0.012 A 
ATOM      4  C   UNL     1     -29.704  -2.917 -19.811  1.00  0.00     0.047 A 
ATOM      5  C   UNL     1     -32.007  -2.168 -19.845  1.00  0.00     0.047 A 
ATOM      6  C   UNL     1     -30.782  -2.342 -20.498  1.00  0.00     0.115 A 
ENDROOT
BRANCH   1   7
ATOM      7  C   UNL     1     -31.262  -3.549 -16.413  1.00  0.00     0.010 C 
ATOM      8  C   UNL     1     -32.215  -4.362 -15.928  1.00  0.00     0.025 C 
BRANCH   8   9
ATOM      9  C   UNL     1     -33.367  -4.888 -16.686  1.00  0.00     0.064 C 
ATOM     10  O   UNL     1     -33.255  -5.880 -17.452  1.00  0.00    -0.545 OA
ATOM     11  O   UNL     1     -34.586  -4.228 -16.606  1.00  0.00    -0.545 OA
ENDBRANCH   8   9
ENDBRANCH   1   7
BRANCH   6  12
ATOM     12  O   UNL     1     -30.644  -1.935 -21.823  1.00  0.00    -0.508 OA
ATOM     13  H   UNL     1     -31.448  -1.683 -22.386  1.00  0.00     0.293 HD
ENDBRANCH   6  12
TORSDOF 3
ENDMDL
MODEL 4
REMARK VINA RESULT:    -5.070      1.627      4.786
REMARK INTER + INTRA:          -6.092
REMARK INTER:                  -5.898
REMARK INTRA:                  -0.194
REMARK UNBOUND:                -0.281
REMARK SMILES O=C([O-])C=Cc1ccc(O)cc1
REMARK SMILES IDX 6 1 7 2 12 3 8 4 11 5 9 6 5 7 4 8 2 9 1 10 3 11 10 12
REMARK H PARENT 10 13
REMARK Flexibility Score: inf
ROOT
ATOM      1  C   UNL     1     -36.074  -7.050 -13.842  1.00  0.00    -0.025 A 
ATOM      2  C   UNL     1     -35.878  -6.904 -15.227  1.00  0.00     0.012 A 
ATOM      3  C   UNL     1     -35.829  -5.959 -12.996  1.00  0.00     0.012 A 
ATOM      4  C   UNL     1     -35.494  -5.669 -15.758  1.00  0.00     0.047 A 
ATOM      5  C   UNL     1     -35.444  -4.725 -13.529  1.00  0.00     0.047 A 
ATOM      6  C   UNL     1     -35.280  -4.574 -14.910  1.00  0.00     0.115 A 
ENDROOT
BRANCH   1   7
ATOM      7  C   UNL     1     -36.427  -8.358 -13.253  1.00  0.00     0.010 C 
ATOM      8  C   UNL     1     -37.591  -9.002 -13.429  1.00  0.00     0.025 C 
BRANCH   8   9
ATOM      9  C   UNL     1     -38.791  -8.450 -14.088  1.00  0.00     0.064 C 
ATOM     10  O   UNL     1     -39.691  -7.862 -13.434  1.00  0.00    -0.545 OA
ATOM     11  O   UNL     1     -38.963  -8.645 -15.452  1.00  0.00    -0.545 OA
ENDBRANCH   8   9
ENDBRANCH   1   7
BRANCH   6  12
ATOM     12  O   UNL     1     -34.899  -3.338 -15.427  1.00  0.00    -0.508 OA
ATOM     13  H   UNL     1     -35.432  -2.497 -15.238  1.00  0.00     0.293 HD
ENDBRANCH   6  12
TORSDOF 3
ENDMDL
MODEL 5
REMARK VINA RESULT:    -4.985      1.718      2.177
REMARK INTER + INTRA:          -5.995
REMARK INTER:                  -5.745
REMARK INTRA:                  -0.250
REMARK UNBOUND:                -0.281
REMARK SMILES O=C([O-])C=Cc1ccc(O)cc1
REMARK SMILES IDX 6 1 7 2 12 3 8 4 11 5 9 6 5 7 4 8 2 9 1 10 3 11 10 12
REMARK H PARENT 10 13
REMARK Flexibility Score: inf
ROOT
ATOM      1  C   UNL     1     -36.773  -7.564 -14.953  1.00  0.00    -0.025 A 
ATOM      2  C   UNL     1     -36.539  -8.209 -13.726  1.00  0.00     0.012 A 
ATOM      3  C   UNL     1     -37.994  -7.768 -15.614  1.00  0.00     0.012 A 
ATOM      4  C   UNL     1     -37.535  -9.002 -13.146  1.00  0.00     0.047 A 
ATOM      5  C   UNL     1     -38.987  -8.562 -15.032  1.00  0.00     0.047 A 
ATOM      6  C   UNL     1     -38.763  -9.176 -13.797  1.00  0.00     0.115 A 
ENDROOT
BRANCH   1   7
ATOM      7  C   UNL     1     -35.718  -6.765 -15.611  1.00  0.00     0.010 C 
ATOM      8  C   UNL     1     -35.306  -5.549 -15.221  1.00  0.00     0.025 C 
BRANCH   8   9
ATOM      9  C   UNL     1     -35.943  -4.714 -14.185  1.00  0.00     0.064 C 
ATOM     10  O   UNL     1     -35.544  -4.726 -12.991  1.00  0.00    -0.545 OA
ATOM     11  O   UNL     1     -37.053  -3.949 -14.520  1.00  0.00    -0.545 OA
ENDBRANCH   8   9
ENDBRANCH   1   7
BRANCH   6  12
ATOM     12  O   UNL     1     -39.762  -9.963 -13.228  1.00  0.00    -0.508 OA
ATOM     13  H   UNL     1     -40.745  -9.753 -13.365  1.00  0.00     0.293 HD
ENDBRANCH   6  12
TORSDOF 3
ENDMDL
MODEL 6
REMARK VINA RESULT:    -4.923      1.413      1.642
REMARK INTER + INTRA:          -5.924
REMARK INTER:                  -5.640
REMARK INTRA:                  -0.284
REMARK UNBOUND:                -0.281
REMARK SMILES O=C([O-])C=Cc1ccc(O)cc1
REMARK SMILES IDX 6 1 7 2 12 3 8 4 11 5 9 6 5 7 4 8 2 9 1 10 3 11 10 12
REMARK H PARENT 10 13
REMARK Flexibility Score: inf
ROOT
ATOM      1  C   UNL     1     -38.087  -6.475 -13.401  1.00  0.00    -0.025 A 
ATOM      2  C   UNL     1     -39.454  -6.493 -13.074  1.00  0.00     0.012 A 
ATOM      3  C   UNL     1     -37.417  -7.688 -13.621  1.00  0.00     0.012 A 
ATOM      4  C   UNL     1     -40.150  -7.705 -13.021  1.00  0.00     0.047 A 
ATOM      5  C   UNL     1     -38.115  -8.898 -13.567  1.00  0.00     0.047 A 
ATOM      6  C   UNL     1     -39.481  -8.911 -13.272  1.00  0.00     0.115 A 
ENDROOT
BRANCH   1   7
ATOM      7  C   UNL     1     -37.319  -5.212 -13.411  1.00  0.00     0.010 C 
ATOM      8  C   UNL     1     -37.282  -4.331 -14.422  1.00  0.00     0.025 C 
BRANCH   8   9
ATOM      9  C   UNL     1     -37.850  -4.540 -15.769  1.00  0.00     0.064 C 
ATOM     10  O   UNL     1     -37.169  -5.042 -16.701  1.00  0.00    -0.545 OA
ATOM     11  O   UNL     1     -39.144  -4.108 -16.031  1.00  0.00    -0.545 OA
ENDBRANCH   8   9
ENDBRANCH   1   7
BRANCH   6  12
ATOM     12  O   UNL     1     -40.164 -10.125 -13.223  1.00  0.00    -0.508 OA
ATOM     13  H   UNL     1     -39.696 -10.986 -12.963  1.00  0.00     0.293 HD
ENDBRANCH   6  12
TORSDOF 3
ENDMDL
MODEL 7
REMARK VINA RESULT:    -4.897      1.441      2.127
REMARK INTER + INTRA:          -5.894
REMARK INTER:                  -5.599
REMARK INTRA:                  -0.295
REMARK UNBOUND:                -0.281
REMARK SMILES O=C([O-])C=Cc1ccc(O)cc1
REMARK SMILES IDX 6 1 7 2 12 3 8 4 11 5 9 6 5 7 4 8 2 9 1 10 3 11 10 12
REMARK H PARENT 10 13
REMARK Flexibility Score: inf
ROOT
ATOM      1  C   UNL     1     -36.461  -6.622 -14.144  1.00  0.00    -0.025 A 
ATOM      2  C   UNL     1     -36.439  -7.600 -15.154  1.00  0.00     0.012 A 
ATOM      3  C   UNL     1     -37.622  -6.454 -13.375  1.00  0.00     0.012 A 
ATOM      4  C   UNL     1     -37.546  -8.432 -15.352  1.00  0.00     0.047 A 
ATOM      5  C   UNL     1     -38.727  -7.287 -13.576  1.00  0.00     0.047 A 
ATOM      6  C   UNL     1     -38.692  -8.280 -14.560  1.00  0.00     0.115 A 
ENDROOT
BRANCH   1   7
ATOM      7  C   UNL     1     -35.325  -5.696 -13.951  1.00  0.00     0.010 C 
ATOM      8  C   UNL     1     -35.184  -4.502 -14.549  1.00  0.00     0.025 C 
BRANCH   8   9
ATOM      9  C   UNL     1     -36.035  -3.974 -15.633  1.00  0.00     0.064 C 
ATOM     10  O   UNL     1     -37.047  -3.267 -15.390  1.00  0.00    -0.545 OA
ATOM     11  O   UNL     1     -35.752  -4.324 -16.946  1.00  0.00    -0.545 OA
ENDBRANCH   8   9
ENDBRANCH   1   7
BRANCH   6  12
ATOM     12  O   UNL     1     -39.799  -9.103 -14.747  1.00  0.00    -0.508 OA
ATOM     13  H   UNL     1     -40.743  -8.762 -14.603  1.00  0.00     0.293 HD
ENDBRANCH   6  12
TORSDOF 3
ENDMDL
MODEL 8
REMARK VINA RESULT:    -4.817      2.464      4.698
REMARK INTER + INTRA:          -5.802
REMARK INTER:                  -5.530
REMARK INTRA:                  -0.272
REMARK UNBOUND:                -0.281
REMARK SMILES O=C([O-])C=Cc1ccc(O)cc1
REMARK SMILES IDX 6 1 7 2 12 3 8 4 11 5 9 6 5 7 4 8 2 9 1 10 3 11 10 12
REMARK H PARENT 10 13
REMARK Flexibility Score: inf
ROOT
ATOM      1  C   UNL     1     -37.353  -6.657 -14.602  1.00  0.00    -0.025 A 
ATOM      2  C   UNL     1     -36.130  -6.850 -13.936  1.00  0.00     0.012 A 
ATOM      3  C   UNL     1     -38.138  -5.539 -14.286  1.00  0.00     0.012 A 
ATOM      4  C   UNL     1     -35.678  -5.908 -13.008  1.00  0.00     0.047 A 
ATOM      5  C   UNL     1     -37.684  -4.598 -13.357  1.00  0.00     0.047 A 
ATOM      6  C   UNL     1     -36.453  -4.776 -12.719  1.00  0.00     0.115 A 
ENDROOT
BRANCH   1   7
ATOM      7  C   UNL     1     -37.877  -7.666 -15.547  1.00  0.00     0.010 C 
ATOM      8  C   UNL     1     -38.717  -8.665 -15.233  1.00  0.00     0.025 C 
BRANCH   8   9
ATOM      9  C   UNL     1     -39.129  -9.048 -13.869  1.00  0.00     0.064 C 
ATOM     10  O   UNL     1     -38.359  -9.684 -13.103  1.00  0.00    -0.545 OA
ATOM     11  O   UNL     1     -40.420  -8.761 -13.447  1.00  0.00    -0.545 OA
ENDBRANCH   8   9
ENDBRANCH   1   7
BRANCH   6  12
ATOM     12  O   UNL     1     -36.012  -3.830 -11.796  1.00  0.00    -0.508 OA
ATOM     13  H   UNL     1     -35.080  -3.872 -11.399  1.00  0.00     0.293 HD
ENDBRANCH   6  12
TORSDOF 3
ENDMDL
MODEL 9
REMARK VINA RESULT:    -4.811      1.951      2.380
REMARK INTER + INTRA:          -5.795
REMARK INTER:                  -5.525
REMARK INTRA:                  -0.270
REMARK UNBOUND:                -0.281
REMARK SMILES O=C([O-])C=Cc1ccc(O)cc1
REMARK SMILES IDX 6 1 7 2 12 3 8 4 11 5 9 6 5 7 4 8 2 9 1 10 3 11 10 12
REMARK H PARENT 10 13
REMARK Flexibility Score: inf
ROOT
ATOM      1  C   UNL     1     -38.668  -6.334 -14.602  1.00  0.00    -0.025 A 
ATOM      2  C   UNL     1     -39.456  -6.452 -13.444  1.00  0.00     0.012 A 
ATOM      3  C   UNL     1     -38.281  -7.493 -15.290  1.00  0.00     0.012 A 
ATOM      4  C   UNL     1     -39.892  -7.709 -13.013  1.00  0.00     0.047 A 
ATOM      5  C   UNL     1     -38.717  -8.749 -14.857  1.00  0.00     0.047 A 
ATOM      6  C   UNL     1     -39.526  -8.861 -13.722  1.00  0.00     0.115 A 
ENDROOT
BRANCH   1   7
ATOM      7  C   UNL     1     -38.151  -5.023 -15.045  1.00  0.00     0.010 C 
ATOM      8  C   UNL     1     -36.990  -4.471 -14.657  1.00  0.00     0.025 C 
BRANCH   8   9
ATOM      9  C   UNL     1     -36.108  -4.982 -13.590  1.00  0.00     0.064 C 
ATOM     10  O   UNL     1     -36.063  -4.438 -12.455  1.00  0.00    -0.545 OA
ATOM     11  O   UNL     1     -35.257  -6.044 -13.866  1.00  0.00    -0.545 OA
ENDBRANCH   8   9
ENDBRANCH   1   7
BRANCH   6  12
ATOM     12  O   UNL     1     -39.956 -10.119 -13.304  1.00  0.00    -0.508 OA
ATOM     13  H   UNL     1     -39.627 -10.967 -13.752  1.00  0.00     0.293 HD
ENDBRANCH   6  12
TORSDOF 3
ENDMDL
