MODEL 1
REMARK VINA RESULT:    -4.612      0.000      0.000
REMARK INTER + INTRA:          -9.812
REMARK INTER:                  -7.848
REMARK INTRA:                  -1.964
REMARK UNBOUND:                -1.964
REMARK SMILES CCCCCCCCCCCCCC(=O)[O-]
REMARK SMILES IDX 8 1 9 2 10 3 11 4 12 5 13 6 14 7 15 8 16 9 7 10 6 11 5 12
REMARK SMILES IDX 4 13 3 14 2 15 1 16
REMARK H PARENT
REMARK Flexibility Score: inf
ROOT
ATOM      1  C   UNL     1      61.584  29.014  13.726  1.00  0.00     0.000 C 
ENDROOT
BRANCH   1   2
ATOM      2  C   UNL     1      62.992  29.158  13.125  1.00  0.00     0.000 C 
BRANCH   2   3
ATOM      3  C   UNL     1      63.622  30.529  13.420  1.00  0.00     0.000 C 
BRANCH   3   4
ATOM      4  C   UNL     1      62.961  31.671  12.633  1.00  0.00     0.000 C 
BRANCH   4   5
ATOM      5  C   UNL     1      62.329  32.696  13.581  1.00  0.00     0.006 C 
BRANCH   5   6
ATOM      6  C   UNL     1      60.807  32.733  13.415  1.00  0.00     0.053 C 
BRANCH   6   7
ATOM      7  C   UNL     1      60.134  32.176  14.630  1.00  0.00     0.041 C 
ATOM      8  O   UNL     1      60.768  32.071  15.713  1.00  0.00    -0.550 OA
ATOM      9  O   UNL     1      58.793  31.819  14.580  1.00  0.00    -0.550 OA
ENDBRANCH   6   7
ENDBRANCH   5   6
ENDBRANCH   4   5
ENDBRANCH   3   4
ENDBRANCH   2   3
ENDBRANCH   1   2
BRANCH   1  10
ATOM     10  C   UNL     1      60.580  28.396  12.737  1.00  0.00     0.000 C 
BRANCH  10  11
ATOM     11  C   UNL     1      59.796  29.459  11.948  1.00  0.00    -0.000 C 
BRANCH  11  12
ATOM     12  C   UNL     1      60.197  29.509  10.464  1.00  0.00    -0.000 C 
BRANCH  12  13
ATOM     13  C   UNL     1      61.177  28.387  10.078  1.00  0.00    -0.000 C 
BRANCH  13  14
ATOM     14  C   UNL     1      62.158  28.815   8.975  1.00  0.00    -0.000 C 
BRANCH  14  15
ATOM     15  C   UNL     1      63.599  28.965   9.487  1.00  0.00    -0.003 C 
ATOM     16  C   UNL     1      64.056  30.420   9.422  1.00  0.00     0.004 C 
ENDBRANCH  14  15
ENDBRANCH  13  14
ENDBRANCH  12  13
ENDBRANCH  11  12
ENDBRANCH  10  11
ENDBRANCH   1  10
TORSDOF 12
ENDMDL
MODEL 2
REMARK VINA RESULT:    -4.501     12.815     14.767
REMARK INTER + INTRA:          -9.622
REMARK INTER:                  -7.746
REMARK INTRA:                  -1.876
REMARK UNBOUND:                -1.964
REMARK SMILES CCCCCCCCCCCCCC(=O)[O-]
REMARK SMILES IDX 8 1 9 2 10 3 11 4 12 5 13 6 14 7 15 8 16 9 7 10 6 11 5 12
REMARK SMILES IDX 4 13 3 14 2 15 1 16
REMARK H PARENT
REMARK Flexibility Score: inf
ROOT
ATOM      1  C   UNL     1      63.314  30.522  28.026  1.00  0.00     0.000 C 
ENDROOT
BRANCH   1   2
ATOM      2  C   UNL     1      64.440  29.544  27.650  1.00  0.00     0.000 C 
BRANCH   2   3
ATOM      3  C   UNL     1      65.332  30.078  26.518  1.00  0.00     0.000 C 
BRANCH   3   4
ATOM      4  C   UNL     1      66.103  28.966  25.791  1.00  0.00     0.000 C 
BRANCH   4   5
ATOM      5  C   UNL     1      65.201  28.239  24.788  1.00  0.00     0.006 C 
BRANCH   5   6
ATOM      6  C   UNL     1      64.958  26.788  25.218  1.00  0.00     0.053 C 
BRANCH   6   7
ATOM      7  C   UNL     1      64.719  25.921  24.022  1.00  0.00     0.041 C 
ATOM      8  O   UNL     1      65.654  25.687  23.212  1.00  0.00    -0.550 OA
ATOM      9  O   UNL     1      63.477  25.332  23.828  1.00  0.00    -0.550 OA
ENDBRANCH   6   7
ENDBRANCH   5   6
ENDBRANCH   4   5
ENDBRANCH   3   4
ENDBRANCH   2   3
ENDBRANCH   1   2
BRANCH   1  10
ATOM     10  C   UNL     1      62.119  29.819  28.694  1.00  0.00     0.000 C 
BRANCH  10  11
ATOM     11  C   UNL     1      62.397  28.334  28.987  1.00  0.00    -0.000 C 
BRANCH  11  12
ATOM     12  C   UNL     1      61.352  27.401  28.351  1.00  0.00    -0.000 C 
BRANCH  12  13
ATOM     13  C   UNL     1      61.718  26.997  26.912  1.00  0.00    -0.000 C 
BRANCH  13  14
ATOM     14  C   UNL     1      60.760  27.598  25.871  1.00  0.00    -0.000 C 
BRANCH  14  15
ATOM     15  C   UNL     1      61.495  28.171  24.649  1.00  0.00    -0.003 C 
ATOM     16  C   UNL     1      61.890  29.627  24.879  1.00  0.00     0.004 C 
ENDBRANCH  14  15
ENDBRANCH  13  14
ENDBRANCH  12  13
ENDBRANCH  11  12
ENDBRANCH  10  11
ENDBRANCH   1  10
TORSDOF 12
ENDMDL
MODEL 3
REMARK VINA RESULT:    -4.487     12.436     14.717
REMARK INTER + INTRA:          -9.599
REMARK INTER:                  -7.908
REMARK INTRA:                  -1.691
REMARK UNBOUND:                -1.964
REMARK SMILES CCCCCCCCCCCCCC(=O)[O-]
REMARK SMILES IDX 8 1 9 2 10 3 11 4 12 5 13 6 14 7 15 8 16 9 7 10 6 11 5 12
REMARK SMILES IDX 4 13 3 14 2 15 1 16
REMARK H PARENT
REMARK Flexibility Score: inf
ROOT
ATOM      1  C   UNL     1      61.944  29.596  25.089  1.00  0.00     0.000 C 
ENDROOT
BRANCH   1   2
ATOM      2  C   UNL     1      63.426  29.970  24.919  1.00  0.00     0.000 C 
BRANCH   2   3
ATOM      3  C   UNL     1      64.267  29.625  26.159  1.00  0.00     0.000 C 
BRANCH   3   4
ATOM      4  C   UNL     1      65.526  28.812  25.818  1.00  0.00     0.000 C 
BRANCH   4   5
ATOM      5  C   UNL     1      65.370  28.101  24.469  1.00  0.00     0.006 C 
BRANCH   5   6
ATOM      6  C   UNL     1      65.202  26.590  24.661  1.00  0.00     0.053 C 
BRANCH   6   7
ATOM      7  C   UNL     1      64.984  25.916  23.344  1.00  0.00     0.041 C 
ATOM      8  O   UNL     1      63.887  26.046  22.739  1.00  0.00    -0.550 OA
ATOM      9  O   UNL     1      66.009  25.183  22.759  1.00  0.00    -0.550 OA
ENDBRANCH   6   7
ENDBRANCH   5   6
ENDBRANCH   4   5
ENDBRANCH   3   4
ENDBRANCH   2   3
ENDBRANCH   1   2
BRANCH   1  10
ATOM     10  C   UNL     1      61.646  28.151  24.656  1.00  0.00     0.000 C 
BRANCH  10  11
ATOM     11  C   UNL     1      60.856  27.367  25.720  1.00  0.00    -0.000 C 
BRANCH  11  12
ATOM     12  C   UNL     1      61.718  26.991  26.937  1.00  0.00    -0.000 C 
BRANCH  12  13
ATOM     13  C   UNL     1      60.991  27.226  28.272  1.00  0.00    -0.000 C 
BRANCH  13  14
ATOM     14  C   UNL     1      61.012  28.702  28.701  1.00  0.00    -0.000 C 
BRANCH  14  15
ATOM     15  C   UNL     1      62.410  29.178  29.125  1.00  0.00    -0.003 C 
ATOM     16  C   UNL     1      62.535  30.694  29.001  1.00  0.00     0.004 C 
ENDBRANCH  14  15
ENDBRANCH  13  14
ENDBRANCH  12  13
ENDBRANCH  11  12
ENDBRANCH  10  11
ENDBRANCH   1  10
TORSDOF 12
ENDMDL
MODEL 4
REMARK VINA RESULT:    -4.472      0.948      2.993
REMARK INTER + INTRA:          -9.573
REMARK INTER:                  -7.985
REMARK INTRA:                  -1.588
REMARK UNBOUND:                -1.964
REMARK SMILES CCCCCCCCCCCCCC(=O)[O-]
REMARK SMILES IDX 8 1 9 2 10 3 11 4 12 5 13 6 14 7 15 8 16 9 7 10 6 11 5 12
REMARK SMILES IDX 4 13 3 14 2 15 1 16
REMARK H PARENT
REMARK Flexibility Score: inf
ROOT
ATOM      1  C   UNL     1      63.720  30.454   9.247  1.00  0.00     0.000 C 
ENDROOT
BRANCH   1   2
ATOM      2  C   UNL     1      64.399  31.253  10.373  1.00  0.00     0.000 C 
BRANCH   2   3
ATOM      3  C   UNL     1      63.599  31.220  11.685  1.00  0.00     0.000 C 
BRANCH   3   4
ATOM      4  C   UNL     1      63.882  32.432  12.586  1.00  0.00     0.000 C 
BRANCH   4   5
ATOM      5  C   UNL     1      62.833  32.545  13.698  1.00  0.00     0.006 C 
BRANCH   5   6
ATOM      6  C   UNL     1      61.414  32.468  13.124  1.00  0.00     0.053 C 
BRANCH   6   7
ATOM      7  C   UNL     1      60.402  32.727  14.195  1.00  0.00     0.041 C 
ATOM      8  O   UNL     1      60.493  33.754  14.918  1.00  0.00    -0.550 OA
ATOM      9  O   UNL     1      59.331  31.860  14.364  1.00  0.00    -0.550 OA
ENDBRANCH   6   7
ENDBRANCH   5   6
ENDBRANCH   4   5
ENDBRANCH   3   4
ENDBRANCH   2   3
ENDBRANCH   1   2
BRANCH   1  10
ATOM     10  C   UNL     1      63.392  29.010   9.662  1.00  0.00     0.000 C 
BRANCH  10  11
ATOM     11  C   UNL     1      61.974  28.582   9.243  1.00  0.00    -0.000 C 
BRANCH  11  12
ATOM     12  C   UNL     1      60.915  29.650   9.564  1.00  0.00    -0.000 C 
BRANCH  12  13
ATOM     13  C   UNL     1      59.739  29.090  10.382  1.00  0.00    -0.000 C 
BRANCH  13  14
ATOM     14  C   UNL     1      59.871  29.389  11.884  1.00  0.00    -0.000 C 
BRANCH  14  15
ATOM     15  C   UNL     1      60.511  28.231  12.665  1.00  0.00    -0.003 C 
ATOM     16  C   UNL     1      61.787  28.684  13.370  1.00  0.00     0.004 C 
ENDBRANCH  14  15
ENDBRANCH  13  14
ENDBRANCH  12  13
ENDBRANCH  11  12
ENDBRANCH  10  11
ENDBRANCH   1  10
TORSDOF 12
ENDMDL
MODEL 5
REMARK VINA RESULT:    -4.466      1.043      2.157
REMARK INTER + INTRA:          -9.562
REMARK INTER:                  -7.610
REMARK INTRA:                  -1.952
REMARK UNBOUND:                -1.964
REMARK SMILES CCCCCCCCCCCCCC(=O)[O-]
REMARK SMILES IDX 8 1 9 2 10 3 11 4 12 5 13 6 14 7 15 8 16 9 7 10 6 11 5 12
REMARK SMILES IDX 4 13 3 14 2 15 1 16
REMARK H PARENT
REMARK Flexibility Score: inf
ROOT
ATOM      1  C   UNL     1      63.650  29.598  12.411  1.00  0.00     0.000 C 
ENDROOT
BRANCH   1   2
ATOM      2  C   UNL     1      63.729  31.007  11.800  1.00  0.00     0.000 C 
BRANCH   2   3
ATOM      3  C   UNL     1      62.770  31.999  12.478  1.00  0.00     0.000 C 
BRANCH   3   4
ATOM      4  C   UNL     1      63.429  32.771  13.631  1.00  0.00     0.000 C 
BRANCH   4   5
ATOM      5  C   UNL     1      62.399  33.134  14.707  1.00  0.00     0.006 C 
BRANCH   5   6
ATOM      6  C   UNL     1      60.976  33.096  14.140  1.00  0.00     0.053 C 
BRANCH   6   7
ATOM      7  C   UNL     1      60.132  32.129  14.909  1.00  0.00     0.041 C 
ATOM      8  O   UNL     1      58.941  31.912  14.562  1.00  0.00    -0.550 OA
ATOM      9  O   UNL     1      60.675  31.430  15.980  1.00  0.00    -0.550 OA
ENDBRANCH   6   7
ENDBRANCH   5   6
ENDBRANCH   4   5
ENDBRANCH   3   4
ENDBRANCH   2   3
ENDBRANCH   1   2
BRANCH   1  10
ATOM     10  C   UNL     1      62.492  29.452  13.412  1.00  0.00     0.000 C 
BRANCH  10  11
ATOM     11  C   UNL     1      61.461  28.396  12.975  1.00  0.00    -0.000 C 
BRANCH  11  12
ATOM     12  C   UNL     1      60.044  28.977  12.832  1.00  0.00    -0.000 C 
BRANCH  12  13
ATOM     13  C   UNL     1      59.921  29.951  11.648  1.00  0.00    -0.000 C 
BRANCH  13  14
ATOM     14  C   UNL     1      59.912  29.230  10.290  1.00  0.00    -0.000 C 
BRANCH  14  15
ATOM     15  C   UNL     1      61.005  29.740   9.339  1.00  0.00    -0.003 C 
ATOM     16  C   UNL     1      62.119  28.710   9.180  1.00  0.00     0.004 C 
ENDBRANCH  14  15
ENDBRANCH  13  14
ENDBRANCH  12  13
ENDBRANCH  11  12
ENDBRANCH  10  11
ENDBRANCH   1  10
TORSDOF 12
ENDMDL
MODEL 6
REMARK VINA RESULT:    -4.402     12.421     14.049
REMARK INTER + INTRA:          -9.453
REMARK INTER:                  -7.803
REMARK INTRA:                  -1.651
REMARK UNBOUND:                -1.964
REMARK SMILES CCCCCCCCCCCCCC(=O)[O-]
REMARK SMILES IDX 8 1 9 2 10 3 11 4 12 5 13 6 14 7 15 8 16 9 7 10 6 11 5 12
REMARK SMILES IDX 4 13 3 14 2 15 1 16
REMARK H PARENT
REMARK Flexibility Score: inf
ROOT
ATOM      1  C   UNL     1      61.634  28.629  24.727  1.00  0.00     0.000 C 
ENDROOT
BRANCH   1   2
ATOM      2  C   UNL     1      62.936  29.448  24.729  1.00  0.00     0.000 C 
BRANCH   2   3
ATOM      3  C   UNL     1      63.009  30.438  25.903  1.00  0.00     0.000 C 
BRANCH   3   4
ATOM      4  C   UNL     1      64.227  30.198  26.809  1.00  0.00     0.000 C 
BRANCH   4   5
ATOM      5  C   UNL     1      63.791  29.907  28.249  1.00  0.00     0.006 C 
BRANCH   5   6
ATOM      6  C   UNL     1      62.273  30.048  28.402  1.00  0.00     0.053 C 
BRANCH   6   7
ATOM      7  C   UNL     1      61.677  28.771  28.904  1.00  0.00     0.041 C 
ATOM      8  O   UNL     1      60.439  28.693  29.125  1.00  0.00    -0.550 OA
ATOM      9  O   UNL     1      62.479  27.651  29.083  1.00  0.00    -0.550 OA
ENDBRANCH   6   7
ENDBRANCH   5   6
ENDBRANCH   4   5
ENDBRANCH   3   4
ENDBRANCH   2   3
ENDBRANCH   1   2
BRANCH   1  10
ATOM     10  C   UNL     1      61.764  27.314  25.514  1.00  0.00     0.000 C 
BRANCH  10  11
ATOM     11  C   UNL     1      63.224  26.851  25.656  1.00  0.00    -0.000 C 
BRANCH  11  12
ATOM     12  C   UNL     1      63.681  25.967  24.483  1.00  0.00    -0.000 C 
BRANCH  12  13
ATOM     13  C   UNL     1      65.198  26.048  24.237  1.00  0.00    -0.000 C 
BRANCH  13  14
ATOM     14  C   UNL     1      65.540  26.460  22.797  1.00  0.00    -0.000 C 
BRANCH  14  15
ATOM     15  C   UNL     1      66.203  27.844  22.717  1.00  0.00    -0.003 C 
ATOM     16  C   UNL     1      66.371  28.453  24.106  1.00  0.00     0.004 C 
ENDBRANCH  14  15
ENDBRANCH  13  14
ENDBRANCH  12  13
ENDBRANCH  11  12
ENDBRANCH  10  11
ENDBRANCH   1  10
TORSDOF 12
ENDMDL
MODEL 7
REMARK VINA RESULT:    -4.345      2.528      5.528
REMARK INTER + INTRA:          -9.358
REMARK INTER:                  -7.608
REMARK INTRA:                  -1.749
REMARK UNBOUND:                -1.964
REMARK SMILES CCCCCCCCCCCCCC(=O)[O-]
REMARK SMILES IDX 8 1 9 2 10 3 11 4 12 5 13 6 14 7 15 8 16 9 7 10 6 11 5 12
REMARK SMILES IDX 4 13 3 14 2 15 1 16
REMARK H PARENT
REMARK Flexibility Score: inf
ROOT
ATOM      1  C   UNL     1      62.897  30.990  12.141  1.00  0.00     0.000 C 
ENDROOT
BRANCH   1   2
ATOM      2  C   UNL     1      63.403  29.541  12.256  1.00  0.00     0.000 C 
BRANCH   2   3
ATOM      3  C   UNL     1      62.652  28.738  13.330  1.00  0.00     0.000 C 
BRANCH   3   4
ATOM      4  C   UNL     1      61.183  29.165  13.474  1.00  0.00     0.000 C 
BRANCH   4   5
ATOM      5  C   UNL     1      60.258  28.217  12.701  1.00  0.00     0.006 C 
BRANCH   5   6
ATOM      6  C   UNL     1      59.489  28.969  11.610  1.00  0.00     0.053 C 
BRANCH   6   7
ATOM      7  C   UNL     1      60.317  29.080  10.368  1.00  0.00     0.041 C 
ATOM      8  O   UNL     1      60.268  30.124   9.666  1.00  0.00    -0.550 OA
ATOM      9  O   UNL     1      61.178  28.051  10.013  1.00  0.00    -0.550 OA
ENDBRANCH   6   7
ENDBRANCH   5   6
ENDBRANCH   4   5
ENDBRANCH   3   4
ENDBRANCH   2   3
ENDBRANCH   1   2
BRANCH   1  10
ATOM     10  C   UNL     1      64.033  32.022  12.252  1.00  0.00     0.000 C 
BRANCH  10  11
ATOM     11  C   UNL     1      63.994  32.802  13.578  1.00  0.00    -0.000 C 
BRANCH  11  12
ATOM     12  C   UNL     1      63.961  31.878  14.807  1.00  0.00    -0.000 C 
BRANCH  12  13
ATOM     13  C   UNL     1      62.906  32.307  15.841  1.00  0.00    -0.000 C 
BRANCH  13  14
ATOM     14  C   UNL     1      62.124  33.556  15.402  1.00  0.00    -0.000 C 
BRANCH  14  15
ATOM     15  C   UNL     1      60.614  33.298  15.282  1.00  0.00    -0.003 C 
ATOM     16  C   UNL     1      60.258  32.762  13.898  1.00  0.00     0.004 C 
ENDBRANCH  14  15
ENDBRANCH  13  14
ENDBRANCH  12  13
ENDBRANCH  11  12
ENDBRANCH  10  11
ENDBRANCH   1  10
TORSDOF 12
ENDMDL
MODEL 8
REMARK VINA RESULT:    -4.344      2.163      3.760
REMARK INTER + INTRA:          -9.356
REMARK INTER:                  -7.701
REMARK INTRA:                  -1.655
REMARK UNBOUND:                -1.964
REMARK SMILES CCCCCCCCCCCCCC(=O)[O-]
REMARK SMILES IDX 8 1 9 2 10 3 11 4 12 5 13 6 14 7 15 8 16 9 7 10 6 11 5 12
REMARK SMILES IDX 4 13 3 14 2 15 1 16
REMARK H PARENT
REMARK Flexibility Score: inf
ROOT
ATOM      1  C   UNL     1      62.761  30.848  13.796  1.00  0.00     0.000 C 
ENDROOT
BRANCH   1   2
ATOM      2  C   UNL     1      62.401  32.121  13.011  1.00  0.00     0.000 C 
BRANCH   2   3
ATOM      3  C   UNL     1      60.996  32.645  13.350  1.00  0.00     0.000 C 
BRANCH   3   4
ATOM      4  C   UNL     1      60.621  32.432  14.825  1.00  0.00     0.000 C 
BRANCH   4   5
ATOM      5  C   UNL     1      61.147  33.578  15.696  1.00  0.00     0.006 C 
BRANCH   5   6
ATOM      6  C   UNL     1      61.633  33.058  17.053  1.00  0.00     0.053 C 
BRANCH   6   7
ATOM      7  C   UNL     1      61.791  34.188  18.021  1.00  0.00     0.041 C 
ATOM      8  O   UNL     1      60.996  34.307  18.991  1.00  0.00    -0.550 OA
ATOM      9  O   UNL     1      62.844  35.081  17.881  1.00  0.00    -0.550 OA
ENDBRANCH   6   7
ENDBRANCH   5   6
ENDBRANCH   4   5
ENDBRANCH   3   4
ENDBRANCH   2   3
ENDBRANCH   1   2
BRANCH   1  10
ATOM     10  C   UNL     1      63.592  29.857  12.963  1.00  0.00     0.000 C 
BRANCH  10  11
ATOM     11  C   UNL     1      63.822  30.343  11.521  1.00  0.00    -0.000 C 
BRANCH  11  12
ATOM     12  C   UNL     1      63.271  29.363  10.472  1.00  0.00    -0.000 C 
BRANCH  12  13
ATOM     13  C   UNL     1      61.976  28.671  10.932  1.00  0.00    -0.000 C 
BRANCH  13  14
ATOM     14  C   UNL     1      60.733  29.552  10.730  1.00  0.00    -0.000 C 
BRANCH  14  15
ATOM     15  C   UNL     1      59.727  29.432  11.885  1.00  0.00    -0.003 C 
ATOM     16  C   UNL     1      60.155  28.353  12.876  1.00  0.00     0.004 C 
ENDBRANCH  14  15
ENDBRANCH  13  14
ENDBRANCH  12  13
ENDBRANCH  11  12
ENDBRANCH  10  11
ENDBRANCH   1  10
TORSDOF 12
ENDMDL
MODEL 9
REMARK VINA RESULT:    -4.312      2.130      3.094
REMARK INTER + INTRA:          -9.300
REMARK INTER:                  -7.989
REMARK INTRA:                  -1.311
REMARK UNBOUND:                -1.964
REMARK SMILES CCCCCCCCCCCCCC(=O)[O-]
REMARK SMILES IDX 8 1 9 2 10 3 11 4 12 5 13 6 14 7 15 8 16 9 7 10 6 11 5 12
REMARK SMILES IDX 4 13 3 14 2 15 1 16
REMARK H PARENT
REMARK Flexibility Score: inf
ROOT
ATOM      1  C   UNL     1      62.001  30.494  14.251  1.00  0.00     0.000 C 
ENDROOT
BRANCH   1   2
ATOM      2  C   UNL     1      62.354  31.749  13.435  1.00  0.00     0.000 C 
BRANCH   2   3
ATOM      3  C   UNL     1      61.211  32.778  13.410  1.00  0.00     0.000 C 
BRANCH   3   4
ATOM      4  C   UNL     1      60.379  32.774  14.701  1.00  0.00     0.000 C 
BRANCH   4   5
ATOM      5  C   UNL     1      60.873  33.850  15.675  1.00  0.00     0.006 C 
BRANCH   5   6
ATOM      6  C   UNL     1      61.574  33.218  16.882  1.00  0.00     0.053 C 
BRANCH   6   7
ATOM      7  C   UNL     1      61.777  34.234  17.961  1.00  0.00     0.041 C 
ATOM      8  O   UNL     1      60.957  34.319  18.913  1.00  0.00    -0.550 OA
ATOM      9  O   UNL     1      62.897  35.055  17.941  1.00  0.00    -0.550 OA
ENDBRANCH   6   7
ENDBRANCH   5   6
ENDBRANCH   4   5
ENDBRANCH   3   4
ENDBRANCH   2   3
ENDBRANCH   1   2
BRANCH   1  10
ATOM     10  C   UNL     1      62.400  29.193  13.535  1.00  0.00     0.000 C 
BRANCH  10  11
ATOM     11  C   UNL     1      61.181  28.370  13.081  1.00  0.00    -0.000 C 
BRANCH  11  12
ATOM     12  C   UNL     1      59.980  29.254  12.703  1.00  0.00    -0.000 C 
BRANCH  12  13
ATOM     13  C   UNL     1      59.797  29.384  11.181  1.00  0.00    -0.000 C 
BRANCH  13  14
ATOM     14  C   UNL     1      60.888  28.644  10.391  1.00  0.00    -0.000 C 
BRANCH  14  15
ATOM     15  C   UNL     1      61.859  29.600   9.681  1.00  0.00    -0.003 C 
ATOM     16  C   UNL     1      63.309  29.192   9.927  1.00  0.00     0.004 C 
ENDBRANCH  14  15
ENDBRANCH  13  14
ENDBRANCH  12  13
ENDBRANCH  11  12
ENDBRANCH  10  11
ENDBRANCH   1  10
TORSDOF 12
ENDMDL
