MODEL 1
REMARK VINA RESULT:    -4.951      0.000      0.000
REMARK INTER + INTRA:          -6.280
REMARK INTER:                  -5.964
REMARK INTRA:                  -0.316
REMARK UNBOUND:                -0.316
REMARK SMILES O=c1c(O)c(-c2ccc(O)c(O)c2)oc2cc(O)cc(O)c12
REMARK SMILES IDX 5 1 3 2 2 3 1 4 22 5 20 6 19 7 17 8 16 9 15 10 14 11 6 12
REMARK SMILES IDX 7 13 8 14 9 15 13 16 11 17 10 18 12 20 4 22 21 24 18 26
REMARK H PARENT 10 19 12 21 4 23 21 25 18 27
REMARK Flexibility Score: inf
ROOT
ATOM      1  C   UNL     1       8.186  34.276   0.623  1.00  0.00     0.180 A 
ATOM      2  C   UNL     1       9.308  34.566  -0.170  1.00  0.00     0.208 A 
ATOM      3  C   UNL     1       9.634  35.907  -0.426  1.00  0.00     0.238 A 
ATOM      4  O   UNL     1      10.672  36.162  -1.092  1.00  0.00    -0.285 OA
ATOM      5  C   UNL     1       8.824  36.942   0.101  1.00  0.00     0.111 A 
ATOM      6  C   UNL     1       9.036  38.335  -0.129  1.00  0.00     0.134 A 
ATOM      7  C   UNL     1       8.249  39.274   0.549  1.00  0.00     0.093 A 
ATOM      8  C   UNL     1       7.215  38.869   1.397  1.00  0.00     0.123 A 
ATOM      9  C   UNL     1       6.962  37.513   1.580  1.00  0.00     0.094 A 
ATOM     10  C   UNL     1       7.753  36.552   0.946  1.00  0.00     0.146 A 
ATOM     11  O   UNL     1       7.483  35.269   1.157  1.00  0.00    -0.452 OA
ENDROOT
BRANCH   1  12
ATOM     12  C   UNL     1       7.765  32.887   0.917  1.00  0.00     0.025 A 
ATOM     13  C   UNL     1       7.014  32.140  -0.008  1.00  0.00     0.016 A 
ATOM     14  C   UNL     1       6.606  30.839   0.300  1.00  0.00     0.051 A 
ATOM     15  C   UNL     1       6.931  30.270   1.539  1.00  0.00     0.157 A 
ATOM     16  C   UNL     1       8.068  32.320   2.165  1.00  0.00     0.062 A 
ATOM     17  C   UNL     1       7.663  31.018   2.476  1.00  0.00     0.158 A 
BRANCH  15  18
ATOM     18  O   UNL     1       6.525  28.972   1.841  1.00  0.00    -0.504 OA
ATOM     19  H   UNL     1       6.792  28.521   2.708  1.00  0.00     0.293 HD
ENDBRANCH  15  18
BRANCH  17  20
ATOM     20  O   UNL     1       7.996  30.484   3.721  1.00  0.00    -0.504 OA
ATOM     21  H   UNL     1       8.216  29.503   3.844  1.00  0.00     0.293 HD
ENDBRANCH  17  20
ENDBRANCH   1  12
BRANCH   2  22
ATOM     22  O   UNL     1      10.108  33.530  -0.662  1.00  0.00    -0.502 OA
ATOM     23  H   UNL     1      10.962  33.700  -1.180  1.00  0.00     0.293 HD
ENDBRANCH   2  22
BRANCH   6  24
ATOM     24  O   UNL     1       9.981  38.842  -1.026  1.00  0.00    -0.507 OA
ATOM     25  H   UNL     1      10.005  39.794  -1.358  1.00  0.00     0.293 HD
ENDBRANCH   6  24
BRANCH   8  26
ATOM     26  O   UNL     1       6.427  39.811   2.055  1.00  0.00    -0.508 OA
ATOM     27  H   UNL     1       5.466  39.613   2.310  1.00  0.00     0.293 HD
ENDBRANCH   8  26
TORSDOF 6
ENDMDL
MODEL 2
REMARK VINA RESULT:    -4.920      6.030      9.415
REMARK INTER + INTRA:          -6.243
REMARK INTER:                  -6.028
REMARK INTRA:                  -0.214
REMARK UNBOUND:                -0.316
REMARK SMILES O=c1c(O)c(-c2ccc(O)c(O)c2)oc2cc(O)cc(O)c12
REMARK SMILES IDX 5 1 3 2 2 3 1 4 22 5 20 6 19 7 17 8 16 9 15 10 14 11 6 12
REMARK SMILES IDX 7 13 8 14 9 15 13 16 11 17 10 18 12 20 4 22 21 24 18 26
REMARK H PARENT 10 19 12 21 4 23 21 25 18 27
REMARK Flexibility Score: inf
ROOT
ATOM      1  C   UNL     1       9.894  25.762   2.745  1.00  0.00     0.180 A 
ATOM      2  C   UNL     1       9.616  25.480   1.397  1.00  0.00     0.208 A 
ATOM      3  C   UNL     1       8.878  26.407   0.646  1.00  0.00     0.238 A 
ATOM      4  O   UNL     1       8.679  26.175  -0.576  1.00  0.00    -0.285 OA
ATOM      5  C   UNL     1       8.414  27.598   1.255  1.00  0.00     0.111 A 
ATOM      6  C   UNL     1       7.622  28.589   0.599  1.00  0.00     0.134 A 
ATOM      7  C   UNL     1       7.329  29.787   1.262  1.00  0.00     0.093 A 
ATOM      8  C   UNL     1       7.744  30.003   2.578  1.00  0.00     0.123 A 
ATOM      9  C   UNL     1       8.465  29.017   3.246  1.00  0.00     0.094 A 
ATOM     10  C   UNL     1       8.803  27.826   2.600  1.00  0.00     0.146 A 
ATOM     11  O   UNL     1       9.501  26.917   3.271  1.00  0.00    -0.452 OA
ENDROOT
BRANCH   1  12
ATOM     12  C   UNL     1      10.645  24.822   3.609  1.00  0.00     0.025 A 
ATOM     13  C   UNL     1      10.018  24.144   4.669  1.00  0.00     0.016 A 
ATOM     14  C   UNL     1      10.752  23.280   5.487  1.00  0.00     0.051 A 
ATOM     15  C   UNL     1      12.123  23.090   5.267  1.00  0.00     0.157 A 
ATOM     16  C   UNL     1      12.023  24.645   3.406  1.00  0.00     0.062 A 
ATOM     17  C   UNL     1      12.761  23.780   4.222  1.00  0.00     0.158 A 
BRANCH  15  18
ATOM     18  O   UNL     1      12.850  22.226   6.082  1.00  0.00    -0.504 OA
ATOM     19  H   UNL     1      13.824  22.397   6.302  1.00  0.00     0.293 HD
ENDBRANCH  15  18
BRANCH  17  20
ATOM     20  O   UNL     1      14.125  23.619   3.981  1.00  0.00    -0.504 OA
ATOM     21  H   UNL     1      14.506  22.763   3.597  1.00  0.00     0.293 HD
ENDBRANCH  17  20
ENDBRANCH   1  12
BRANCH   2  22
ATOM     22  O   UNL     1      10.104  24.309   0.809  1.00  0.00    -0.502 OA
ATOM     23  H   UNL     1      10.006  23.400   1.245  1.00  0.00     0.293 HD
ENDBRANCH   2  22
BRANCH   6  24
ATOM     24  O   UNL     1       7.081  28.434  -0.681  1.00  0.00    -0.507 OA
ATOM     25  H   UNL     1       7.587  28.083  -1.480  1.00  0.00     0.293 HD
ENDBRANCH   6  24
BRANCH   8  26
ATOM     26  O   UNL     1       7.434  31.192   3.235  1.00  0.00    -0.508 OA
ATOM     27  H   UNL     1       7.989  32.030   3.103  1.00  0.00     0.293 HD
ENDBRANCH   8  26
TORSDOF 6
ENDMDL
MODEL 3
REMARK VINA RESULT:    -4.747      1.705      6.532
REMARK INTER + INTRA:          -6.035
REMARK INTER:                  -5.717
REMARK INTRA:                  -0.317
REMARK UNBOUND:                -0.316
REMARK SMILES O=c1c(O)c(-c2ccc(O)c(O)c2)oc2cc(O)cc(O)c12
REMARK SMILES IDX 5 1 3 2 2 3 1 4 22 5 20 6 19 7 17 8 16 9 15 10 14 11 6 12
REMARK SMILES IDX 7 13 8 14 9 15 13 16 11 17 10 18 12 20 4 22 21 24 18 26
REMARK H PARENT 10 19 12 21 4 23 21 25 18 27
REMARK Flexibility Score: inf
ROOT
ATOM      1  C   UNL     1       8.483  34.839   0.822  1.00  0.00     0.180 A 
ATOM      2  C   UNL     1       9.868  34.682   0.654  1.00  0.00     0.208 A 
ATOM      3  C   UNL     1      10.458  33.450   0.976  1.00  0.00     0.238 A 
ATOM      4  O   UNL     1      11.691  33.297   0.771  1.00  0.00    -0.285 OA
ATOM      5  C   UNL     1       9.658  32.395   1.477  1.00  0.00     0.111 A 
ATOM      6  C   UNL     1      10.157  31.118   1.875  1.00  0.00     0.134 A 
ATOM      7  C   UNL     1       9.256  30.107   2.233  1.00  0.00     0.093 A 
ATOM      8  C   UNL     1       7.881  30.347   2.272  1.00  0.00     0.123 A 
ATOM      9  C   UNL     1       7.390  31.608   1.944  1.00  0.00     0.094 A 
ATOM     10  C   UNL     1       8.260  32.626   1.548  1.00  0.00     0.146 A 
ATOM     11  O   UNL     1       7.748  33.811   1.233  1.00  0.00    -0.452 OA
ENDROOT
BRANCH   1  12
ATOM     12  C   UNL     1       7.792  36.115   0.528  1.00  0.00     0.025 A 
ATOM     13  C   UNL     1       7.357  36.429  -0.772  1.00  0.00     0.016 A 
ATOM     14  C   UNL     1       6.729  37.650  -1.032  1.00  0.00     0.051 A 
ATOM     15  C   UNL     1       6.536  38.580  -0.001  1.00  0.00     0.157 A 
ATOM     16  C   UNL     1       7.615  37.059   1.552  1.00  0.00     0.062 A 
ATOM     17  C   UNL     1       6.985  38.282   1.296  1.00  0.00     0.158 A 
BRANCH  15  18
ATOM     18  O   UNL     1       5.906  39.794  -0.263  1.00  0.00    -0.504 OA
ATOM     19  H   UNL     1       4.897  39.870  -0.311  1.00  0.00     0.293 HD
ENDBRANCH  15  18
BRANCH  17  20
ATOM     20  O   UNL     1       6.815  39.189   2.342  1.00  0.00    -0.504 OA
ATOM     21  H   UNL     1       6.914  40.188   2.210  1.00  0.00     0.293 HD
ENDBRANCH  17  20
ENDBRANCH   1  12
BRANCH   2  22
ATOM     22  O   UNL     1      10.636  35.729   0.136  1.00  0.00    -0.502 OA
ATOM     23  H   UNL     1      10.226  36.596  -0.190  1.00  0.00     0.293 HD
ENDBRANCH   2  22
BRANCH   6  24
ATOM     24  O   UNL     1      11.516  30.802   1.959  1.00  0.00    -0.507 OA
ATOM     25  H   UNL     1      12.264  31.479   1.959  1.00  0.00     0.293 HD
ENDBRANCH   6  24
BRANCH   8  26
ATOM     26  O   UNL     1       6.994  29.340   2.646  1.00  0.00    -0.508 OA
ATOM     27  H   UNL     1       6.337  28.941   1.986  1.00  0.00     0.293 HD
ENDBRANCH   8  26
TORSDOF 6
ENDMDL
MODEL 4
REMARK VINA RESULT:    -4.728      5.844     11.030
REMARK INTER + INTRA:          -6.011
REMARK INTER:                  -5.821
REMARK INTRA:                  -0.190
REMARK UNBOUND:                -0.316
REMARK SMILES O=c1c(O)c(-c2ccc(O)c(O)c2)oc2cc(O)cc(O)c12
REMARK SMILES IDX 5 1 3 2 2 3 1 4 22 5 20 6 19 7 17 8 16 9 15 10 14 11 6 12
REMARK SMILES IDX 7 13 8 14 9 15 13 16 11 17 10 18 12 20 4 22 21 24 18 26
REMARK H PARENT 10 19 12 21 4 23 21 25 18 27
REMARK Flexibility Score: inf
ROOT
ATOM      1  C   UNL     1       9.237  26.577   2.443  1.00  0.00     0.180 A 
ATOM      2  C   UNL     1       9.309  25.872   1.230  1.00  0.00     0.208 A 
ATOM      3  C   UNL     1       9.817  24.564   1.231  1.00  0.00     0.238 A 
ATOM      4  O   UNL     1       9.828  23.917   0.151  1.00  0.00    -0.285 OA
ATOM      5  C   UNL     1      10.264  23.983   2.442  1.00  0.00     0.111 A 
ATOM      6  C   UNL     1      10.836  22.679   2.554  1.00  0.00     0.134 A 
ATOM      7  C   UNL     1      11.121  22.157   3.822  1.00  0.00     0.093 A 
ATOM      8  C   UNL     1      10.917  22.917   4.976  1.00  0.00     0.123 A 
ATOM      9  C   UNL     1      10.417  24.211   4.873  1.00  0.00     0.094 A 
ATOM     10  C   UNL     1      10.088  24.747   3.625  1.00  0.00     0.146 A 
ATOM     11  O   UNL     1       9.603  25.982   3.573  1.00  0.00    -0.452 OA
ENDROOT
BRANCH   1  12
ATOM     12  C   UNL     1       8.736  27.968   2.518  1.00  0.00     0.025 A 
ATOM     13  C   UNL     1       7.388  28.275   2.262  1.00  0.00     0.016 A 
ATOM     14  C   UNL     1       6.942  29.598   2.315  1.00  0.00     0.051 A 
ATOM     15  C   UNL     1       7.836  30.635   2.613  1.00  0.00     0.157 A 
ATOM     16  C   UNL     1       9.632  29.014   2.795  1.00  0.00     0.062 A 
ATOM     17  C   UNL     1       9.189  30.340   2.850  1.00  0.00     0.158 A 
BRANCH  15  18
ATOM     18  O   UNL     1       7.387  31.953   2.668  1.00  0.00    -0.504 OA
ATOM     19  H   UNL     1       7.779  32.621   3.321  1.00  0.00     0.293 HD
ENDBRANCH  15  18
BRANCH  17  20
ATOM     20  O   UNL     1      10.106  31.349   3.142  1.00  0.00    -0.504 OA
ATOM     21  H   UNL     1      10.655  31.801   2.421  1.00  0.00     0.293 HD
ENDBRANCH  17  20
ENDBRANCH   1  12
BRANCH   2  22
ATOM     22  O   UNL     1       8.842  26.457   0.049  1.00  0.00    -0.502 OA
ATOM     23  H   UNL     1       8.015  26.125  -0.432  1.00  0.00     0.293 HD
ENDBRANCH   2  22
BRANCH   6  24
ATOM     24  O   UNL     1      11.164  21.875   1.458  1.00  0.00    -0.507 OA
ATOM     25  H   UNL     1      11.909  22.068   0.807  1.00  0.00     0.293 HD
ENDBRANCH   6  24
BRANCH   8  26
ATOM     26  O   UNL     1      11.220  22.395   6.232  1.00  0.00    -0.508 OA
ATOM     27  H   UNL     1      10.860  21.497   6.533  1.00  0.00     0.293 HD
ENDBRANCH   8  26
TORSDOF 6
ENDMDL
MODEL 5
REMARK VINA RESULT:    -4.565      9.398     13.994
REMARK INTER + INTRA:          -5.815
REMARK INTER:                  -5.491
REMARK INTRA:                  -0.323
REMARK UNBOUND:                -0.316
REMARK SMILES O=c1c(O)c(-c2ccc(O)c(O)c2)oc2cc(O)cc(O)c12
REMARK SMILES IDX 5 1 3 2 2 3 1 4 22 5 20 6 19 7 17 8 16 9 15 10 14 11 6 12
REMARK SMILES IDX 7 13 8 14 9 15 13 16 11 17 10 18 12 20 4 22 21 24 18 26
REMARK H PARENT 10 19 12 21 4 23 21 25 18 27
REMARK Flexibility Score: inf
ROOT
ATOM      1  C   UNL     1      -1.031  26.760   1.216  1.00  0.00     0.180 A 
ATOM      2  C   UNL     1      -1.272  25.653   0.385  1.00  0.00     0.208 A 
ATOM      3  C   UNL     1      -2.136  24.641   0.832  1.00  0.00     0.238 A 
ATOM      4  O   UNL     1      -2.391  23.678   0.061  1.00  0.00    -0.285 OA
ATOM      5  C   UNL     1      -2.736  24.740   2.111  1.00  0.00     0.111 A 
ATOM      6  C   UNL     1      -3.595  23.754   2.682  1.00  0.00     0.134 A 
ATOM      7  C   UNL     1      -4.236  24.018   3.899  1.00  0.00     0.093 A 
ATOM      8  C   UNL     1      -3.996  25.204   4.597  1.00  0.00     0.123 A 
ATOM      9  C   UNL     1      -3.113  26.146   4.077  1.00  0.00     0.094 A 
ATOM     10  C   UNL     1      -2.487  25.927   2.847  1.00  0.00     0.146 A 
ATOM     11  O   UNL     1      -1.660  26.857   2.382  1.00  0.00    -0.452 OA
ENDROOT
BRANCH   1  12
ATOM     12  C   UNL     1      -0.114  27.855   0.825  1.00  0.00     0.025 A 
ATOM     13  C   UNL     1      -0.571  28.966   0.095  1.00  0.00     0.016 A 
ATOM     14  C   UNL     1       0.317  29.976  -0.284  1.00  0.00     0.051 A 
ATOM     15  C   UNL     1       1.675  29.886   0.049  1.00  0.00     0.157 A 
ATOM     16  C   UNL     1       1.251  27.759   1.138  1.00  0.00     0.062 A 
ATOM     17  C   UNL     1       2.143  28.770   0.761  1.00  0.00     0.158 A 
BRANCH  15  18
ATOM     18  O   UNL     1       2.557  30.897  -0.327  1.00  0.00    -0.504 OA
ATOM     19  H   UNL     1       3.561  30.762  -0.303  1.00  0.00     0.293 HD
ENDBRANCH  15  18
BRANCH  17  20
ATOM     20  O   UNL     1       3.490  28.646   1.102  1.00  0.00    -0.504 OA
ATOM     21  H   UNL     1       3.902  29.169   1.865  1.00  0.00     0.293 HD
ENDBRANCH  17  20
ENDBRANCH   1  12
BRANCH   2  22
ATOM     22  O   UNL     1      -0.687  25.585  -0.883  1.00  0.00    -0.502 OA
ATOM     23  H   UNL     1      -1.233  25.475  -1.729  1.00  0.00     0.293 HD
ENDBRANCH   2  22
BRANCH   6  24
ATOM     24  O   UNL     1      -3.830  22.499   2.112  1.00  0.00    -0.507 OA
ATOM     25  H   UNL     1      -3.254  22.074   1.402  1.00  0.00     0.293 HD
ENDBRANCH   6  24
BRANCH   8  26
ATOM     26  O   UNL     1      -4.625  25.451   5.815  1.00  0.00    -0.508 OA
ATOM     27  H   UNL     1      -5.184  24.743   6.277  1.00  0.00     0.293 HD
ENDBRANCH   8  26
TORSDOF 6
ENDMDL
MODEL 6
REMARK VINA RESULT:    -4.514      1.612      2.434
REMARK INTER + INTRA:          -5.754
REMARK INTER:                  -5.912
REMARK INTRA:                   0.158
REMARK UNBOUND:                -0.316
REMARK SMILES O=c1c(O)c(-c2ccc(O)c(O)c2)oc2cc(O)cc(O)c12
REMARK SMILES IDX 5 1 3 2 2 3 1 4 22 5 20 6 19 7 17 8 16 9 15 10 14 11 6 12
REMARK SMILES IDX 7 13 8 14 9 15 13 16 11 17 10 18 12 20 4 22 21 24 18 26
REMARK H PARENT 10 19 12 21 4 23 21 25 18 27
REMARK Flexibility Score: inf
ROOT
ATOM      1  C   UNL     1       8.856  32.624   1.523  1.00  0.00     0.180 A 
ATOM      2  C   UNL     1      10.154  32.967   1.109  1.00  0.00     0.208 A 
ATOM      3  C   UNL     1      10.390  34.254   0.602  1.00  0.00     0.238 A 
ATOM      4  O   UNL     1      11.566  34.574   0.284  1.00  0.00    -0.285 OA
ATOM      5  C   UNL     1       9.322  35.178   0.500  1.00  0.00     0.111 A 
ATOM      6  C   UNL     1       9.438  36.496  -0.037  1.00  0.00     0.134 A 
ATOM      7  C   UNL     1       8.345  37.368   0.032  1.00  0.00     0.093 A 
ATOM      8  C   UNL     1       7.121  36.948   0.558  1.00  0.00     0.123 A 
ATOM      9  C   UNL     1       6.980  35.646   1.029  1.00  0.00     0.094 A 
ATOM     10  C   UNL     1       8.063  34.764   1.007  1.00  0.00     0.146 A 
ATOM     11  O   UNL     1       7.888  33.534   1.476  1.00  0.00    -0.452 OA
ENDROOT
BRANCH   1  12
ATOM     12  C   UNL     1       8.523  31.279   2.045  1.00  0.00     0.025 A 
ATOM     13  C   UNL     1       9.400  30.590   2.902  1.00  0.00     0.016 A 
ATOM     14  C   UNL     1       9.076  29.312   3.363  1.00  0.00     0.051 A 
ATOM     15  C   UNL     1       7.881  28.697   2.967  1.00  0.00     0.157 A 
ATOM     16  C   UNL     1       7.337  30.650   1.634  1.00  0.00     0.062 A 
ATOM     17  C   UNL     1       7.010  29.370   2.094  1.00  0.00     0.158 A 
BRANCH  15  18
ATOM     18  O   UNL     1       7.561  27.423   3.431  1.00  0.00    -0.504 OA
ATOM     19  H   UNL     1       7.149  27.279   4.345  1.00  0.00     0.293 HD
ENDBRANCH  15  18
BRANCH  17  20
ATOM     20  O   UNL     1       5.816  28.784   1.675  1.00  0.00    -0.504 OA
ATOM     21  H   UNL     1       5.578  28.690   0.694  1.00  0.00     0.293 HD
ENDBRANCH  17  20
ENDBRANCH   1  12
BRANCH   2  22
ATOM     22  O   UNL     1      11.199  32.047   1.239  1.00  0.00    -0.502 OA
ATOM     23  H   UNL     1      11.893  31.906   0.515  1.00  0.00     0.293 HD
ENDBRANCH   2  22
BRANCH   6  24
ATOM     24  O   UNL     1      10.587  36.983  -0.667  1.00  0.00    -0.507 OA
ATOM     25  H   UNL     1      10.706  37.063  -1.665  1.00  0.00     0.293 HD
ENDBRANCH   6  24
BRANCH   8  26
ATOM     26  O   UNL     1       6.033  37.818   0.608  1.00  0.00    -0.508 OA
ATOM     27  H   UNL     1       5.132  37.520   0.963  1.00  0.00     0.293 HD
ENDBRANCH   8  26
TORSDOF 6
ENDMDL
MODEL 7
REMARK VINA RESULT:    -4.497      8.622     11.921
REMARK INTER + INTRA:          -5.733
REMARK INTER:                  -5.403
REMARK INTRA:                  -0.330
REMARK UNBOUND:                -0.316
REMARK SMILES O=c1c(O)c(-c2ccc(O)c(O)c2)oc2cc(O)cc(O)c12
REMARK SMILES IDX 5 1 3 2 2 3 1 4 22 5 20 6 19 7 17 8 16 9 15 10 14 11 6 12
REMARK SMILES IDX 7 13 8 14 9 15 13 16 11 17 10 18 12 20 4 22 21 24 18 26
REMARK H PARENT 10 19 12 21 4 23 21 25 18 27
REMARK Flexibility Score: inf
ROOT
ATOM      1  C   UNL     1      -1.142  27.385   1.240  1.00  0.00     0.180 A 
ATOM      2  C   UNL     1      -1.722  28.530   0.670  1.00  0.00     0.208 A 
ATOM      3  C   UNL     1      -0.887  29.558   0.205  1.00  0.00     0.238 A 
ATOM      4  O   UNL     1      -1.411  30.557  -0.354  1.00  0.00    -0.285 OA
ATOM      5  C   UNL     1       0.518  29.435   0.331  1.00  0.00     0.111 A 
ATOM      6  C   UNL     1       1.458  30.433  -0.068  1.00  0.00     0.134 A 
ATOM      7  C   UNL     1       2.828  30.150  -0.017  1.00  0.00     0.093 A 
ATOM      8  C   UNL     1       3.294  28.930   0.480  1.00  0.00     0.123 A 
ATOM      9  C   UNL     1       2.386  27.974   0.928  1.00  0.00     0.094 A 
ATOM     10  C   UNL     1       1.012  28.213   0.856  1.00  0.00     0.146 A 
ATOM     11  O   UNL     1       0.181  27.270   1.284  1.00  0.00    -0.452 OA
ENDROOT
BRANCH   1  12
ATOM     12  C   UNL     1      -1.956  26.270   1.774  1.00  0.00     0.025 A 
ATOM     13  C   UNL     1      -2.354  26.236   3.123  1.00  0.00     0.016 A 
ATOM     14  C   UNL     1      -3.103  25.162   3.611  1.00  0.00     0.051 A 
ATOM     15  C   UNL     1      -3.454  24.101   2.766  1.00  0.00     0.157 A 
ATOM     16  C   UNL     1      -2.293  25.194   0.937  1.00  0.00     0.062 A 
ATOM     17  C   UNL     1      -3.043  24.117   1.423  1.00  0.00     0.158 A 
BRANCH  15  18
ATOM     18  O   UNL     1      -4.203  23.033   3.256  1.00  0.00    -0.504 OA
ATOM     19  H   UNL     1      -3.764  22.238   3.704  1.00  0.00     0.293 HD
ENDBRANCH  15  18
BRANCH  17  20
ATOM     20  O   UNL     1      -3.369  23.074   0.557  1.00  0.00    -0.504 OA
ATOM     21  H   UNL     1      -2.923  22.964  -0.345  1.00  0.00     0.293 HD
ENDBRANCH  17  20
ENDBRANCH   1  12
BRANCH   2  22
ATOM     22  O   UNL     1      -3.111  28.621   0.535  1.00  0.00    -0.502 OA
ATOM     23  H   UNL     1      -3.725  28.777   1.325  1.00  0.00     0.293 HD
ENDBRANCH   2  22
BRANCH   6  24
ATOM     24  O   UNL     1       1.100  31.716  -0.493  1.00  0.00    -0.507 OA
ATOM     25  H   UNL     1       0.175  31.985  -0.792  1.00  0.00     0.293 HD
ENDBRANCH   6  24
BRANCH   8  26
ATOM     26  O   UNL     1       4.660  28.663   0.542  1.00  0.00    -0.508 OA
ATOM     27  H   UNL     1       5.014  27.803   0.943  1.00  0.00     0.293 HD
ENDBRANCH   8  26
TORSDOF 6
ENDMDL
MODEL 8
REMARK VINA RESULT:    -4.412     14.004     17.734
REMARK INTER + INTRA:          -5.631
REMARK INTER:                  -5.309
REMARK INTRA:                  -0.322
REMARK UNBOUND:                -0.316
REMARK SMILES O=c1c(O)c(-c2ccc(O)c(O)c2)oc2cc(O)cc(O)c12
REMARK SMILES IDX 5 1 3 2 2 3 1 4 22 5 20 6 19 7 17 8 16 9 15 10 14 11 6 12
REMARK SMILES IDX 7 13 8 14 9 15 13 16 11 17 10 18 12 20 4 22 21 24 18 26
REMARK H PARENT 10 19 12 21 4 23 21 25 18 27
REMARK Flexibility Score: inf
ROOT
ATOM      1  C   UNL     1      -0.785  26.596  11.675  1.00  0.00     0.180 A 
ATOM      2  C   UNL     1      -1.798  25.688  12.027  1.00  0.00     0.208 A 
ATOM      3  C   UNL     1      -1.446  24.484  12.656  1.00  0.00     0.238 A 
ATOM      4  O   UNL     1      -2.362  23.699  13.019  1.00  0.00    -0.285 OA
ATOM      5  C   UNL     1      -0.083  24.194  12.911  1.00  0.00     0.111 A 
ATOM      6  C   UNL     1       0.392  22.986  13.505  1.00  0.00     0.134 A 
ATOM      7  C   UNL     1       1.748  22.863  13.828  1.00  0.00     0.093 A 
ATOM      8  C   UNL     1       2.657  23.877  13.519  1.00  0.00     0.123 A 
ATOM      9  C   UNL     1       2.214  25.034  12.884  1.00  0.00     0.094 A 
ATOM     10  C   UNL     1       0.860  25.202  12.582  1.00  0.00     0.146 A 
ATOM     11  O   UNL     1       0.478  26.326  11.986  1.00  0.00    -0.452 OA
ENDROOT
BRANCH   1  12
ATOM     12  C   UNL     1      -1.076  27.874  10.988  1.00  0.00     0.025 A 
ATOM     13  C   UNL     1      -1.012  27.982   9.587  1.00  0.00     0.016 A 
ATOM     14  C   UNL     1      -1.266  29.205   8.961  1.00  0.00     0.051 A 
ATOM     15  C   UNL     1      -1.575  30.340   9.723  1.00  0.00     0.157 A 
ATOM     16  C   UNL     1      -1.365  29.019  11.747  1.00  0.00     0.062 A 
ATOM     17  C   UNL     1      -1.621  30.245  11.123  1.00  0.00     0.158 A 
BRANCH  15  18
ATOM     18  O   UNL     1      -1.831  31.557   9.095  1.00  0.00    -0.504 OA
ATOM     19  H   UNL     1      -2.643  32.116   9.330  1.00  0.00     0.293 HD
ENDBRANCH  15  18
BRANCH  17  20
ATOM     20  O   UNL     1      -1.918  31.357  11.911  1.00  0.00    -0.504 OA
ATOM     21  H   UNL     1      -2.688  31.360  12.570  1.00  0.00     0.293 HD
ENDBRANCH  17  20
ENDBRANCH   1  12
BRANCH   2  22
ATOM     22  O   UNL     1      -3.139  26.004  11.787  1.00  0.00    -0.502 OA
ATOM     23  H   UNL     1      -3.442  26.937  11.537  1.00  0.00     0.293 HD
ENDBRANCH   2  22
BRANCH   6  24
ATOM     24  O   UNL     1      -0.417  21.877  13.771  1.00  0.00    -0.507 OA
ATOM     25  H   UNL     1      -0.704  21.583  14.692  1.00  0.00     0.293 HD
ENDBRANCH   6  24
BRANCH   8  26
ATOM     26  O   UNL     1       4.009  23.739  13.830  1.00  0.00    -0.508 OA
ATOM     27  H   UNL     1       4.342  23.805  14.784  1.00  0.00     0.293 HD
ENDBRANCH   8  26
TORSDOF 6
ENDMDL
MODEL 9
REMARK VINA RESULT:    -4.355      9.970     13.333
REMARK INTER + INTRA:          -5.562
REMARK INTER:                  -5.461
REMARK INTRA:                  -0.102
REMARK UNBOUND:                -0.316
REMARK SMILES O=c1c(O)c(-c2ccc(O)c(O)c2)oc2cc(O)cc(O)c12
REMARK SMILES IDX 5 1 3 2 2 3 1 4 22 5 20 6 19 7 17 8 16 9 15 10 14 11 6 12
REMARK SMILES IDX 7 13 8 14 9 15 13 16 11 17 10 18 12 20 4 22 21 24 18 26
REMARK H PARENT 10 19 12 21 4 23 21 25 18 27
REMARK Flexibility Score: inf
ROOT
ATOM      1  C   UNL     1      -1.458  26.353   1.927  1.00  0.00     0.180 A 
ATOM      2  C   UNL     1      -1.456  27.712   1.571  1.00  0.00     0.208 A 
ATOM      3  C   UNL     1      -0.429  28.199   0.749  1.00  0.00     0.238 A 
ATOM      4  O   UNL     1      -0.462  29.406   0.388  1.00  0.00    -0.285 OA
ATOM      5  C   UNL     1       0.593  27.326   0.304  1.00  0.00     0.111 A 
ATOM      6  C   UNL     1       1.705  27.721  -0.499  1.00  0.00     0.134 A 
ATOM      7  C   UNL     1       2.584  26.746  -0.988  1.00  0.00     0.093 A 
ATOM      8  C   UNL     1       2.429  25.401  -0.647  1.00  0.00     0.123 A 
ATOM      9  C   UNL     1       1.382  25.014   0.185  1.00  0.00     0.094 A 
ATOM     10  C   UNL     1       0.468  25.958   0.659  1.00  0.00     0.146 A 
ATOM     11  O   UNL     1      -0.523  25.544   1.441  1.00  0.00    -0.452 OA
ENDROOT
BRANCH   1  12
ATOM     12  C   UNL     1      -2.493  25.770   2.811  1.00  0.00     0.025 A 
ATOM     13  C   UNL     1      -2.732  26.287   4.097  1.00  0.00     0.016 A 
ATOM     14  C   UNL     1      -3.697  25.705   4.923  1.00  0.00     0.051 A 
ATOM     15  C   UNL     1      -4.429  24.594   4.484  1.00  0.00     0.157 A 
ATOM     16  C   UNL     1      -3.214  24.643   2.384  1.00  0.00     0.062 A 
ATOM     17  C   UNL     1      -4.182  24.059   3.209  1.00  0.00     0.158 A 
BRANCH  15  18
ATOM     18  O   UNL     1      -5.393  24.019   5.309  1.00  0.00    -0.504 OA
ATOM     19  H   UNL     1      -5.863  24.554   6.029  1.00  0.00     0.293 HD
ENDBRANCH  15  18
BRANCH  17  20
ATOM     20  O   UNL     1      -4.887  22.949   2.744  1.00  0.00    -0.504 OA
ATOM     21  H   UNL     1      -5.264  22.250   3.372  1.00  0.00     0.293 HD
ENDBRANCH  17  20
ENDBRANCH   1  12
BRANCH   2  22
ATOM     22  O   UNL     1      -2.487  28.553   2.002  1.00  0.00    -0.502 OA
ATOM     23  H   UNL     1      -2.545  29.526   1.728  1.00  0.00     0.293 HD
ENDBRANCH   2  22
BRANCH   6  24
ATOM     24  O   UNL     1       2.003  29.048  -0.820  1.00  0.00    -0.507 OA
ATOM     25  H   UNL     1       2.537  29.339  -1.626  1.00  0.00     0.293 HD
ENDBRANCH   6  24
BRANCH   8  26
ATOM     26  O   UNL     1       3.318  24.440  -1.125  1.00  0.00    -0.508 OA
ATOM     27  H   UNL     1       4.070  24.080  -0.549  1.00  0.00     0.293 HD
ENDBRANCH   8  26
TORSDOF 6
ENDMDL
