MODEL 1
REMARK VINA RESULT:    -3.160      0.000      0.000
REMARK INTER + INTRA:          -7.397
REMARK INTER:                  -6.115
REMARK INTRA:                  -1.282
REMARK UNBOUND:                -1.282
REMARK SMILES CCCCCCCCCCCCCCCC(=O)OCC
REMARK SMILES IDX 10 1 9 2 8 3 7 4 6 5 5 6 4 7 3 8 2 9 1 10 11 11 12 12 13 13
REMARK SMILES IDX 14 14 15 15 16 16 17 17 18 18 19 19 20 20
REMARK H PARENT
REMARK Flexibility Score: inf
ROOT
ATOM      1  C   UNL     1      37.592  64.824  98.972  1.00  0.00     0.000 C 
ENDROOT
BRANCH   1   2
ATOM      2  C   UNL     1      38.773  65.805  99.046  1.00  0.00     0.000 C 
BRANCH   2   3
ATOM      3  C   UNL     1      39.956  65.304  98.206  1.00  0.00     0.000 C 
BRANCH   3   4
ATOM      4  C   UNL     1      39.584  64.118  97.299  1.00  0.00    -0.000 C 
BRANCH   4   5
ATOM      5  C   UNL     1      39.595  64.489  95.806  1.00  0.00    -0.000 C 
BRANCH   5   6
ATOM      6  C   UNL     1      38.323  64.028  95.067  1.00  0.00    -0.000 C 
BRANCH   6   7
ATOM      7  C   UNL     1      37.030  64.760  95.476  1.00  0.00    -0.000 C 
BRANCH   7   8
ATOM      8  C   UNL     1      35.726  64.126  94.956  1.00  0.00    -0.000 C 
BRANCH   8   9
ATOM      9  C   UNL     1      35.282  62.877  95.746  1.00  0.00    -0.003 C 
ATOM     10  C   UNL     1      34.845  63.206  97.173  1.00  0.00     0.004 C 
ENDBRANCH   8   9
ENDBRANCH   7   8
ENDBRANCH   6   7
ENDBRANCH   5   6
ENDBRANCH   4   5
ENDBRANCH   3   4
ENDBRANCH   2   3
ENDBRANCH   1   2
BRANCH   1  11
ATOM     11  C   UNL     1      37.799  63.586  99.864  1.00  0.00     0.000 C 
BRANCH  11  12
ATOM     12  C   UNL     1      36.490  63.051 100.485  1.00  0.00     0.000 C 
BRANCH  12  13
ATOM     13  C   UNL     1      36.424  63.212 102.013  1.00  0.00     0.001 C 
BRANCH  13  14
ATOM     14  C   UNL     1      37.797  63.509 102.639  1.00  0.00     0.012 C 
BRANCH  14  15
ATOM     15  C   UNL     1      37.933  62.921 104.050  1.00  0.00     0.123 C 
BRANCH  15  16
ATOM     16  C   UNL     1      37.658  63.947 105.107  1.00  0.00     0.305 C 
ATOM     17  O   UNL     1      38.477  64.108 106.053  1.00  0.00    -0.252 OA
BRANCH  16  18
ATOM     18  O   UNL     1      36.475  64.688 105.053  1.00  0.00    -0.466 OA
BRANCH  18  19
ATOM     19  C   UNL     1      35.340  64.384 105.857  1.00  0.00     0.229 C 
ATOM     20  C   UNL     1      34.340  63.579 105.042  1.00  0.00     0.049 C 
ENDBRANCH  18  19
ENDBRANCH  16  18
ENDBRANCH  15  16
ENDBRANCH  14  15
ENDBRANCH  13  14
ENDBRANCH  12  13
ENDBRANCH  11  12
ENDBRANCH   1  11
TORSDOF 16
ENDMDL
MODEL 2
REMARK VINA RESULT:    -2.849      4.040      8.015
REMARK INTER + INTRA:          -6.795
REMARK INTER:                  -5.267
REMARK INTRA:                  -1.529
REMARK UNBOUND:                -1.282
REMARK SMILES CCCCCCCCCCCCCCCC(=O)OCC
REMARK SMILES IDX 10 1 9 2 8 3 7 4 6 5 5 6 4 7 3 8 2 9 1 10 11 11 12 12 13 13
REMARK SMILES IDX 14 14 15 15 16 16 17 17 18 18 19 19 20 20
REMARK H PARENT
REMARK Flexibility Score: inf
ROOT
ATOM      1  C   UNL     1      38.084  65.788  98.983  1.00  0.00     0.000 C 
ENDROOT
BRANCH   1   2
ATOM      2  C   UNL     1      39.602  65.882  99.209  1.00  0.00     0.000 C 
BRANCH   2   3
ATOM      3  C   UNL     1      40.006  65.181 100.515  1.00  0.00     0.000 C 
BRANCH   3   4
ATOM      4  C   UNL     1      40.125  63.656 100.362  1.00  0.00    -0.000 C 
BRANCH   4   5
ATOM      5  C   UNL     1      38.852  62.915 100.808  1.00  0.00    -0.000 C 
BRANCH   5   6
ATOM      6  C   UNL     1      38.381  63.329 102.215  1.00  0.00    -0.000 C 
BRANCH   6   7
ATOM      7  C   UNL     1      36.853  63.403 102.396  1.00  0.00    -0.000 C 
BRANCH   7   8
ATOM      8  C   UNL     1      36.347  63.114 103.822  1.00  0.00    -0.000 C 
BRANCH   8   9
ATOM      9  C   UNL     1      36.839  64.129 104.876  1.00  0.00    -0.003 C 
ATOM     10  C   UNL     1      35.696  64.739 105.687  1.00  0.00     0.004 C 
ENDBRANCH   8   9
ENDBRANCH   7   8
ENDBRANCH   6   7
ENDBRANCH   5   6
ENDBRANCH   4   5
ENDBRANCH   3   4
ENDBRANCH   2   3
ENDBRANCH   1   2
BRANCH   1  11
ATOM     11  C   UNL     1      37.707  64.681  97.982  1.00  0.00     0.000 C 
BRANCH  11  12
ATOM     12  C   UNL     1      38.670  64.589  96.778  1.00  0.00     0.000 C 
BRANCH  12  13
ATOM     13  C   UNL     1      39.176  63.163  96.502  1.00  0.00     0.001 C 
BRANCH  13  14
ATOM     14  C   UNL     1      39.359  62.877  95.002  1.00  0.00     0.012 C 
BRANCH  14  15
ATOM     15  C   UNL     1      38.676  63.931  94.121  1.00  0.00     0.123 C 
BRANCH  15  16
ATOM     16  C   UNL     1      37.532  63.349  93.347  1.00  0.00     0.305 C 
ATOM     17  O   UNL     1      37.667  63.104  92.118  1.00  0.00    -0.252 OA
BRANCH  16  18
ATOM     18  O   UNL     1      36.313  63.121  93.992  1.00  0.00    -0.466 OA
BRANCH  18  19
ATOM     19  C   UNL     1      35.614  64.142  94.696  1.00  0.00     0.229 C 
ATOM     20  C   UNL     1      34.714  63.511  95.746  1.00  0.00     0.049 C 
ENDBRANCH  18  19
ENDBRANCH  16  18
ENDBRANCH  15  16
ENDBRANCH  14  15
ENDBRANCH  13  14
ENDBRANCH  12  13
ENDBRANCH  11  12
ENDBRANCH   1  11
TORSDOF 16
ENDMDL
MODEL 3
REMARK VINA RESULT:    -2.733      3.524      8.459
REMARK INTER + INTRA:          -6.571
REMARK INTER:                  -5.558
REMARK INTRA:                  -1.013
REMARK UNBOUND:                -1.282
REMARK SMILES CCCCCCCCCCCCCCCC(=O)OCC
REMARK SMILES IDX 10 1 9 2 8 3 7 4 6 5 5 6 4 7 3 8 2 9 1 10 11 11 12 12 13 13
REMARK SMILES IDX 14 14 15 15 16 16 17 17 18 18 19 19 20 20
REMARK H PARENT
REMARK Flexibility Score: inf
ROOT
ATOM      1  C   UNL     1      37.815  64.601  99.846  1.00  0.00     0.000 C 
ENDROOT
BRANCH   1   2
ATOM      2  C   UNL     1      37.284  63.158  99.868  1.00  0.00     0.000 C 
BRANCH   2   3
ATOM      3  C   UNL     1      36.476  62.891 101.147  1.00  0.00     0.000 C 
BRANCH   3   4
ATOM      4  C   UNL     1      37.035  63.634 102.372  1.00  0.00    -0.000 C 
BRANCH   4   5
ATOM      5  C   UNL     1      36.761  62.890 103.691  1.00  0.00    -0.000 C 
BRANCH   5   6
ATOM      6  C   UNL     1      35.325  63.099 104.208  1.00  0.00    -0.000 C 
BRANCH   6   7
ATOM      7  C   UNL     1      35.109  64.383 105.033  1.00  0.00    -0.000 C 
BRANCH   7   8
ATOM      8  C   UNL     1      35.828  64.416 106.394  1.00  0.00    -0.000 C 
BRANCH   8   9
ATOM      9  C   UNL     1      35.666  63.121 107.217  1.00  0.00    -0.003 C 
ATOM     10  C   UNL     1      34.959  63.354 108.552  1.00  0.00     0.004 C 
ENDBRANCH   8   9
ENDBRANCH   7   8
ENDBRANCH   6   7
ENDBRANCH   5   6
ENDBRANCH   4   5
ENDBRANCH   3   4
ENDBRANCH   2   3
ENDBRANCH   1   2
BRANCH   1  11
ATOM     11  C   UNL     1      39.352  64.660  99.770  1.00  0.00     0.000 C 
BRANCH  11  12
ATOM     12  C   UNL     1      39.885  64.937  98.347  1.00  0.00     0.000 C 
BRANCH  12  13
ATOM     13  C   UNL     1      39.913  63.689  97.448  1.00  0.00     0.001 C 
BRANCH  13  14
ATOM     14  C   UNL     1      40.081  64.034  95.958  1.00  0.00     0.012 C 
BRANCH  14  15
ATOM     15  C   UNL     1      38.795  64.601  95.343  1.00  0.00     0.123 C 
BRANCH  15  16
ATOM     16  C   UNL     1      37.889  63.514  94.852  1.00  0.00     0.305 C 
ATOM     17  O   UNL     1      37.926  63.166  93.641  1.00  0.00    -0.252 OA
BRANCH  16  18
ATOM     18  O   UNL     1      36.983  62.923  95.737  1.00  0.00    -0.466 OA
BRANCH  18  19
ATOM     19  C   UNL     1      35.575  63.113  95.636  1.00  0.00     0.229 C 
ATOM     20  C   UNL     1      34.963  63.135  97.027  1.00  0.00     0.049 C 
ENDBRANCH  18  19
ENDBRANCH  16  18
ENDBRANCH  15  16
ENDBRANCH  14  15
ENDBRANCH  13  14
ENDBRANCH  12  13
ENDBRANCH  11  12
ENDBRANCH   1  11
TORSDOF 16
ENDMDL
MODEL 4
REMARK VINA RESULT:    -2.725      1.307      2.011
REMARK INTER + INTRA:          -6.556
REMARK INTER:                  -5.480
REMARK INTRA:                  -1.076
REMARK UNBOUND:                -1.282
REMARK SMILES CCCCCCCCCCCCCCCC(=O)OCC
REMARK SMILES IDX 10 1 9 2 8 3 7 4 6 5 5 6 4 7 3 8 2 9 1 10 11 11 12 12 13 13
REMARK SMILES IDX 14 14 15 15 16 16 17 17 18 18 19 19 20 20
REMARK H PARENT
REMARK Flexibility Score: inf
ROOT
ATOM      1  C   UNL     1      38.093  65.435  98.237  1.00  0.00     0.000 C 
ENDROOT
BRANCH   1   2
ATOM      2  C   UNL     1      38.838  64.329  97.472  1.00  0.00     0.000 C 
BRANCH   2   3
ATOM      3  C   UNL     1      39.028  64.716  95.997  1.00  0.00     0.000 C 
BRANCH   3   4
ATOM      4  C   UNL     1      39.474  63.532  95.122  1.00  0.00    -0.000 C 
BRANCH   4   5
ATOM      5  C   UNL     1      39.243  63.785  93.622  1.00  0.00    -0.000 C 
BRANCH   5   6
ATOM      6  C   UNL     1      38.144  62.884  93.027  1.00  0.00    -0.000 C 
BRANCH   6   7
ATOM      7  C   UNL     1      36.812  63.596  92.721  1.00  0.00    -0.000 C 
BRANCH   7   8
ATOM      8  C   UNL     1      35.988  64.004  93.956  1.00  0.00    -0.000 C 
BRANCH   8   9
ATOM      9  C   UNL     1      35.868  62.893  95.020  1.00  0.00    -0.003 C 
ATOM     10  C   UNL     1      35.046  63.324  96.234  1.00  0.00     0.004 C 
ENDBRANCH   8   9
ENDBRANCH   7   8
ENDBRANCH   6   7
ENDBRANCH   5   6
ENDBRANCH   4   5
ENDBRANCH   3   4
ENDBRANCH   2   3
ENDBRANCH   1   2
BRANCH   1  11
ATOM     11  C   UNL     1      38.725  65.726  99.611  1.00  0.00     0.000 C 
BRANCH  11  12
ATOM     12  C   UNL     1      39.707  64.629 100.079  1.00  0.00     0.000 C 
BRANCH  12  13
ATOM     13  C   UNL     1      39.012  63.336 100.536  1.00  0.00     0.001 C 
BRANCH  13  14
ATOM     14  C   UNL     1      38.935  63.213 102.068  1.00  0.00     0.012 C 
BRANCH  14  15
ATOM     15  C   UNL     1      37.489  63.218 102.580  1.00  0.00     0.123 C 
BRANCH  15  16
ATOM     16  C   UNL     1      37.428  63.395 104.067  1.00  0.00     0.305 C 
ATOM     17  O   UNL     1      38.466  63.226 104.762  1.00  0.00    -0.252 OA
BRANCH  16  18
ATOM     18  O   UNL     1      36.208  63.710 104.671  1.00  0.00    -0.466 OA
BRANCH  18  19
ATOM     19  C   UNL     1      35.010  62.987 104.406  1.00  0.00     0.229 C 
ATOM     20  C   UNL     1      33.926  63.422 105.379  1.00  0.00     0.049 C 
ENDBRANCH  18  19
ENDBRANCH  16  18
ENDBRANCH  15  16
ENDBRANCH  14  15
ENDBRANCH  13  14
ENDBRANCH  12  13
ENDBRANCH  11  12
ENDBRANCH   1  11
TORSDOF 16
ENDMDL
MODEL 5
REMARK VINA RESULT:    -2.602      4.370      8.679
REMARK INTER + INTRA:          -6.318
REMARK INTER:                  -5.505
REMARK INTRA:                  -0.813
REMARK UNBOUND:                -1.282
REMARK SMILES CCCCCCCCCCCCCCCC(=O)OCC
REMARK SMILES IDX 10 1 9 2 8 3 7 4 6 5 5 6 4 7 3 8 2 9 1 10 11 11 12 12 13 13
REMARK SMILES IDX 14 14 15 15 16 16 17 17 18 18 19 19 20 20
REMARK H PARENT
REMARK Flexibility Score: inf
ROOT
ATOM      1  C   UNL     1      37.178  64.186  98.454  1.00  0.00     0.000 C 
ENDROOT
BRANCH   1   2
ATOM      2  C   UNL     1      38.136  65.282  98.952  1.00  0.00     0.000 C 
BRANCH   2   3
ATOM      3  C   UNL     1      39.569  64.742  99.075  1.00  0.00     0.000 C 
BRANCH   3   4
ATOM      4  C   UNL     1      39.617  63.281  99.552  1.00  0.00    -0.000 C 
BRANCH   4   5
ATOM      5  C   UNL     1      39.779  63.161 101.077  1.00  0.00    -0.000 C 
BRANCH   5   6
ATOM      6  C   UNL     1      38.504  63.555 101.847  1.00  0.00    -0.000 C 
BRANCH   6   7
ATOM      7  C   UNL     1      38.539  63.267 103.360  1.00  0.00    -0.000 C 
BRANCH   7   8
ATOM      8  C   UNL     1      37.178  63.351 104.076  1.00  0.00    -0.000 C 
BRANCH   8   9
ATOM      9  C   UNL     1      37.175  64.287 105.302  1.00  0.00    -0.003 C 
ATOM     10  C   UNL     1      35.765  64.588 105.811  1.00  0.00     0.004 C 
ENDBRANCH   8   9
ENDBRANCH   7   8
ENDBRANCH   6   7
ENDBRANCH   5   6
ENDBRANCH   4   5
ENDBRANCH   3   4
ENDBRANCH   2   3
ENDBRANCH   1   2
BRANCH   1  11
ATOM     11  C   UNL     1      37.229  64.013  96.925  1.00  0.00     0.000 C 
BRANCH  11  12
ATOM     12  C   UNL     1      36.113  63.097  96.374  1.00  0.00     0.000 C 
BRANCH  12  13
ATOM     13  C   UNL     1      35.029  63.854  95.588  1.00  0.00     0.001 C 
BRANCH  13  14
ATOM     14  C   UNL     1      35.312  63.896  94.077  1.00  0.00     0.012 C 
BRANCH  14  15
ATOM     15  C   UNL     1      36.377  62.875  93.655  1.00  0.00     0.123 C 
BRANCH  15  16
ATOM     16  C   UNL     1      37.282  63.423  92.594  1.00  0.00     0.305 C 
ATOM     17  O   UNL     1      36.804  64.133  91.667  1.00  0.00    -0.252 OA
BRANCH  16  18
ATOM     18  O   UNL     1      38.643  63.109  92.623  1.00  0.00    -0.466 OA
BRANCH  18  19
ATOM     19  C   UNL     1      39.568  63.780  93.472  1.00  0.00     0.229 C 
ATOM     20  C   UNL     1      39.750  62.985  94.755  1.00  0.00     0.049 C 
ENDBRANCH  18  19
ENDBRANCH  16  18
ENDBRANCH  15  16
ENDBRANCH  14  15
ENDBRANCH  13  14
ENDBRANCH  12  13
ENDBRANCH  11  12
ENDBRANCH   1  11
TORSDOF 16
ENDMDL
MODEL 6
REMARK VINA RESULT:    -2.600      1.342      2.148
REMARK INTER + INTRA:          -6.314
REMARK INTER:                  -4.991
REMARK INTRA:                  -1.323
REMARK UNBOUND:                -1.282
REMARK SMILES CCCCCCCCCCCCCCCC(=O)OCC
REMARK SMILES IDX 10 1 9 2 8 3 7 4 6 5 5 6 4 7 3 8 2 9 1 10 11 11 12 12 13 13
REMARK SMILES IDX 14 14 15 15 16 16 17 17 18 18 19 19 20 20
REMARK H PARENT
REMARK Flexibility Score: inf
ROOT
ATOM      1  C   UNL     1      37.042  64.788  98.517  1.00  0.00     0.000 C 
ENDROOT
BRANCH   1   2
ATOM      2  C   UNL     1      37.925  65.223  97.336  1.00  0.00     0.000 C 
BRANCH   2   3
ATOM      3  C   UNL     1      38.696  64.026  96.759  1.00  0.00     0.000 C 
BRANCH   3   4
ATOM      4  C   UNL     1      39.964  64.445  95.997  1.00  0.00    -0.000 C 
BRANCH   4   5
ATOM      5  C   UNL     1      39.836  64.243  94.477  1.00  0.00    -0.000 C 
BRANCH   5   6
ATOM      6  C   UNL     1      38.971  63.022  94.107  1.00  0.00    -0.000 C 
BRANCH   6   7
ATOM      7  C   UNL     1      37.690  63.346  93.315  1.00  0.00    -0.000 C 
BRANCH   7   8
ATOM      8  C   UNL     1      36.378  62.875  93.970  1.00  0.00    -0.000 C 
BRANCH   8   9
ATOM      9  C   UNL     1      35.500  64.026  94.504  1.00  0.00    -0.003 C 
ATOM     10  C   UNL     1      34.785  63.668  95.807  1.00  0.00     0.004 C 
ENDBRANCH   8   9
ENDBRANCH   7   8
ENDBRANCH   6   7
ENDBRANCH   5   6
ENDBRANCH   4   5
ENDBRANCH   3   4
ENDBRANCH   2   3
ENDBRANCH   1   2
BRANCH   1  11
ATOM     11  C   UNL     1      37.716  65.040  99.879  1.00  0.00     0.000 C 
BRANCH  11  12
ATOM     12  C   UNL     1      38.002  63.744 100.670  1.00  0.00     0.000 C 
BRANCH  12  13
ATOM     13  C   UNL     1      36.760  63.164 101.369  1.00  0.00     0.001 C 
BRANCH  13  14
ATOM     14  C   UNL     1      36.999  62.876 102.861  1.00  0.00     0.012 C 
BRANCH  14  15
ATOM     15  C   UNL     1      35.697  62.892 103.672  1.00  0.00     0.123 C 
BRANCH  15  16
ATOM     16  C   UNL     1      35.855  63.642 104.960  1.00  0.00     0.305 C 
ATOM     17  O   UNL     1      34.917  64.373 105.379  1.00  0.00    -0.252 OA
BRANCH  16  18
ATOM     18  O   UNL     1      37.059  63.552 105.663  1.00  0.00    -0.466 OA
BRANCH  18  19
ATOM     19  C   UNL     1      37.605  64.644 106.395  1.00  0.00     0.229 C 
ATOM     20  C   UNL     1      39.121  64.620 106.292  1.00  0.00     0.049 C 
ENDBRANCH  18  19
ENDBRANCH  16  18
ENDBRANCH  15  16
ENDBRANCH  14  15
ENDBRANCH  13  14
ENDBRANCH  12  13
ENDBRANCH  11  12
ENDBRANCH   1  11
TORSDOF 16
ENDMDL
MODEL 7
REMARK VINA RESULT:    -2.340      4.334      9.159
REMARK INTER + INTRA:          -5.811
REMARK INTER:                  -4.797
REMARK INTRA:                  -1.014
REMARK UNBOUND:                -1.282
REMARK SMILES CCCCCCCCCCCCCCCC(=O)OCC
REMARK SMILES IDX 10 1 9 2 8 3 7 4 6 5 5 6 4 7 3 8 2 9 1 10 11 11 12 12 13 13
REMARK SMILES IDX 14 14 15 15 16 16 17 17 18 18 19 19 20 20
REMARK H PARENT
REMARK Flexibility Score: inf
ROOT
ATOM      1  C   UNL     1      38.133  65.546  98.190  1.00  0.00     0.000 C 
ENDROOT
BRANCH   1   2
ATOM      2  C   UNL     1      37.815  65.075  99.618  1.00  0.00     0.000 C 
BRANCH   2   3
ATOM      3  C   UNL     1      38.755  63.936 100.042  1.00  0.00     0.000 C 
BRANCH   3   4
ATOM      4  C   UNL     1      38.385  63.334 101.408  1.00  0.00    -0.000 C 
BRANCH   4   5
ATOM      5  C   UNL     1      36.913  63.578 101.783  1.00  0.00    -0.000 C 
BRANCH   5   6
ATOM      6  C   UNL     1      36.645  63.408 103.291  1.00  0.00    -0.000 C 
BRANCH   6   7
ATOM      7  C   UNL     1      37.830  63.765 104.209  1.00  0.00    -0.000 C 
BRANCH   7   8
ATOM      8  C   UNL     1      37.543  63.667 105.719  1.00  0.00    -0.000 C 
BRANCH   8   9
ATOM      9  C   UNL     1      36.263  62.875 106.060  1.00  0.00    -0.003 C 
ATOM     10  C   UNL     1      35.280  63.681 106.909  1.00  0.00     0.004 C 
ENDBRANCH   8   9
ENDBRANCH   7   8
ENDBRANCH   6   7
ENDBRANCH   5   6
ENDBRANCH   4   5
ENDBRANCH   3   4
ENDBRANCH   2   3
ENDBRANCH   1   2
BRANCH   1  11
ATOM     11  C   UNL     1      38.976  64.522  97.408  1.00  0.00     0.000 C 
BRANCH  11  12
ATOM     12  C   UNL     1      38.404  64.196  96.010  1.00  0.00     0.000 C 
BRANCH  12  13
ATOM     13  C   UNL     1      37.113  64.964  95.681  1.00  0.00     0.001 C 
BRANCH  13  14
ATOM     14  C   UNL     1      35.905  64.034  95.476  1.00  0.00     0.012 C 
BRANCH  14  15
ATOM     15  C   UNL     1      36.064  63.136  94.242  1.00  0.00     0.123 C 
BRANCH  15  16
ATOM     16  C   UNL     1      36.359  63.934  93.009  1.00  0.00     0.305 C 
ATOM     17  O   UNL     1      37.364  63.649  92.303  1.00  0.00    -0.252 OA
BRANCH  16  18
ATOM     18  O   UNL     1      35.535  65.013  92.676  1.00  0.00    -0.466 OA
BRANCH  18  19
ATOM     19  C   UNL     1      35.648  65.713  91.442  1.00  0.00     0.229 C 
ATOM     20  C   UNL     1      34.384  66.520  91.196  1.00  0.00     0.049 C 
ENDBRANCH  18  19
ENDBRANCH  16  18
ENDBRANCH  15  16
ENDBRANCH  14  15
ENDBRANCH  13  14
ENDBRANCH  12  13
ENDBRANCH  11  12
ENDBRANCH   1  11
TORSDOF 16
ENDMDL
MODEL 8
REMARK VINA RESULT:    -0.316      3.748      9.085
REMARK INTER + INTRA:          -1.894
REMARK INTER:                  -0.806
REMARK INTRA:                  -1.088
REMARK UNBOUND:                -1.282
REMARK SMILES CCCCCCCCCCCCCCCC(=O)OCC
REMARK SMILES IDX 10 1 9 2 8 3 7 4 6 5 5 6 4 7 3 8 2 9 1 10 11 11 12 12 13 13
REMARK SMILES IDX 14 14 15 15 16 16 17 17 18 18 19 19 20 20
REMARK H PARENT
REMARK Flexibility Score: inf
ROOT
ATOM      1  C   UNL     1      37.277  63.440 101.308  1.00  0.00     0.000 C 
ENDROOT
BRANCH   1   2
ATOM      2  C   UNL     1      38.422  63.274 102.321  1.00  0.00     0.000 C 
BRANCH   2   3
ATOM      3  C   UNL     1      37.873  62.973 103.724  1.00  0.00     0.000 C 
BRANCH   3   4
ATOM      4  C   UNL     1      36.570  63.730 104.030  1.00  0.00    -0.000 C 
BRANCH   4   5
ATOM      5  C   UNL     1      36.640  64.520 105.348  1.00  0.00    -0.000 C 
BRANCH   5   6
ATOM      6  C   UNL     1      35.967  63.784 106.523  1.00  0.00    -0.000 C 
BRANCH   6   7
ATOM      7  C   UNL     1      36.913  63.389 107.674  1.00  0.00    -0.000 C 
BRANCH   7   8
ATOM      8  C   UNL     1      38.298  62.875 107.237  1.00  0.00    -0.000 C 
BRANCH   8   9
ATOM      9  C   UNL     1      39.461  63.814 107.621  1.00  0.00    -0.003 C 
ATOM     10  C   UNL     1      40.123  63.422 108.943  1.00  0.00     0.004 C 
ENDBRANCH   8   9
ENDBRANCH   7   8
ENDBRANCH   6   7
ENDBRANCH   5   6
ENDBRANCH   4   5
ENDBRANCH   3   4
ENDBRANCH   2   3
ENDBRANCH   1   2
BRANCH   1  11
ATOM     11  C   UNL     1      37.780  63.471  99.853  1.00  0.00     0.000 C 
BRANCH  11  12
ATOM     12  C   UNL     1      37.883  64.898  99.271  1.00  0.00     0.000 C 
BRANCH  12  13
ATOM     13  C   UNL     1      38.670  64.968  97.951  1.00  0.00     0.001 C 
BRANCH  13  14
ATOM     14  C   UNL     1      38.318  63.821  96.989  1.00  0.00     0.012 C 
BRANCH  14  15
ATOM     15  C   UNL     1      38.392  64.251  95.518  1.00  0.00     0.123 C 
BRANCH  15  16
ATOM     16  C   UNL     1      37.092  64.023  94.807  1.00  0.00     0.305 C 
ATOM     17  O   UNL     1      37.090  63.521  93.650  1.00  0.00    -0.252 OA
BRANCH  16  18
ATOM     18  O   UNL     1      35.897  64.405  95.422  1.00  0.00    -0.466 OA
BRANCH  18  19
ATOM     19  C   UNL     1      34.861  63.478  95.730  1.00  0.00     0.229 C 
ATOM     20  C   UNL     1      34.815  63.245  97.231  1.00  0.00     0.049 C 
ENDBRANCH  18  19
ENDBRANCH  16  18
ENDBRANCH  15  16
ENDBRANCH  14  15
ENDBRANCH  13  14
ENDBRANCH  12  13
ENDBRANCH  11  12
ENDBRANCH   1  11
TORSDOF 16
ENDMDL
