MODEL 1
REMARK VINA RESULT:    -2.730      0.000      0.000
REMARK INTER + INTRA:          -3.601
REMARK INTER:                  -3.369
REMARK INTRA:                  -0.232
REMARK UNBOUND:                -0.232
REMARK SMILES Oc1cc(O)c2cc(O)c(-c3cc(O)c(O)c(O)c3)[o+]c2c1
REMARK SMILES IDX 10 1 20 2 21 3 22 4 2 5 3 6 4 7 6 8 7 9 8 10 11 11 12 12
REMARK SMILES IDX 13 13 19 14 15 15 17 16 14 17 16 19 18 21 9 23 1 25 5 27
REMARK H PARENT 14 18 16 20 18 22 9 24 1 26 5 28
REMARK Flexibility Score: inf
ROOT
ATOM      1  C   UNL     1     -13.025 -15.720  32.019  1.00  0.00     0.402 A 
ATOM      2  O   UNL     1     -12.064 -15.800  32.937  1.00  0.00    -0.202 OA
ATOM      3  C   UNL     1     -12.040 -15.052  34.036  1.00  0.00     0.368 A 
ATOM      4  C   UNL     1     -10.987 -15.207  34.940  1.00  0.00     0.162 A 
ATOM      5  C   UNL     1     -10.934 -14.434  36.100  1.00  0.00     0.128 A 
ATOM      6  C   UNL     1     -11.941 -13.497  36.360  1.00  0.00     0.093 A 
ATOM      7  C   UNL     1     -13.007 -13.323  35.469  1.00  0.00     0.136 A 
ATOM      8  C   UNL     1     -13.066 -14.110  34.290  1.00  0.00     0.125 A 
ATOM      9  C   UNL     1     -14.103 -14.014  33.348  1.00  0.00     0.078 A 
ATOM     10  C   UNL     1     -14.095 -14.826  32.209  1.00  0.00     0.223 A 
ENDROOT
BRANCH   1  11
ATOM     11  C   UNL     1     -12.934 -16.601  30.833  1.00  0.00     0.091 A 
ATOM     12  C   UNL     1     -12.900 -17.992  31.006  1.00  0.00     0.068 A 
ATOM     13  C   UNL     1     -12.794 -18.853  29.908  1.00  0.00     0.162 A 
ATOM     14  C   UNL     1     -12.824 -16.072  29.537  1.00  0.00     0.068 A 
ATOM     15  C   UNL     1     -12.707 -18.313  28.602  1.00  0.00     0.200 A 
ATOM     16  C   UNL     1     -12.717 -16.922  28.429  1.00  0.00     0.162 A 
BRANCH  13  17
ATOM     17  O   UNL     1     -12.779 -20.227  30.158  1.00  0.00    -0.504 OA
ATOM     18  H   UNL     1     -12.092 -20.689  30.738  1.00  0.00     0.293 HD
ENDBRANCH  13  17
BRANCH  15  19
ATOM     19  O   UNL     1     -12.606 -19.115  27.464  1.00  0.00    -0.502 OA
ATOM     20  H   UNL     1     -11.996 -19.917  27.388  1.00  0.00     0.293 HD
ENDBRANCH  15  19
BRANCH  16  21
ATOM     21  O   UNL     1     -12.616 -16.388  27.146  1.00  0.00    -0.504 OA
ATOM     22  H   UNL     1     -12.932 -16.900  26.331  1.00  0.00     0.293 HD
ENDBRANCH  16  21
ENDBRANCH   1  11
BRANCH  10  23
ATOM     23  O   UNL     1     -15.149 -14.766  31.300  1.00  0.00    -0.500 OA
ATOM     24  H   UNL     1     -15.914 -15.430  31.324  1.00  0.00     0.294 HD
ENDBRANCH  10  23
BRANCH   5  25
ATOM     25  O   UNL     1      -9.875 -14.603  36.991  1.00  0.00    -0.507 OA
ATOM     26  H   UNL     1      -8.975 -14.167  36.832  1.00  0.00     0.293 HD
ENDBRANCH   5  25
BRANCH   7  27
ATOM     27  O   UNL     1     -13.971 -12.366  35.798  1.00  0.00    -0.507 OA
ATOM     28  H   UNL     1     -14.590 -12.428  36.593  1.00  0.00     0.293 HD
ENDBRANCH   7  27
TORSDOF 7
ENDMDL
MODEL 2
REMARK VINA RESULT:    -2.706      1.398      7.056
REMARK INTER + INTRA:          -3.571
REMARK INTER:                  -3.267
REMARK INTRA:                  -0.304
REMARK UNBOUND:                -0.232
REMARK SMILES Oc1cc(O)c2cc(O)c(-c3cc(O)c(O)c(O)c3)[o+]c2c1
REMARK SMILES IDX 10 1 20 2 21 3 22 4 2 5 3 6 4 7 6 8 7 9 8 10 11 11 12 12
REMARK SMILES IDX 13 13 19 14 15 15 17 16 14 17 16 19 18 21 9 23 1 25 5 27
REMARK H PARENT 14 18 16 20 18 22 9 24 1 26 5 28
REMARK Flexibility Score: inf
ROOT
ATOM      1  C   UNL     1     -12.541 -16.114  32.260  1.00  0.00     0.402 A 
ATOM      2  O   UNL     1     -11.789 -15.881  31.187  1.00  0.00    -0.202 OA
ATOM      3  C   UNL     1     -11.880 -16.587  30.064  1.00  0.00     0.368 A 
ATOM      4  C   UNL     1     -11.044 -16.268  28.992  1.00  0.00     0.162 A 
ATOM      5  C   UNL     1     -11.115 -16.994  27.802  1.00  0.00     0.128 A 
ATOM      6  C   UNL     1     -12.027 -18.048  27.683  1.00  0.00     0.093 A 
ATOM      7  C   UNL     1     -12.876 -18.388  28.744  1.00  0.00     0.136 A 
ATOM      8  C   UNL     1     -12.808 -17.650  29.954  1.00  0.00     0.125 A 
ATOM      9  C   UNL     1     -13.629 -17.910  31.065  1.00  0.00     0.078 A 
ATOM     10  C   UNL     1     -13.507 -17.136  32.223  1.00  0.00     0.223 A 
ENDROOT
BRANCH   1  11
ATOM     11  C   UNL     1     -12.338 -15.263  33.455  1.00  0.00     0.091 A 
ATOM     12  C   UNL     1     -11.225 -15.481  34.278  1.00  0.00     0.068 A 
ATOM     13  C   UNL     1     -11.014 -14.709  35.426  1.00  0.00     0.162 A 
ATOM     14  C   UNL     1     -13.269 -14.276  33.815  1.00  0.00     0.068 A 
ATOM     15  C   UNL     1     -11.944 -13.700  35.770  1.00  0.00     0.200 A 
ATOM     16  C   UNL     1     -13.071 -13.496  34.961  1.00  0.00     0.162 A 
BRANCH  13  17
ATOM     17  O   UNL     1      -9.875 -14.978  36.190  1.00  0.00    -0.504 OA
ATOM     18  H   UNL     1      -9.891 -15.172  37.181  1.00  0.00     0.293 HD
ENDBRANCH  13  17
BRANCH  15  19
ATOM     19  O   UNL     1     -11.790 -12.890  36.897  1.00  0.00    -0.502 OA
ATOM     20  H   UNL     1     -11.500 -13.230  37.803  1.00  0.00     0.293 HD
ENDBRANCH  15  19
BRANCH  16  21
ATOM     21  O   UNL     1     -13.996 -12.513  35.307  1.00  0.00    -0.504 OA
ATOM     22  H   UNL     1     -14.578 -12.598  36.132  1.00  0.00     0.293 HD
ENDBRANCH  16  21
ENDBRANCH   1  11
BRANCH  10  23
ATOM     23  O   UNL     1     -14.354 -17.362  33.307  1.00  0.00    -0.500 OA
ATOM     24  H   UNL     1     -14.262 -18.183  33.894  1.00  0.00     0.294 HD
ENDBRANCH  10  23
BRANCH   5  25
ATOM     25  O   UNL     1     -10.273 -16.661  26.742  1.00  0.00    -0.507 OA
ATOM     26  H   UNL     1     -10.208 -15.711  26.397  1.00  0.00     0.293 HD
ENDBRANCH   5  25
BRANCH   7  27
ATOM     27  O   UNL     1     -13.757 -19.455  28.548  1.00  0.00    -0.507 OA
ATOM     28  H   UNL     1     -13.722 -20.087  27.761  1.00  0.00     0.293 HD
ENDBRANCH   7  27
TORSDOF 7
ENDMDL
MODEL 3
REMARK VINA RESULT:    -2.497      1.286      3.192
REMARK INTER + INTRA:          -3.313
REMARK INTER:                  -3.243
REMARK INTRA:                  -0.070
REMARK UNBOUND:                -0.232
REMARK SMILES Oc1cc(O)c2cc(O)c(-c3cc(O)c(O)c(O)c3)[o+]c2c1
REMARK SMILES IDX 10 1 20 2 21 3 22 4 2 5 3 6 4 7 6 8 7 9 8 10 11 11 12 12
REMARK SMILES IDX 13 13 19 14 15 15 17 16 14 17 16 19 18 21 9 23 1 25 5 27
REMARK H PARENT 14 18 16 20 18 22 9 24 1 26 5 28
REMARK Flexibility Score: inf
ROOT
ATOM      1  C   UNL     1     -11.953 -16.023  31.600  1.00  0.00     0.402 A 
ATOM      2  O   UNL     1     -12.722 -15.171  32.274  1.00  0.00    -0.202 OA
ATOM      3  C   UNL     1     -12.438 -14.744  33.500  1.00  0.00     0.368 A 
ATOM      4  C   UNL     1     -13.309 -13.851  34.127  1.00  0.00     0.162 A 
ATOM      5  C   UNL     1     -13.039 -13.389  35.416  1.00  0.00     0.128 A 
ATOM      6  C   UNL     1     -11.889 -13.823  36.084  1.00  0.00     0.093 A 
ATOM      7  C   UNL     1     -10.999 -14.718  35.477  1.00  0.00     0.136 A 
ATOM      8  C   UNL     1     -11.270 -15.188  34.166  1.00  0.00     0.125 A 
ATOM      9  C   UNL     1     -10.429 -16.075  33.474  1.00  0.00     0.078 A 
ATOM     10  C   UNL     1     -10.760 -16.492  32.181  1.00  0.00     0.223 A 
ENDROOT
BRANCH   1  11
ATOM     11  C   UNL     1     -12.382 -16.431  30.243  1.00  0.00     0.091 A 
ATOM     12  C   UNL     1     -12.843 -15.460  29.343  1.00  0.00     0.068 A 
ATOM     13  C   UNL     1     -13.276 -15.812  28.059  1.00  0.00     0.162 A 
ATOM     14  C   UNL     1     -12.392 -17.780  29.854  1.00  0.00     0.068 A 
ATOM     15  C   UNL     1     -13.260 -17.172  27.666  1.00  0.00     0.200 A 
ATOM     16  C   UNL     1     -12.822 -18.147  28.573  1.00  0.00     0.162 A 
BRANCH  13  17
ATOM     17  O   UNL     1     -13.709 -14.787  27.215  1.00  0.00    -0.504 OA
ATOM     18  H   UNL     1     -13.855 -14.896  26.222  1.00  0.00     0.293 HD
ENDBRANCH  13  17
BRANCH  15  19
ATOM     19  O   UNL     1     -13.672 -17.591  26.399  1.00  0.00    -0.502 OA
ATOM     20  H   UNL     1     -13.208 -17.335  25.539  1.00  0.00     0.293 HD
ENDBRANCH  15  19
BRANCH  16  21
ATOM     21  O   UNL     1     -12.821 -19.488  28.192  1.00  0.00    -0.504 OA
ATOM     22  H   UNL     1     -12.003 -19.924  27.783  1.00  0.00     0.293 HD
ENDBRANCH  16  21
ENDBRANCH   1  11
BRANCH  10  23
ATOM     23  O   UNL     1      -9.900 -17.333  31.475  1.00  0.00    -0.500 OA
ATOM     24  H   UNL     1      -9.611 -17.126  30.527  1.00  0.00     0.294 HD
ENDBRANCH  10  23
BRANCH   5  25
ATOM     25  O   UNL     1     -13.920 -12.497  36.025  1.00  0.00    -0.507 OA
ATOM     26  H   UNL     1     -13.764 -12.159  36.966  1.00  0.00     0.293 HD
ENDBRANCH   5  25
BRANCH   7  27
ATOM     27  O   UNL     1      -9.875 -15.107  36.211  1.00  0.00    -0.507 OA
ATOM     28  H   UNL     1      -9.829 -15.932  36.791  1.00  0.00     0.293 HD
ENDBRANCH   7  27
TORSDOF 7
ENDMDL
MODEL 4
REMARK VINA RESULT:    -2.374      2.050      7.522
REMARK INTER + INTRA:          -3.161
REMARK INTER:                  -3.387
REMARK INTRA:                   0.226
REMARK UNBOUND:                -0.232
REMARK SMILES Oc1cc(O)c2cc(O)c(-c3cc(O)c(O)c(O)c3)[o+]c2c1
REMARK SMILES IDX 10 1 20 2 21 3 22 4 2 5 3 6 4 7 6 8 7 9 8 10 11 11 12 12
REMARK SMILES IDX 13 13 19 14 15 15 17 16 14 17 16 19 18 21 9 23 1 25 5 27
REMARK H PARENT 14 18 16 20 18 22 9 24 1 26 5 28
REMARK Flexibility Score: inf
ROOT
ATOM      1  C   UNL     1     -11.770 -16.096  30.784  1.00  0.00     0.402 A 
ATOM      2  O   UNL     1     -12.638 -15.657  29.875  1.00  0.00    -0.202 OA
ATOM      3  C   UNL     1     -12.601 -16.018  28.596  1.00  0.00     0.368 A 
ATOM      4  C   UNL     1     -13.556 -15.501  27.717  1.00  0.00     0.162 A 
ATOM      5  C   UNL     1     -13.540 -15.859  26.368  1.00  0.00     0.128 A 
ATOM      6  C   UNL     1     -12.562 -16.741  25.894  1.00  0.00     0.093 A 
ATOM      7  C   UNL     1     -11.595 -17.273  26.755  1.00  0.00     0.136 A 
ATOM      8  C   UNL     1     -11.610 -16.913  28.127  1.00  0.00     0.125 A 
ATOM      9  C   UNL     1     -10.689 -17.407  29.066  1.00  0.00     0.078 A 
ATOM     10  C   UNL     1     -10.769 -17.009  30.404  1.00  0.00     0.223 A 
ENDROOT
BRANCH   1  11
ATOM     11  C   UNL     1     -11.910 -15.613  32.176  1.00  0.00     0.091 A 
ATOM     12  C   UNL     1     -13.144 -15.110  32.613  1.00  0.00     0.068 A 
ATOM     13  C   UNL     1     -13.306 -14.627  33.916  1.00  0.00     0.162 A 
ATOM     14  C   UNL     1     -10.816 -15.594  33.056  1.00  0.00     0.068 A 
ATOM     15  C   UNL     1     -12.205 -14.632  34.805  1.00  0.00     0.200 A 
ATOM     16  C   UNL     1     -10.964 -15.113  34.363  1.00  0.00     0.162 A 
BRANCH  13  17
ATOM     17  O   UNL     1     -14.568 -14.153  34.281  1.00  0.00    -0.504 OA
ATOM     18  H   UNL     1     -14.746 -13.218  34.618  1.00  0.00     0.293 HD
ENDBRANCH  13  17
BRANCH  15  19
ATOM     19  O   UNL     1     -12.300 -14.171  36.119  1.00  0.00    -0.502 OA
ATOM     20  H   UNL     1     -12.500 -14.761  36.914  1.00  0.00     0.293 HD
ENDBRANCH  15  19
BRANCH  16  21
ATOM     21  O   UNL     1      -9.875 -15.105  35.233  1.00  0.00    -0.504 OA
ATOM     22  H   UNL     1      -9.823 -15.734  36.025  1.00  0.00     0.293 HD
ENDBRANCH  16  21
ENDBRANCH   1  11
BRANCH  10  23
ATOM     23  O   UNL     1      -9.886 -17.538  31.345  1.00  0.00    -0.500 OA
ATOM     24  H   UNL     1      -9.204 -18.244  31.097  1.00  0.00     0.294 HD
ENDBRANCH  10  23
BRANCH   5  25
ATOM     25  O   UNL     1     -14.500 -15.333  25.506  1.00  0.00    -0.507 OA
ATOM     26  H   UNL     1     -14.345 -14.467  25.006  1.00  0.00     0.293 HD
ENDBRANCH   5  25
BRANCH   7  27
ATOM     27  O   UNL     1     -10.651 -18.144  26.204  1.00  0.00    -0.507 OA
ATOM     28  H   UNL     1      -9.919 -17.864  25.567  1.00  0.00     0.293 HD
ENDBRANCH   7  27
TORSDOF 7
ENDMDL
MODEL 5
REMARK VINA RESULT:    -1.807      2.030      7.471
REMARK INTER + INTRA:          -2.461
REMARK INTER:                  -2.786
REMARK INTRA:                   0.325
REMARK UNBOUND:                -0.232
REMARK SMILES Oc1cc(O)c2cc(O)c(-c3cc(O)c(O)c(O)c3)[o+]c2c1
REMARK SMILES IDX 10 1 20 2 21 3 22 4 2 5 3 6 4 7 6 8 7 9 8 10 11 11 12 12
REMARK SMILES IDX 13 13 19 14 15 15 17 16 14 17 16 19 18 21 9 23 1 25 5 27
REMARK H PARENT 14 18 16 20 18 22 9 24 1 26 5 28
REMARK Flexibility Score: inf
ROOT
ATOM      1  C   UNL     1     -11.694 -16.117  30.872  1.00  0.00     0.402 A 
ATOM      2  O   UNL     1     -12.508 -15.696  29.908  1.00  0.00    -0.202 OA
ATOM      3  C   UNL     1     -12.423 -16.109  28.647  1.00  0.00     0.368 A 
ATOM      4  C   UNL     1     -13.323 -15.606  27.705  1.00  0.00     0.162 A 
ATOM      5  C   UNL     1     -13.255 -16.019  26.374  1.00  0.00     0.128 A 
ATOM      6  C   UNL     1     -12.281 -16.943  25.981  1.00  0.00     0.093 A 
ATOM      7  C   UNL     1     -11.367 -17.463  26.906  1.00  0.00     0.136 A 
ATOM      8  C   UNL     1     -11.435 -17.047  28.261  1.00  0.00     0.125 A 
ATOM      9  C   UNL     1     -10.570 -17.524  29.260  1.00  0.00     0.078 A 
ATOM     10  C   UNL     1     -10.701 -17.069  30.576  1.00  0.00     0.223 A 
ENDROOT
BRANCH   1  11
ATOM     11  C   UNL     1     -11.884 -15.574  32.236  1.00  0.00     0.091 A 
ATOM     12  C   UNL     1     -10.826 -15.627  33.155  1.00  0.00     0.068 A 
ATOM     13  C   UNL     1     -10.978 -15.142  34.459  1.00  0.00     0.162 A 
ATOM     14  C   UNL     1     -13.121 -15.056  32.650  1.00  0.00     0.068 A 
ATOM     15  C   UNL     1     -12.221 -14.599  34.862  1.00  0.00     0.200 A 
ATOM     16  C   UNL     1     -13.287 -14.566  33.952  1.00  0.00     0.162 A 
BRANCH  13  17
ATOM     17  O   UNL     1      -9.875 -15.218  35.313  1.00  0.00    -0.504 OA
ATOM     18  H   UNL     1      -9.876 -15.710  36.195  1.00  0.00     0.293 HD
ENDBRANCH  13  17
BRANCH  15  19
ATOM     19  O   UNL     1     -12.437 -14.092  36.145  1.00  0.00    -0.502 OA
ATOM     20  H   UNL     1     -12.553 -13.111  36.354  1.00  0.00     0.293 HD
ENDBRANCH  15  19
BRANCH  16  21
ATOM     21  O   UNL     1     -14.517 -14.047  34.352  1.00  0.00    -0.504 OA
ATOM     22  H   UNL     1     -15.343 -14.629  34.420  1.00  0.00     0.293 HD
ENDBRANCH  16  21
ENDBRANCH   1  11
BRANCH  10  23
ATOM     23  O   UNL     1      -9.875 -17.580  31.577  1.00  0.00    -0.500 OA
ATOM     24  H   UNL     1      -9.550 -18.539  31.562  1.00  0.00     0.294 HD
ENDBRANCH  10  23
BRANCH   5  25
ATOM     25  O   UNL     1     -14.162 -15.506  25.448  1.00  0.00    -0.507 OA
ATOM     26  H   UNL     1     -15.009 -15.037  25.742  1.00  0.00     0.293 HD
ENDBRANCH   5  25
BRANCH   7  27
ATOM     27  O   UNL     1     -10.423 -18.379  26.434  1.00  0.00    -0.507 OA
ATOM     28  H   UNL     1     -10.287 -18.609  25.461  1.00  0.00     0.293 HD
ENDBRANCH   7  27
TORSDOF 7
ENDMDL
MODEL 6
REMARK VINA RESULT:    -1.476      1.239      6.919
REMARK INTER + INTRA:          -2.053
REMARK INTER:                  -2.015
REMARK INTRA:                  -0.038
REMARK UNBOUND:                -0.232
REMARK SMILES Oc1cc(O)c2cc(O)c(-c3cc(O)c(O)c(O)c3)[o+]c2c1
REMARK SMILES IDX 10 1 20 2 21 3 22 4 2 5 3 6 4 7 6 8 7 9 8 10 11 11 12 12
REMARK SMILES IDX 13 13 19 14 15 15 17 16 14 17 16 19 18 21 9 23 1 25 5 27
REMARK H PARENT 14 18 16 20 18 22 9 24 1 26 5 28
REMARK Flexibility Score: inf
ROOT
ATOM      1  C   UNL     1     -12.742 -16.047  32.304  1.00  0.00     0.402 A 
ATOM      2  O   UNL     1     -12.457 -17.343  32.416  1.00  0.00    -0.202 OA
ATOM      3  C   UNL     1     -12.640 -18.219  31.433  1.00  0.00     0.368 A 
ATOM      4  C   UNL     1     -12.313 -19.559  31.649  1.00  0.00     0.162 A 
ATOM      5  C   UNL     1     -12.498 -20.502  30.637  1.00  0.00     0.128 A 
ATOM      6  C   UNL     1     -13.012 -20.102  29.398  1.00  0.00     0.093 A 
ATOM      7  C   UNL     1     -13.346 -18.764  29.157  1.00  0.00     0.136 A 
ATOM      8  C   UNL     1     -13.158 -17.802  30.183  1.00  0.00     0.125 A 
ATOM      9  C   UNL     1     -13.452 -16.438  30.027  1.00  0.00     0.078 A 
ATOM     10  C   UNL     1     -13.236 -15.548  31.085  1.00  0.00     0.223 A 
ENDROOT
BRANCH   1  11
ATOM     11  C   UNL     1     -12.503 -15.174  33.475  1.00  0.00     0.091 A 
ATOM     12  C   UNL     1     -11.325 -15.323  34.220  1.00  0.00     0.068 A 
ATOM     13  C   UNL     1     -11.076 -14.529  35.345  1.00  0.00     0.162 A 
ATOM     14  C   UNL     1     -13.458 -14.233  33.892  1.00  0.00     0.068 A 
ATOM     15  C   UNL     1     -12.034 -13.566  35.745  1.00  0.00     0.200 A 
ATOM     16  C   UNL     1     -13.223 -13.431  35.015  1.00  0.00     0.162 A 
BRANCH  13  17
ATOM     17  O   UNL     1      -9.875 -14.728  36.029  1.00  0.00    -0.504 OA
ATOM     18  H   UNL     1      -9.610 -15.600  36.465  1.00  0.00     0.293 HD
ENDBRANCH  13  17
BRANCH  15  19
ATOM     19  O   UNL     1     -11.846 -12.737  36.853  1.00  0.00    -0.502 OA
ATOM     20  H   UNL     1     -11.040 -12.143  36.986  1.00  0.00     0.293 HD
ENDBRANCH  15  19
BRANCH  16  21
ATOM     21  O   UNL     1     -14.173 -12.495  35.417  1.00  0.00    -0.504 OA
ATOM     22  H   UNL     1     -14.988 -12.762  35.957  1.00  0.00     0.293 HD
ENDBRANCH  16  21
ENDBRANCH   1  11
BRANCH  10  23
ATOM     23  O   UNL     1     -13.482 -14.186  30.914  1.00  0.00    -0.500 OA
ATOM     24  H   UNL     1     -14.414 -13.798  30.996  1.00  0.00     0.294 HD
ENDBRANCH  10  23
BRANCH   5  25
ATOM     25  O   UNL     1     -12.166 -21.835  30.870  1.00  0.00    -0.507 OA
ATOM     26  H   UNL     1     -11.748 -22.131  31.743  1.00  0.00     0.293 HD
ENDBRANCH   5  25
BRANCH   7  27
ATOM     27  O   UNL     1     -13.857 -18.445  27.896  1.00  0.00    -0.507 OA
ATOM     28  H   UNL     1     -14.824 -18.216  27.712  1.00  0.00     0.293 HD
ENDBRANCH   7  27
TORSDOF 7
ENDMDL
MODEL 7
REMARK VINA RESULT:    -1.288      1.653      7.350
REMARK INTER + INTRA:          -1.822
REMARK INTER:                  -1.543
REMARK INTRA:                  -0.279
REMARK UNBOUND:                -0.232
REMARK SMILES Oc1cc(O)c2cc(O)c(-c3cc(O)c(O)c(O)c3)[o+]c2c1
REMARK SMILES IDX 10 1 20 2 21 3 22 4 2 5 3 6 4 7 6 8 7 9 8 10 11 11 12 12
REMARK SMILES IDX 13 13 19 14 15 15 17 16 14 17 16 19 18 21 9 23 1 25 5 27
REMARK H PARENT 14 18 16 20 18 22 9 24 1 26 5 28
REMARK Flexibility Score: inf
ROOT
ATOM      1  C   UNL     1     -11.941 -16.378  31.342  1.00  0.00     0.402 A 
ATOM      2  O   UNL     1     -12.678 -17.475  31.179  1.00  0.00    -0.202 OA
ATOM      3  C   UNL     1     -12.713 -18.169  30.047  1.00  0.00     0.368 A 
ATOM      4  C   UNL     1     -13.520 -19.307  29.973  1.00  0.00     0.162 A 
ATOM      5  C   UNL     1     -13.580 -20.053  28.795  1.00  0.00     0.128 A 
ATOM      6  C   UNL     1     -12.828 -19.661  27.683  1.00  0.00     0.093 A 
ATOM      7  C   UNL     1     -12.011 -18.525  27.732  1.00  0.00     0.136 A 
ATOM      8  C   UNL     1     -11.946 -17.764  28.928  1.00  0.00     0.125 A 
ATOM      9  C   UNL     1     -11.144 -16.620  29.074  1.00  0.00     0.078 A 
ATOM     10  C   UNL     1     -11.129 -15.924  30.287  1.00  0.00     0.223 A 
ENDROOT
BRANCH   1  11
ATOM     11  C   UNL     1     -11.994 -15.687  32.650  1.00  0.00     0.091 A 
ATOM     12  C   UNL     1     -13.136 -14.951  32.998  1.00  0.00     0.068 A 
ATOM     13  C   UNL     1     -13.212 -14.269  34.217  1.00  0.00     0.162 A 
ATOM     14  C   UNL     1     -10.901 -15.704  33.531  1.00  0.00     0.068 A 
ATOM     15  C   UNL     1     -12.115 -14.310  35.110  1.00  0.00     0.200 A 
ATOM     16  C   UNL     1     -10.963 -15.025  34.754  1.00  0.00     0.162 A 
BRANCH  13  17
ATOM     17  O   UNL     1     -14.387 -13.568  34.497  1.00  0.00    -0.504 OA
ATOM     18  H   UNL     1     -15.252 -13.685  33.988  1.00  0.00     0.293 HD
ENDBRANCH  13  17
BRANCH  15  19
ATOM     19  O   UNL     1     -12.127 -13.657  36.344  1.00  0.00    -0.502 OA
ATOM     20  H   UNL     1     -12.947 -13.229  36.751  1.00  0.00     0.293 HD
ENDBRANCH  15  19
BRANCH  16  21
ATOM     21  O   UNL     1      -9.875 -15.054  35.625  1.00  0.00    -0.504 OA
ATOM     22  H   UNL     1      -9.136 -15.741  35.531  1.00  0.00     0.293 HD
ENDBRANCH  16  21
ENDBRANCH   1  11
BRANCH  10  23
ATOM     23  O   UNL     1     -10.296 -14.817  30.447  1.00  0.00    -0.500 OA
ATOM     24  H   UNL     1      -9.709 -14.478  29.694  1.00  0.00     0.294 HD
ENDBRANCH  10  23
BRANCH   5  25
ATOM     25  O   UNL     1     -14.391 -21.186  28.740  1.00  0.00    -0.507 OA
ATOM     26  H   UNL     1     -14.315 -21.925  29.427  1.00  0.00     0.293 HD
ENDBRANCH   5  25
BRANCH   7  27
ATOM     27  O   UNL     1     -11.293 -18.197  26.578  1.00  0.00    -0.507 OA
ATOM     28  H   UNL     1     -10.321 -17.922  26.569  1.00  0.00     0.293 HD
ENDBRANCH   7  27
TORSDOF 7
ENDMDL
MODEL 8
REMARK VINA RESULT:    -1.020      1.932      7.075
REMARK INTER + INTRA:          -1.490
REMARK INTER:                  -1.950
REMARK INTRA:                   0.460
REMARK UNBOUND:                -0.232
REMARK SMILES Oc1cc(O)c2cc(O)c(-c3cc(O)c(O)c(O)c3)[o+]c2c1
REMARK SMILES IDX 10 1 20 2 21 3 22 4 2 5 3 6 4 7 6 8 7 9 8 10 11 11 12 12
REMARK SMILES IDX 13 13 19 14 15 15 17 16 14 17 16 19 18 21 9 23 1 25 5 27
REMARK H PARENT 14 18 16 20 18 22 9 24 1 26 5 28
REMARK Flexibility Score: inf
ROOT
ATOM      1  C   UNL     1     -12.645 -15.404  30.863  1.00  0.00     0.402 A 
ATOM      2  O   UNL     1     -11.717 -16.056  30.166  1.00  0.00    -0.202 OA
ATOM      3  C   UNL     1     -11.838 -16.335  28.872  1.00  0.00     0.368 A 
ATOM      4  C   UNL     1     -10.810 -17.027  28.228  1.00  0.00     0.162 A 
ATOM      5  C   UNL     1     -10.911 -17.337  26.871  1.00  0.00     0.128 A 
ATOM      6  C   UNL     1     -12.048 -16.952  26.151  1.00  0.00     0.093 A 
ATOM      7  C   UNL     1     -13.091 -16.257  26.774  1.00  0.00     0.136 A 
ATOM      8  C   UNL     1     -12.991 -15.938  28.153  1.00  0.00     0.125 A 
ATOM      9  C   UNL     1     -13.981 -15.233  28.857  1.00  0.00     0.078 A 
ATOM     10  C   UNL     1     -13.810 -14.952  30.217  1.00  0.00     0.223 A 
ENDROOT
BRANCH   1  11
ATOM     11  C   UNL     1     -12.397 -15.163  32.303  1.00  0.00     0.091 A 
ATOM     12  C   UNL     1     -13.301 -14.382  33.038  1.00  0.00     0.068 A 
ATOM     13  C   UNL     1     -13.087 -14.117  34.395  1.00  0.00     0.162 A 
ATOM     14  C   UNL     1     -11.245 -15.652  32.938  1.00  0.00     0.068 A 
ATOM     15  C   UNL     1     -11.935 -14.633  35.035  1.00  0.00     0.200 A 
ATOM     16  C   UNL     1     -11.018 -15.394  34.296  1.00  0.00     0.162 A 
BRANCH  13  17
ATOM     17  O   UNL     1     -14.038 -13.342  35.063  1.00  0.00    -0.504 OA
ATOM     18  H   UNL     1     -14.901 -13.022  34.647  1.00  0.00     0.293 HD
ENDBRANCH  13  17
BRANCH  15  19
ATOM     19  O   UNL     1     -11.665 -14.411  36.387  1.00  0.00    -0.502 OA
ATOM     20  H   UNL     1     -11.304 -13.544  36.758  1.00  0.00     0.293 HD
ENDBRANCH  15  19
BRANCH  16  21
ATOM     21  O   UNL     1      -9.875 -15.890  34.921  1.00  0.00    -0.504 OA
ATOM     22  H   UNL     1      -9.739 -16.883  35.069  1.00  0.00     0.293 HD
ENDBRANCH  16  21
ENDBRANCH   1  11
BRANCH  10  23
ATOM     23  O   UNL     1     -14.769 -14.209  30.903  1.00  0.00    -0.500 OA
ATOM     24  H   UNL     1     -15.662 -14.608  31.170  1.00  0.00     0.294 HD
ENDBRANCH  10  23
BRANCH   5  25
ATOM     25  O   UNL     1      -9.875 -18.028  26.245  1.00  0.00    -0.507 OA
ATOM     26  H   UNL     1      -9.276 -17.579  25.563  1.00  0.00     0.293 HD
ENDBRANCH   5  25
BRANCH   7  27
ATOM     27  O   UNL     1     -14.194 -15.911  25.988  1.00  0.00    -0.507 OA
ATOM     28  H   UNL     1     -14.590 -14.983  25.937  1.00  0.00     0.293 HD
ENDBRANCH   7  27
TORSDOF 7
ENDMDL
MODEL 9
REMARK VINA RESULT:    -0.529      3.035      5.679
REMARK INTER + INTRA:          -0.885
REMARK INTER:                  -0.529
REMARK INTRA:                  -0.356
REMARK UNBOUND:                -0.232
REMARK SMILES Oc1cc(O)c2cc(O)c(-c3cc(O)c(O)c(O)c3)[o+]c2c1
REMARK SMILES IDX 10 1 20 2 21 3 22 4 2 5 3 6 4 7 6 8 7 9 8 10 11 11 12 12
REMARK SMILES IDX 13 13 19 14 15 15 17 16 14 17 16 19 18 21 9 23 1 25 5 27
REMARK H PARENT 14 18 16 20 18 22 9 24 1 26 5 28
REMARK Flexibility Score: inf
ROOT
ATOM      1  C   UNL     1     -12.874 -15.783  30.483  1.00  0.00     0.402 A 
ATOM      2  O   UNL     1     -14.081 -15.454  30.938  1.00  0.00    -0.202 OA
ATOM      3  C   UNL     1     -14.850 -14.532  30.368  1.00  0.00     0.368 A 
ATOM      4  C   UNL     1     -16.102 -14.254  30.922  1.00  0.00     0.162 A 
ATOM      5  C   UNL     1     -16.929 -13.289  30.347  1.00  0.00     0.128 A 
ATOM      6  C   UNL     1     -16.503 -12.594  29.210  1.00  0.00     0.093 A 
ATOM      7  C   UNL     1     -15.253 -12.854  28.635  1.00  0.00     0.136 A 
ATOM      8  C   UNL     1     -14.410 -13.837  29.216  1.00  0.00     0.125 A 
ATOM      9  C   UNL     1     -13.147 -14.174  28.701  1.00  0.00     0.078 A 
ATOM     10  C   UNL     1     -12.374 -15.157  29.327  1.00  0.00     0.223 A 
ENDROOT
BRANCH   1  11
ATOM     11  C   UNL     1     -12.110 -16.820  31.213  1.00  0.00     0.091 A 
ATOM     12  C   UNL     1     -11.349 -16.458  32.333  1.00  0.00     0.068 A 
ATOM     13  C   UNL     1     -10.599 -17.409  33.033  1.00  0.00     0.162 A 
ATOM     14  C   UNL     1     -12.085 -18.153  30.773  1.00  0.00     0.068 A 
ATOM     15  C   UNL     1     -10.596 -18.756  32.598  1.00  0.00     0.200 A 
ATOM     16  C   UNL     1     -11.338 -19.115  31.464  1.00  0.00     0.162 A 
BRANCH  13  17
ATOM     17  O   UNL     1      -9.875 -16.975  34.147  1.00  0.00    -0.504 OA
ATOM     18  H   UNL     1      -9.718 -16.004  34.376  1.00  0.00     0.293 HD
ENDBRANCH  13  17
BRANCH  15  19
ATOM     19  O   UNL     1      -9.875 -19.755  33.255  1.00  0.00    -0.502 OA
ATOM     20  H   UNL     1      -8.964 -19.618  33.668  1.00  0.00     0.293 HD
ENDBRANCH  15  19
BRANCH  16  21
ATOM     21  O   UNL     1     -11.325 -20.438  31.025  1.00  0.00    -0.504 OA
ATOM     22  H   UNL     1     -10.997 -20.688  30.099  1.00  0.00     0.293 HD
ENDBRANCH  16  21
ENDBRANCH   1  11
BRANCH  10  23
ATOM     23  O   UNL     1     -11.142 -15.526  28.787  1.00  0.00    -0.500 OA
ATOM     24  H   UNL     1     -10.765 -16.459  28.908  1.00  0.00     0.294 HD
ENDBRANCH  10  23
BRANCH   5  25
ATOM     25  O   UNL     1     -18.175 -13.026  30.914  1.00  0.00    -0.507 OA
ATOM     26  H   UNL     1     -19.006 -13.525  30.620  1.00  0.00     0.293 HD
ENDBRANCH   5  25
BRANCH   7  27
ATOM     27  O   UNL     1     -14.898 -12.117  27.502  1.00  0.00    -0.507 OA
ATOM     28  H   UNL     1     -15.488 -11.995  26.692  1.00  0.00     0.293 HD
ENDBRANCH   7  27
TORSDOF 7
ENDMDL
