MODEL 1
REMARK VINA RESULT:    -3.794      0.000      0.000
REMARK INTER + INTRA:          -6.854
REMARK INTER:                  -6.012
REMARK INTRA:                  -0.842
REMARK UNBOUND:                -0.842
REMARK SMILES CCCCCCCCCCCC(=O)[O-]
REMARK SMILES IDX 7 1 8 2 9 3 10 4 11 5 12 6 13 7 14 8 6 9 5 10 4 11 3 12 2 13
REMARK SMILES IDX 1 14
REMARK H PARENT
REMARK Flexibility Score: inf
ROOT
ATOM      1  C   UNL     1       6.253 125.501 113.284  1.00  0.00     0.000 C 
ENDROOT
BRANCH   1   2
ATOM      2  C   UNL     1       5.430 126.302 112.259  1.00  0.00     0.000 C 
BRANCH   2   3
ATOM      3  C   UNL     1       4.110 125.642 111.812  1.00  0.00     0.000 C 
BRANCH   3   4
ATOM      4  C   UNL     1       3.658 125.982 110.377  1.00  0.00     0.006 C 
BRANCH   4   5
ATOM      5  C   UNL     1       2.288 126.673 110.292  1.00  0.00     0.053 C 
BRANCH   5   6
ATOM      6  C   UNL     1       2.419 128.156 110.121  1.00  0.00     0.041 C 
ATOM      7  O   UNL     1       2.626 128.646 108.979  1.00  0.00    -0.550 OA
ATOM      8  O   UNL     1       2.348 128.993 111.227  1.00  0.00    -0.550 OA
ENDBRANCH   5   6
ENDBRANCH   4   5
ENDBRANCH   3   4
ENDBRANCH   2   3
ENDBRANCH   1   2
BRANCH   1   9
ATOM      9  C   UNL     1       6.597 124.083 112.799  1.00  0.00     0.000 C 
BRANCH   9  10
ATOM     10  C   UNL     1       7.752 124.059 111.782  1.00  0.00    -0.000 C 
BRANCH  10  11
ATOM     11  C   UNL     1       7.342 123.786 110.323  1.00  0.00    -0.000 C 
BRANCH  11  12
ATOM     12  C   UNL     1       7.532 125.007 109.407  1.00  0.00    -0.000 C 
BRANCH  12  13
ATOM     13  C   UNL     1       7.954 124.615 107.982  1.00  0.00    -0.003 C 
ATOM     14  C   UNL     1       7.076 125.252 106.906  1.00  0.00     0.004 C 
ENDBRANCH  12  13
ENDBRANCH  11  12
ENDBRANCH  10  11
ENDBRANCH   9  10
ENDBRANCH   1   9
TORSDOF 10
ENDMDL
MODEL 2
REMARK VINA RESULT:    -3.742      3.673      6.000
REMARK INTER + INTRA:          -6.773
REMARK INTER:                  -5.300
REMARK INTRA:                  -1.473
REMARK UNBOUND:                -0.842
REMARK SMILES CCCCCCCCCCCC(=O)[O-]
REMARK SMILES IDX 7 1 8 2 9 3 10 4 11 5 12 6 13 7 14 8 6 9 5 10 4 11 3 12 2 13
REMARK SMILES IDX 1 14
REMARK H PARENT
REMARK Flexibility Score: inf
ROOT
ATOM      1  C   UNL     1       2.347 125.915 111.288  1.00  0.00     0.000 C 
ENDROOT
BRANCH   1   2
ATOM      2  C   UNL     1       3.232 124.753 110.800  1.00  0.00     0.000 C 
BRANCH   2   3
ATOM      3  C   UNL     1       4.741 125.059 110.722  1.00  0.00     0.000 C 
BRANCH   3   4
ATOM      4  C   UNL     1       5.291 125.948 111.857  1.00  0.00     0.006 C 
BRANCH   4   5
ATOM      5  C   UNL     1       6.228 125.221 112.833  1.00  0.00     0.053 C 
BRANCH   5   6
ATOM      6  C   UNL     1       7.328 124.498 112.118  1.00  0.00     0.041 C 
ATOM      7  O   UNL     1       8.198 125.143 111.476  1.00  0.00    -0.550 OA
ATOM      8  O   UNL     1       7.373 123.109 112.132  1.00  0.00    -0.550 OA
ENDBRANCH   5   6
ENDBRANCH   4   5
ENDBRANCH   3   4
ENDBRANCH   2   3
ENDBRANCH   1   2
BRANCH   1   9
ATOM      9  C   UNL     1       1.483 125.541 112.502  1.00  0.00     0.000 C 
BRANCH   9  10
ATOM     10  C   UNL     1       2.238 125.663 113.839  1.00  0.00    -0.000 C 
BRANCH  10  11
ATOM     11  C   UNL     1       2.364 124.357 114.646  1.00  0.00    -0.000 C 
BRANCH  11  12
ATOM     12  C   UNL     1       1.887 123.120 113.867  1.00  0.00    -0.000 C 
BRANCH  12  13
ATOM     13  C   UNL     1       2.851 121.931 114.003  1.00  0.00    -0.003 C 
ATOM     14  C   UNL     1       4.167 122.145 113.256  1.00  0.00     0.004 C 
ENDBRANCH  12  13
ENDBRANCH  11  12
ENDBRANCH  10  11
ENDBRANCH   9  10
ENDBRANCH   1   9
TORSDOF 10
ENDMDL
MODEL 3
REMARK VINA RESULT:    -3.734      3.477      6.061
REMARK INTER + INTRA:          -6.760
REMARK INTER:                  -5.619
REMARK INTRA:                  -1.141
REMARK UNBOUND:                -0.842
REMARK SMILES CCCCCCCCCCCC(=O)[O-]
REMARK SMILES IDX 7 1 8 2 9 3 10 4 11 5 12 6 13 7 14 8 6 9 5 10 4 11 3 12 2 13
REMARK SMILES IDX 1 14
REMARK H PARENT
REMARK Flexibility Score: inf
ROOT
ATOM      1  C   UNL     1       3.494 124.505 111.374  1.00  0.00     0.000 C 
ENDROOT
BRANCH   1   2
ATOM      2  C   UNL     1       4.558 125.375 110.680  1.00  0.00     0.000 C 
BRANCH   2   3
ATOM      3  C   UNL     1       5.620 125.990 111.614  1.00  0.00     0.000 C 
BRANCH   3   4
ATOM      4  C   UNL     1       7.066 125.513 111.368  1.00  0.00     0.006 C 
BRANCH   4   5
ATOM      5  C   UNL     1       7.295 124.019 111.645  1.00  0.00     0.053 C 
BRANCH   5   6
ATOM      6  C   UNL     1       7.797 123.779 113.037  1.00  0.00     0.041 C 
ATOM      7  O   UNL     1       7.302 124.412 114.006  1.00  0.00    -0.550 OA
ATOM      8  O   UNL     1       8.834 122.882 113.258  1.00  0.00    -0.550 OA
ENDBRANCH   5   6
ENDBRANCH   4   5
ENDBRANCH   3   4
ENDBRANCH   2   3
ENDBRANCH   1   2
BRANCH   1   9
ATOM      9  C   UNL     1       2.946 125.144 112.661  1.00  0.00     0.000 C 
BRANCH   9  10
ATOM     10  C   UNL     1       1.477 125.585 112.535  1.00  0.00    -0.000 C 
BRANCH  10  11
ATOM     11  C   UNL     1       1.250 126.926 111.813  1.00  0.00    -0.000 C 
BRANCH  11  12
ATOM     12  C   UNL     1       2.229 128.024 112.262  1.00  0.00    -0.000 C 
BRANCH  12  13
ATOM     13  C   UNL     1       2.880 128.753 111.076  1.00  0.00    -0.003 C 
ATOM     14  C   UNL     1       2.331 128.297 109.725  1.00  0.00     0.004 C 
ENDBRANCH  12  13
ENDBRANCH  11  12
ENDBRANCH  10  11
ENDBRANCH   9  10
ENDBRANCH   1   9
TORSDOF 10
ENDMDL
MODEL 4
REMARK VINA RESULT:    -3.732      3.386      6.171
REMARK INTER + INTRA:          -6.756
REMARK INTER:                  -5.704
REMARK INTRA:                  -1.052
REMARK UNBOUND:                -0.842
REMARK SMILES CCCCCCCCCCCC(=O)[O-]
REMARK SMILES IDX 7 1 8 2 9 3 10 4 11 5 12 6 13 7 14 8 6 9 5 10 4 11 3 12 2 13
REMARK SMILES IDX 1 14
REMARK H PARENT
REMARK Flexibility Score: inf
ROOT
ATOM      1  C   UNL     1       2.306 125.225 112.290  1.00  0.00     0.000 C 
ENDROOT
BRANCH   1   2
ATOM      2  C   UNL     1       2.845 125.036 110.860  1.00  0.00     0.000 C 
BRANCH   2   3
ATOM      3  C   UNL     1       4.321 125.434 110.653  1.00  0.00     0.000 C 
BRANCH   3   4
ATOM      4  C   UNL     1       5.190 125.417 111.927  1.00  0.00     0.006 C 
BRANCH   4   5
ATOM      5  C   UNL     1       5.865 124.067 112.215  1.00  0.00     0.053 C 
BRANCH   5   6
ATOM      6  C   UNL     1       7.359 124.171 112.189  1.00  0.00     0.041 C 
ATOM      7  O   UNL     1       8.069 123.195 112.549  1.00  0.00    -0.550 OA
ATOM      8  O   UNL     1       7.967 125.358 111.800  1.00  0.00    -0.550 OA
ENDBRANCH   5   6
ENDBRANCH   4   5
ENDBRANCH   3   4
ENDBRANCH   2   3
ENDBRANCH   1   2
BRANCH   1   9
ATOM      9  C   UNL     1       1.256 126.344 112.390  1.00  0.00     0.000 C 
BRANCH   9  10
ATOM     10  C   UNL     1       1.291 127.310 111.192  1.00  0.00    -0.000 C 
BRANCH  10  11
ATOM     11  C   UNL     1       1.527 128.791 111.546  1.00  0.00    -0.000 C 
BRANCH  11  12
ATOM     12  C   UNL     1       2.984 129.235 111.332  1.00  0.00    -0.000 C 
BRANCH  12  13
ATOM     13  C   UNL     1       3.886 128.892 112.528  1.00  0.00    -0.003 C 
ATOM     14  C   UNL     1       4.481 130.131 113.196  1.00  0.00     0.004 C 
ENDBRANCH  12  13
ENDBRANCH  11  12
ENDBRANCH  10  11
ENDBRANCH   9  10
ENDBRANCH   1   9
TORSDOF 10
ENDMDL
MODEL 5
REMARK VINA RESULT:    -3.700      4.146      6.447
REMARK INTER + INTRA:          -6.705
REMARK INTER:                  -5.657
REMARK INTRA:                  -1.048
REMARK UNBOUND:                -0.842
REMARK SMILES CCCCCCCCCCCC(=O)[O-]
REMARK SMILES IDX 7 1 8 2 9 3 10 4 11 5 12 6 13 7 14 8 6 9 5 10 4 11 3 12 2 13
REMARK SMILES IDX 1 14
REMARK H PARENT
REMARK Flexibility Score: inf
ROOT
ATOM      1  C   UNL     1       2.395 126.083 111.760  1.00  0.00     0.000 C 
ENDROOT
BRANCH   1   2
ATOM      2  C   UNL     1       2.916 124.954 110.852  1.00  0.00     0.000 C 
BRANCH   2   3
ATOM      3  C   UNL     1       4.446 124.756 110.858  1.00  0.00     0.000 C 
BRANCH   3   4
ATOM      4  C   UNL     1       4.956 123.604 111.746  1.00  0.00     0.006 C 
BRANCH   4   5
ATOM      5  C   UNL     1       5.892 124.046 112.881  1.00  0.00     0.053 C 
BRANCH   5   6
ATOM      6  C   UNL     1       7.318 124.133 112.429  1.00  0.00     0.041 C 
ATOM      7  O   UNL     1       8.081 123.139 112.544  1.00  0.00    -0.550 OA
ATOM      8  O   UNL     1       7.812 125.324 111.912  1.00  0.00    -0.550 OA
ENDBRANCH   5   6
ENDBRANCH   4   5
ENDBRANCH   3   4
ENDBRANCH   2   3
ENDBRANCH   1   2
BRANCH   1   9
ATOM      9  C   UNL     1       1.708 125.559 113.032  1.00  0.00     0.000 C 
BRANCH   9  10
ATOM     10  C   UNL     1       1.269 124.087 112.915  1.00  0.00    -0.000 C 
BRANCH  10  11
ATOM     11  C   UNL     1       1.832 123.144 113.995  1.00  0.00    -0.000 C 
BRANCH  11  12
ATOM     12  C   UNL     1       1.157 121.761 113.995  1.00  0.00    -0.000 C 
BRANCH  12  13
ATOM     13  C   UNL     1       2.166 120.614 114.156  1.00  0.00    -0.003 C 
ATOM     14  C   UNL     1       3.618 121.087 114.096  1.00  0.00     0.004 C 
ENDBRANCH  12  13
ENDBRANCH  11  12
ENDBRANCH  10  11
ENDBRANCH   9  10
ENDBRANCH   1   9
TORSDOF 10
ENDMDL
MODEL 6
REMARK VINA RESULT:    -3.636      3.330      5.674
REMARK INTER + INTRA:          -6.604
REMARK INTER:                  -4.979
REMARK INTRA:                  -1.624
REMARK UNBOUND:                -0.842
REMARK SMILES CCCCCCCCCCCC(=O)[O-]
REMARK SMILES IDX 7 1 8 2 9 3 10 4 11 5 12 6 13 7 14 8 6 9 5 10 4 11 3 12 2 13
REMARK SMILES IDX 1 14
REMARK H PARENT
REMARK Flexibility Score: inf
ROOT
ATOM      1  C   UNL     1       3.033 123.892 113.191  1.00  0.00     0.000 C 
ENDROOT
BRANCH   1   2
ATOM      2  C   UNL     1       4.463 123.540 112.743  1.00  0.00     0.000 C 
BRANCH   2   3
ATOM      3  C   UNL     1       5.559 123.746 113.808  1.00  0.00     0.000 C 
BRANCH   3   4
ATOM      4  C   UNL     1       6.706 124.691 113.397  1.00  0.00     0.006 C 
BRANCH   4   5
ATOM      5  C   UNL     1       6.764 124.999 111.893  1.00  0.00     0.053 C 
BRANCH   5   6
ATOM      6  C   UNL     1       8.040 124.517 111.272  1.00  0.00     0.041 C 
ATOM      7  O   UNL     1       8.998 124.146 112.001  1.00  0.00    -0.550 OA
ATOM      8  O   UNL     1       8.183 124.511 109.891  1.00  0.00    -0.550 OA
ENDBRANCH   5   6
ENDBRANCH   4   5
ENDBRANCH   3   4
ENDBRANCH   2   3
ENDBRANCH   1   2
BRANCH   1   9
ATOM      9  C   UNL     1       2.230 124.629 112.107  1.00  0.00     0.000 C 
BRANCH   9  10
ATOM     10  C   UNL     1       3.022 124.826 110.802  1.00  0.00    -0.000 C 
BRANCH  10  11
ATOM     11  C   UNL     1       3.425 126.279 110.486  1.00  0.00    -0.000 C 
BRANCH  11  12
ATOM     12  C   UNL     1       3.024 127.267 111.595  1.00  0.00    -0.000 C 
BRANCH  12  13
ATOM     13  C   UNL     1       4.224 127.723 112.439  1.00  0.00    -0.003 C 
ATOM     14  C   UNL     1       4.077 127.370 113.919  1.00  0.00     0.004 C 
ENDBRANCH  12  13
ENDBRANCH  11  12
ENDBRANCH  10  11
ENDBRANCH   9  10
ENDBRANCH   1   9
TORSDOF 10
ENDMDL
MODEL 7
REMARK VINA RESULT:    -3.633      3.509      5.890
REMARK INTER + INTRA:          -6.598
REMARK INTER:                  -5.370
REMARK INTRA:                  -1.228
REMARK UNBOUND:                -0.842
REMARK SMILES CCCCCCCCCCCC(=O)[O-]
REMARK SMILES IDX 7 1 8 2 9 3 10 4 11 5 12 6 13 7 14 8 6 9 5 10 4 11 3 12 2 13
REMARK SMILES IDX 1 14
REMARK H PARENT
REMARK Flexibility Score: inf
ROOT
ATOM      1  C   UNL     1       4.188 127.526 114.331  1.00  0.00     0.000 C 
ENDROOT
BRANCH   1   2
ATOM      2  C   UNL     1       5.051 127.438 113.059  1.00  0.00     0.000 C 
BRANCH   2   3
ATOM      3  C   UNL     1       5.915 126.166 112.933  1.00  0.00     0.000 C 
BRANCH   3   4
ATOM      4  C   UNL     1       6.434 125.863 111.513  1.00  0.00     0.006 C 
BRANCH   4   5
ATOM      5  C   UNL     1       7.772 125.109 111.475  1.00  0.00     0.053 C 
BRANCH   5   6
ATOM      6  C   UNL     1       7.610 123.663 111.829  1.00  0.00     0.041 C 
ATOM      7  O   UNL     1       8.107 123.211 112.894  1.00  0.00    -0.550 OA
ATOM      8  O   UNL     1       6.939 122.806 110.964  1.00  0.00    -0.550 OA
ENDBRANCH   5   6
ENDBRANCH   4   5
ENDBRANCH   3   4
ENDBRANCH   2   3
ENDBRANCH   1   2
BRANCH   1   9
ATOM      9  C   UNL     1       2.692 127.707 114.028  1.00  0.00     0.000 C 
BRANCH   9  10
ATOM     10  C   UNL     1       2.414 128.044 112.551  1.00  0.00    -0.000 C 
BRANCH  10  11
ATOM     11  C   UNL     1       1.603 126.989 111.775  1.00  0.00    -0.000 C 
BRANCH  11  12
ATOM     12  C   UNL     1       1.507 125.643 112.514  1.00  0.00    -0.000 C 
BRANCH  12  13
ATOM     13  C   UNL     1       2.531 124.617 112.004  1.00  0.00    -0.003 C 
ATOM     14  C   UNL     1       3.062 124.951 110.610  1.00  0.00     0.004 C 
ENDBRANCH  12  13
ENDBRANCH  11  12
ENDBRANCH  10  11
ENDBRANCH   9  10
ENDBRANCH   1   9
TORSDOF 10
ENDMDL
MODEL 8
REMARK VINA RESULT:    -3.583      3.859      6.191
REMARK INTER + INTRA:          -6.519
REMARK INTER:                  -5.492
REMARK INTRA:                  -1.027
REMARK UNBOUND:                -0.842
REMARK SMILES CCCCCCCCCCCC(=O)[O-]
REMARK SMILES IDX 7 1 8 2 9 3 10 4 11 5 12 6 13 7 14 8 6 9 5 10 4 11 3 12 2 13
REMARK SMILES IDX 1 14
REMARK H PARENT
REMARK Flexibility Score: inf
ROOT
ATOM      1  C   UNL     1       3.015 129.366 111.312  1.00  0.00     0.000 C 
ENDROOT
BRANCH   1   2
ATOM      2  C   UNL     1       3.001 129.745 112.804  1.00  0.00     0.000 C 
BRANCH   2   3
ATOM      3  C   UNL     1       4.299 130.386 113.336  1.00  0.00     0.000 C 
BRANCH   3   4
ATOM      4  C   UNL     1       5.466 129.406 113.574  1.00  0.00     0.006 C 
BRANCH   4   5
ATOM      5  C   UNL     1       6.175 129.584 114.926  1.00  0.00     0.053 C 
BRANCH   5   6
ATOM      6  C   UNL     1       7.274 130.600 114.852  1.00  0.00     0.041 C 
ATOM      7  O   UNL     1       7.524 131.336 115.842  1.00  0.00    -0.550 OA
ATOM      8  O   UNL     1       7.998 130.757 113.677  1.00  0.00    -0.550 OA
ENDBRANCH   5   6
ENDBRANCH   4   5
ENDBRANCH   3   4
ENDBRANCH   2   3
ENDBRANCH   1   2
BRANCH   1   9
ATOM      9  C   UNL     1       1.764 128.584 110.881  1.00  0.00     0.000 C 
BRANCH   9  10
ATOM     10  C   UNL     1       1.245 127.631 111.974  1.00  0.00    -0.000 C 
BRANCH  10  11
ATOM     11  C   UNL     1       1.752 126.179 111.878  1.00  0.00    -0.000 C 
BRANCH  11  12
ATOM     12  C   UNL     1       3.083 125.957 112.617  1.00  0.00    -0.000 C 
BRANCH  12  13
ATOM     13  C   UNL     1       4.271 125.804 111.655  1.00  0.00    -0.003 C 
ATOM     14  C   UNL     1       3.840 125.483 110.224  1.00  0.00     0.004 C 
ENDBRANCH  12  13
ENDBRANCH  11  12
ENDBRANCH  10  11
ENDBRANCH   9  10
ENDBRANCH   1   9
TORSDOF 10
ENDMDL
MODEL 9
REMARK VINA RESULT:    -3.557      3.707      6.628
REMARK INTER + INTRA:          -6.479
REMARK INTER:                  -5.614
REMARK INTRA:                  -0.864
REMARK UNBOUND:                -0.842
REMARK SMILES CCCCCCCCCCCC(=O)[O-]
REMARK SMILES IDX 7 1 8 2 9 3 10 4 11 5 12 6 13 7 14 8 6 9 5 10 4 11 3 12 2 13
REMARK SMILES IDX 1 14
REMARK H PARENT
REMARK Flexibility Score: inf
ROOT
ATOM      1  C   UNL     1       3.374 125.980 110.253  1.00  0.00     0.000 C 
ENDROOT
BRANCH   1   2
ATOM      2  C   UNL     1       4.662 125.205 110.585  1.00  0.00     0.000 C 
BRANCH   2   3
ATOM      3  C   UNL     1       4.554 124.219 111.766  1.00  0.00     0.000 C 
BRANCH   3   4
ATOM      4  C   UNL     1       5.541 123.036 111.726  1.00  0.00     0.006 C 
BRANCH   4   5
ATOM      5  C   UNL     1       6.940 123.396 111.203  1.00  0.00     0.053 C 
BRANCH   5   6
ATOM      6  C   UNL     1       7.830 123.908 112.295  1.00  0.00     0.041 C 
ATOM      7  O   UNL     1       7.908 125.145 112.520  1.00  0.00    -0.550 OA
ATOM      8  O   UNL     1       8.599 123.023 113.039  1.00  0.00    -0.550 OA
ENDBRANCH   5   6
ENDBRANCH   4   5
ENDBRANCH   3   4
ENDBRANCH   2   3
ENDBRANCH   1   2
BRANCH   1   9
ATOM      9  C   UNL     1       3.036 127.055 111.299  1.00  0.00     0.000 C 
BRANCH   9  10
ATOM     10  C   UNL     1       1.521 127.268 111.475  1.00  0.00    -0.000 C 
BRANCH  10  11
ATOM     11  C   UNL     1       0.958 126.891 112.858  1.00  0.00    -0.000 C 
BRANCH  11  12
ATOM     12  C   UNL     1       1.766 125.783 113.555  1.00  0.00    -0.000 C 
BRANCH  12  13
ATOM     13  C   UNL     1       1.175 124.385 113.318  1.00  0.00    -0.003 C 
ATOM     14  C   UNL     1       0.243 123.936 114.443  1.00  0.00     0.004 C 
ENDBRANCH  12  13
ENDBRANCH  11  12
ENDBRANCH  10  11
ENDBRANCH   9  10
ENDBRANCH   1   9
TORSDOF 10
ENDMDL
