MODEL 1
REMARK VINA RESULT:    -4.305      0.000      0.000
REMARK INTER + INTRA:          -5.184
REMARK INTER:                  -5.061
REMARK INTRA:                  -0.123
REMARK UNBOUND:                -0.123
REMARK SMILES O=C([O-])C=Cc1ccc(O)c(O)c1
REMARK SMILES IDX 6 1 13 2 7 3 11 4 8 5 9 6 5 7 4 8 2 9 1 10 3 11 12 12 10 14
REMARK H PARENT 12 13 10 15
REMARK Flexibility Score: inf
ROOT
ATOM      1  C   UNL     1       1.273  -0.557   8.144  1.00  0.00    -0.022 A 
ATOM      2  C   UNL     1       0.729   0.502   7.390  1.00  0.00     0.058 A 
ATOM      3  C   UNL     1       0.758  -0.809   9.426  1.00  0.00     0.012 A 
ATOM      4  C   UNL     1      -0.291   1.304   7.916  1.00  0.00     0.157 A 
ATOM      5  C   UNL     1      -0.257  -0.008   9.955  1.00  0.00     0.051 A 
ATOM      6  C   UNL     1      -0.784   1.052   9.207  1.00  0.00     0.157 A 
ENDROOT
BRANCH   1   7
ATOM      7  C   UNL     1       2.345  -1.441   7.623  1.00  0.00     0.010 C 
ATOM      8  C   UNL     1       3.320  -1.025   6.804  1.00  0.00     0.025 C 
BRANCH   8   9
ATOM      9  C   UNL     1       4.371  -1.936   6.321  1.00  0.00     0.064 C 
ATOM     10  O   UNL     1       4.069  -3.109   5.982  1.00  0.00    -0.545 OA
ATOM     11  O   UNL     1       5.695  -1.520   6.233  1.00  0.00    -0.545 OA
ENDBRANCH   8   9
ENDBRANCH   1   7
BRANCH   4  12
ATOM     12  O   UNL     1      -0.802   2.344   7.141  1.00  0.00    -0.504 OA
ATOM     13  H   UNL     1      -0.221   3.103   6.807  1.00  0.00     0.293 HD
ENDBRANCH   4  12
BRANCH   6  14
ATOM     14  O   UNL     1      -1.796   1.850   9.737  1.00  0.00    -0.504 OA
ATOM     15  H   UNL     1      -1.626   2.811  10.011  1.00  0.00     0.293 HD
ENDBRANCH   6  14
TORSDOF 4
ENDMDL
MODEL 2
REMARK VINA RESULT:    -4.242      1.798      5.996
REMARK INTER + INTRA:          -5.109
REMARK INTER:                  -4.988
REMARK INTRA:                  -0.122
REMARK UNBOUND:                -0.123
REMARK SMILES O=C([O-])C=Cc1ccc(O)c(O)c1
REMARK SMILES IDX 6 1 13 2 7 3 11 4 8 5 9 6 5 7 4 8 2 9 1 10 3 11 12 12 10 14
REMARK H PARENT 12 13 10 15
REMARK Flexibility Score: inf
ROOT
ATOM      1  C   UNL     1       2.737  -1.445   7.321  1.00  0.00    -0.022 A 
ATOM      2  C   UNL     1       2.244  -2.675   7.802  1.00  0.00     0.058 A 
ATOM      3  C   UNL     1       4.074  -1.371   6.898  1.00  0.00     0.012 A 
ATOM      4  C   UNL     1       3.077  -3.798   7.880  1.00  0.00     0.157 A 
ATOM      5  C   UNL     1       4.908  -2.489   6.976  1.00  0.00     0.051 A 
ATOM      6  C   UNL     1       4.417  -3.704   7.469  1.00  0.00     0.157 A 
ENDROOT
BRANCH   1   7
ATOM      7  C   UNL     1       1.888  -0.233   7.210  1.00  0.00     0.010 C 
ATOM      8  C   UNL     1       0.760  -0.047   7.908  1.00  0.00     0.025 C 
BRANCH   8   9
ATOM      9  C   UNL     1      -0.045   1.178   7.773  1.00  0.00     0.064 C 
ATOM     10  O   UNL     1      -1.151   1.132   7.177  1.00  0.00    -0.545 OA
ATOM     11  O   UNL     1       0.399   2.389   8.295  1.00  0.00    -0.545 OA
ENDBRANCH   8   9
ENDBRANCH   1   7
BRANCH   4  12
ATOM     12  O   UNL     1       2.555  -4.996   8.364  1.00  0.00    -0.504 OA
ATOM     13  H   UNL     1       3.021  -5.884   8.219  1.00  0.00     0.293 HD
ENDBRANCH   4  12
BRANCH   6  14
ATOM     14  O   UNL     1       5.252  -4.817   7.548  1.00  0.00    -0.504 OA
ATOM     15  H   UNL     1       5.659  -5.115   8.427  1.00  0.00     0.293 HD
ENDBRANCH   6  14
TORSDOF 4
ENDMDL
MODEL 3
REMARK VINA RESULT:    -4.222      1.864      6.291
REMARK INTER + INTRA:          -5.085
REMARK INTER:                  -4.936
REMARK INTRA:                  -0.149
REMARK UNBOUND:                -0.123
REMARK SMILES O=C([O-])C=Cc1ccc(O)c(O)c1
REMARK SMILES IDX 6 1 13 2 7 3 11 4 8 5 9 6 5 7 4 8 2 9 1 10 3 11 12 12 10 14
REMARK H PARENT 12 13 10 15
REMARK Flexibility Score: inf
ROOT
ATOM      1  C   UNL     1       3.549  -1.581   6.864  1.00  0.00    -0.022 A 
ATOM      2  C   UNL     1       4.866  -1.404   6.396  1.00  0.00     0.058 A 
ATOM      3  C   UNL     1       3.209  -2.792   7.488  1.00  0.00     0.012 A 
ATOM      4  C   UNL     1       5.815  -2.426   6.529  1.00  0.00     0.157 A 
ATOM      5  C   UNL     1       4.153  -3.813   7.620  1.00  0.00     0.051 A 
ATOM      6  C   UNL     1       5.456  -3.638   7.140  1.00  0.00     0.157 A 
ENDROOT
BRANCH   1   7
ATOM      7  C   UNL     1       2.514  -0.523   6.755  1.00  0.00     0.010 C 
ATOM      8  C   UNL     1       1.385  -0.508   7.477  1.00  0.00     0.025 C 
BRANCH   8   9
ATOM      9  C   UNL     1       0.391   0.569   7.344  1.00  0.00     0.064 C 
ATOM     10  O   UNL     1       0.565   1.654   7.957  1.00  0.00    -0.545 OA
ATOM     11  O   UNL     1      -0.740   0.408   6.551  1.00  0.00    -0.545 OA
ENDBRANCH   8   9
ENDBRANCH   1   7
BRANCH   4  12
ATOM     12  O   UNL     1       7.108  -2.216   6.052  1.00  0.00    -0.504 OA
ATOM     13  H   UNL     1       7.312  -2.148   5.062  1.00  0.00     0.293 HD
ENDBRANCH   4  12
BRANCH   6  14
ATOM     14  O   UNL     1       6.395  -4.660   7.272  1.00  0.00    -0.504 OA
ATOM     15  H   UNL     1       7.147  -4.606   7.948  1.00  0.00     0.293 HD
ENDBRANCH   6  14
TORSDOF 4
ENDMDL
MODEL 4
REMARK VINA RESULT:    -4.088      2.341      5.460
REMARK INTER + INTRA:          -4.928
REMARK INTER:                  -4.801
REMARK INTRA:                  -0.128
REMARK UNBOUND:                -0.123
REMARK SMILES O=C([O-])C=Cc1ccc(O)c(O)c1
REMARK SMILES IDX 6 1 13 2 7 3 11 4 8 5 9 6 5 7 4 8 2 9 1 10 3 11 12 12 10 14
REMARK H PARENT 12 13 10 15
REMARK Flexibility Score: inf
ROOT
ATOM      1  C   UNL     1       2.540  -0.213   6.808  1.00  0.00    -0.022 A 
ATOM      2  C   UNL     1       3.598  -0.948   6.234  1.00  0.00     0.058 A 
ATOM      3  C   UNL     1       1.702  -0.850   7.738  1.00  0.00     0.012 A 
ATOM      4  C   UNL     1       3.796  -2.294   6.564  1.00  0.00     0.157 A 
ATOM      5  C   UNL     1       1.896  -2.193   8.068  1.00  0.00     0.051 A 
ATOM      6  C   UNL     1       2.938  -2.922   7.482  1.00  0.00     0.157 A 
ENDROOT
BRANCH   1   7
ATOM      7  C   UNL     1       2.300   1.217   6.497  1.00  0.00     0.010 C 
ATOM      8  C   UNL     1       2.698   2.228   7.281  1.00  0.00     0.025 C 
BRANCH   8   9
ATOM      9  C   UNL     1       2.447   3.634   6.926  1.00  0.00     0.064 C 
ATOM     10  O   UNL     1       3.376   4.326   6.435  1.00  0.00    -0.545 OA
ATOM     11  O   UNL     1       1.198   4.212   7.126  1.00  0.00    -0.545 OA
ENDBRANCH   8   9
ENDBRANCH   1   7
BRANCH   4  12
ATOM     12  O   UNL     1       4.850  -2.988   5.974  1.00  0.00    -0.504 OA
ATOM     13  H   UNL     1       5.251  -3.818   6.393  1.00  0.00     0.293 HD
ENDBRANCH   4  12
BRANCH   6  14
ATOM     14  O   UNL     1       3.128  -4.263   7.812  1.00  0.00    -0.504 OA
ATOM     15  H   UNL     1       3.623  -4.896   7.196  1.00  0.00     0.293 HD
ENDBRANCH   6  14
TORSDOF 4
ENDMDL
MODEL 5
REMARK VINA RESULT:    -4.046      1.848      2.725
REMARK INTER + INTRA:          -4.878
REMARK INTER:                  -4.729
REMARK INTRA:                  -0.149
REMARK UNBOUND:                -0.123
REMARK SMILES O=C([O-])C=Cc1ccc(O)c(O)c1
REMARK SMILES IDX 6 1 13 2 7 3 11 4 8 5 9 6 5 7 4 8 2 9 1 10 3 11 12 12 10 14
REMARK H PARENT 12 13 10 15
REMARK Flexibility Score: inf
ROOT
ATOM      1  C   UNL     1       1.187  -1.091   8.522  1.00  0.00    -0.022 A 
ATOM      2  C   UNL     1       0.261  -0.421   9.347  1.00  0.00     0.058 A 
ATOM      3  C   UNL     1       1.486  -0.548   7.261  1.00  0.00     0.012 A 
ATOM      4  C   UNL     1      -0.368   0.751   8.911  1.00  0.00     0.157 A 
ATOM      5  C   UNL     1       0.857   0.620   6.823  1.00  0.00     0.051 A 
ATOM      6  C   UNL     1      -0.073   1.272   7.641  1.00  0.00     0.157 A 
ENDROOT
BRANCH   1   7
ATOM      7  C   UNL     1       1.888  -2.328   8.946  1.00  0.00     0.010 C 
ATOM      8  C   UNL     1       2.488  -3.173   8.097  1.00  0.00     0.025 C 
BRANCH   8   9
ATOM      9  C   UNL     1       3.181  -4.384   8.565  1.00  0.00     0.064 C 
ATOM     10  O   UNL     1       2.518  -5.319   9.081  1.00  0.00    -0.545 OA
ATOM     11  O   UNL     1       4.561  -4.511   8.447  1.00  0.00    -0.545 OA
ENDBRANCH   8   9
ENDBRANCH   1   7
BRANCH   4  12
ATOM     12  O   UNL     1      -1.280   1.383   9.755  1.00  0.00    -0.504 OA
ATOM     13  H   UNL     1      -2.276   1.202   9.705  1.00  0.00     0.293 HD
ENDBRANCH   4  12
BRANCH   6  14
ATOM     14  O   UNL     1      -0.700   2.437   7.200  1.00  0.00    -0.504 OA
ATOM     15  H   UNL     1      -0.824   2.632   6.214  1.00  0.00     0.293 HD
ENDBRANCH   6  14
TORSDOF 4
ENDMDL
MODEL 6
REMARK VINA RESULT:    -4.025     14.193     15.168
REMARK INTER + INTRA:          -4.854
REMARK INTER:                  -4.721
REMARK INTRA:                  -0.133
REMARK UNBOUND:                -0.123
REMARK SMILES O=C([O-])C=Cc1ccc(O)c(O)c1
REMARK SMILES IDX 6 1 13 2 7 3 11 4 8 5 9 6 5 7 4 8 2 9 1 10 3 11 12 12 10 14
REMARK H PARENT 12 13 10 15
REMARK Flexibility Score: inf
ROOT
ATOM      1  C   UNL     1       5.251   7.311  -4.354  1.00  0.00    -0.022 A 
ATOM      2  C   UNL     1       4.481   6.895  -3.249  1.00  0.00     0.058 A 
ATOM      3  C   UNL     1       5.612   8.664  -4.456  1.00  0.00     0.012 A 
ATOM      4  C   UNL     1       4.063   7.816  -2.281  1.00  0.00     0.157 A 
ATOM      5  C   UNL     1       5.194   9.586  -3.493  1.00  0.00     0.051 A 
ATOM      6  C   UNL     1       4.417   9.170  -2.405  1.00  0.00     0.157 A 
ENDROOT
BRANCH   1   7
ATOM      7  C   UNL     1       5.726   6.368  -5.397  1.00  0.00     0.010 C 
ATOM      8  C   UNL     1       5.284   6.372  -6.662  1.00  0.00     0.025 C 
BRANCH   8   9
ATOM      9  C   UNL     1       5.793   5.425  -7.666  1.00  0.00     0.064 C 
ATOM     10  O   UNL     1       4.981   4.782  -8.381  1.00  0.00    -0.545 OA
ATOM     11  O   UNL     1       7.158   5.226  -7.838  1.00  0.00    -0.545 OA
ENDBRANCH   8   9
ENDBRANCH   1   7
BRANCH   4  12
ATOM     12  O   UNL     1       3.301   7.368  -1.204  1.00  0.00    -0.504 OA
ATOM     13  H   UNL     1       2.917   8.003  -0.514  1.00  0.00     0.293 HD
ENDBRANCH   4  12
BRANCH   6  14
ATOM     14  O   UNL     1       4.001  10.093  -1.448  1.00  0.00    -0.504 OA
ATOM     15  H   UNL     1       3.427  10.891  -1.693  1.00  0.00     0.293 HD
ENDBRANCH   6  14
TORSDOF 4
ENDMDL
MODEL 7
REMARK VINA RESULT:    -4.002      7.730      8.626
REMARK INTER + INTRA:          -4.827
REMARK INTER:                  -4.703
REMARK INTRA:                  -0.124
REMARK UNBOUND:                -0.123
REMARK SMILES O=C([O-])C=Cc1ccc(O)c(O)c1
REMARK SMILES IDX 6 1 13 2 7 3 11 4 8 5 9 6 5 7 4 8 2 9 1 10 3 11 12 12 10 14
REMARK H PARENT 12 13 10 15
REMARK Flexibility Score: inf
ROOT
ATOM      1  C   UNL     1       4.245   6.642   6.638  1.00  0.00    -0.022 A 
ATOM      2  C   UNL     1       3.071   7.091   7.276  1.00  0.00     0.058 A 
ATOM      3  C   UNL     1       4.146   5.619   5.682  1.00  0.00     0.012 A 
ATOM      4  C   UNL     1       1.830   6.513   6.979  1.00  0.00     0.157 A 
ATOM      5  C   UNL     1       2.910   5.038   5.386  1.00  0.00     0.051 A 
ATOM      6  C   UNL     1       1.750   5.478   6.033  1.00  0.00     0.157 A 
ENDROOT
BRANCH   1   7
ATOM      7  C   UNL     1       5.578   7.233   6.912  1.00  0.00     0.010 C 
ATOM      8  C   UNL     1       5.858   8.536   6.775  1.00  0.00     0.025 C 
BRANCH   8   9
ATOM      9  C   UNL     1       7.193   9.080   7.069  1.00  0.00     0.064 C 
ATOM     10  O   UNL     1       7.529   9.290   8.263  1.00  0.00    -0.545 OA
ATOM     11  O   UNL     1       8.092   9.367   6.048  1.00  0.00    -0.545 OA
ENDBRANCH   8   9
ENDBRANCH   1   7
BRANCH   4  12
ATOM     12  O   UNL     1       0.691   6.982   7.632  1.00  0.00    -0.504 OA
ATOM     13  H   UNL     1       0.361   7.933   7.523  1.00  0.00     0.293 HD
ENDBRANCH   4  12
BRANCH   6  14
ATOM     14  O   UNL     1       0.518   4.896   5.737  1.00  0.00    -0.504 OA
ATOM     15  H   UNL     1      -0.244   5.436   5.344  1.00  0.00     0.293 HD
ENDBRANCH   6  14
TORSDOF 4
ENDMDL
MODEL 8
REMARK VINA RESULT:    -3.997      2.444      3.011
REMARK INTER + INTRA:          -4.822
REMARK INTER:                  -4.689
REMARK INTRA:                  -0.133
REMARK UNBOUND:                -0.123
REMARK SMILES O=C([O-])C=Cc1ccc(O)c(O)c1
REMARK SMILES IDX 6 1 13 2 7 3 11 4 8 5 9 6 5 7 4 8 2 9 1 10 3 11 12 12 10 14
REMARK H PARENT 12 13 10 15
REMARK Flexibility Score: inf
ROOT
ATOM      1  C   UNL     1       2.347  -1.357   8.212  1.00  0.00    -0.022 A 
ATOM      2  C   UNL     1       2.682  -0.591   7.078  1.00  0.00     0.058 A 
ATOM      3  C   UNL     1       1.193  -1.022   8.939  1.00  0.00     0.012 A 
ATOM      4  C   UNL     1       1.893   0.500   6.694  1.00  0.00     0.157 A 
ATOM      5  C   UNL     1       0.405   0.067   8.559  1.00  0.00     0.051 A 
ATOM      6  C   UNL     1       0.751   0.834   7.440  1.00  0.00     0.157 A 
ENDROOT
BRANCH   1   7
ATOM      7  C   UNL     1       3.147  -2.528   8.649  1.00  0.00     0.010 C 
ATOM      8  C   UNL     1       2.709  -3.793   8.592  1.00  0.00     0.025 C 
BRANCH   8   9
ATOM      9  C   UNL     1       3.542  -4.926   9.026  1.00  0.00     0.064 C 
ATOM     10  O   UNL     1       3.032  -5.841   9.722  1.00  0.00    -0.545 OA
ATOM     11  O   UNL     1       4.887  -5.001   8.680  1.00  0.00    -0.545 OA
ENDBRANCH   8   9
ENDBRANCH   1   7
BRANCH   4  12
ATOM     12  O   UNL     1       2.257   1.236   5.568  1.00  0.00    -0.504 OA
ATOM     13  H   UNL     1       1.702   2.013   5.229  1.00  0.00     0.293 HD
ENDBRANCH   4  12
BRANCH   6  14
ATOM     14  O   UNL     1      -0.037   1.922   7.066  1.00  0.00    -0.504 OA
ATOM     15  H   UNL     1      -0.929   1.796   6.602  1.00  0.00     0.293 HD
ENDBRANCH   6  14
TORSDOF 4
ENDMDL
MODEL 9
REMARK VINA RESULT:    -3.969      1.578      2.369
REMARK INTER + INTRA:          -4.788
REMARK INTER:                  -4.660
REMARK INTRA:                  -0.128
REMARK UNBOUND:                -0.123
REMARK SMILES O=C([O-])C=Cc1ccc(O)c(O)c1
REMARK SMILES IDX 6 1 13 2 7 3 11 4 8 5 9 6 5 7 4 8 2 9 1 10 3 11 12 12 10 14
REMARK H PARENT 12 13 10 15
REMARK Flexibility Score: inf
ROOT
ATOM      1  C   UNL     1       1.934   0.401   7.134  1.00  0.00    -0.022 A 
ATOM      2  C   UNL     1       0.562   0.367   7.454  1.00  0.00     0.058 A 
ATOM      3  C   UNL     1       2.612   1.630   7.190  1.00  0.00     0.012 A 
ATOM      4  C   UNL     1      -0.121   1.540   7.798  1.00  0.00     0.157 A 
ATOM      5  C   UNL     1       1.932   2.802   7.531  1.00  0.00     0.051 A 
ATOM      6  C   UNL     1       0.566   2.764   7.833  1.00  0.00     0.157 A 
ENDROOT
BRANCH   1   7
ATOM      7  C   UNL     1       2.701  -0.818   6.776  1.00  0.00     0.010 C 
ATOM      8  C   UNL     1       2.738  -1.924   7.530  1.00  0.00     0.025 C 
BRANCH   8   9
ATOM      9  C   UNL     1       3.503  -3.115   7.129  1.00  0.00     0.064 C 
ATOM     10  O   UNL     1       3.838  -3.262   5.925  1.00  0.00    -0.545 OA
ATOM     11  O   UNL     1       3.864  -4.083   8.060  1.00  0.00    -0.545 OA
ENDBRANCH   8   9
ENDBRANCH   1   7
BRANCH   4  12
ATOM     12  O   UNL     1      -1.479   1.468   8.105  1.00  0.00    -0.504 OA
ATOM     13  H   UNL     1      -2.185   1.916   7.534  1.00  0.00     0.293 HD
ENDBRANCH   4  12
BRANCH   6  14
ATOM     14  O   UNL     1      -0.110   3.936   8.171  1.00  0.00    -0.504 OA
ATOM     15  H   UNL     1      -0.616   4.476   7.478  1.00  0.00     0.293 HD
ENDBRANCH   6  14
TORSDOF 4
ENDMDL
