MODEL 1
REMARK VINA RESULT:    -3.155      0.000      0.000
REMARK INTER + INTRA:          -6.648
REMARK INTER:                  -5.368
REMARK INTRA:                  -1.279
REMARK UNBOUND:                -1.279
REMARK SMILES CCCCCCCCCCCCCC(=O)[O-]
REMARK SMILES IDX 8 1 9 2 10 3 11 4 12 5 13 6 14 7 15 8 16 9 7 10 6 11 5 12
REMARK SMILES IDX 4 13 3 14 2 15 1 16
REMARK H PARENT
REMARK Flexibility Score: inf
ROOT
ATOM      1  C   UNL     1      -7.576   5.916   7.692  1.00  0.00     0.000 C 
ENDROOT
BRANCH   1   2
ATOM      2  C   UNL     1      -8.930   5.801   6.979  1.00  0.00     0.000 C 
BRANCH   2   3
ATOM      3  C   UNL     1      -9.733   7.113   7.004  1.00  0.00     0.000 C 
BRANCH   3   4
ATOM      4  C   UNL     1      -9.269   8.183   5.994  1.00  0.00     0.000 C 
BRANCH   4   5
ATOM      5  C   UNL     1      -9.506   7.830   4.515  1.00  0.00     0.006 C 
BRANCH   5   6
ATOM      6  C   UNL     1      -8.210   7.492   3.768  1.00  0.00     0.053 C 
BRANCH   6   7
ATOM      7  C   UNL     1      -7.641   8.719   3.128  1.00  0.00     0.041 C 
ATOM      8  O   UNL     1      -8.065   9.101   2.005  1.00  0.00    -0.550 OA
ATOM      9  O   UNL     1      -6.679   9.469   3.792  1.00  0.00    -0.550 OA
ENDBRANCH   6   7
ENDBRANCH   5   6
ENDBRANCH   4   5
ENDBRANCH   3   4
ENDBRANCH   2   3
ENDBRANCH   1   2
BRANCH   1  10
ATOM     10  C   UNL     1      -7.528   5.012   8.930  1.00  0.00     0.000 C 
BRANCH  10  11
ATOM     11  C   UNL     1      -6.405   5.440   9.882  1.00  0.00    -0.000 C 
BRANCH  11  12
ATOM     12  C   UNL     1      -5.222   6.036   9.105  1.00  0.00    -0.000 C 
BRANCH  12  13
ATOM     13  C   UNL     1      -4.367   6.991   9.958  1.00  0.00    -0.000 C 
BRANCH  13  14
ATOM     14  C   UNL     1      -4.644   8.492   9.734  1.00  0.00    -0.000 C 
BRANCH  14  15
ATOM     15  C   UNL     1      -5.440   8.823   8.460  1.00  0.00    -0.003 C 
ATOM     16  C   UNL     1      -6.849   9.335   8.754  1.00  0.00     0.004 C 
ENDBRANCH  14  15
ENDBRANCH  13  14
ENDBRANCH  12  13
ENDBRANCH  11  12
ENDBRANCH  10  11
ENDBRANCH   1  10
TORSDOF 12
ENDMDL
MODEL 2
REMARK VINA RESULT:    -3.137      2.615      5.649
REMARK INTER + INTRA:          -6.616
REMARK INTER:                  -5.063
REMARK INTRA:                  -1.553
REMARK UNBOUND:                -1.279
REMARK SMILES CCCCCCCCCCCCCC(=O)[O-]
REMARK SMILES IDX 8 1 9 2 10 3 11 4 12 5 13 6 14 7 15 8 16 9 7 10 6 11 5 12
REMARK SMILES IDX 4 13 3 14 2 15 1 16
REMARK H PARENT
REMARK Flexibility Score: inf
ROOT
ATOM      1  C   UNL     1      -8.767   6.413   6.014  1.00  0.00     0.000 C 
ENDROOT
BRANCH   1   2
ATOM      2  C   UNL     1      -9.356   5.495   7.094  1.00  0.00     0.000 C 
BRANCH   2   3
ATOM      3  C   UNL     1      -8.532   5.495   8.393  1.00  0.00     0.000 C 
BRANCH   3   4
ATOM      4  C   UNL     1      -8.555   6.821   9.182  1.00  0.00     0.000 C 
BRANCH   4   5
ATOM      5  C   UNL     1      -7.177   7.475   9.399  1.00  0.00     0.006 C 
BRANCH   5   6
ATOM      6  C   UNL     1      -6.014   6.557   9.002  1.00  0.00     0.053 C 
BRANCH   6   7
ATOM      7  C   UNL     1      -4.710   7.276   9.146  1.00  0.00     0.041 C 
ATOM      8  O   UNL     1      -4.451   8.268   8.414  1.00  0.00    -0.550 OA
ATOM      9  O   UNL     1      -3.802   6.883  10.120  1.00  0.00    -0.550 OA
ENDBRANCH   6   7
ENDBRANCH   5   6
ENDBRANCH   4   5
ENDBRANCH   3   4
ENDBRANCH   2   3
ENDBRANCH   1   2
BRANCH   1  10
ATOM     10  C   UNL     1      -9.763   7.514   5.627  1.00  0.00     0.000 C 
BRANCH  10  11
ATOM     11  C   UNL     1      -9.270   8.891   6.091  1.00  0.00    -0.000 C 
BRANCH  11  12
ATOM     12  C   UNL     1      -7.751   9.022   5.908  1.00  0.00    -0.000 C 
BRANCH  12  13
ATOM     13  C   UNL     1      -7.367   9.858   4.674  1.00  0.00    -0.000 C 
BRANCH  13  14
ATOM     14  C   UNL     1      -7.050   9.042   3.404  1.00  0.00    -0.000 C 
BRANCH  14  15
ATOM     15  C   UNL     1      -7.894   9.407   2.170  1.00  0.00    -0.003 C 
ATOM     16  C   UNL     1      -9.325   8.877   2.250  1.00  0.00     0.004 C 
ENDBRANCH  14  15
ENDBRANCH  13  14
ENDBRANCH  12  13
ENDBRANCH  11  12
ENDBRANCH  10  11
ENDBRANCH   1  10
TORSDOF 12
ENDMDL
MODEL 3
REMARK VINA RESULT:    -3.081      2.710      6.707
REMARK INTER + INTRA:          -6.522
REMARK INTER:                  -5.730
REMARK INTRA:                  -0.793
REMARK UNBOUND:                -1.279
REMARK SMILES CCCCCCCCCCCCCC(=O)[O-]
REMARK SMILES IDX 8 1 9 2 10 3 11 4 12 5 13 6 14 7 15 8 16 9 7 10 6 11 5 12
REMARK SMILES IDX 4 13 3 14 2 15 1 16
REMARK H PARENT
REMARK Flexibility Score: inf
ROOT
ATOM      1  C   UNL     1      -8.393   7.423   6.211  1.00  0.00     0.000 C 
ENDROOT
BRANCH   1   2
ATOM      2  C   UNL     1      -8.260   6.008   6.790  1.00  0.00     0.000 C 
BRANCH   2   3
ATOM      3  C   UNL     1      -9.228   5.744   7.956  1.00  0.00     0.000 C 
BRANCH   3   4
ATOM      4  C   UNL     1      -8.609   5.019   9.169  1.00  0.00     0.000 C 
BRANCH   4   5
ATOM      5  C   UNL     1      -7.077   4.875   9.130  1.00  0.00     0.006 C 
BRANCH   5   6
ATOM      6  C   UNL     1      -6.355   5.988   9.901  1.00  0.00     0.053 C 
BRANCH   6   7
ATOM      7  C   UNL     1      -5.323   6.637   9.033  1.00  0.00     0.041 C 
ATOM      8  O   UNL     1      -5.558   7.752   8.496  1.00  0.00    -0.550 OA
ATOM      9  O   UNL     1      -4.083   6.037   8.858  1.00  0.00    -0.550 OA
ENDBRANCH   6   7
ENDBRANCH   5   6
ENDBRANCH   4   5
ENDBRANCH   3   4
ENDBRANCH   2   3
ENDBRANCH   1   2
BRANCH   1  10
ATOM     10  C   UNL     1      -9.748   7.608   5.517  1.00  0.00     0.000 C 
BRANCH  10  11
ATOM     11  C   UNL     1      -9.625   7.401   4.002  1.00  0.00    -0.000 C 
BRANCH  11  12
ATOM     12  C   UNL     1      -8.220   7.775   3.509  1.00  0.00    -0.000 C 
BRANCH  12  13
ATOM     13  C   UNL     1      -8.235   8.905   2.464  1.00  0.00    -0.000 C 
BRANCH  13  14
ATOM     14  C   UNL     1      -9.309   8.767   1.365  1.00  0.00    -0.000 C 
BRANCH  14  15
ATOM     15  C   UNL     1      -8.898   9.305  -0.016  1.00  0.00    -0.003 C 
ATOM     16  C   UNL     1      -9.477   8.488  -1.170  1.00  0.00     0.004 C 
ENDBRANCH  14  15
ENDBRANCH  13  14
ENDBRANCH  12  13
ENDBRANCH  11  12
ENDBRANCH  10  11
ENDBRANCH   1  10
TORSDOF 12
ENDMDL
MODEL 4
REMARK VINA RESULT:    -3.030      1.200      2.107
REMARK INTER + INTRA:          -6.434
REMARK INTER:                  -4.844
REMARK INTRA:                  -1.590
REMARK UNBOUND:                -1.279
REMARK SMILES CCCCCCCCCCCCCC(=O)[O-]
REMARK SMILES IDX 8 1 9 2 10 3 11 4 12 5 13 6 14 7 15 8 16 9 7 10 6 11 5 12
REMARK SMILES IDX 4 13 3 14 2 15 1 16
REMARK H PARENT
REMARK Flexibility Score: inf
ROOT
ATOM      1  C   UNL     1      -7.712   5.729   7.996  1.00  0.00     0.000 C 
ENDROOT
BRANCH   1   2
ATOM      2  C   UNL     1      -9.029   5.754   7.207  1.00  0.00     0.000 C 
BRANCH   2   3
ATOM      3  C   UNL     1      -8.906   6.485   5.859  1.00  0.00     0.000 C 
BRANCH   3   4
ATOM      4  C   UNL     1      -9.423   7.939   5.853  1.00  0.00     0.000 C 
BRANCH   4   5
ATOM      5  C   UNL     1      -8.331   9.020   5.946  1.00  0.00     0.006 C 
BRANCH   5   6
ATOM      6  C   UNL     1      -8.219   9.864   4.670  1.00  0.00     0.053 C 
BRANCH   6   7
ATOM      7  C   UNL     1      -7.123   9.342   3.795  1.00  0.00     0.041 C 
ATOM      8  O   UNL     1      -7.348   8.395   2.995  1.00  0.00    -0.550 OA
ATOM      9  O   UNL     1      -5.866   9.932   3.826  1.00  0.00    -0.550 OA
ENDBRANCH   6   7
ENDBRANCH   5   6
ENDBRANCH   4   5
ENDBRANCH   3   4
ENDBRANCH   2   3
ENDBRANCH   1   2
BRANCH   1  10
ATOM     10  C   UNL     1      -7.924   6.214   9.435  1.00  0.00     0.000 C 
BRANCH  10  11
ATOM     11  C   UNL     1      -8.255   7.712   9.469  1.00  0.00    -0.000 C 
BRANCH  11  12
ATOM     12  C   UNL     1      -7.063   8.526   9.993  1.00  0.00    -0.000 C 
BRANCH  12  13
ATOM     13  C   UNL     1      -6.080   8.931   8.881  1.00  0.00    -0.000 C 
BRANCH  13  14
ATOM     14  C   UNL     1      -4.604   8.572   9.149  1.00  0.00    -0.000 C 
BRANCH  14  15
ATOM     15  C   UNL     1      -4.387   7.271   9.942  1.00  0.00    -0.003 C 
ATOM     16  C   UNL     1      -4.136   6.061   9.044  1.00  0.00     0.004 C 
ENDBRANCH  14  15
ENDBRANCH  13  14
ENDBRANCH  12  13
ENDBRANCH  11  12
ENDBRANCH  10  11
ENDBRANCH   1  10
TORSDOF 12
ENDMDL
MODEL 5
REMARK VINA RESULT:    -2.911      2.963      7.140
REMARK INTER + INTRA:          -6.232
REMARK INTER:                  -5.494
REMARK INTRA:                  -0.738
REMARK UNBOUND:                -1.279
REMARK SMILES CCCCCCCCCCCCCC(=O)[O-]
REMARK SMILES IDX 8 1 9 2 10 3 11 4 12 5 13 6 14 7 15 8 16 9 7 10 6 11 5 12
REMARK SMILES IDX 4 13 3 14 2 15 1 16
REMARK H PARENT
REMARK Flexibility Score: inf
ROOT
ATOM      1  C   UNL     1      -8.468   7.652   4.395  1.00  0.00     0.000 C 
ENDROOT
BRANCH   1   2
ATOM      2  C   UNL     1      -9.703   7.548   5.301  1.00  0.00     0.000 C 
BRANCH   2   3
ATOM      3  C   UNL     1      -9.382   6.957   6.685  1.00  0.00     0.000 C 
BRANCH   3   4
ATOM      4  C   UNL     1      -8.161   6.014   6.726  1.00  0.00     0.000 C 
BRANCH   4   5
ATOM      5  C   UNL     1      -7.675   5.639   8.138  1.00  0.00     0.006 C 
BRANCH   5   6
ATOM      6  C   UNL     1      -7.319   6.864   8.990  1.00  0.00     0.053 C 
BRANCH   6   7
ATOM      7  C   UNL     1      -6.061   7.500   8.487  1.00  0.00     0.041 C 
ATOM      8  O   UNL     1      -4.959   6.902   8.604  1.00  0.00    -0.550 OA
ATOM      9  O   UNL     1      -6.111   8.731   7.845  1.00  0.00    -0.550 OA
ENDBRANCH   6   7
ENDBRANCH   5   6
ENDBRANCH   4   5
ENDBRANCH   3   4
ENDBRANCH   2   3
ENDBRANCH   1   2
BRANCH   1  10
ATOM     10  C   UNL     1      -7.764   9.003   4.579  1.00  0.00     0.000 C 
BRANCH  10  11
ATOM     11  C   UNL     1      -7.343   9.593   3.227  1.00  0.00    -0.000 C 
BRANCH  11  12
ATOM     12  C   UNL     1      -8.144   8.964   2.078  1.00  0.00    -0.000 C 
BRANCH  12  13
ATOM     13  C   UNL     1      -8.787  10.014   1.154  1.00  0.00    -0.000 C 
BRANCH  13  14
ATOM     14  C   UNL     1      -8.347   9.943  -0.323  1.00  0.00    -0.000 C 
BRANCH  14  15
ATOM     15  C   UNL     1      -9.180   8.996  -1.204  1.00  0.00    -0.003 C 
ATOM     16  C   UNL     1      -9.473   9.574  -2.588  1.00  0.00     0.004 C 
ENDBRANCH  14  15
ENDBRANCH  13  14
ENDBRANCH  12  13
ENDBRANCH  11  12
ENDBRANCH  10  11
ENDBRANCH   1  10
TORSDOF 12
ENDMDL
MODEL 6
REMARK VINA RESULT:    -2.872      3.291      5.426
REMARK INTER + INTRA:          -6.167
REMARK INTER:                  -4.766
REMARK INTRA:                  -1.401
REMARK UNBOUND:                -1.279
REMARK SMILES CCCCCCCCCCCCCC(=O)[O-]
REMARK SMILES IDX 8 1 9 2 10 3 11 4 12 5 13 6 14 7 15 8 16 9 7 10 6 11 5 12
REMARK SMILES IDX 4 13 3 14 2 15 1 16
REMARK H PARENT
REMARK Flexibility Score: inf
ROOT
ATOM      1  C   UNL     1      -8.245   7.493   3.904  1.00  0.00     0.000 C 
ENDROOT
BRANCH   1   2
ATOM      2  C   UNL     1      -9.383   6.921   4.760  1.00  0.00     0.000 C 
BRANCH   2   3
ATOM      3  C   UNL     1      -8.891   6.328   6.092  1.00  0.00     0.000 C 
BRANCH   3   4
ATOM      4  C   UNL     1      -9.657   6.803   7.343  1.00  0.00     0.000 C 
BRANCH   4   5
ATOM      5  C   UNL     1      -9.162   6.211   8.676  1.00  0.00     0.006 C 
BRANCH   5   6
ATOM      6  C   UNL     1      -7.718   5.699   8.598  1.00  0.00     0.053 C 
BRANCH   6   7
ATOM      7  C   UNL     1      -7.575   4.426   9.371  1.00  0.00     0.041 C 
ATOM      8  O   UNL     1      -8.535   3.613   9.437  1.00  0.00    -0.550 OA
ATOM      9  O   UNL     1      -6.366   4.111   9.978  1.00  0.00    -0.550 OA
ENDBRANCH   6   7
ENDBRANCH   5   6
ENDBRANCH   4   5
ENDBRANCH   3   4
ENDBRANCH   2   3
ENDBRANCH   1   2
BRANCH   1  10
ATOM     10  C   UNL     1      -8.655   8.825   3.264  1.00  0.00     0.000 C 
BRANCH  10  11
ATOM     11  C   UNL     1      -8.306  10.006   4.178  1.00  0.00    -0.000 C 
BRANCH  11  12
ATOM     12  C   UNL     1      -6.997   9.746   4.938  1.00  0.00    -0.000 C 
BRANCH  12  13
ATOM     13  C   UNL     1      -7.085  10.125   6.427  1.00  0.00    -0.000 C 
BRANCH  13  14
ATOM     14  C   UNL     1      -6.682   9.008   7.412  1.00  0.00    -0.000 C 
BRANCH  14  15
ATOM     15  C   UNL     1      -5.567   9.387   8.402  1.00  0.00    -0.003 C 
ATOM     16  C   UNL     1      -4.825   8.171   8.956  1.00  0.00     0.004 C 
ENDBRANCH  14  15
ENDBRANCH  13  14
ENDBRANCH  12  13
ENDBRANCH  11  12
ENDBRANCH  10  11
ENDBRANCH   1  10
TORSDOF 12
ENDMDL
MODEL 7
REMARK VINA RESULT:    -2.567     13.166     15.695
REMARK INTER + INTRA:          -5.647
REMARK INTER:                  -5.025
REMARK INTRA:                  -0.622
REMARK UNBOUND:                -1.279
REMARK SMILES CCCCCCCCCCCCCC(=O)[O-]
REMARK SMILES IDX 8 1 9 2 10 3 11 4 12 5 13 6 14 7 15 8 16 9 7 10 6 11 5 12
REMARK SMILES IDX 4 13 3 14 2 15 1 16
REMARK H PARENT
REMARK Flexibility Score: inf
ROOT
ATOM      1  C   UNL     1      -7.117  -5.245  10.024  1.00  0.00     0.000 C 
ENDROOT
BRANCH   1   2
ATOM      2  C   UNL     1      -5.969  -5.957   9.296  1.00  0.00     0.000 C 
BRANCH   2   3
ATOM      3  C   UNL     1      -4.733  -5.060   9.106  1.00  0.00     0.000 C 
BRANCH   3   4
ATOM      4  C   UNL     1      -3.482  -5.779   8.559  1.00  0.00     0.000 C 
BRANCH   4   5
ATOM      5  C   UNL     1      -2.559  -6.386   9.631  1.00  0.00     0.006 C 
BRANCH   5   6
ATOM      6  C   UNL     1      -1.973  -7.741   9.214  1.00  0.00     0.053 C 
BRANCH   6   7
ATOM      7  C   UNL     1      -0.512  -7.797   9.531  1.00  0.00     0.041 C 
ATOM      8  O   UNL     1       0.052  -6.821  10.093  1.00  0.00    -0.550 OA
ATOM      9  O   UNL     1       0.217  -8.946   9.252  1.00  0.00    -0.550 OA
ENDBRANCH   6   7
ENDBRANCH   5   6
ENDBRANCH   4   5
ENDBRANCH   3   4
ENDBRANCH   2   3
ENDBRANCH   1   2
BRANCH   1  10
ATOM     10  C   UNL     1      -7.671  -4.090   9.180  1.00  0.00     0.000 C 
BRANCH  10  11
ATOM     11  C   UNL     1      -9.186  -3.944   9.372  1.00  0.00    -0.000 C 
BRANCH  11  12
ATOM     12  C   UNL     1      -9.948  -5.012   8.574  1.00  0.00    -0.000 C 
BRANCH  12  13
ATOM     13  C   UNL     1     -10.124  -6.328   9.352  1.00  0.00    -0.000 C 
BRANCH  13  14
ATOM     14  C   UNL     1      -9.576  -7.585   8.645  1.00  0.00    -0.000 C 
BRANCH  14  15
ATOM     15  C   UNL     1      -9.577  -8.863   9.501  1.00  0.00    -0.003 C 
ATOM     16  C   UNL     1      -8.171  -9.386   9.793  1.00  0.00     0.004 C 
ENDBRANCH  14  15
ENDBRANCH  13  14
ENDBRANCH  12  13
ENDBRANCH  11  12
ENDBRANCH  10  11
ENDBRANCH   1  10
TORSDOF 12
ENDMDL
MODEL 8
REMARK VINA RESULT:    -2.365      3.047      5.968
REMARK INTER + INTRA:          -5.304
REMARK INTER:                  -4.122
REMARK INTRA:                  -1.182
REMARK UNBOUND:                -1.279
REMARK SMILES CCCCCCCCCCCCCC(=O)[O-]
REMARK SMILES IDX 8 1 9 2 10 3 11 4 12 5 13 6 14 7 15 8 16 9 7 10 6 11 5 12
REMARK SMILES IDX 4 13 3 14 2 15 1 16
REMARK H PARENT
REMARK Flexibility Score: inf
ROOT
ATOM      1  C   UNL     1      -8.676   8.731   8.996  1.00  0.00     0.000 C 
ENDROOT
BRANCH   1   2
ATOM      2  C   UNL     1      -7.328   9.254   9.512  1.00  0.00     0.000 C 
BRANCH   2   3
ATOM      3  C   UNL     1      -6.148   8.862   8.606  1.00  0.00     0.000 C 
BRANCH   3   4
ATOM      4  C   UNL     1      -5.792   7.360   8.610  1.00  0.00     0.000 C 
BRANCH   4   5
ATOM      5  C   UNL     1      -6.313   6.569   9.823  1.00  0.00     0.006 C 
BRANCH   5   6
ATOM      6  C   UNL     1      -6.170   5.052   9.650  1.00  0.00     0.053 C 
BRANCH   6   7
ATOM      7  C   UNL     1      -7.488   4.442   9.288  1.00  0.00     0.041 C 
ATOM      8  O   UNL     1      -7.797   3.300   9.720  1.00  0.00    -0.550 OA
ATOM      9  O   UNL     1      -8.396   5.154   8.515  1.00  0.00    -0.550 OA
ENDBRANCH   6   7
ENDBRANCH   5   6
ENDBRANCH   4   5
ENDBRANCH   3   4
ENDBRANCH   2   3
ENDBRANCH   1   2
BRANCH   1  10
ATOM     10  C   UNL     1      -9.538   9.877   8.452  1.00  0.00     0.000 C 
BRANCH  10  11
ATOM     11  C   UNL     1      -9.755   9.735   6.940  1.00  0.00    -0.000 C 
BRANCH  11  12
ATOM     12  C   UNL     1      -9.406   8.317   6.466  1.00  0.00    -0.000 C 
BRANCH  12  13
ATOM     13  C   UNL     1      -8.271   8.296   5.426  1.00  0.00    -0.000 C 
BRANCH  13  14
ATOM     14  C   UNL     1      -7.534   9.638   5.235  1.00  0.00    -0.000 C 
BRANCH  14  15
ATOM     15  C   UNL     1      -6.760   9.772   3.913  1.00  0.00    -0.003 C 
ATOM     16  C   UNL     1      -7.210   8.765   2.855  1.00  0.00     0.004 C 
ENDBRANCH  14  15
ENDBRANCH  13  14
ENDBRANCH  12  13
ENDBRANCH  11  12
ENDBRANCH  10  11
ENDBRANCH   1  10
TORSDOF 12
ENDMDL
MODEL 9
REMARK VINA RESULT:    -2.349      2.997      6.677
REMARK INTER + INTRA:          -5.276
REMARK INTER:                  -4.436
REMARK INTRA:                  -0.840
REMARK UNBOUND:                -1.279
REMARK SMILES CCCCCCCCCCCCCC(=O)[O-]
REMARK SMILES IDX 8 1 9 2 10 3 11 4 12 5 13 6 14 7 15 8 16 9 7 10 6 11 5 12
REMARK SMILES IDX 4 13 3 14 2 15 1 16
REMARK H PARENT
REMARK Flexibility Score: inf
ROOT
ATOM      1  C   UNL     1      -7.723   8.035   6.992  1.00  0.00     0.000 C 
ENDROOT
BRANCH   1   2
ATOM      2  C   UNL     1      -6.849   8.776   8.014  1.00  0.00     0.000 C 
BRANCH   2   3
ATOM      3  C   UNL     1      -6.344   7.862   9.144  1.00  0.00     0.000 C 
BRANCH   3   4
ATOM      4  C   UNL     1      -6.097   6.394   8.737  1.00  0.00     0.000 C 
BRANCH   4   5
ATOM      5  C   UNL     1      -6.451   5.351   9.812  1.00  0.00     0.006 C 
BRANCH   5   6
ATOM      6  C   UNL     1      -7.541   4.372   9.354  1.00  0.00     0.053 C 
BRANCH   6   7
ATOM      7  C   UNL     1      -8.835   5.093   9.148  1.00  0.00     0.041 C 
ATOM      8  O   UNL     1      -9.382   5.699  10.107  1.00  0.00    -0.550 OA
ATOM      9  O   UNL     1      -9.414   5.138   7.886  1.00  0.00    -0.550 OA
ENDBRANCH   6   7
ENDBRANCH   5   6
ENDBRANCH   4   5
ENDBRANCH   3   4
ENDBRANCH   2   3
ENDBRANCH   1   2
BRANCH   1  10
ATOM     10  C   UNL     1      -9.144   8.610   6.965  1.00  0.00     0.000 C 
BRANCH  10  11
ATOM     11  C   UNL     1      -9.669   8.718   5.529  1.00  0.00    -0.000 C 
BRANCH  11  12
ATOM     12  C   UNL     1      -8.544   9.110   4.559  1.00  0.00    -0.000 C 
BRANCH  12  13
ATOM     13  C   UNL     1      -8.616   8.350   3.222  1.00  0.00    -0.000 C 
BRANCH  13  14
ATOM     14  C   UNL     1      -8.120   9.141   1.994  1.00  0.00    -0.000 C 
BRANCH  14  15
ATOM     15  C   UNL     1      -9.091   9.160   0.800  1.00  0.00    -0.003 C 
ATOM     16  C   UNL     1      -8.416   9.569  -0.509  1.00  0.00     0.004 C 
ENDBRANCH  14  15
ENDBRANCH  13  14
ENDBRANCH  12  13
ENDBRANCH  11  12
ENDBRANCH  10  11
ENDBRANCH   1  10
TORSDOF 12
ENDMDL
