MODEL 1
REMARK VINA RESULT:    -7.025      0.000      0.000
REMARK INTER + INTRA:         -11.341
REMARK INTER:                  -9.284
REMARK INTRA:                  -2.057
REMARK UNBOUND:                -2.057
REMARK SMILES CC[C@@H](C=C[C@@H](C)[C@H]1CC[C@H]2[C@@H]3CC=C4C[C@@H](O)CC[C@@]4(C)[C@@H]3CC[C@@]12C)C(C)C
REMARK SMILES IDX 6 1 7 2 5 3 4 4 3 5 2 6 1 7 28 8 29 9 30 10 8 11 9 12 26 13
REMARK SMILES IDX 10 14 11 15 25 16 27 17 12 18 24 19 23 20 13 21 21 22 14 23
REMARK SMILES IDX 15 24 20 25 22 26 16 27 19 28 17 29 18 30
REMARK H PARENT 18 31
REMARK Flexibility Score: inf
ROOT
ATOM      1  C   UNL     1       1.884 -16.433  -3.460  1.00  0.00     0.012 C 
ATOM      2  C   UNL     1       0.909 -15.637  -2.553  1.00  0.00     0.012 C 
ENDROOT
BRANCH   1   3
ATOM      3  C   UNL     1       1.513 -17.899  -3.316  1.00  0.00    -0.028 C 
ATOM      4  C   UNL     1       1.362 -18.704  -4.379  1.00  0.00    -0.027 C 
BRANCH   4   5
ATOM      5  C   UNL     1       0.858 -20.131  -4.242  1.00  0.00     0.014 C 
BRANCH   5   6
ATOM      6  C   UNL     1       1.391 -20.742  -2.919  1.00  0.00     0.004 C 
ATOM      7  C   UNL     1       0.284 -21.354  -2.056  1.00  0.00     0.004 C 
ENDBRANCH   5   6
BRANCH   5   8
ATOM      8  C   UNL     1       1.278 -20.971  -5.492  1.00  0.00    -0.011 C 
ATOM      9  C   UNL     1       1.640 -20.066  -6.689  1.00  0.00     0.008 C 
ATOM     10  C   UNL     1       0.174 -21.950  -5.940  1.00  0.00     0.008 C 
ENDBRANCH   5   8
ENDBRANCH   4   5
ENDBRANCH   1   3
BRANCH   1  11
ATOM     11  C   UNL     1       3.392 -16.176  -3.088  1.00  0.00     0.002 C 
ATOM     12  C   UNL     1       3.822 -16.917  -1.808  1.00  0.00     0.005 C 
ATOM     13  C   UNL     1       4.489 -16.625  -4.129  1.00  0.00    -0.026 C 
ATOM     14  C   UNL     1       4.345 -18.257  -2.265  1.00  0.00     0.005 C 
ATOM     15  C   UNL     1       5.000 -18.022  -3.634  1.00  0.00    -0.001 C 
ATOM     16  C   UNL     1       4.017 -16.696  -5.611  1.00  0.00     0.007 C 
ATOM     17  C   UNL     1       5.655 -15.593  -4.039  1.00  0.00     0.012 C 
ATOM     18  C   UNL     1       4.729 -19.223  -4.601  1.00  0.00     0.000 C 
ATOM     19  C   UNL     1       5.027 -17.439  -6.489  1.00  0.00     0.005 C 
ATOM     20  C   UNL     1       5.109 -18.938  -6.103  1.00  0.00     0.003 C 
ATOM     21  C   UNL     1       5.363 -20.529  -4.038  1.00  0.00     0.031 C 
ATOM     22  C   UNL     1       6.416 -19.662  -6.597  1.00  0.00    -0.008 C 
ATOM     23  C   UNL     1       5.704 -21.529  -5.103  1.00  0.00    -0.027 C 
ATOM     24  C   UNL     1       6.269 -21.149  -6.264  1.00  0.00    -0.065 C 
ATOM     25  C   UNL     1       6.546 -19.508  -8.142  1.00  0.00     0.014 C 
ATOM     26  C   UNL     1       7.691 -19.097  -5.920  1.00  0.00     0.016 C 
ATOM     27  C   UNL     1       6.576 -22.195  -7.313  1.00  0.00     0.063 C 
ATOM     28  C   UNL     1       7.666 -20.366  -8.766  1.00  0.00     0.033 C 
ATOM     29  C   UNL     1       7.802 -21.777  -8.141  1.00  0.00     0.118 C 
BRANCH  29  30
ATOM     30  O   UNL     1       8.083 -22.737  -9.129  1.00  0.00    -0.393 OA
ATOM     31  H   UNL     1       7.309 -23.359  -9.172  1.00  0.00     0.210 HD
ENDBRANCH  29  30
ENDBRANCH   1  11
TORSDOF 6
ENDMDL
MODEL 2
REMARK VINA RESULT:    -6.897      2.955      5.786
REMARK INTER + INTRA:         -11.171
REMARK INTER:                  -8.905
REMARK INTRA:                  -2.266
REMARK UNBOUND:                -2.057
REMARK SMILES CC[C@@H](C=C[C@@H](C)[C@H]1CC[C@H]2[C@@H]3CC=C4C[C@@H](O)CC[C@@]4(C)[C@@H]3CC[C@@]12C)C(C)C
REMARK SMILES IDX 6 1 7 2 5 3 4 4 3 5 2 6 1 7 28 8 29 9 30 10 8 11 9 12 26 13
REMARK SMILES IDX 10 14 11 15 25 16 27 17 12 18 24 19 23 20 13 21 21 22 14 23
REMARK SMILES IDX 15 24 20 25 22 26 16 27 19 28 17 29 18 30
REMARK H PARENT 18 31
REMARK Flexibility Score: inf
ROOT
ATOM      1  C   UNL     1       3.196 -21.316  -6.760  1.00  0.00     0.012 C 
ATOM      2  C   UNL     1       2.197 -20.842  -7.849  1.00  0.00     0.012 C 
ENDROOT
BRANCH   1   3
ATOM      3  C   UNL     1       2.786 -20.631  -5.467  1.00  0.00    -0.028 C 
ATOM      4  C   UNL     1       1.753 -19.778  -5.407  1.00  0.00    -0.027 C 
BRANCH   4   5
ATOM      5  C   UNL     1       1.431 -18.991  -4.149  1.00  0.00     0.014 C 
BRANCH   5   6
ATOM      6  C   UNL     1       1.780 -17.495  -4.372  1.00  0.00     0.004 C 
ATOM      7  C   UNL     1       1.919 -17.129  -5.852  1.00  0.00     0.004 C 
ENDBRANCH   5   6
BRANCH   5   8
ATOM      8  C   UNL     1       2.193 -19.598  -2.925  1.00  0.00    -0.011 C 
ATOM      9  C   UNL     1       1.311 -20.599  -2.148  1.00  0.00     0.008 C 
ATOM     10  C   UNL     1       2.680 -18.515  -1.941  1.00  0.00     0.008 C 
ENDBRANCH   5   8
ENDBRANCH   4   5
ENDBRANCH   1   3
BRANCH   1  11
ATOM     11  C   UNL     1       4.691 -20.995  -7.139  1.00  0.00     0.002 C 
ATOM     12  C   UNL     1       4.826 -19.723  -7.997  1.00  0.00     0.005 C 
ATOM     13  C   UNL     1       5.701 -20.722  -5.959  1.00  0.00    -0.026 C 
ATOM     14  C   UNL     1       5.014 -18.587  -7.020  1.00  0.00     0.005 C 
ATOM     15  C   UNL     1       5.798 -19.163  -5.832  1.00  0.00    -0.001 C 
ATOM     16  C   UNL     1       5.329 -21.371  -4.593  1.00  0.00     0.007 C 
ATOM     17  C   UNL     1       7.086 -21.286  -6.403  1.00  0.00     0.012 C 
ATOM     18  C   UNL     1       5.291 -18.561  -4.479  1.00  0.00     0.000 C 
ATOM     19  C   UNL     1       6.169 -20.799  -3.449  1.00  0.00     0.005 C 
ATOM     20  C   UNL     1       5.833 -19.305  -3.200  1.00  0.00     0.003 C 
ATOM     21  C   UNL     1       5.525 -17.022  -4.446  1.00  0.00     0.031 C 
ATOM     22  C   UNL     1       6.938 -18.519  -2.404  1.00  0.00    -0.008 C 
ATOM     23  C   UNL     1       5.667 -16.474  -3.056  1.00  0.00    -0.027 C 
ATOM     24  C   UNL     1       6.389 -17.118  -2.121  1.00  0.00    -0.065 C 
ATOM     25  C   UNL     1       7.208 -19.232  -1.044  1.00  0.00     0.014 C 
ATOM     26  C   UNL     1       8.268 -18.411  -3.194  1.00  0.00     0.016 C 
ATOM     27  C   UNL     1       6.484 -16.532  -0.729  1.00  0.00     0.063 C 
ATOM     28  C   UNL     1       8.107 -18.428  -0.082  1.00  0.00     0.033 C 
ATOM     29  C   UNL     1       7.830 -16.903  -0.085  1.00  0.00     0.118 C 
BRANCH  29  30
ATOM     30  O   UNL     1       7.919 -16.376   1.215  1.00  0.00    -0.393 OA
ATOM     31  H   UNL     1       7.117 -15.810   1.365  1.00  0.00     0.210 HD
ENDBRANCH  29  30
ENDBRANCH   1  11
TORSDOF 6
ENDMDL
MODEL 3
REMARK VINA RESULT:    -6.655      2.929      6.318
REMARK INTER + INTRA:         -10.851
REMARK INTER:                  -9.220
REMARK INTRA:                  -1.630
REMARK UNBOUND:                -2.057
REMARK SMILES CC[C@@H](C=C[C@@H](C)[C@H]1CC[C@H]2[C@@H]3CC=C4C[C@@H](O)CC[C@@]4(C)[C@@H]3CC[C@@]12C)C(C)C
REMARK SMILES IDX 6 1 7 2 5 3 4 4 3 5 2 6 1 7 28 8 29 9 30 10 8 11 9 12 26 13
REMARK SMILES IDX 10 14 11 15 25 16 27 17 12 18 24 19 23 20 13 21 21 22 14 23
REMARK SMILES IDX 15 24 20 25 22 26 16 27 19 28 17 29 18 30
REMARK H PARENT 18 31
REMARK Flexibility Score: inf
ROOT
ATOM      1  C   UNL     1       5.772 -21.222  -6.111  1.00  0.00     0.012 C 
ATOM      2  C   UNL     1       6.382 -22.234  -7.116  1.00  0.00     0.012 C 
ENDROOT
BRANCH   1   3
ATOM      3  C   UNL     1       4.368 -20.913  -6.604  1.00  0.00    -0.028 C 
ATOM      4  C   UNL     1       3.308 -20.909  -5.782  1.00  0.00    -0.027 C 
BRANCH   4   5
ATOM      5  C   UNL     1       1.890 -20.737  -6.298  1.00  0.00     0.014 C 
BRANCH   5   6
ATOM      6  C   UNL     1       0.888 -20.934  -5.129  1.00  0.00     0.004 C 
ATOM      7  C   UNL     1       0.864 -19.751  -4.157  1.00  0.00     0.004 C 
ENDBRANCH   5   6
BRANCH   5   8
ATOM      8  C   UNL     1       1.623 -21.728  -7.477  1.00  0.00    -0.011 C 
ATOM      9  C   UNL     1       1.261 -20.979  -8.778  1.00  0.00     0.008 C 
ATOM     10  C   UNL     1       0.490 -22.726  -7.161  1.00  0.00     0.008 C 
ENDBRANCH   5   8
ENDBRANCH   4   5
ENDBRANCH   1   3
BRANCH   1  11
ATOM     11  C   UNL     1       6.641 -19.916  -5.976  1.00  0.00     0.002 C 
ATOM     12  C   UNL     1       6.543 -19.007  -7.216  1.00  0.00     0.005 C 
ATOM     13  C   UNL     1       6.294 -18.926  -4.797  1.00  0.00    -0.026 C 
ATOM     14  C   UNL     1       5.397 -18.063  -6.944  1.00  0.00     0.005 C 
ATOM     15  C   UNL     1       5.396 -17.807  -5.430  1.00  0.00    -0.001 C 
ATOM     16  C   UNL     1       5.595 -19.570  -3.564  1.00  0.00     0.007 C 
ATOM     17  C   UNL     1       7.637 -18.294  -4.320  1.00  0.00     0.012 C 
ATOM     18  C   UNL     1       3.935 -17.718  -4.875  1.00  0.00     0.000 C 
ATOM     19  C   UNL     1       5.011 -18.510  -2.628  1.00  0.00     0.005 C 
ATOM     20  C   UNL     1       3.840 -17.751  -3.303  1.00  0.00     0.003 C 
ATOM     21  C   UNL     1       3.182 -16.515  -5.517  1.00  0.00     0.031 C 
ATOM     22  C   UNL     1       3.498 -16.367  -2.639  1.00  0.00    -0.008 C 
ATOM     23  C   UNL     1       2.079 -15.978  -4.653  1.00  0.00    -0.027 C 
ATOM     24  C   UNL     1       2.241 -15.826  -3.326  1.00  0.00    -0.065 C 
ATOM     25  C   UNL     1       3.187 -16.577  -1.126  1.00  0.00     0.014 C 
ATOM     26  C   UNL     1       4.655 -15.344  -2.783  1.00  0.00     0.016 C 
ATOM     27  C   UNL     1       1.090 -15.298  -2.497  1.00  0.00     0.063 C 
ATOM     28  C   UNL     1       2.621 -15.327  -0.422  1.00  0.00     0.033 C 
ATOM     29  C   UNL     1       1.622 -14.515  -1.286  1.00  0.00     0.118 C 
BRANCH  29  30
ATOM     30  O   UNL     1       0.558 -14.035  -0.502  1.00  0.00    -0.393 OA
ATOM     31  H   UNL     1       0.831 -14.106   0.451  1.00  0.00     0.210 HD
ENDBRANCH  29  30
ENDBRANCH   1  11
TORSDOF 6
ENDMDL
MODEL 4
REMARK VINA RESULT:    -6.639      2.841      6.789
REMARK INTER + INTRA:         -10.830
REMARK INTER:                  -9.120
REMARK INTRA:                  -1.710
REMARK UNBOUND:                -2.057
REMARK SMILES CC[C@@H](C=C[C@@H](C)[C@H]1CC[C@H]2[C@@H]3CC=C4C[C@@H](O)CC[C@@]4(C)[C@@H]3CC[C@@]12C)C(C)C
REMARK SMILES IDX 6 1 7 2 5 3 4 4 3 5 2 6 1 7 28 8 29 9 30 10 8 11 9 12 26 13
REMARK SMILES IDX 10 14 11 15 25 16 27 17 12 18 24 19 23 20 13 21 21 22 14 23
REMARK SMILES IDX 15 24 20 25 22 26 16 27 19 28 17 29 18 30
REMARK H PARENT 18 31
REMARK Flexibility Score: inf
ROOT
ATOM      1  C   UNL     1       2.355 -20.085  -7.568  1.00  0.00     0.012 C 
ATOM      2  C   UNL     1       1.718 -20.807  -8.784  1.00  0.00     0.012 C 
ENDROOT
BRANCH   1   3
ATOM      3  C   UNL     1       3.856 -20.294  -7.674  1.00  0.00    -0.028 C 
ATOM      4  C   UNL     1       4.725 -19.275  -7.606  1.00  0.00    -0.027 C 
BRANCH   4   5
ATOM      5  C   UNL     1       6.212 -19.467  -7.850  1.00  0.00     0.014 C 
BRANCH   5   6
ATOM      6  C   UNL     1       6.524 -19.226  -9.352  1.00  0.00     0.004 C 
ATOM      7  C   UNL     1       6.993 -17.798  -9.642  1.00  0.00     0.004 C 
ENDBRANCH   5   6
BRANCH   5   8
ATOM      8  C   UNL     1       6.655 -20.890  -7.377  1.00  0.00    -0.011 C 
ATOM      9  C   UNL     1       7.195 -20.864  -5.930  1.00  0.00     0.008 C 
ATOM     10  C   UNL     1       7.739 -21.501  -8.288  1.00  0.00     0.008 C 
ENDBRANCH   5   8
ENDBRANCH   4   5
ENDBRANCH   1   3
BRANCH   1  11
ATOM     11  C   UNL     1       1.791 -20.614  -6.195  1.00  0.00     0.002 C 
ATOM     12  C   UNL     1       2.623 -21.775  -5.620  1.00  0.00     0.005 C 
ATOM     13  C   UNL     1       1.736 -19.600  -4.988  1.00  0.00    -0.026 C 
ATOM     14  C   UNL     1       3.671 -21.133  -4.742  1.00  0.00     0.005 C 
ATOM     15  C   UNL     1       3.019 -19.882  -4.135  1.00  0.00    -0.001 C 
ATOM     16  C   UNL     1       1.645 -18.096  -5.380  1.00  0.00     0.007 C 
ATOM     17  C   UNL     1       0.473 -19.960  -4.146  1.00  0.00     0.012 C 
ATOM     18  C   UNL     1       4.044 -18.703  -4.044  1.00  0.00     0.000 C 
ATOM     19  C   UNL     1       1.921 -17.184  -4.182  1.00  0.00     0.005 C 
ATOM     20  C   UNL     1       3.393 -17.308  -3.710  1.00  0.00     0.003 C 
ATOM     21  C   UNL     1       5.224 -19.077  -3.099  1.00  0.00     0.031 C 
ATOM     22  C   UNL     1       3.646 -16.800  -2.244  1.00  0.00    -0.008 C 
ATOM     23  C   UNL     1       5.881 -17.884  -2.470  1.00  0.00    -0.027 C 
ATOM     24  C   UNL     1       5.155 -16.856  -1.994  1.00  0.00    -0.065 C 
ATOM     25  C   UNL     1       3.175 -15.320  -2.114  1.00  0.00     0.014 C 
ATOM     26  C   UNL     1       2.908 -17.663  -1.188  1.00  0.00     0.016 C 
ATOM     27  C   UNL     1       5.869 -15.668  -1.386  1.00  0.00     0.063 C 
ATOM     28  C   UNL     1       3.579 -14.646  -0.787  1.00  0.00     0.033 C 
ATOM     29  C   UNL     1       4.999 -15.025  -0.294  1.00  0.00     0.118 C 
BRANCH  29  30
ATOM     30  O   UNL     1       5.649 -13.910   0.264  1.00  0.00    -0.393 OA
ATOM     31  H   UNL     1       6.510 -13.793  -0.217  1.00  0.00     0.210 HD
ENDBRANCH  29  30
ENDBRANCH   1  11
TORSDOF 6
ENDMDL
MODEL 5
REMARK VINA RESULT:    -6.198      2.871      6.342
REMARK INTER + INTRA:         -10.248
REMARK INTER:                  -8.001
REMARK INTRA:                  -2.247
REMARK UNBOUND:                -2.057
REMARK SMILES CC[C@@H](C=C[C@@H](C)[C@H]1CC[C@H]2[C@@H]3CC=C4C[C@@H](O)CC[C@@]4(C)[C@@H]3CC[C@@]12C)C(C)C
REMARK SMILES IDX 6 1 7 2 5 3 4 4 3 5 2 6 1 7 28 8 29 9 30 10 8 11 9 12 26 13
REMARK SMILES IDX 10 14 11 15 25 16 27 17 12 18 24 19 23 20 13 21 21 22 14 23
REMARK SMILES IDX 15 24 20 25 22 26 16 27 19 28 17 29 18 30
REMARK H PARENT 18 31
REMARK Flexibility Score: inf
ROOT
ATOM      1  C   UNL     1       6.533 -21.690  -6.901  1.00  0.00     0.012 C 
ATOM      2  C   UNL     1       6.914 -22.834  -7.877  1.00  0.00     0.012 C 
ENDROOT
BRANCH   1   3
ATOM      3  C   UNL     1       5.063 -21.389  -7.136  1.00  0.00    -0.028 C 
ATOM      4  C   UNL     1       4.175 -21.342  -6.131  1.00  0.00    -0.027 C 
BRANCH   4   5
ATOM      5  C   UNL     1       2.686 -21.178  -6.380  1.00  0.00     0.014 C 
BRANCH   5   6
ATOM      6  C   UNL     1       2.467 -20.387  -7.698  1.00  0.00     0.004 C 
ATOM      7  C   UNL     1       1.527 -21.100  -8.673  1.00  0.00     0.004 C 
ENDBRANCH   5   6
BRANCH   5   8
ATOM      8  C   UNL     1       2.009 -20.481  -5.155  1.00  0.00    -0.011 C 
ATOM      9  C   UNL     1       1.477 -19.079  -5.521  1.00  0.00     0.008 C 
ATOM     10  C   UNL     1       2.969 -20.338  -3.957  1.00  0.00     0.008 C 
ENDBRANCH   5   8
ENDBRANCH   4   5
ENDBRANCH   1   3
BRANCH   1  11
ATOM     11  C   UNL     1       7.428 -20.410  -7.102  1.00  0.00     0.002 C 
ATOM     12  C   UNL     1       6.958 -19.536  -8.280  1.00  0.00     0.005 C 
ATOM     13  C   UNL     1       7.499 -19.374  -5.914  1.00  0.00    -0.026 C 
ATOM     14  C   UNL     1       5.980 -18.547  -7.694  1.00  0.00     0.005 C 
ATOM     15  C   UNL     1       6.471 -18.245  -6.270  1.00  0.00    -0.001 C 
ATOM     16  C   UNL     1       7.220 -19.957  -4.498  1.00  0.00     0.007 C 
ATOM     17  C   UNL     1       8.938 -18.773  -5.917  1.00  0.00     0.012 C 
ATOM     18  C   UNL     1       5.267 -18.091  -5.281  1.00  0.00     0.000 C 
ATOM     19  C   UNL     1       6.990 -18.849  -3.467  1.00  0.00     0.005 C 
ATOM     20  C   UNL     1       5.681 -18.073  -3.761  1.00  0.00     0.003 C 
ATOM     21  C   UNL     1       4.374 -16.884  -5.695  1.00  0.00     0.031 C 
ATOM     22  C   UNL     1       5.600 -16.659  -3.077  1.00  0.00    -0.008 C 
ATOM     23  C   UNL     1       3.619 -16.284  -4.546  1.00  0.00    -0.027 C 
ATOM     24  C   UNL     1       4.202 -16.098  -3.347  1.00  0.00    -0.065 C 
ATOM     25  C   UNL     1       5.787 -16.812  -1.537  1.00  0.00     0.014 C 
ATOM     26  C   UNL     1       6.672 -15.680  -3.624  1.00  0.00     0.016 C 
ATOM     27  C   UNL     1       3.390 -15.507  -2.215  1.00  0.00     0.063 C 
ATOM     28  C   UNL     1       5.504 -15.523  -0.740  1.00  0.00     0.033 C 
ATOM     29  C   UNL     1       4.299 -14.705  -1.269  1.00  0.00     0.118 C 
BRANCH  29  30
ATOM     30  O   UNL     1       3.553 -14.166  -0.205  1.00  0.00    -0.393 OA
ATOM     31  H   UNL     1       4.178 -14.014   0.552  1.00  0.00     0.210 HD
ENDBRANCH  29  30
ENDBRANCH   1  11
TORSDOF 6
ENDMDL
MODEL 6
REMARK VINA RESULT:    -6.068      2.731      5.890
REMARK INTER + INTRA:         -10.076
REMARK INTER:                  -8.196
REMARK INTRA:                  -1.880
REMARK UNBOUND:                -2.057
REMARK SMILES CC[C@@H](C=C[C@@H](C)[C@H]1CC[C@H]2[C@@H]3CC=C4C[C@@H](O)CC[C@@]4(C)[C@@H]3CC[C@@]12C)C(C)C
REMARK SMILES IDX 6 1 7 2 5 3 4 4 3 5 2 6 1 7 28 8 29 9 30 10 8 11 9 12 26 13
REMARK SMILES IDX 10 14 11 15 25 16 27 17 12 18 24 19 23 20 13 21 21 22 14 23
REMARK SMILES IDX 15 24 20 25 22 26 16 27 19 28 17 29 18 30
REMARK H PARENT 18 31
REMARK Flexibility Score: inf
ROOT
ATOM      1  C   UNL     1       2.740 -19.955  -7.315  1.00  0.00     0.012 C 
ATOM      2  C   UNL     1       1.888 -20.773  -8.321  1.00  0.00     0.012 C 
ENDROOT
BRANCH   1   3
ATOM      3  C   UNL     1       3.801 -20.899  -6.775  1.00  0.00    -0.028 C 
ATOM      4  C   UNL     1       5.108 -20.712  -7.009  1.00  0.00    -0.027 C 
BRANCH   4   5
ATOM      5  C   UNL     1       6.155 -21.729  -6.587  1.00  0.00     0.014 C 
BRANCH   5   6
ATOM      6  C   UNL     1       6.476 -21.544  -5.080  1.00  0.00     0.004 C 
ATOM      7  C   UNL     1       7.686 -20.639  -4.834  1.00  0.00     0.004 C 
ENDBRANCH   5   6
BRANCH   5   8
ATOM      8  C   UNL     1       7.429 -21.592  -7.483  1.00  0.00    -0.011 C 
ATOM      9  C   UNL     1       7.311 -20.402  -8.461  1.00  0.00     0.008 C 
ATOM     10  C   UNL     1       7.710 -22.867  -8.304  1.00  0.00     0.008 C 
ENDBRANCH   5   8
ENDBRANCH   4   5
ENDBRANCH   1   3
BRANCH   1  11
ATOM     11  C   UNL     1       1.868 -19.337  -6.157  1.00  0.00     0.002 C 
ATOM     12  C   UNL     1       1.452 -20.383  -5.105  1.00  0.00     0.005 C 
ATOM     13  C   UNL     1       2.523 -18.205  -5.275  1.00  0.00    -0.026 C 
ATOM     14  C   UNL     1       2.539 -20.367  -4.058  1.00  0.00     0.005 C 
ATOM     15  C   UNL     1       3.047 -18.920  -3.983  1.00  0.00    -0.001 C 
ATOM     16  C   UNL     1       3.657 -17.391  -5.963  1.00  0.00     0.007 C 
ATOM     17  C   UNL     1       1.383 -17.214  -4.884  1.00  0.00     0.012 C 
ATOM     18  C   UNL     1       4.598 -18.878  -3.769  1.00  0.00     0.000 C 
ATOM     19  C   UNL     1       4.442 -16.552  -4.951  1.00  0.00     0.005 C 
ATOM     20  C   UNL     1       5.238 -17.453  -3.973  1.00  0.00     0.003 C 
ATOM     21  C   UNL     1       4.978 -19.541  -2.412  1.00  0.00     0.031 C 
ATOM     22  C   UNL     1       5.675 -16.736  -2.643  1.00  0.00    -0.008 C 
ATOM     23  C   UNL     1       6.265 -19.023  -1.840  1.00  0.00    -0.027 C 
ATOM     24  C   UNL     1       6.564 -17.711  -1.867  1.00  0.00    -0.065 C 
ATOM     25  C   UNL     1       6.511 -15.465  -2.986  1.00  0.00     0.014 C 
ATOM     26  C   UNL     1       4.461 -16.326  -1.770  1.00  0.00     0.016 C 
ATOM     27  C   UNL     1       7.884 -17.243  -1.294  1.00  0.00     0.063 C 
ATOM     28  C   UNL     1       7.182 -14.807  -1.763  1.00  0.00     0.033 C 
ATOM     29  C   UNL     1       7.747 -15.818  -0.733  1.00  0.00     0.118 C 
BRANCH  29  30
ATOM     30  O   UNL     1       8.974 -15.370  -0.213  1.00  0.00    -0.393 OA
ATOM     31  H   UNL     1       9.210 -15.961   0.550  1.00  0.00     0.210 HD
ENDBRANCH  29  30
ENDBRANCH   1  11
TORSDOF 6
ENDMDL
MODEL 7
REMARK VINA RESULT:    -6.020      2.461      4.798
REMARK INTER + INTRA:         -10.012
REMARK INTER:                  -7.670
REMARK INTRA:                  -2.342
REMARK UNBOUND:                -2.057
REMARK SMILES CC[C@@H](C=C[C@@H](C)[C@H]1CC[C@H]2[C@@H]3CC=C4C[C@@H](O)CC[C@@]4(C)[C@@H]3CC[C@@]12C)C(C)C
REMARK SMILES IDX 6 1 7 2 5 3 4 4 3 5 2 6 1 7 28 8 29 9 30 10 8 11 9 12 26 13
REMARK SMILES IDX 10 14 11 15 25 16 27 17 12 18 24 19 23 20 13 21 21 22 14 23
REMARK SMILES IDX 15 24 20 25 22 26 16 27 19 28 17 29 18 30
REMARK H PARENT 18 31
REMARK Flexibility Score: inf
ROOT
ATOM      1  C   UNL     1       6.367 -15.129  -4.022  1.00  0.00     0.012 C 
ATOM      2  C   UNL     1       7.269 -14.023  -3.415  1.00  0.00     0.012 C 
ENDROOT
BRANCH   1   3
ATOM      3  C   UNL     1       5.080 -15.134  -3.215  1.00  0.00    -0.028 C 
ATOM      4  C   UNL     1       3.878 -14.965  -3.787  1.00  0.00    -0.027 C 
BRANCH   4   5
ATOM      5  C   UNL     1       2.608 -14.831  -2.966  1.00  0.00     0.014 C 
BRANCH   5   6
ATOM      6  C   UNL     1       2.781 -15.586  -1.620  1.00  0.00     0.004 C 
ATOM      7  C   UNL     1       2.693 -14.663  -0.402  1.00  0.00     0.004 C 
ENDBRANCH   5   6
BRANCH   5   8
ATOM      8  C   UNL     1       1.382 -15.355  -3.783  1.00  0.00    -0.011 C 
ATOM      9  C   UNL     1       0.783 -16.632  -3.153  1.00  0.00     0.008 C 
ATOM     10  C   UNL     1       1.742 -15.662  -5.251  1.00  0.00     0.008 C 
ENDBRANCH   5   8
ENDBRANCH   4   5
ENDBRANCH   1   3
BRANCH   1  11
ATOM     11  C   UNL     1       7.064 -16.542  -4.012  1.00  0.00     0.002 C 
ATOM     12  C   UNL     1       7.127 -17.162  -2.604  1.00  0.00     0.005 C 
ATOM     13  C   UNL     1       6.398 -17.691  -4.864  1.00  0.00    -0.026 C 
ATOM     14  C   UNL     1       5.865 -17.978  -2.458  1.00  0.00     0.005 C 
ATOM     15  C   UNL     1       5.541 -18.529  -3.854  1.00  0.00    -0.001 C 
ATOM     16  C   UNL     1       5.535 -17.218  -6.070  1.00  0.00     0.007 C 
ATOM     17  C   UNL     1       7.554 -18.582  -5.414  1.00  0.00     0.012 C 
ATOM     18  C   UNL     1       3.997 -18.529  -4.114  1.00  0.00     0.000 C 
ATOM     19  C   UNL     1       4.679 -18.355  -6.632  1.00  0.00     0.005 C 
ATOM     20  C   UNL     1       3.597 -18.798  -5.614  1.00  0.00     0.003 C 
ATOM     21  C   UNL     1       3.274 -19.466  -3.102  1.00  0.00     0.031 C 
ATOM     22  C   UNL     1       3.000 -20.228  -5.886  1.00  0.00    -0.008 C 
ATOM     23  C   UNL     1       1.976 -20.011  -3.622  1.00  0.00    -0.027 C 
ATOM     24  C   UNL     1       1.858 -20.445  -4.890  1.00  0.00    -0.065 C 
ATOM     25  C   UNL     1       2.418 -20.285  -7.331  1.00  0.00     0.014 C 
ATOM     26  C   UNL     1       4.060 -21.348  -5.720  1.00  0.00     0.016 C 
ATOM     27  C   UNL     1       0.521 -20.968  -5.370  1.00  0.00     0.063 C 
ATOM     28  C   UNL     1       1.608 -21.562  -7.631  1.00  0.00     0.033 C 
ATOM     29  C   UNL     1       0.726 -22.042  -6.450  1.00  0.00     0.118 C 
BRANCH  29  30
ATOM     30  O   UNL     1      -0.513 -22.521  -6.913  1.00  0.00    -0.393 OA
ATOM     31  H   UNL     1      -1.051 -21.735  -7.195  1.00  0.00     0.210 HD
ENDBRANCH  29  30
ENDBRANCH   1  11
TORSDOF 6
ENDMDL
MODEL 8
REMARK VINA RESULT:    -5.988     12.408     15.669
REMARK INTER + INTRA:          -9.970
REMARK INTER:                  -8.406
REMARK INTRA:                  -1.564
REMARK UNBOUND:                -2.057
REMARK SMILES CC[C@@H](C=C[C@@H](C)[C@H]1CC[C@H]2[C@@H]3CC=C4C[C@@H](O)CC[C@@]4(C)[C@@H]3CC[C@@]12C)C(C)C
REMARK SMILES IDX 6 1 7 2 5 3 4 4 3 5 2 6 1 7 28 8 29 9 30 10 8 11 9 12 26 13
REMARK SMILES IDX 10 14 11 15 25 16 27 17 12 18 24 19 23 20 13 21 21 22 14 23
REMARK SMILES IDX 15 24 20 25 22 26 16 27 19 28 17 29 18 30
REMARK H PARENT 18 31
REMARK Flexibility Score: inf
ROOT
ATOM      1  C   UNL     1       4.736 -32.377   4.747  1.00  0.00     0.012 C 
ATOM      2  C   UNL     1       5.355 -33.761   4.418  1.00  0.00     0.012 C 
ENDROOT
BRANCH   1   3
ATOM      3  C   UNL     1       3.540 -32.639   5.648  1.00  0.00    -0.028 C 
ATOM      4  C   UNL     1       3.499 -32.216   6.920  1.00  0.00    -0.027 C 
BRANCH   4   5
ATOM      5  C   UNL     1       2.367 -32.596   7.858  1.00  0.00     0.014 C 
BRANCH   5   6
ATOM      6  C   UNL     1       1.330 -31.442   7.910  1.00  0.00     0.004 C 
ATOM      7  C   UNL     1       1.979 -30.061   8.034  1.00  0.00     0.004 C 
ENDBRANCH   5   6
BRANCH   5   8
ATOM      8  C   UNL     1       2.934 -32.943   9.273  1.00  0.00    -0.011 C 
ATOM      9  C   UNL     1       4.249 -33.747   9.176  1.00  0.00     0.008 C 
ATOM     10  C   UNL     1       1.934 -33.751  10.125  1.00  0.00     0.008 C 
ENDBRANCH   5   8
ENDBRANCH   4   5
ENDBRANCH   1   3
BRANCH   1  11
ATOM     11  C   UNL     1       4.325 -31.582   3.452  1.00  0.00     0.002 C 
ATOM     12  C   UNL     1       2.798 -31.452   3.295  1.00  0.00     0.005 C 
ATOM     13  C   UNL     1       4.811 -30.086   3.327  1.00  0.00    -0.026 C 
ATOM     14  C   UNL     1       2.421 -30.167   3.992  1.00  0.00     0.005 C 
ATOM     15  C   UNL     1       3.601 -29.204   3.792  1.00  0.00    -0.001 C 
ATOM     16  C   UNL     1       6.099 -29.731   4.125  1.00  0.00     0.007 C 
ATOM     17  C   UNL     1       5.086 -29.819   1.815  1.00  0.00     0.012 C 
ATOM     18  C   UNL     1       3.846 -28.342   5.075  1.00  0.00     0.000 C 
ATOM     19  C   UNL     1       6.311 -28.217   4.211  1.00  0.00     0.005 C 
ATOM     20  C   UNL     1       5.205 -27.545   5.066  1.00  0.00     0.003 C 
ATOM     21  C   UNL     1       2.607 -27.449   5.377  1.00  0.00     0.031 C 
ATOM     22  C   UNL     1       5.056 -25.998   4.827  1.00  0.00    -0.008 C 
ATOM     23  C   UNL     1       2.945 -26.203   6.141  1.00  0.00    -0.027 C 
ATOM     24  C   UNL     1       4.036 -25.474   5.842  1.00  0.00    -0.065 C 
ATOM     25  C   UNL     1       6.423 -25.295   5.087  1.00  0.00     0.014 C 
ATOM     26  C   UNL     1       4.580 -25.668   3.389  1.00  0.00     0.016 C 
ATOM     27  C   UNL     1       4.343 -24.236   6.657  1.00  0.00     0.063 C 
ATOM     28  C   UNL     1       6.343 -23.755   5.103  1.00  0.00     0.033 C 
ATOM     29  C   UNL     1       5.072 -23.195   5.791  1.00  0.00     0.118 C 
BRANCH  29  30
ATOM     30  O   UNL     1       5.375 -22.049   6.546  1.00  0.00    -0.393 OA
ATOM     31  H   UNL     1       5.955 -21.467   5.988  1.00  0.00     0.210 HD
ENDBRANCH  29  30
ENDBRANCH   1  11
TORSDOF 6
ENDMDL
MODEL 9
REMARK VINA RESULT:    -5.986      2.370      5.355
REMARK INTER + INTRA:          -9.968
REMARK INTER:                  -7.627
REMARK INTRA:                  -2.341
REMARK UNBOUND:                -2.057
REMARK SMILES CC[C@@H](C=C[C@@H](C)[C@H]1CC[C@H]2[C@@H]3CC=C4C[C@@H](O)CC[C@@]4(C)[C@@H]3CC[C@@]12C)C(C)C
REMARK SMILES IDX 6 1 7 2 5 3 4 4 3 5 2 6 1 7 28 8 29 9 30 10 8 11 9 12 26 13
REMARK SMILES IDX 10 14 11 15 25 16 27 17 12 18 24 19 23 20 13 21 21 22 14 23
REMARK SMILES IDX 15 24 20 25 22 26 16 27 19 28 17 29 18 30
REMARK H PARENT 18 31
REMARK Flexibility Score: inf
ROOT
ATOM      1  C   UNL     1       5.672 -16.146  -0.895  1.00  0.00     0.012 C 
ATOM      2  C   UNL     1       6.494 -15.187   0.004  1.00  0.00     0.012 C 
ENDROOT
BRANCH   1   3
ATOM      3  C   UNL     1       6.671 -16.896  -1.760  1.00  0.00    -0.028 C 
ATOM      4  C   UNL     1       6.703 -18.236  -1.815  1.00  0.00    -0.027 C 
BRANCH   4   5
ATOM      5  C   UNL     1       7.787 -18.985  -2.569  1.00  0.00     0.014 C 
BRANCH   5   6
ATOM      6  C   UNL     1       8.535 -18.002  -3.509  1.00  0.00     0.004 C 
ATOM      7  C   UNL     1       8.070 -18.096  -4.964  1.00  0.00     0.004 C 
ENDBRANCH   5   6
BRANCH   5   8
ATOM      8  C   UNL     1       7.166 -20.190  -3.349  1.00  0.00    -0.011 C 
ATOM      9  C   UNL     1       5.884 -20.709  -2.664  1.00  0.00     0.008 C 
ATOM     10  C   UNL     1       8.151 -21.368  -3.491  1.00  0.00     0.008 C 
ENDBRANCH   5   8
ENDBRANCH   4   5
ENDBRANCH   1   3
BRANCH   1  11
ATOM     11  C   UNL     1       4.607 -15.382  -1.768  1.00  0.00     0.002 C 
ATOM     12  C   UNL     1       5.239 -14.640  -2.961  1.00  0.00     0.005 C 
ATOM     13  C   UNL     1       3.476 -16.239  -2.458  1.00  0.00    -0.026 C 
ATOM     14  C   UNL     1       5.221 -15.619  -4.110  1.00  0.00     0.005 C 
ATOM     15  C   UNL     1       3.957 -16.472  -3.932  1.00  0.00    -0.001 C 
ATOM     16  C   UNL     1       3.139 -17.590  -1.761  1.00  0.00     0.007 C 
ATOM     17  C   UNL     1       2.185 -15.365  -2.475  1.00  0.00     0.012 C 
ATOM     18  C   UNL     1       4.224 -17.963  -4.328  1.00  0.00     0.000 C 
ATOM     19  C   UNL     1       2.284 -18.489  -2.656  1.00  0.00     0.005 C 
ATOM     20  C   UNL     1       3.079 -18.958  -3.902  1.00  0.00     0.003 C 
ATOM     21  C   UNL     1       4.606 -18.066  -5.834  1.00  0.00     0.031 C 
ATOM     22  C   UNL     1       2.181 -19.469  -5.088  1.00  0.00    -0.008 C 
ATOM     23  C   UNL     1       4.276 -19.399  -6.439  1.00  0.00    -0.027 C 
ATOM     24  C   UNL     1       3.116 -20.024  -6.165  1.00  0.00    -0.065 C 
ATOM     25  C   UNL     1       1.260 -20.623  -4.586  1.00  0.00     0.014 C 
ATOM     26  C   UNL     1       1.302 -18.341  -5.687  1.00  0.00     0.016 C 
ATOM     27  C   UNL     1       2.841 -21.376  -6.787  1.00  0.00     0.063 C 
ATOM     28  C   UNL     1       0.498 -21.352  -5.711  1.00  0.00     0.033 C 
ATOM     29  C   UNL     1       1.330 -21.566  -7.001  1.00  0.00     0.118 C 
BRANCH  29  30
ATOM     30  O   UNL     1       1.066 -22.828  -7.563  1.00  0.00    -0.393 OA
ATOM     31  H   UNL     1       1.280 -22.775  -8.532  1.00  0.00     0.210 HD
ENDBRANCH  29  30
ENDBRANCH   1  11
TORSDOF 6
ENDMDL
