MODEL 1
REMARK VINA RESULT:    -3.898      0.000      0.000
REMARK INTER + INTRA:          -8.691
REMARK INTER:                  -6.633
REMARK INTRA:                  -2.058
REMARK UNBOUND:                -2.058
REMARK SMILES CCCCCCCCCCCCCC(=O)[O-]
REMARK SMILES IDX 8 1 9 2 10 3 11 4 12 5 13 6 14 7 15 8 16 9 7 10 6 11 5 12
REMARK SMILES IDX 4 13 3 14 2 15 1 16
REMARK H PARENT
REMARK Flexibility Score: inf
ROOT
ATOM      1  C   UNL     1     -11.312 -36.339 -29.213  1.00  0.00     0.000 C 
ENDROOT
BRANCH   1   2
ATOM      2  C   UNL     1      -9.934 -35.716 -28.962  1.00  0.00     0.000 C 
BRANCH   2   3
ATOM      3  C   UNL     1      -9.239 -36.379 -27.767  1.00  0.00     0.000 C 
BRANCH   3   4
ATOM      4  C   UNL     1     -10.021 -37.611 -27.289  1.00  0.00     0.000 C 
BRANCH   4   5
ATOM      5  C   UNL     1     -10.351 -37.558 -25.789  1.00  0.00     0.006 C 
BRANCH   5   6
ATOM      6  C   UNL     1     -10.712 -36.145 -25.314  1.00  0.00     0.053 C 
BRANCH   6   7
ATOM      7  C   UNL     1     -11.102 -36.164 -23.869  1.00  0.00     0.041 C 
ATOM      8  O   UNL     1     -12.166 -35.605 -23.493  1.00  0.00    -0.550 OA
ATOM      9  O   UNL     1     -10.265 -36.754 -22.930  1.00  0.00    -0.550 OA
ENDBRANCH   6   7
ENDBRANCH   5   6
ENDBRANCH   4   5
ENDBRANCH   3   4
ENDBRANCH   2   3
ENDBRANCH   1   2
BRANCH   1  10
ATOM     10  C   UNL     1     -12.379 -35.256 -29.413  1.00  0.00     0.000 C 
BRANCH  10  11
ATOM     11  C   UNL     1     -12.262 -34.163 -28.343  1.00  0.00    -0.000 C 
BRANCH  11  12
ATOM     12  C   UNL     1     -13.274 -34.390 -27.213  1.00  0.00    -0.000 C 
BRANCH  12  13
ATOM     13  C   UNL     1     -14.649 -34.774 -27.776  1.00  0.00    -0.000 C 
BRANCH  13  14
ATOM     14  C   UNL     1     -15.276 -35.979 -27.054  1.00  0.00    -0.000 C 
BRANCH  14  15
ATOM     15  C   UNL     1     -14.246 -36.873 -26.332  1.00  0.00    -0.003 C 
ATOM     16  C   UNL     1     -13.898 -38.125 -27.136  1.00  0.00     0.004 C 
ENDBRANCH  14  15
ENDBRANCH  13  14
ENDBRANCH  12  13
ENDBRANCH  11  12
ENDBRANCH  10  11
ENDBRANCH   1  10
TORSDOF 12
ENDMDL
MODEL 2
REMARK VINA RESULT:    -3.858      1.504      2.650
REMARK INTER + INTRA:          -8.624
REMARK INTER:                  -6.860
REMARK INTRA:                  -1.764
REMARK UNBOUND:                -2.058
REMARK SMILES CCCCCCCCCCCCCC(=O)[O-]
REMARK SMILES IDX 8 1 9 2 10 3 11 4 12 5 13 6 14 7 15 8 16 9 7 10 6 11 5 12
REMARK SMILES IDX 4 13 3 14 2 15 1 16
REMARK H PARENT
REMARK Flexibility Score: inf
ROOT
ATOM      1  C   UNL     1      -8.915 -35.456 -29.146  1.00  0.00     0.000 C 
ENDROOT
BRANCH   1   2
ATOM      2  C   UNL     1      -9.262 -35.766 -27.685  1.00  0.00     0.000 C 
BRANCH   2   3
ATOM      3  C   UNL     1      -9.499 -37.266 -27.480  1.00  0.00     0.000 C 
BRANCH   3   4
ATOM      4  C   UNL     1     -10.821 -37.518 -26.742  1.00  0.00     0.000 C 
BRANCH   4   5
ATOM      5  C   UNL     1     -10.645 -37.583 -25.216  1.00  0.00     0.006 C 
BRANCH   5   6
ATOM      6  C   UNL     1     -11.033 -36.271 -24.522  1.00  0.00     0.053 C 
BRANCH   6   7
ATOM      7  C   UNL     1     -11.131 -36.474 -23.042  1.00  0.00     0.041 C 
ATOM      8  O   UNL     1     -12.202 -36.203 -22.436  1.00  0.00    -0.550 OA
ATOM      9  O   UNL     1     -10.026 -36.914 -22.325  1.00  0.00    -0.550 OA
ENDBRANCH   6   7
ENDBRANCH   5   6
ENDBRANCH   4   5
ENDBRANCH   3   4
ENDBRANCH   2   3
ENDBRANCH   1   2
BRANCH   1  10
ATOM     10  C   UNL     1      -9.246 -36.645 -30.056  1.00  0.00     0.000 C 
BRANCH  10  11
ATOM     11  C   UNL     1     -10.446 -36.332 -30.958  1.00  0.00    -0.000 C 
BRANCH  11  12
ATOM     12  C   UNL     1     -11.736 -36.929 -30.384  1.00  0.00    -0.000 C 
BRANCH  12  13
ATOM     13  C   UNL     1     -12.840 -35.867 -30.292  1.00  0.00    -0.000 C 
BRANCH  13  14
ATOM     14  C   UNL     1     -12.498 -34.733 -29.310  1.00  0.00    -0.000 C 
BRANCH  14  15
ATOM     15  C   UNL     1     -13.132 -34.910 -27.914  1.00  0.00    -0.003 C 
ATOM     16  C   UNL     1     -12.556 -33.937 -26.886  1.00  0.00     0.004 C 
ENDBRANCH  14  15
ENDBRANCH  13  14
ENDBRANCH  12  13
ENDBRANCH  11  12
ENDBRANCH  10  11
ENDBRANCH   1  10
TORSDOF 12
ENDMDL
MODEL 3
REMARK VINA RESULT:    -3.842      2.692      4.391
REMARK INTER + INTRA:          -8.595
REMARK INTER:                  -6.708
REMARK INTRA:                  -1.887
REMARK UNBOUND:                -2.058
REMARK SMILES CCCCCCCCCCCCCC(=O)[O-]
REMARK SMILES IDX 8 1 9 2 10 3 11 4 12 5 13 6 14 7 15 8 16 9 7 10 6 11 5 12
REMARK SMILES IDX 4 13 3 14 2 15 1 16
REMARK H PARENT
REMARK Flexibility Score: inf
ROOT
ATOM      1  C   UNL     1     -12.206 -36.551 -24.058  1.00  0.00     0.000 C 
ENDROOT
BRANCH   1   2
ATOM      2  C   UNL     1     -10.741 -36.644 -24.502  1.00  0.00     0.000 C 
BRANCH   2   3
ATOM      3  C   UNL     1     -10.450 -37.994 -25.167  1.00  0.00     0.000 C 
BRANCH   3   4
ATOM      4  C   UNL     1      -9.705 -37.804 -26.496  1.00  0.00     0.000 C 
BRANCH   4   5
ATOM      5  C   UNL     1     -10.304 -36.678 -27.355  1.00  0.00     0.006 C 
BRANCH   5   6
ATOM      6  C   UNL     1      -9.230 -35.794 -28.001  1.00  0.00     0.053 C 
BRANCH   6   7
ATOM      7  C   UNL     1      -9.677 -35.331 -29.352  1.00  0.00     0.041 C 
ATOM      8  O   UNL     1      -9.288 -34.221 -29.802  1.00  0.00    -0.550 OA
ATOM      9  O   UNL     1     -10.565 -36.102 -30.092  1.00  0.00    -0.550 OA
ENDBRANCH   6   7
ENDBRANCH   5   6
ENDBRANCH   4   5
ENDBRANCH   3   4
ENDBRANCH   2   3
ENDBRANCH   1   2
BRANCH   1  10
ATOM     10  C   UNL     1     -12.996 -37.786 -24.504  1.00  0.00     0.000 C 
BRANCH  10  11
ATOM     11  C   UNL     1     -14.151 -37.395 -25.434  1.00  0.00    -0.000 C 
BRANCH  11  12
ATOM     12  C   UNL     1     -13.801 -37.687 -26.898  1.00  0.00    -0.000 C 
BRANCH  12  13
ATOM     13  C   UNL     1     -14.531 -36.721 -27.841  1.00  0.00    -0.000 C 
BRANCH  13  14
ATOM     14  C   UNL     1     -13.626 -35.587 -28.353  1.00  0.00    -0.000 C 
BRANCH  14  15
ATOM     15  C   UNL     1     -13.792 -34.264 -27.578  1.00  0.00    -0.003 C 
ATOM     16  C   UNL     1     -12.603 -33.972 -26.664  1.00  0.00     0.004 C 
ENDBRANCH  14  15
ENDBRANCH  13  14
ENDBRANCH  12  13
ENDBRANCH  11  12
ENDBRANCH  10  11
ENDBRANCH   1  10
TORSDOF 12
ENDMDL
MODEL 4
REMARK VINA RESULT:    -3.828      2.614      4.700
REMARK INTER + INTRA:          -8.572
REMARK INTER:                  -7.091
REMARK INTRA:                  -1.481
REMARK UNBOUND:                -2.058
REMARK SMILES CCCCCCCCCCCCCC(=O)[O-]
REMARK SMILES IDX 8 1 9 2 10 3 11 4 12 5 13 6 14 7 15 8 16 9 7 10 6 11 5 12
REMARK SMILES IDX 4 13 3 14 2 15 1 16
REMARK H PARENT
REMARK Flexibility Score: inf
ROOT
ATOM      1  C   UNL     1      -9.082 -35.716 -29.634  1.00  0.00     0.000 C 
ENDROOT
BRANCH   1   2
ATOM      2  C   UNL     1      -9.769 -36.971 -30.183  1.00  0.00     0.000 C 
BRANCH   2   3
ATOM      3  C   UNL     1     -11.119 -36.627 -30.822  1.00  0.00     0.000 C 
BRANCH   3   4
ATOM      4  C   UNL     1     -12.210 -36.470 -29.753  1.00  0.00     0.000 C 
BRANCH   4   5
ATOM      5  C   UNL     1     -12.723 -35.025 -29.637  1.00  0.00     0.006 C 
BRANCH   5   6
ATOM      6  C   UNL     1     -13.359 -34.733 -28.273  1.00  0.00     0.053 C 
BRANCH   6   7
ATOM      7  C   UNL     1     -14.850 -34.833 -28.361  1.00  0.00     0.041 C 
ATOM      8  O   UNL     1     -15.423 -34.784 -29.481  1.00  0.00    -0.550 OA
ATOM      9  O   UNL     1     -15.610 -34.930 -27.202  1.00  0.00    -0.550 OA
ENDBRANCH   6   7
ENDBRANCH   5   6
ENDBRANCH   4   5
ENDBRANCH   3   4
ENDBRANCH   2   3
ENDBRANCH   1   2
BRANCH   1  10
ATOM     10  C   UNL     1      -8.875 -35.819 -28.119  1.00  0.00     0.000 C 
BRANCH  10  11
ATOM     11  C   UNL     1      -9.028 -37.268 -27.639  1.00  0.00    -0.000 C 
BRANCH  11  12
ATOM     12  C   UNL     1     -10.110 -37.377 -26.557  1.00  0.00    -0.000 C 
BRANCH  12  13
ATOM     13  C   UNL     1     -10.686 -35.996 -26.214  1.00  0.00    -0.000 C 
BRANCH  13  14
ATOM     14  C   UNL     1     -11.652 -36.032 -25.018  1.00  0.00    -0.000 C 
BRANCH  14  15
ATOM     15  C   UNL     1     -11.039 -35.493 -23.709  1.00  0.00    -0.003 C 
ATOM     16  C   UNL     1     -10.856 -36.588 -22.658  1.00  0.00     0.004 C 
ENDBRANCH  14  15
ENDBRANCH  13  14
ENDBRANCH  12  13
ENDBRANCH  11  12
ENDBRANCH  10  11
ENDBRANCH   1  10
TORSDOF 12
ENDMDL
MODEL 5
REMARK VINA RESULT:    -3.804     19.919     22.597
REMARK INTER + INTRA:          -8.532
REMARK INTER:                  -6.433
REMARK INTRA:                  -2.098
REMARK UNBOUND:                -2.058
REMARK SMILES CCCCCCCCCCCCCC(=O)[O-]
REMARK SMILES IDX 8 1 9 2 10 3 11 4 12 5 13 6 14 7 15 8 16 9 7 10 6 11 5 12
REMARK SMILES IDX 4 13 3 14 2 15 1 16
REMARK H PARENT
REMARK Flexibility Score: inf
ROOT
ATOM      1  C   UNL     1     -27.970 -20.882 -28.466  1.00  0.00     0.000 C 
ENDROOT
BRANCH   1   2
ATOM      2  C   UNL     1     -28.013 -19.415 -28.910  1.00  0.00     0.000 C 
BRANCH   2   3
ATOM      3  C   UNL     1     -28.546 -19.286 -30.342  1.00  0.00     0.000 C 
BRANCH   3   4
ATOM      4  C   UNL     1     -29.111 -20.624 -30.841  1.00  0.00     0.000 C 
BRANCH   4   5
ATOM      5  C   UNL     1     -28.386 -21.144 -32.093  1.00  0.00     0.006 C 
BRANCH   5   6
ATOM      6  C   UNL     1     -27.805 -20.012 -32.951  1.00  0.00     0.053 C 
BRANCH   6   7
ATOM      7  C   UNL     1     -27.020 -20.574 -34.094  1.00  0.00     0.041 C 
ATOM      8  O   UNL     1     -25.836 -20.195 -34.296  1.00  0.00    -0.550 OA
ATOM      9  O   UNL     1     -27.612 -21.479 -34.966  1.00  0.00    -0.550 OA
ENDBRANCH   6   7
ENDBRANCH   5   6
ENDBRANCH   4   5
ENDBRANCH   3   4
ENDBRANCH   2   3
ENDBRANCH   1   2
BRANCH   1  10
ATOM     10  C   UNL     1     -26.526 -21.388 -28.374  1.00  0.00     0.000 C 
BRANCH  10  11
ATOM     11  C   UNL     1     -26.259 -22.484 -29.413  1.00  0.00    -0.000 C 
BRANCH  11  12
ATOM     12  C   UNL     1     -24.861 -22.334 -30.024  1.00  0.00    -0.000 C 
BRANCH  12  13
ATOM     13  C   UNL     1     -24.807 -21.139 -30.986  1.00  0.00    -0.000 C 
BRANCH  13  14
ATOM     14  C   UNL     1     -23.882 -20.014 -30.491  1.00  0.00    -0.000 C 
BRANCH  14  15
ATOM     15  C   UNL     1     -24.632 -18.728 -30.086  1.00  0.00    -0.003 C 
ATOM     16  C   UNL     1     -25.177 -17.968 -31.295  1.00  0.00     0.004 C 
ENDBRANCH  14  15
ENDBRANCH  13  14
ENDBRANCH  12  13
ENDBRANCH  11  12
ENDBRANCH  10  11
ENDBRANCH   1  10
TORSDOF 12
ENDMDL
MODEL 6
REMARK VINA RESULT:    -3.781     19.844     22.215
REMARK INTER + INTRA:          -8.491
REMARK INTER:                  -6.142
REMARK INTRA:                  -2.350
REMARK UNBOUND:                -2.058
REMARK SMILES CCCCCCCCCCCCCC(=O)[O-]
REMARK SMILES IDX 8 1 9 2 10 3 11 4 12 5 13 6 14 7 15 8 16 9 7 10 6 11 5 12
REMARK SMILES IDX 4 13 3 14 2 15 1 16
REMARK H PARENT
REMARK Flexibility Score: inf
ROOT
ATOM      1  C   UNL     1     -27.019 -22.865 -31.737  1.00  0.00     0.000 C 
ENDROOT
BRANCH   1   2
ATOM      2  C   UNL     1     -26.484 -22.768 -30.303  1.00  0.00     0.000 C 
BRANCH   2   3
ATOM      3  C   UNL     1     -24.988 -22.434 -30.294  1.00  0.00     0.000 C 
BRANCH   3   4
ATOM      4  C   UNL     1     -24.754 -20.970 -29.893  1.00  0.00     0.000 C 
BRANCH   4   5
ATOM      5  C   UNL     1     -24.200 -20.120 -31.048  1.00  0.00     0.006 C 
BRANCH   5   6
ATOM      6  C   UNL     1     -25.165 -19.009 -31.478  1.00  0.00     0.053 C 
BRANCH   6   7
ATOM      7  C   UNL     1     -25.673 -19.266 -32.863  1.00  0.00     0.041 C 
ATOM      8  O   UNL     1     -26.499 -18.476 -33.391  1.00  0.00    -0.550 OA
ATOM      9  O   UNL     1     -25.272 -20.404 -33.550  1.00  0.00    -0.550 OA
ENDBRANCH   6   7
ENDBRANCH   5   6
ENDBRANCH   4   5
ENDBRANCH   3   4
ENDBRANCH   2   3
ENDBRANCH   1   2
BRANCH   1  10
ATOM     10  C   UNL     1     -28.187 -21.896 -31.956  1.00  0.00     0.000 C 
BRANCH  10  11
ATOM     11  C   UNL     1     -28.612 -21.239 -30.637  1.00  0.00    -0.000 C 
BRANCH  11  12
ATOM     12  C   UNL     1     -28.742 -19.719 -30.797  1.00  0.00    -0.000 C 
BRANCH  12  13
ATOM     13  C   UNL     1     -28.359 -18.996 -29.498  1.00  0.00    -0.000 C 
BRANCH  13  14
ATOM     14  C   UNL     1     -27.959 -19.963 -28.371  1.00  0.00    -0.000 C 
BRANCH  14  15
ATOM     15  C   UNL     1     -26.921 -19.377 -27.391  1.00  0.00    -0.003 C 
ATOM     16  C   UNL     1     -26.270 -18.102 -27.926  1.00  0.00     0.004 C 
ENDBRANCH  14  15
ENDBRANCH  13  14
ENDBRANCH  12  13
ENDBRANCH  11  12
ENDBRANCH  10  11
ENDBRANCH   1  10
TORSDOF 12
ENDMDL
MODEL 7
REMARK VINA RESULT:    -3.754      3.533      6.033
REMARK INTER + INTRA:          -8.446
REMARK INTER:                  -6.572
REMARK INTRA:                  -1.874
REMARK UNBOUND:                -2.058
REMARK SMILES CCCCCCCCCCCCCC(=O)[O-]
REMARK SMILES IDX 8 1 9 2 10 3 11 4 12 5 13 6 14 7 15 8 16 9 7 10 6 11 5 12
REMARK SMILES IDX 4 13 3 14 2 15 1 16
REMARK H PARENT
REMARK Flexibility Score: inf
ROOT
ATOM      1  C   UNL     1     -12.593 -33.961 -26.582  1.00  0.00     0.000 C 
ENDROOT
BRANCH   1   2
ATOM      2  C   UNL     1     -13.553 -34.521 -27.638  1.00  0.00     0.000 C 
BRANCH   2   3
ATOM      3  C   UNL     1     -12.830 -34.766 -28.967  1.00  0.00     0.000 C 
BRANCH   3   4
ATOM      4  C   UNL     1     -13.157 -36.159 -29.524  1.00  0.00     0.000 C 
BRANCH   4   5
ATOM      5  C   UNL     1     -14.602 -36.591 -29.226  1.00  0.00     0.006 C 
BRANCH   5   6
ATOM      6  C   UNL     1     -15.456 -36.709 -30.494  1.00  0.00     0.053 C 
BRANCH   6   7
ATOM      7  C   UNL     1     -15.685 -35.358 -31.096  1.00  0.00     0.041 C 
ATOM      8  O   UNL     1     -16.080 -34.403 -30.376  1.00  0.00    -0.550 OA
ATOM      9  O   UNL     1     -15.510 -35.165 -32.461  1.00  0.00    -0.550 OA
ENDBRANCH   6   7
ENDBRANCH   5   6
ENDBRANCH   4   5
ENDBRANCH   3   4
ENDBRANCH   2   3
ENDBRANCH   1   2
BRANCH   1  10
ATOM     10  C   UNL     1     -12.155 -35.054 -25.601  1.00  0.00     0.000 C 
BRANCH  10  11
ATOM     11  C   UNL     1     -10.728 -35.529 -25.906  1.00  0.00    -0.000 C 
BRANCH  11  12
ATOM     12  C   UNL     1     -10.742 -36.877 -26.636  1.00  0.00    -0.000 C 
BRANCH  12  13
ATOM     13  C   UNL     1      -9.814 -36.849 -27.858  1.00  0.00    -0.000 C 
BRANCH  13  14
ATOM     14  C   UNL     1      -9.083 -35.505 -28.023  1.00  0.00    -0.000 C 
BRANCH  14  15
ATOM     15  C   UNL     1      -9.196 -34.908 -29.441  1.00  0.00    -0.003 C 
ATOM     16  C   UNL     1      -9.567 -35.959 -30.487  1.00  0.00     0.004 C 
ENDBRANCH  14  15
ENDBRANCH  13  14
ENDBRANCH  12  13
ENDBRANCH  11  12
ENDBRANCH  10  11
ENDBRANCH   1  10
TORSDOF 12
ENDMDL
MODEL 8
REMARK VINA RESULT:    -3.742     19.874     22.058
REMARK INTER + INTRA:          -8.425
REMARK INTER:                  -6.214
REMARK INTRA:                  -2.211
REMARK UNBOUND:                -2.058
REMARK SMILES CCCCCCCCCCCCCC(=O)[O-]
REMARK SMILES IDX 8 1 9 2 10 3 11 4 12 5 13 6 14 7 15 8 16 9 7 10 6 11 5 12
REMARK SMILES IDX 4 13 3 14 2 15 1 16
REMARK H PARENT
REMARK Flexibility Score: inf
ROOT
ATOM      1  C   UNL     1     -27.728 -18.701 -31.310  1.00  0.00     0.000 C 
ENDROOT
BRANCH   1   2
ATOM      2  C   UNL     1     -27.752 -19.656 -32.509  1.00  0.00     0.000 C 
BRANCH   2   3
ATOM      3  C   UNL     1     -28.279 -21.037 -32.105  1.00  0.00     0.000 C 
BRANCH   3   4
ATOM      4  C   UNL     1     -27.617 -22.144 -32.938  1.00  0.00     0.000 C 
BRANCH   4   5
ATOM      5  C   UNL     1     -26.694 -21.589 -34.035  1.00  0.00     0.006 C 
BRANCH   5   6
ATOM      6  C   UNL     1     -25.292 -22.210 -33.996  1.00  0.00     0.053 C 
BRANCH   6   7
ATOM      7  C   UNL     1     -24.260 -21.155 -33.749  1.00  0.00     0.041 C 
ATOM      8  O   UNL     1     -24.507 -19.951 -34.025  1.00  0.00    -0.550 OA
ATOM      9  O   UNL     1     -23.008 -21.507 -33.261  1.00  0.00    -0.550 OA
ENDBRANCH   6   7
ENDBRANCH   5   6
ENDBRANCH   4   5
ENDBRANCH   3   4
ENDBRANCH   2   3
ENDBRANCH   1   2
BRANCH   1  10
ATOM     10  C   UNL     1     -28.744 -19.130 -30.244  1.00  0.00     0.000 C 
BRANCH  10  11
ATOM     11  C   UNL     1     -28.081 -19.243 -28.865  1.00  0.00    -0.000 C 
BRANCH  11  12
ATOM     12  C   UNL     1     -28.011 -20.705 -28.408  1.00  0.00    -0.000 C 
BRANCH  12  13
ATOM     13  C   UNL     1     -26.554 -21.170 -28.277  1.00  0.00    -0.000 C 
BRANCH  13  14
ATOM     14  C   UNL     1     -26.205 -22.320 -29.237  1.00  0.00    -0.000 C 
BRANCH  14  15
ATOM     15  C   UNL     1     -25.092 -21.968 -30.246  1.00  0.00    -0.003 C 
ATOM     16  C   UNL     1     -24.669 -20.502 -30.159  1.00  0.00     0.004 C 
ENDBRANCH  14  15
ENDBRANCH  13  14
ENDBRANCH  12  13
ENDBRANCH  11  12
ENDBRANCH  10  11
ENDBRANCH   1  10
TORSDOF 12
ENDMDL
MODEL 9
REMARK VINA RESULT:    -3.721     19.779     21.989
REMARK INTER + INTRA:          -8.390
REMARK INTER:                  -6.093
REMARK INTRA:                  -2.296
REMARK UNBOUND:                -2.058
REMARK SMILES CCCCCCCCCCCCCC(=O)[O-]
REMARK SMILES IDX 8 1 9 2 10 3 11 4 12 5 13 6 14 7 15 8 16 9 7 10 6 11 5 12
REMARK SMILES IDX 4 13 3 14 2 15 1 16
REMARK H PARENT
REMARK Flexibility Score: inf
ROOT
ATOM      1  C   UNL     1     -27.180 -23.073 -31.515  1.00  0.00     0.000 C 
ENDROOT
BRANCH   1   2
ATOM      2  C   UNL     1     -28.356 -22.124 -31.772  1.00  0.00     0.000 C 
BRANCH   2   3
ATOM      3  C   UNL     1     -28.553 -21.159 -30.598  1.00  0.00     0.000 C 
BRANCH   3   4
ATOM      4  C   UNL     1     -28.358 -19.703 -31.043  1.00  0.00     0.000 C 
BRANCH   4   5
ATOM      5  C   UNL     1     -28.029 -18.764 -29.872  1.00  0.00     0.006 C 
BRANCH   5   6
ATOM      6  C   UNL     1     -27.628 -19.524 -28.601  1.00  0.00     0.053 C 
BRANCH   6   7
ATOM      7  C   UNL     1     -26.556 -18.782 -27.865  1.00  0.00     0.041 C 
ATOM      8  O   UNL     1     -26.566 -18.739 -26.607  1.00  0.00    -0.550 OA
ATOM      9  O   UNL     1     -25.576 -18.096 -28.570  1.00  0.00    -0.550 OA
ENDBRANCH   6   7
ENDBRANCH   5   6
ENDBRANCH   4   5
ENDBRANCH   3   4
ENDBRANCH   2   3
ENDBRANCH   1   2
BRANCH   1  10
ATOM     10  C   UNL     1     -26.491 -22.751 -30.184  1.00  0.00     0.000 C 
BRANCH  10  11
ATOM     11  C   UNL     1     -24.984 -22.546 -30.379  1.00  0.00    -0.000 C 
BRANCH  11  12
ATOM     12  C   UNL     1     -24.601 -21.073 -30.195  1.00  0.00    -0.000 C 
BRANCH  12  13
ATOM     13  C   UNL     1     -24.636 -20.324 -31.534  1.00  0.00    -0.000 C 
BRANCH  13  14
ATOM     14  C   UNL     1     -24.072 -21.157 -32.699  1.00  0.00    -0.000 C 
BRANCH  14  15
ATOM     15  C   UNL     1     -25.017 -21.240 -33.916  1.00  0.00    -0.003 C 
ATOM     16  C   UNL     1     -26.076 -20.139 -33.907  1.00  0.00     0.004 C 
ENDBRANCH  14  15
ENDBRANCH  13  14
ENDBRANCH  12  13
ENDBRANCH  11  12
ENDBRANCH  10  11
ENDBRANCH   1  10
TORSDOF 12
ENDMDL
