MODEL 1
REMARK VINA RESULT:    -4.286      0.000      0.000
REMARK INTER + INTRA:         -10.633
REMARK INTER:                  -8.044
REMARK INTRA:                  -2.588
REMARK UNBOUND:                -2.588
REMARK SMILES CCCCCCCCC=CCCCCCCCC(=O)[O-]
REMARK SMILES IDX 10 1 9 2 11 3 12 4 13 5 14 6 15 7 16 8 17 9 18 10 19 11
REMARK SMILES IDX 20 12 8 13 7 14 6 15 5 16 4 17 3 18 2 19 1 20
REMARK H PARENT
REMARK Flexibility Score: inf
ROOT
ATOM      1  C   UNL     1      -2.679  20.089  49.187  1.00  0.00    -0.031 C 
ATOM      2  C   UNL     1      -1.766  21.014  49.532  1.00  0.00    -0.031 C 
ENDROOT
BRANCH   1   3
ATOM      3  C   UNL     1      -2.444  18.601  49.293  1.00  0.00     0.027 C 
BRANCH   3   4
ATOM      4  C   UNL     1      -3.116  17.852  48.136  1.00  0.00     0.004 C 
BRANCH   4   5
ATOM      5  C   UNL     1      -2.115  16.931  47.421  1.00  0.00     0.000 C 
BRANCH   5   6
ATOM      6  C   UNL     1      -0.665  17.168  47.873  1.00  0.00     0.000 C 
BRANCH   6   7
ATOM      7  C   UNL     1       0.222  17.723  46.749  1.00  0.00     0.000 C 
BRANCH   7   8
ATOM      8  C   UNL     1       0.446  19.231  46.919  1.00  0.00     0.006 C 
BRANCH   8   9
ATOM      9  C   UNL     1      -0.663  20.032  46.231  1.00  0.00     0.053 C 
BRANCH   9  10
ATOM     10  C   UNL     1      -0.288  21.477  46.141  1.00  0.00     0.041 C 
ATOM     11  O   UNL     1       0.912  21.810  45.959  1.00  0.00    -0.550 OA
ATOM     12  O   UNL     1      -1.258  22.459  46.306  1.00  0.00    -0.550 OA
ENDBRANCH   9  10
ENDBRANCH   8   9
ENDBRANCH   7   8
ENDBRANCH   6   7
ENDBRANCH   5   6
ENDBRANCH   4   5
ENDBRANCH   3   4
ENDBRANCH   1   3
BRANCH   2  13
ATOM     13  C   UNL     1      -0.405  20.694  50.105  1.00  0.00     0.027 C 
BRANCH  13  14
ATOM     14  C   UNL     1       0.655  21.746  49.722  1.00  0.00     0.004 C 
BRANCH  14  15
ATOM     15  C   UNL     1       1.064  22.663  50.887  1.00  0.00     0.000 C 
BRANCH  15  16
ATOM     16  C   UNL     1       0.577  22.149  52.253  1.00  0.00     0.000 C 
BRANCH  16  17
ATOM     17  C   UNL     1      -0.657  22.906  52.767  1.00  0.00    -0.000 C 
BRANCH  17  18
ATOM     18  C   UNL     1      -0.802  24.298  52.128  1.00  0.00    -0.000 C 
BRANCH  18  19
ATOM     19  C   UNL     1      -2.108  24.447  51.332  1.00  0.00    -0.003 C 
ATOM     20  C   UNL     1      -3.145  23.380  51.685  1.00  0.00     0.004 C 
ENDBRANCH  18  19
ENDBRANCH  17  18
ENDBRANCH  16  17
ENDBRANCH  15  16
ENDBRANCH  14  15
ENDBRANCH  13  14
ENDBRANCH   2  13
TORSDOF 15
ENDMDL
MODEL 2
REMARK VINA RESULT:    -4.275      1.002      2.366
REMARK INTER + INTRA:         -10.611
REMARK INTER:                  -8.374
REMARK INTRA:                  -2.237
REMARK UNBOUND:                -2.588
REMARK SMILES CCCCCCCCC=CCCCCCCCC(=O)[O-]
REMARK SMILES IDX 10 1 9 2 11 3 12 4 13 5 14 6 15 7 16 8 17 9 18 10 19 11
REMARK SMILES IDX 20 12 8 13 7 14 6 15 5 16 4 17 3 18 2 19 1 20
REMARK H PARENT
REMARK Flexibility Score: inf
ROOT
ATOM      1  C   UNL     1      -1.838  19.702  49.469  1.00  0.00    -0.031 C 
ATOM      2  C   UNL     1      -1.396  20.856  50.002  1.00  0.00    -0.031 C 
ENDROOT
BRANCH   1   3
ATOM      3  C   UNL     1      -3.131  19.577  48.699  1.00  0.00     0.027 C 
BRANCH   3   4
ATOM      4  C   UNL     1      -3.317  18.155  48.159  1.00  0.00     0.004 C 
BRANCH   4   5
ATOM      5  C   UNL     1      -2.339  17.178  48.831  1.00  0.00     0.000 C 
BRANCH   5   6
ATOM      6  C   UNL     1      -1.496  16.391  47.815  1.00  0.00     0.000 C 
BRANCH   6   7
ATOM      7  C   UNL     1      -0.081  16.967  47.648  1.00  0.00     0.000 C 
BRANCH   7   8
ATOM      8  C   UNL     1      -0.065  18.087  46.600  1.00  0.00     0.006 C 
BRANCH   8   9
ATOM      9  C   UNL     1       0.798  19.263  47.067  1.00  0.00     0.053 C 
BRANCH   9  10
ATOM     10  C   UNL     1       0.245  20.555  46.556  1.00  0.00     0.041 C 
ATOM     11  O   UNL     1       0.902  21.621  46.685  1.00  0.00    -0.550 OA
ATOM     12  O   UNL     1      -1.019  20.591  45.979  1.00  0.00    -0.550 OA
ENDBRANCH   9  10
ENDBRANCH   8   9
ENDBRANCH   7   8
ENDBRANCH   6   7
ENDBRANCH   5   6
ENDBRANCH   4   5
ENDBRANCH   3   4
ENDBRANCH   1   3
BRANCH   2  13
ATOM     13  C   UNL     1      -2.108  22.181  49.870  1.00  0.00     0.027 C 
BRANCH  13  14
ATOM     14  C   UNL     1      -2.841  22.585  51.165  1.00  0.00     0.004 C 
BRANCH  14  15
ATOM     15  C   UNL     1      -2.837  24.100  51.431  1.00  0.00     0.000 C 
BRANCH  15  16
ATOM     16  C   UNL     1      -2.084  24.479  52.717  1.00  0.00     0.000 C 
BRANCH  16  17
ATOM     17  C   UNL     1      -0.566  24.268  52.601  1.00  0.00    -0.000 C 
BRANCH  17  18
ATOM     18  C   UNL     1      -0.052  23.162  53.539  1.00  0.00    -0.000 C 
BRANCH  18  19
ATOM     19  C   UNL     1       0.771  22.097  52.797  1.00  0.00    -0.003 C 
ATOM     20  C   UNL     1       1.380  22.617  51.495  1.00  0.00     0.004 C 
ENDBRANCH  18  19
ENDBRANCH  17  18
ENDBRANCH  16  17
ENDBRANCH  15  16
ENDBRANCH  14  15
ENDBRANCH  13  14
ENDBRANCH   2  13
TORSDOF 15
ENDMDL
MODEL 3
REMARK VINA RESULT:    -4.234      4.183      6.350
REMARK INTER + INTRA:         -10.534
REMARK INTER:                  -8.392
REMARK INTRA:                  -2.142
REMARK UNBOUND:                -2.588
REMARK SMILES CCCCCCCCC=CCCCCCCCC(=O)[O-]
REMARK SMILES IDX 10 1 9 2 11 3 12 4 13 5 14 6 15 7 16 8 17 9 18 10 19 11
REMARK SMILES IDX 20 12 8 13 7 14 6 15 5 16 4 17 3 18 2 19 1 20
REMARK H PARENT
REMARK Flexibility Score: inf
ROOT
ATOM      1  C   UNL     1       0.054  17.588  46.314  1.00  0.00    -0.031 C 
ATOM      2  C   UNL     1      -0.007  18.879  46.688  1.00  0.00    -0.031 C 
ENDROOT
BRANCH   1   3
ATOM      3  C   UNL     1       1.039  16.597  46.885  1.00  0.00     0.027 C 
BRANCH   3   4
ATOM      4  C   UNL     1       2.291  16.493  46.006  1.00  0.00     0.004 C 
BRANCH   4   5
ATOM      5  C   UNL     1       3.534  16.180  46.853  1.00  0.00     0.000 C 
BRANCH   5   6
ATOM      6  C   UNL     1       3.585  16.997  48.154  1.00  0.00     0.000 C 
BRANCH   6   7
ATOM      7  C   UNL     1       5.019  17.358  48.570  1.00  0.00     0.000 C 
BRANCH   7   8
ATOM      8  C   UNL     1       6.028  16.359  47.990  1.00  0.00     0.006 C 
BRANCH   8   9
ATOM      9  C   UNL     1       7.436  16.958  47.952  1.00  0.00     0.053 C 
BRANCH   9  10
ATOM     10  C   UNL     1       7.682  17.640  46.643  1.00  0.00     0.041 C 
ATOM     11  O   UNL     1       7.007  17.325  45.628  1.00  0.00    -0.550 OA
ATOM     12  O   UNL     1       8.689  18.590  46.532  1.00  0.00    -0.550 OA
ENDBRANCH   9  10
ENDBRANCH   8   9
ENDBRANCH   7   8
ENDBRANCH   6   7
ENDBRANCH   5   6
ENDBRANCH   4   5
ENDBRANCH   3   4
ENDBRANCH   1   3
BRANCH   2  13
ATOM     13  C   UNL     1       0.869  19.498  47.752  1.00  0.00     0.027 C 
BRANCH  13  14
ATOM     14  C   UNL     1       0.073  20.395  48.720  1.00  0.00     0.004 C 
BRANCH  14  15
ATOM     15  C   UNL     1      -1.322  20.780  48.198  1.00  0.00     0.000 C 
BRANCH  15  16
ATOM     16  C   UNL     1      -2.462  20.201  49.054  1.00  0.00     0.000 C 
BRANCH  16  17
ATOM     17  C   UNL     1      -3.424  19.319  48.243  1.00  0.00    -0.000 C 
BRANCH  17  18
ATOM     18  C   UNL     1      -3.112  17.820  48.386  1.00  0.00    -0.000 C 
BRANCH  18  19
ATOM     19  C   UNL     1      -2.103  17.534  49.509  1.00  0.00    -0.003 C 
ATOM     20  C   UNL     1      -1.459  16.153  49.393  1.00  0.00     0.004 C 
ENDBRANCH  18  19
ENDBRANCH  17  18
ENDBRANCH  16  17
ENDBRANCH  15  16
ENDBRANCH  14  15
ENDBRANCH  13  14
ENDBRANCH   2  13
TORSDOF 15
ENDMDL
MODEL 4
REMARK VINA RESULT:    -4.179      2.094      6.231
REMARK INTER + INTRA:         -10.431
REMARK INTER:                  -8.244
REMARK INTRA:                  -2.188
REMARK UNBOUND:                -2.588
REMARK SMILES CCCCCCCCC=CCCCCCCCC(=O)[O-]
REMARK SMILES IDX 10 1 9 2 11 3 12 4 13 5 14 6 15 7 16 8 17 9 18 10 19 11
REMARK SMILES IDX 20 12 8 13 7 14 6 15 5 16 4 17 3 18 2 19 1 20
REMARK H PARENT
REMARK Flexibility Score: inf
ROOT
ATOM      1  C   UNL     1      -3.061  19.815  48.584  1.00  0.00    -0.031 C 
ATOM      2  C   UNL     1      -3.193  18.523  48.235  1.00  0.00    -0.031 C 
ENDROOT
BRANCH   1   3
ATOM      3  C   UNL     1      -2.085  20.305  49.627  1.00  0.00     0.027 C 
BRANCH   3   4
ATOM      4  C   UNL     1      -2.371  21.760  50.012  1.00  0.00     0.004 C 
BRANCH   4   5
ATOM      5  C   UNL     1      -1.129  22.422  50.629  1.00  0.00     0.000 C 
BRANCH   5   6
ATOM      6  C   UNL     1      -1.302  22.726  52.125  1.00  0.00     0.000 C 
BRANCH   6   7
ATOM      7  C   UNL     1      -1.071  24.208  52.459  1.00  0.00     0.000 C 
BRANCH   7   8
ATOM      8  C   UNL     1      -2.373  24.877  52.916  1.00  0.00     0.006 C 
BRANCH   8   9
ATOM      9  C   UNL     1      -3.322  25.098  51.734  1.00  0.00     0.053 C 
BRANCH   9  10
ATOM     10  C   UNL     1      -2.687  25.983  50.710  1.00  0.00     0.041 C 
ATOM     11  O   UNL     1      -2.384  27.171  50.998  1.00  0.00    -0.550 OA
ATOM     12  O   UNL     1      -2.474  25.512  49.420  1.00  0.00    -0.550 OA
ENDBRANCH   9  10
ENDBRANCH   8   9
ENDBRANCH   7   8
ENDBRANCH   6   7
ENDBRANCH   5   6
ENDBRANCH   4   5
ENDBRANCH   3   4
ENDBRANCH   1   3
BRANCH   2  13
ATOM     13  C   UNL     1      -2.362  17.398  48.806  1.00  0.00     0.027 C 
BRANCH  13  14
ATOM     14  C   UNL     1      -1.594  16.624  47.716  1.00  0.00     0.004 C 
BRANCH  14  15
ATOM     15  C   UNL     1      -0.830  17.531  46.736  1.00  0.00     0.000 C 
BRANCH  15  16
ATOM     16  C   UNL     1       0.464  18.105  47.339  1.00  0.00     0.000 C 
BRANCH  16  17
ATOM     17  C   UNL     1       0.608  19.617  47.104  1.00  0.00    -0.000 C 
BRANCH  17  18
ATOM     18  C   UNL     1      -0.535  20.193  46.251  1.00  0.00    -0.000 C 
BRANCH  18  19
ATOM     19  C   UNL     1      -0.335  21.682  45.927  1.00  0.00    -0.003 C 
ATOM     20  C   UNL     1      -1.386  22.578  46.581  1.00  0.00     0.004 C 
ENDBRANCH  18  19
ENDBRANCH  17  18
ENDBRANCH  16  17
ENDBRANCH  15  16
ENDBRANCH  14  15
ENDBRANCH  13  14
ENDBRANCH   2  13
TORSDOF 15
ENDMDL
MODEL 5
REMARK VINA RESULT:    -4.144      2.546      6.845
REMARK INTER + INTRA:         -10.367
REMARK INTER:                  -8.089
REMARK INTRA:                  -2.278
REMARK UNBOUND:                -2.588
REMARK SMILES CCCCCCCCC=CCCCCCCCC(=O)[O-]
REMARK SMILES IDX 10 1 9 2 11 3 12 4 13 5 14 6 15 7 16 8 17 9 18 10 19 11
REMARK SMILES IDX 20 12 8 13 7 14 6 15 5 16 4 17 3 18 2 19 1 20
REMARK H PARENT
REMARK Flexibility Score: inf
ROOT
ATOM      1  C   UNL     1      -0.297  22.069  49.052  1.00  0.00    -0.031 C 
ATOM      2  C   UNL     1      -1.578  21.788  48.748  1.00  0.00    -0.031 C 
ENDROOT
BRANCH   1   3
ATOM      3  C   UNL     1       0.424  21.495  50.247  1.00  0.00     0.027 C 
BRANCH   3   4
ATOM      4  C   UNL     1       0.731  22.584  51.282  1.00  0.00     0.004 C 
BRANCH   4   5
ATOM      5  C   UNL     1      -0.428  22.739  52.278  1.00  0.00     0.000 C 
BRANCH   5   6
ATOM      6  C   UNL     1      -0.935  24.186  52.377  1.00  0.00     0.000 C 
BRANCH   6   7
ATOM      7  C   UNL     1      -2.455  24.269  52.581  1.00  0.00     0.000 C 
BRANCH   7   8
ATOM      8  C   UNL     1      -3.199  24.090  51.251  1.00  0.00     0.006 C 
BRANCH   8   9
ATOM      9  C   UNL     1      -2.648  25.039  50.182  1.00  0.00     0.053 C 
BRANCH   9  10
ATOM     10  C   UNL     1      -3.332  26.367  50.256  1.00  0.00     0.041 C 
ATOM     11  O   UNL     1      -4.541  26.477  49.924  1.00  0.00    -0.550 OA
ATOM     12  O   UNL     1      -2.620  27.494  50.647  1.00  0.00    -0.550 OA
ENDBRANCH   9  10
ENDBRANCH   8   9
ENDBRANCH   7   8
ENDBRANCH   6   7
ENDBRANCH   5   6
ENDBRANCH   4   5
ENDBRANCH   3   4
ENDBRANCH   1   3
BRANCH   2  13
ATOM     13  C   UNL     1      -2.449  20.837  49.534  1.00  0.00     0.027 C 
BRANCH  13  14
ATOM     14  C   UNL     1      -2.868  19.605  48.706  1.00  0.00     0.004 C 
BRANCH  14  15
ATOM     15  C   UNL     1      -2.485  18.265  49.355  1.00  0.00     0.000 C 
BRANCH  15  16
ATOM     16  C   UNL     1      -2.559  17.082  48.374  1.00  0.00     0.000 C 
BRANCH  16  17
ATOM     17  C   UNL     1      -1.179  16.481  48.064  1.00  0.00    -0.000 C 
BRANCH  17  18
ATOM     18  C   UNL     1      -0.784  16.644  46.587  1.00  0.00    -0.000 C 
BRANCH  18  19
ATOM     19  C   UNL     1      -0.557  18.113  46.197  1.00  0.00    -0.003 C 
ATOM     20  C   UNL     1       0.467  18.814  47.090  1.00  0.00     0.004 C 
ENDBRANCH  18  19
ENDBRANCH  17  18
ENDBRANCH  16  17
ENDBRANCH  15  16
ENDBRANCH  14  15
ENDBRANCH  13  14
ENDBRANCH   2  13
TORSDOF 15
ENDMDL
MODEL 6
REMARK VINA RESULT:    -4.144      4.148      6.558
REMARK INTER + INTRA:         -10.365
REMARK INTER:                  -8.435
REMARK INTRA:                  -1.931
REMARK UNBOUND:                -2.588
REMARK SMILES CCCCCCCCC=CCCCCCCCC(=O)[O-]
REMARK SMILES IDX 10 1 9 2 11 3 12 4 13 5 14 6 15 7 16 8 17 9 18 10 19 11
REMARK SMILES IDX 20 12 8 13 7 14 6 15 5 16 4 17 3 18 2 19 1 20
REMARK H PARENT
REMARK Flexibility Score: inf
ROOT
ATOM      1  C   UNL     1       0.827  18.747  47.061  1.00  0.00    -0.031 C 
ATOM      2  C   UNL     1      -0.192  18.317  46.294  1.00  0.00    -0.031 C 
ENDROOT
BRANCH   1   3
ATOM      3  C   UNL     1       1.829  17.827  47.715  1.00  0.00     0.027 C 
BRANCH   3   4
ATOM      4  C   UNL     1       3.104  17.711  46.873  1.00  0.00     0.004 C 
BRANCH   4   5
ATOM      5  C   UNL     1       4.311  18.305  47.617  1.00  0.00     0.000 C 
BRANCH   5   6
ATOM      6  C   UNL     1       4.850  17.370  48.711  1.00  0.00     0.000 C 
BRANCH   6   7
ATOM      7  C   UNL     1       5.593  16.154  48.138  1.00  0.00     0.000 C 
BRANCH   7   8
ATOM      8  C   UNL     1       6.695  16.593  47.165  1.00  0.00     0.006 C 
BRANCH   8   9
ATOM      9  C   UNL     1       6.534  15.905  45.806  1.00  0.00     0.053 C 
BRANCH   9  10
ATOM     10  C   UNL     1       6.573  16.912  44.701  1.00  0.00     0.041 C 
ATOM     11  O   UNL     1       5.503  17.353  44.206  1.00  0.00    -0.550 OA
ATOM     12  O   UNL     1       7.793  17.329  44.182  1.00  0.00    -0.550 OA
ENDBRANCH   9  10
ENDBRANCH   8   9
ENDBRANCH   7   8
ENDBRANCH   6   7
ENDBRANCH   5   6
ENDBRANCH   4   5
ENDBRANCH   3   4
ENDBRANCH   1   3
BRANCH   2  13
ATOM     13  C   UNL     1      -0.447  16.867  45.954  1.00  0.00     0.027 C 
BRANCH  13  14
ATOM     14  C   UNL     1      -1.643  16.283  46.731  1.00  0.00     0.004 C 
BRANCH  14  15
ATOM     15  C   UNL     1      -1.406  16.184  48.248  1.00  0.00     0.000 C 
BRANCH  15  16
ATOM     16  C   UNL     1      -2.364  17.070  49.063  1.00  0.00     0.000 C 
BRANCH  16  17
ATOM     17  C   UNL     1      -3.367  17.828  48.179  1.00  0.00    -0.000 C 
BRANCH  17  18
ATOM     18  C   UNL     1      -3.194  19.354  48.266  1.00  0.00    -0.000 C 
BRANCH  18  19
ATOM     19  C   UNL     1      -2.141  19.768  49.307  1.00  0.00    -0.003 C 
ATOM     20  C   UNL     1      -2.249  21.238  49.709  1.00  0.00     0.004 C 
ENDBRANCH  18  19
ENDBRANCH  17  18
ENDBRANCH  16  17
ENDBRANCH  15  16
ENDBRANCH  14  15
ENDBRANCH  13  14
ENDBRANCH   2  13
TORSDOF 15
ENDMDL
MODEL 7
REMARK VINA RESULT:    -4.120      2.078      6.371
REMARK INTER + INTRA:         -10.322
REMARK INTER:                  -8.063
REMARK INTRA:                  -2.259
REMARK UNBOUND:                -2.588
REMARK SMILES CCCCCCCCC=CCCCCCCCC(=O)[O-]
REMARK SMILES IDX 10 1 9 2 11 3 12 4 13 5 14 6 15 7 16 8 17 9 18 10 19 11
REMARK SMILES IDX 20 12 8 13 7 14 6 15 5 16 4 17 3 18 2 19 1 20
REMARK H PARENT
REMARK Flexibility Score: inf
ROOT
ATOM      1  C   UNL     1      -0.295  21.288  49.923  1.00  0.00    -0.031 C 
ATOM      2  C   UNL     1       0.253  20.623  48.890  1.00  0.00    -0.031 C 
ENDROOT
BRANCH   1   3
ATOM      3  C   UNL     1      -1.331  22.375  49.762  1.00  0.00     0.027 C 
BRANCH   3   4
ATOM      4  C   UNL     1      -2.656  21.977  50.423  1.00  0.00     0.004 C 
BRANCH   4   5
ATOM      5  C   UNL     1      -3.115  23.048  51.425  1.00  0.00     0.000 C 
BRANCH   5   6
ATOM      6  C   UNL     1      -1.943  23.695  52.179  1.00  0.00     0.000 C 
BRANCH   6   7
ATOM      7  C   UNL     1      -2.355  24.968  52.934  1.00  0.00     0.000 C 
BRANCH   7   8
ATOM      8  C   UNL     1      -3.101  25.938  52.008  1.00  0.00     0.006 C 
BRANCH   8   9
ATOM      9  C   UNL     1      -2.202  26.399  50.857  1.00  0.00     0.053 C 
BRANCH   9  10
ATOM     10  C   UNL     1      -2.918  26.272  49.550  1.00  0.00     0.041 C 
ATOM     11  O   UNL     1      -4.080  26.736  49.416  1.00  0.00    -0.550 OA
ATOM     12  O   UNL     1      -2.319  25.599  48.492  1.00  0.00    -0.550 OA
ENDBRANCH   9  10
ENDBRANCH   8   9
ENDBRANCH   7   8
ENDBRANCH   6   7
ENDBRANCH   5   6
ENDBRANCH   4   5
ENDBRANCH   3   4
ENDBRANCH   1   3
BRANCH   2  13
ATOM     13  C   UNL     1      -0.119  20.844  47.442  1.00  0.00     0.027 C 
BRANCH  13  14
ATOM     14  C   UNL     1      -0.113  19.534  46.629  1.00  0.00     0.004 C 
BRANCH  14  15
ATOM     15  C   UNL     1       0.494  18.340  47.385  1.00  0.00     0.000 C 
BRANCH  15  16
ATOM     16  C   UNL     1      -0.521  17.210  47.632  1.00  0.00     0.000 C 
BRANCH  16  17
ATOM     17  C   UNL     1      -0.819  16.996  49.125  1.00  0.00    -0.000 C 
BRANCH  17  18
ATOM     18  C   UNL     1      -2.043  17.796  49.602  1.00  0.00    -0.000 C 
BRANCH  18  19
ATOM     19  C   UNL     1      -3.146  17.874  48.535  1.00  0.00    -0.003 C 
ATOM     20  C   UNL     1      -3.461  19.308  48.110  1.00  0.00     0.004 C 
ENDBRANCH  18  19
ENDBRANCH  17  18
ENDBRANCH  16  17
ENDBRANCH  15  16
ENDBRANCH  14  15
ENDBRANCH  13  14
ENDBRANCH   2  13
TORSDOF 15
ENDMDL
MODEL 8
REMARK VINA RESULT:    -4.109      1.922      2.621
REMARK INTER + INTRA:         -10.300
REMARK INTER:                  -8.238
REMARK INTRA:                  -2.062
REMARK UNBOUND:                -2.588
REMARK SMILES CCCCCCCCC=CCCCCCCCC(=O)[O-]
REMARK SMILES IDX 10 1 9 2 11 3 12 4 13 5 14 6 15 7 16 8 17 9 18 10 19 11
REMARK SMILES IDX 20 12 8 13 7 14 6 15 5 16 4 17 3 18 2 19 1 20
REMARK H PARENT
REMARK Flexibility Score: inf
ROOT
ATOM      1  C   UNL     1      -1.553  20.267  48.141  1.00  0.00    -0.031 C 
ATOM      2  C   UNL     1      -0.462  20.771  48.747  1.00  0.00    -0.031 C 
ENDROOT
BRANCH   1   3
ATOM      3  C   UNL     1      -2.755  19.739  48.886  1.00  0.00     0.027 C 
BRANCH   3   4
ATOM      4  C   UNL     1      -3.014  18.268  48.544  1.00  0.00     0.004 C 
BRANCH   4   5
ATOM      5  C   UNL     1      -1.913  17.366  49.123  1.00  0.00     0.000 C 
BRANCH   5   6
ATOM      6  C   UNL     1      -1.459  16.278  48.137  1.00  0.00     0.000 C 
BRANCH   6   7
ATOM      7  C   UNL     1      -1.773  16.635  46.676  1.00  0.00     0.000 C 
BRANCH   7   8
ATOM      8  C   UNL     1      -0.563  17.291  45.998  1.00  0.00     0.006 C 
BRANCH   8   9
ATOM      9  C   UNL     1       0.639  16.343  45.982  1.00  0.00     0.053 C 
BRANCH   9  10
ATOM     10  C   UNL     1       1.806  16.962  46.683  1.00  0.00     0.041 C 
ATOM     11  O   UNL     1       2.943  16.426  46.618  1.00  0.00    -0.550 OA
ATOM     12  O   UNL     1       1.628  18.107  47.451  1.00  0.00    -0.550 OA
ENDBRANCH   9  10
ENDBRANCH   8   9
ENDBRANCH   7   8
ENDBRANCH   6   7
ENDBRANCH   5   6
ENDBRANCH   4   5
ENDBRANCH   3   4
ENDBRANCH   1   3
BRANCH   2  13
ATOM     13  C   UNL     1      -0.309  20.911  50.243  1.00  0.00     0.027 C 
BRANCH  13  14
ATOM     14  C   UNL     1       0.673  22.035  50.629  1.00  0.00     0.004 C 
BRANCH  14  15
ATOM     15  C   UNL     1       1.031  22.056  52.125  1.00  0.00     0.000 C 
BRANCH  15  16
ATOM     16  C   UNL     1      -0.094  22.635  53.001  1.00  0.00     0.000 C 
BRANCH  16  17
ATOM     17  C   UNL     1      -0.593  24.000  52.500  1.00  0.00    -0.000 C 
BRANCH  17  18
ATOM     18  C   UNL     1      -2.124  24.127  52.565  1.00  0.00    -0.000 C 
BRANCH  18  19
ATOM     19  C   UNL     1      -2.817  23.525  51.332  1.00  0.00    -0.003 C 
ATOM     20  C   UNL     1      -2.263  24.067  50.014  1.00  0.00     0.004 C 
ENDBRANCH  18  19
ENDBRANCH  17  18
ENDBRANCH  16  17
ENDBRANCH  15  16
ENDBRANCH  14  15
ENDBRANCH  13  14
ENDBRANCH   2  13
TORSDOF 15
ENDMDL
MODEL 9
REMARK VINA RESULT:    -3.662      3.321      6.348
REMARK INTER + INTRA:          -9.461
REMARK INTER:                  -7.320
REMARK INTRA:                  -2.141
REMARK UNBOUND:                -2.588
REMARK SMILES CCCCCCCCC=CCCCCCCCC(=O)[O-]
REMARK SMILES IDX 10 1 9 2 11 3 12 4 13 5 14 6 15 7 16 8 17 9 18 10 19 11
REMARK SMILES IDX 20 12 8 13 7 14 6 15 5 16 4 17 3 18 2 19 1 20
REMARK H PARENT
REMARK Flexibility Score: inf
ROOT
ATOM      1  C   UNL     1       0.267  17.989  46.641  1.00  0.00    -0.031 C 
ATOM      2  C   UNL     1       1.531  17.704  47.005  1.00  0.00    -0.031 C 
ENDROOT
BRANCH   1   3
ATOM      3  C   UNL     1      -0.581  17.080  45.785  1.00  0.00     0.027 C 
BRANCH   3   4
ATOM      4  C   UNL     1      -1.833  16.620  46.540  1.00  0.00     0.004 C 
BRANCH   4   5
ATOM      5  C   UNL     1      -1.491  16.233  47.988  1.00  0.00     0.000 C 
BRANCH   5   6
ATOM      6  C   UNL     1      -2.261  17.070  49.022  1.00  0.00     0.000 C 
BRANCH   6   7
ATOM      7  C   UNL     1      -3.135  18.155  48.373  1.00  0.00     0.000 C 
BRANCH   7   8
ATOM      8  C   UNL     1      -2.739  19.551  48.872  1.00  0.00     0.006 C 
BRANCH   8   9
ATOM      9  C   UNL     1      -1.400  19.509  49.615  1.00  0.00     0.053 C 
BRANCH   9  10
ATOM     10  C   UNL     1      -0.653  20.790  49.422  1.00  0.00     0.041 C 
ATOM     11  O   UNL     1      -1.179  21.886  49.750  1.00  0.00    -0.550 OA
ATOM     12  O   UNL     1       0.606  20.780  48.835  1.00  0.00    -0.550 OA
ENDBRANCH   9  10
ENDBRANCH   8   9
ENDBRANCH   7   8
ENDBRANCH   6   7
ENDBRANCH   5   6
ENDBRANCH   4   5
ENDBRANCH   3   4
ENDBRANCH   1   3
BRANCH   2  13
ATOM     13  C   UNL     1       2.254  16.428  46.642  1.00  0.00     0.027 C 
BRANCH  13  14
ATOM     14  C   UNL     1       3.338  16.653  45.570  1.00  0.00     0.004 C 
BRANCH  14  15
ATOM     15  C   UNL     1       4.728  16.135  45.979  1.00  0.00     0.000 C 
BRANCH  15  16
ATOM     16  C   UNL     1       4.848  15.875  47.490  1.00  0.00     0.000 C 
BRANCH  16  17
ATOM     17  C   UNL     1       6.190  16.352  48.069  1.00  0.00    -0.000 C 
BRANCH  17  18
ATOM     18  C   UNL     1       6.304  17.885  48.106  1.00  0.00    -0.000 C 
BRANCH  18  19
ATOM     19  C   UNL     1       5.146  18.543  48.871  1.00  0.00    -0.003 C 
ATOM     20  C   UNL     1       4.479  19.672  48.084  1.00  0.00     0.004 C 
ENDBRANCH  18  19
ENDBRANCH  17  18
ENDBRANCH  16  17
ENDBRANCH  15  16
ENDBRANCH  14  15
ENDBRANCH  13  14
ENDBRANCH   2  13
TORSDOF 15
ENDMDL
