MODEL 1
REMARK VINA RESULT:    -5.404      0.000      0.000
REMARK INTER + INTRA:          -7.017
REMARK INTER:                  -6.668
REMARK INTRA:                  -0.349
REMARK UNBOUND:                -0.349
REMARK SMILES Oc1cc(O)c2cc(O)c(-c3cc(O)c(O)c(O)c3)[o+]c2c1
REMARK SMILES IDX 10 1 20 2 21 3 22 4 2 5 3 6 4 7 6 8 7 9 8 10 11 11 12 12
REMARK SMILES IDX 13 13 19 14 15 15 17 16 14 17 16 19 18 21 9 23 1 25 5 27
REMARK H PARENT 14 18 16 20 18 22 9 24 1 26 5 28
REMARK Flexibility Score: inf
ROOT
ATOM      1  C   UNL     1      -4.640 -13.461  32.586  1.00  0.00     0.402 A 
ATOM      2  O   UNL     1      -4.787 -12.382  33.350  1.00  0.00    -0.202 OA
ATOM      3  C   UNL     1      -5.637 -12.321  34.370  1.00  0.00     0.368 A 
ATOM      4  C   UNL     1      -5.722 -11.141  35.114  1.00  0.00     0.162 A 
ATOM      5  C   UNL     1      -6.610 -11.049  36.191  1.00  0.00     0.128 A 
ATOM      6  C   UNL     1      -7.415 -12.140  36.523  1.00  0.00     0.093 A 
ATOM      7  C   UNL     1      -7.348 -13.333  35.794  1.00  0.00     0.136 A 
ATOM      8  C   UNL     1      -6.447 -13.434  34.702  1.00  0.00     0.125 A 
ATOM      9  C   UNL     1      -6.303 -14.594  33.924  1.00  0.00     0.078 A 
ATOM     10  C   UNL     1      -5.390 -14.619  32.865  1.00  0.00     0.223 A 
ENDROOT
BRANCH   1  11
ATOM     11  C   UNL     1      -3.667 -13.403  31.472  1.00  0.00     0.091 A 
ATOM     12  C   UNL     1      -2.293 -13.442  31.753  1.00  0.00     0.068 A 
ATOM     13  C   UNL     1      -1.350 -13.368  30.718  1.00  0.00     0.162 A 
ATOM     14  C   UNL     1      -4.089 -13.252  30.140  1.00  0.00     0.068 A 
ATOM     15  C   UNL     1      -1.779 -13.238  29.387  1.00  0.00     0.200 A 
ATOM     16  C   UNL     1      -3.155 -13.175  29.101  1.00  0.00     0.162 A 
BRANCH  13  17
ATOM     17  O   UNL     1       0.012 -13.422  31.010  1.00  0.00    -0.504 OA
ATOM     18  H   UNL     1       0.475 -14.297  31.223  1.00  0.00     0.293 HD
ENDBRANCH  13  17
BRANCH  15  19
ATOM     19  O   UNL     1      -0.854 -13.166  28.344  1.00  0.00    -0.502 OA
ATOM     20  H   UNL     1      -0.419 -13.991  27.950  1.00  0.00     0.293 HD
ENDBRANCH  15  19
BRANCH  16  21
ATOM     21  O   UNL     1      -3.612 -13.032  27.791  1.00  0.00    -0.504 OA
ATOM     22  H   UNL     1      -4.591 -12.886  27.575  1.00  0.00     0.293 HD
ENDBRANCH  16  21
ENDBRANCH   1  11
BRANCH  10  23
ATOM     23  O   UNL     1      -5.211 -15.787  32.124  1.00  0.00    -0.500 OA
ATOM     24  H   UNL     1      -5.882 -16.546  32.155  1.00  0.00     0.294 HD
ENDBRANCH  10  23
BRANCH   5  25
ATOM     25  O   UNL     1      -6.700  -9.875  36.936  1.00  0.00    -0.507 OA
ATOM     26  H   UNL     1      -6.319  -9.000  36.595  1.00  0.00     0.293 HD
ENDBRANCH   5  25
BRANCH   7  27
ATOM     27  O   UNL     1      -8.190 -14.377  36.189  1.00  0.00    -0.507 OA
ATOM     28  H   UNL     1      -9.191 -14.297  36.285  1.00  0.00     0.293 HD
ENDBRANCH   7  27
TORSDOF 7
ENDMDL
MODEL 2
REMARK VINA RESULT:    -5.372      0.216      1.802
REMARK INTER + INTRA:          -6.977
REMARK INTER:                  -6.621
REMARK INTRA:                  -0.356
REMARK UNBOUND:                -0.349
REMARK SMILES Oc1cc(O)c2cc(O)c(-c3cc(O)c(O)c(O)c3)[o+]c2c1
REMARK SMILES IDX 10 1 20 2 21 3 22 4 2 5 3 6 4 7 6 8 7 9 8 10 11 11 12 12
REMARK SMILES IDX 13 13 19 14 15 15 17 16 14 17 16 19 18 21 9 23 1 25 5 27
REMARK H PARENT 14 18 16 20 18 22 9 24 1 26 5 28
REMARK Flexibility Score: inf
ROOT
ATOM      1  C   UNL     1      -4.619 -13.268  32.641  1.00  0.00     0.402 A 
ATOM      2  O   UNL     1      -4.788 -12.219  33.442  1.00  0.00    -0.202 OA
ATOM      3  C   UNL     1      -5.643 -12.210  34.459  1.00  0.00     0.368 A 
ATOM      4  C   UNL     1      -5.753 -11.058  35.244  1.00  0.00     0.162 A 
ATOM      5  C   UNL     1      -6.646 -11.020  36.319  1.00  0.00     0.128 A 
ATOM      6  C   UNL     1      -7.433 -12.136  36.609  1.00  0.00     0.093 A 
ATOM      7  C   UNL     1      -7.341 -13.302  35.839  1.00  0.00     0.136 A 
ATOM      8  C   UNL     1      -6.434 -13.348  34.749  1.00  0.00     0.125 A 
ATOM      9  C   UNL     1      -6.266 -14.477  33.931  1.00  0.00     0.078 A 
ATOM     10  C   UNL     1      -5.348 -14.448  32.876  1.00  0.00     0.223 A 
ENDROOT
BRANCH   1  11
ATOM     11  C   UNL     1      -3.642 -13.152  31.534  1.00  0.00     0.091 A 
ATOM     12  C   UNL     1      -4.102 -12.909  30.230  1.00  0.00     0.068 A 
ATOM     13  C   UNL     1      -3.200 -12.816  29.161  1.00  0.00     0.162 A 
ATOM     14  C   UNL     1      -2.266 -13.338  31.750  1.00  0.00     0.068 A 
ATOM     15  C   UNL     1      -1.824 -12.982  29.389  1.00  0.00     0.200 A 
ATOM     16  C   UNL     1      -1.360 -13.250  30.689  1.00  0.00     0.162 A 
BRANCH  13  17
ATOM     17  O   UNL     1      -3.669 -12.561  27.873  1.00  0.00    -0.504 OA
ATOM     18  H   UNL     1      -3.272 -11.827  27.300  1.00  0.00     0.293 HD
ENDBRANCH  13  17
BRANCH  15  19
ATOM     19  O   UNL     1      -0.912 -12.890  28.336  1.00  0.00    -0.502 OA
ATOM     20  H   UNL     1      -1.032 -12.234  27.573  1.00  0.00     0.293 HD
ENDBRANCH  15  19
BRANCH  16  21
ATOM     21  O   UNL     1      -0.001 -13.433  30.944  1.00  0.00    -0.504 OA
ATOM     22  H   UNL     1       0.562 -12.726  31.401  1.00  0.00     0.293 HD
ENDBRANCH  16  21
ENDBRANCH   1  11
BRANCH  10  23
ATOM     23  O   UNL     1      -5.144 -15.585  32.094  1.00  0.00    -0.500 OA
ATOM     24  H   UNL     1      -5.577 -15.690  31.183  1.00  0.00     0.294 HD
ENDBRANCH  10  23
BRANCH   5  25
ATOM     25  O   UNL     1      -6.761  -9.875  37.105  1.00  0.00    -0.507 OA
ATOM     26  H   UNL     1      -7.267  -9.883  37.983  1.00  0.00     0.293 HD
ENDBRANCH   5  25
BRANCH   7  27
ATOM     27  O   UNL     1      -8.165 -14.375  36.194  1.00  0.00    -0.507 OA
ATOM     28  H   UNL     1      -8.294 -14.706  37.138  1.00  0.00     0.293 HD
ENDBRANCH   7  27
TORSDOF 7
ENDMDL
MODEL 3
REMARK VINA RESULT:    -4.374      1.024      2.562
REMARK INTER + INTRA:          -5.745
REMARK INTER:                  -5.365
REMARK INTRA:                  -0.380
REMARK UNBOUND:                -0.349
REMARK SMILES Oc1cc(O)c2cc(O)c(-c3cc(O)c(O)c(O)c3)[o+]c2c1
REMARK SMILES IDX 10 1 20 2 21 3 22 4 2 5 3 6 4 7 6 8 7 9 8 10 11 11 12 12
REMARK SMILES IDX 13 13 19 14 15 15 17 16 14 17 16 19 18 21 9 23 1 25 5 27
REMARK H PARENT 14 18 16 20 18 22 9 24 1 26 5 28
REMARK Flexibility Score: inf
ROOT
ATOM      1  C   UNL     1      -4.494 -12.240  32.539  1.00  0.00     0.402 A 
ATOM      2  O   UNL     1      -5.230 -13.121  33.211  1.00  0.00    -0.202 OA
ATOM      3  C   UNL     1      -5.962 -12.800  34.272  1.00  0.00     0.368 A 
ATOM      4  C   UNL     1      -6.701 -13.797  34.915  1.00  0.00     0.162 A 
ATOM      5  C   UNL     1      -7.478 -13.487  36.036  1.00  0.00     0.128 A 
ATOM      6  C   UNL     1      -7.514 -12.177  36.516  1.00  0.00     0.093 A 
ATOM      7  C   UNL     1      -6.783 -11.160  35.890  1.00  0.00     0.136 A 
ATOM      8  C   UNL     1      -5.996 -11.468  34.751  1.00  0.00     0.125 A 
ATOM      9  C   UNL     1      -5.241 -10.511  34.052  1.00  0.00     0.078 A 
ATOM     10  C   UNL     1      -4.492 -10.890  32.933  1.00  0.00     0.223 A 
ENDROOT
BRANCH   1  11
ATOM     11  C   UNL     1      -3.712 -12.723  31.377  1.00  0.00     0.091 A 
ATOM     12  C   UNL     1      -2.377 -13.115  31.557  1.00  0.00     0.068 A 
ATOM     13  C   UNL     1      -1.609 -13.556  30.471  1.00  0.00     0.162 A 
ATOM     14  C   UNL     1      -4.262 -12.741  30.083  1.00  0.00     0.068 A 
ATOM     15  C   UNL     1      -2.172 -13.592  29.184  1.00  0.00     0.200 A 
ATOM     16  C   UNL     1      -3.502 -13.178  28.993  1.00  0.00     0.162 A 
BRANCH  13  17
ATOM     17  O   UNL     1      -0.289 -13.957  30.667  1.00  0.00    -0.504 OA
ATOM     18  H   UNL     1       0.049 -14.853  30.338  1.00  0.00     0.293 HD
ENDBRANCH  13  17
BRANCH  15  19
ATOM     19  O   UNL     1      -1.423 -14.031  28.091  1.00  0.00    -0.502 OA
ATOM     20  H   UNL     1      -1.851 -14.276  27.206  1.00  0.00     0.293 HD
ENDBRANCH  15  19
BRANCH  16  21
ATOM     21  O   UNL     1      -4.084 -13.189  27.726  1.00  0.00    -0.504 OA
ATOM     22  H   UNL     1      -3.942 -12.438  27.061  1.00  0.00     0.293 HD
ENDBRANCH  16  21
ENDBRANCH   1  11
BRANCH  10  23
ATOM     23  O   UNL     1      -3.782  -9.931  32.210  1.00  0.00    -0.500 OA
ATOM     24  H   UNL     1      -3.538 -10.072  31.235  1.00  0.00     0.294 HD
ENDBRANCH  10  23
BRANCH   5  25
ATOM     25  O   UNL     1      -8.217 -14.476  36.681  1.00  0.00    -0.507 OA
ATOM     26  H   UNL     1      -8.834 -15.097  36.169  1.00  0.00     0.293 HD
ENDBRANCH   5  25
BRANCH   7  27
ATOM     27  O   UNL     1      -6.871  -9.875  36.434  1.00  0.00    -0.507 OA
ATOM     28  H   UNL     1      -6.976  -9.679  37.418  1.00  0.00     0.293 HD
ENDBRANCH   7  27
TORSDOF 7
ENDMDL
MODEL 4
REMARK VINA RESULT:    -4.329      1.062      3.143
REMARK INTER + INTRA:          -5.690
REMARK INTER:                  -5.305
REMARK INTRA:                  -0.384
REMARK UNBOUND:                -0.349
REMARK SMILES Oc1cc(O)c2cc(O)c(-c3cc(O)c(O)c(O)c3)[o+]c2c1
REMARK SMILES IDX 10 1 20 2 21 3 22 4 2 5 3 6 4 7 6 8 7 9 8 10 11 11 12 12
REMARK SMILES IDX 13 13 19 14 15 15 17 16 14 17 16 19 18 21 9 23 1 25 5 27
REMARK H PARENT 14 18 16 20 18 22 9 24 1 26 5 28
REMARK Flexibility Score: inf
ROOT
ATOM      1  C   UNL     1      -4.481 -12.204  32.515  1.00  0.00     0.402 A 
ATOM      2  O   UNL     1      -5.213 -13.089  33.186  1.00  0.00    -0.202 OA
ATOM      3  C   UNL     1      -5.926 -12.778  34.264  1.00  0.00     0.368 A 
ATOM      4  C   UNL     1      -6.661 -13.780  34.905  1.00  0.00     0.162 A 
ATOM      5  C   UNL     1      -7.418 -13.481  36.042  1.00  0.00     0.128 A 
ATOM      6  C   UNL     1      -7.437 -12.177  36.541  1.00  0.00     0.093 A 
ATOM      7  C   UNL     1      -6.709 -11.156  35.918  1.00  0.00     0.136 A 
ATOM      8  C   UNL     1      -5.942 -11.453  34.762  1.00  0.00     0.125 A 
ATOM      9  C   UNL     1      -5.192 -10.492  34.064  1.00  0.00     0.078 A 
ATOM     10  C   UNL     1      -4.464 -10.860  32.929  1.00  0.00     0.223 A 
ENDROOT
BRANCH   1  11
ATOM     11  C   UNL     1      -3.722 -12.675  31.334  1.00  0.00     0.091 A 
ATOM     12  C   UNL     1      -4.377 -12.805  30.100  1.00  0.00     0.068 A 
ATOM     13  C   UNL     1      -3.687 -13.268  28.971  1.00  0.00     0.162 A 
ATOM     14  C   UNL     1      -2.372 -13.050  31.434  1.00  0.00     0.068 A 
ATOM     15  C   UNL     1      -2.332 -13.621  29.074  1.00  0.00     0.200 A 
ATOM     16  C   UNL     1      -1.676 -13.515  30.314  1.00  0.00     0.162 A 
BRANCH  13  17
ATOM     17  O   UNL     1      -4.346 -13.380  27.747  1.00  0.00    -0.504 OA
ATOM     18  H   UNL     1      -4.004 -13.988  27.013  1.00  0.00     0.293 HD
ENDBRANCH  13  17
BRANCH  15  19
ATOM     19  O   UNL     1      -1.628 -14.082  27.960  1.00  0.00    -0.502 OA
ATOM     20  H   UNL     1      -0.817 -13.596  27.595  1.00  0.00     0.293 HD
ENDBRANCH  15  19
BRANCH  16  21
ATOM     21  O   UNL     1      -0.335 -13.871  30.451  1.00  0.00    -0.504 OA
ATOM     22  H   UNL     1      -0.025 -14.548  31.138  1.00  0.00     0.293 HD
ENDBRANCH  16  21
ENDBRANCH   1  11
BRANCH  10  23
ATOM     23  O   UNL     1      -3.759  -9.895  32.207  1.00  0.00    -0.500 OA
ATOM     24  H   UNL     1      -3.403 -10.081  31.276  1.00  0.00     0.294 HD
ENDBRANCH  10  23
BRANCH   5  25
ATOM     25  O   UNL     1      -8.153 -14.474  36.685  1.00  0.00    -0.507 OA
ATOM     26  H   UNL     1      -7.703 -15.276  37.110  1.00  0.00     0.293 HD
ENDBRANCH   5  25
BRANCH   7  27
ATOM     27  O   UNL     1      -6.778  -9.879  36.482  1.00  0.00    -0.507 OA
ATOM     28  H   UNL     1      -7.254  -9.662  37.345  1.00  0.00     0.293 HD
ENDBRANCH   7  27
TORSDOF 7
ENDMDL
MODEL 5
REMARK VINA RESULT:    -3.455      1.485      7.051
REMARK INTER + INTRA:          -4.612
REMARK INTER:                  -4.653
REMARK INTRA:                   0.041
REMARK UNBOUND:                -0.349
REMARK SMILES Oc1cc(O)c2cc(O)c(-c3cc(O)c(O)c(O)c3)[o+]c2c1
REMARK SMILES IDX 10 1 20 2 21 3 22 4 2 5 3 6 4 7 6 8 7 9 8 10 11 11 12 12
REMARK SMILES IDX 13 13 19 14 15 15 17 16 14 17 16 19 18 21 9 23 1 25 5 27
REMARK H PARENT 14 18 16 20 18 22 9 24 1 26 5 28
REMARK Flexibility Score: inf
ROOT
ATOM      1  C   UNL     1      -4.502 -12.800  32.502  1.00  0.00     0.402 A 
ATOM      2  O   UNL     1      -4.450 -11.846  31.576  1.00  0.00    -0.202 OA
ATOM      3  C   UNL     1      -3.739 -11.953  30.458  1.00  0.00     0.368 A 
ATOM      4  C   UNL     1      -3.743 -10.895  29.545  1.00  0.00     0.162 A 
ATOM      5  C   UNL     1      -3.002 -10.981  28.362  1.00  0.00     0.128 A 
ATOM      6  C   UNL     1      -2.253 -12.128  28.093  1.00  0.00     0.093 A 
ATOM      7  C   UNL     1      -2.231 -13.201  28.991  1.00  0.00     0.136 A 
ATOM      8  C   UNL     1      -2.984 -13.121  30.192  1.00  0.00     0.125 A 
ATOM      9  C   UNL     1      -3.033 -14.153  31.143  1.00  0.00     0.078 A 
ATOM     10  C   UNL     1      -3.801 -14.003  32.302  1.00  0.00     0.223 A 
ENDROOT
BRANCH   1  11
ATOM     11  C   UNL     1      -5.323 -12.557  33.710  1.00  0.00     0.091 A 
ATOM     12  C   UNL     1      -6.206 -13.553  34.156  1.00  0.00     0.068 A 
ATOM     13  C   UNL     1      -7.009 -13.342  35.285  1.00  0.00     0.162 A 
ATOM     14  C   UNL     1      -5.280 -11.328  34.389  1.00  0.00     0.068 A 
ATOM     15  C   UNL     1      -6.945 -12.118  35.971  1.00  0.00     0.200 A 
ATOM     16  C   UNL     1      -6.080 -11.107  35.515  1.00  0.00     0.162 A 
BRANCH  13  17
ATOM     17  O   UNL     1      -7.871 -14.345  35.726  1.00  0.00    -0.504 OA
ATOM     18  H   UNL     1      -8.752 -14.128  36.176  1.00  0.00     0.293 HD
ENDBRANCH  13  17
BRANCH  15  19
ATOM     19  O   UNL     1      -7.736 -11.891  37.099  1.00  0.00    -0.502 OA
ATOM     20  H   UNL     1      -7.538 -11.145  37.756  1.00  0.00     0.293 HD
ENDBRANCH  15  19
BRANCH  16  21
ATOM     21  O   UNL     1      -6.004  -9.876  36.167  1.00  0.00    -0.504 OA
ATOM     22  H   UNL     1      -5.177  -9.585  36.674  1.00  0.00     0.293 HD
ENDBRANCH  16  21
ENDBRANCH   1  11
BRANCH  10  23
ATOM     23  O   UNL     1      -3.890 -15.047  33.223  1.00  0.00    -0.500 OA
ATOM     24  H   UNL     1      -3.062 -15.497  33.599  1.00  0.00     0.294 HD
ENDBRANCH  10  23
BRANCH   5  25
ATOM     25  O   UNL     1      -3.002  -9.930  27.448  1.00  0.00    -0.507 OA
ATOM     26  H   UNL     1      -2.405  -9.939  26.630  1.00  0.00     0.293 HD
ENDBRANCH   5  25
BRANCH   7  27
ATOM     27  O   UNL     1      -1.454 -14.312  28.649  1.00  0.00    -0.507 OA
ATOM     28  H   UNL     1      -0.487 -14.433  28.912  1.00  0.00     0.293 HD
ENDBRANCH   7  27
TORSDOF 7
ENDMDL
MODEL 6
REMARK VINA RESULT:    -3.369      1.471      7.019
REMARK INTER + INTRA:          -4.505
REMARK INTER:                  -4.474
REMARK INTRA:                  -0.031
REMARK UNBOUND:                -0.349
REMARK SMILES Oc1cc(O)c2cc(O)c(-c3cc(O)c(O)c(O)c3)[o+]c2c1
REMARK SMILES IDX 10 1 20 2 21 3 22 4 2 5 3 6 4 7 6 8 7 9 8 10 11 11 12 12
REMARK SMILES IDX 13 13 19 14 15 15 17 16 14 17 16 19 18 21 9 23 1 25 5 27
REMARK H PARENT 14 18 16 20 18 22 9 24 1 26 5 28
REMARK Flexibility Score: inf
ROOT
ATOM      1  C   UNL     1      -4.427 -12.868  32.361  1.00  0.00     0.402 A 
ATOM      2  O   UNL     1      -4.448 -11.985  31.366  1.00  0.00    -0.202 OA
ATOM      3  C   UNL     1      -3.713 -12.107  30.266  1.00  0.00     0.368 A 
ATOM      4  C   UNL     1      -3.800 -11.124  29.277  1.00  0.00     0.162 A 
ATOM      5  C   UNL     1      -3.036 -11.227  28.110  1.00  0.00     0.128 A 
ATOM      6  C   UNL     1      -2.180 -12.316  27.934  1.00  0.00     0.093 A 
ATOM      7  C   UNL     1      -2.075 -13.315  28.910  1.00  0.00     0.136 A 
ATOM      8  C   UNL     1      -2.850 -13.217  30.094  1.00  0.00     0.125 A 
ATOM      9  C   UNL     1      -2.818 -14.176  31.120  1.00  0.00     0.078 A 
ATOM     10  C   UNL     1      -3.616 -14.013  32.257  1.00  0.00     0.223 A 
ENDROOT
BRANCH   1  11
ATOM     11  C   UNL     1      -5.285 -12.615  33.540  1.00  0.00     0.091 A 
ATOM     12  C   UNL     1      -5.214 -11.375  34.193  1.00  0.00     0.068 A 
ATOM     13  C   UNL     1      -6.001 -11.117  35.324  1.00  0.00     0.162 A 
ATOM     14  C   UNL     1      -6.130 -13.613  34.057  1.00  0.00     0.068 A 
ATOM     15  C   UNL     1      -6.859 -12.112  35.822  1.00  0.00     0.200 A 
ATOM     16  C   UNL     1      -6.917 -13.364  35.187  1.00  0.00     0.162 A 
BRANCH  13  17
ATOM     17  O   UNL     1      -5.931  -9.876  35.954  1.00  0.00    -0.504 OA
ATOM     18  H   UNL     1      -5.470  -9.085  35.520  1.00  0.00     0.293 HD
ENDBRANCH  13  17
BRANCH  15  19
ATOM     19  O   UNL     1      -7.651 -11.871  36.946  1.00  0.00    -0.502 OA
ATOM     20  H   UNL     1      -7.455 -12.295  37.846  1.00  0.00     0.293 HD
ENDBRANCH  15  19
BRANCH  16  21
ATOM     21  O   UNL     1      -7.748 -14.377  35.666  1.00  0.00    -0.504 OA
ATOM     22  H   UNL     1      -7.560 -14.862  36.536  1.00  0.00     0.293 HD
ENDBRANCH  16  21
ENDBRANCH   1  11
BRANCH  10  23
ATOM     23  O   UNL     1      -3.622 -14.990  33.253  1.00  0.00    -0.500 OA
ATOM     24  H   UNL     1      -3.630 -14.748  34.237  1.00  0.00     0.294 HD
ENDBRANCH  10  23
BRANCH   5  25
ATOM     25  O   UNL     1      -3.119 -10.251  27.120  1.00  0.00    -0.507 OA
ATOM     26  H   UNL     1      -2.602 -10.330  26.252  1.00  0.00     0.293 HD
ENDBRANCH   5  25
BRANCH   7  27
ATOM     27  O   UNL     1      -1.193 -14.370  28.658  1.00  0.00    -0.507 OA
ATOM     28  H   UNL     1      -1.464 -15.257  28.262  1.00  0.00     0.293 HD
ENDBRANCH   7  27
TORSDOF 7
ENDMDL
