MODEL 1
REMARK VINA RESULT:    -2.701      0.000      0.000
REMARK INTER + INTRA:          -3.464
REMARK INTER:                  -3.175
REMARK INTRA:                  -0.289
REMARK UNBOUND:                -0.289
REMARK SMILES O=c1cc(-c2ccc(O)c(O)c2)oc2cc(O)cc(O)c12
REMARK SMILES IDX 4 1 3 2 2 3 1 4 21 5 19 6 18 7 16 8 15 9 14 10 13 11 5 12
REMARK SMILES IDX 6 13 7 14 8 15 12 16 10 17 9 18 11 20 20 22 17 24
REMARK H PARENT 9 19 11 21 20 23 17 25
REMARK Flexibility Score: inf
ROOT
ATOM      1  C   UNL     1      -9.260  -5.153   3.871  1.00  0.00     0.138 A 
ATOM      2  C   UNL     1      -9.812  -5.656   2.685  1.00  0.00     0.100 A 
ATOM      3  C   UNL     1      -9.564  -6.978   2.314  1.00  0.00     0.197 A 
ATOM      4  O   UNL     1     -10.125  -7.419   1.278  1.00  0.00    -0.289 OA
ATOM      5  C   UNL     1      -8.731  -7.790   3.120  1.00  0.00     0.107 A 
ATOM      6  C   UNL     1      -8.376  -9.139   2.820  1.00  0.00     0.134 A 
ATOM      7  C   UNL     1      -7.639  -9.882   3.751  1.00  0.00     0.093 A 
ATOM      8  C   UNL     1      -7.195  -9.308   4.942  1.00  0.00     0.123 A 
ATOM      9  C   UNL     1      -7.491  -7.973   5.221  1.00  0.00     0.094 A 
ATOM     10  C   UNL     1      -8.253  -7.216   4.328  1.00  0.00     0.146 A 
ATOM     11  O   UNL     1      -8.527  -5.953   4.638  1.00  0.00    -0.456 OA
ENDROOT
BRANCH   1  12
ATOM     12  C   UNL     1      -9.491  -3.754   4.312  1.00  0.00     0.021 A 
ATOM     13  C   UNL     1      -9.467  -3.449   5.684  1.00  0.00     0.016 A 
ATOM     14  C   UNL     1      -9.674  -2.140   6.125  1.00  0.00     0.051 A 
ATOM     15  C   UNL     1      -9.899  -1.111   5.202  1.00  0.00     0.157 A 
ATOM     16  C   UNL     1      -9.705  -2.712   3.388  1.00  0.00     0.062 A 
ATOM     17  C   UNL     1      -9.912  -1.397   3.831  1.00  0.00     0.158 A 
BRANCH  15  18
ATOM     18  O   UNL     1     -10.108   0.196   5.638  1.00  0.00    -0.504 OA
ATOM     19  H   UNL     1     -10.953   0.704   5.408  1.00  0.00     0.293 HD
ENDBRANCH  15  18
BRANCH  17  20
ATOM     20  O   UNL     1     -10.124  -0.369   2.915  1.00  0.00    -0.504 OA
ATOM     21  H   UNL     1     -10.854   0.321   3.052  1.00  0.00     0.293 HD
ENDBRANCH  17  20
ENDBRANCH   1  12
BRANCH   6  22
ATOM     22  O   UNL     1      -8.696  -9.783   1.621  1.00  0.00    -0.507 OA
ATOM     23  H   UNL     1      -9.284  -9.397   0.898  1.00  0.00     0.293 HD
ENDBRANCH   6  22
BRANCH   8  24
ATOM     24  O   UNL     1      -6.451 -10.072   5.838  1.00  0.00    -0.508 OA
ATOM     25  H   UNL     1      -6.701 -11.031   6.052  1.00  0.00     0.293 HD
ENDBRANCH   8  24
TORSDOF 5
ENDMDL
MODEL 2
REMARK VINA RESULT:    -1.927     14.404     15.893
REMARK INTER + INTRA:          -2.554
REMARK INTER:                  -2.249
REMARK INTRA:                  -0.305
REMARK UNBOUND:                -0.289
REMARK SMILES O=c1cc(-c2ccc(O)c(O)c2)oc2cc(O)cc(O)c12
REMARK SMILES IDX 4 1 3 2 2 3 1 4 21 5 19 6 18 7 16 8 15 9 14 10 13 11 5 12
REMARK SMILES IDX 6 13 7 14 8 15 12 16 10 17 9 18 11 20 20 22 17 24
REMARK H PARENT 9 19 11 21 20 23 17 25
REMARK Flexibility Score: inf
ROOT
ATOM      1  C   UNL     1      -9.055  -4.976 -12.317  1.00  0.00     0.138 A 
ATOM      2  C   UNL     1      -9.336  -5.891 -13.340  1.00  0.00     0.100 A 
ATOM      3  C   UNL     1      -9.162  -7.257 -13.111  1.00  0.00     0.197 A 
ATOM      4  O   UNL     1      -9.483  -8.057 -14.027  1.00  0.00    -0.289 OA
ATOM      5  C   UNL     1      -8.674  -7.704 -11.861  1.00  0.00     0.107 A 
ATOM      6  C   UNL     1      -8.420  -9.068 -11.528  1.00  0.00     0.134 A 
ATOM      7  C   UNL     1      -8.047  -9.402 -10.220  1.00  0.00     0.093 A 
ATOM      8  C   UNL     1      -7.863  -8.418  -9.250  1.00  0.00     0.123 A 
ATOM      9  C   UNL     1      -8.057  -7.075  -9.578  1.00  0.00     0.094 A 
ATOM     10  C   UNL     1      -8.461  -6.713 -10.865  1.00  0.00     0.146 A 
ATOM     11  O   UNL     1      -8.650  -5.425 -11.134  1.00  0.00    -0.456 OA
ENDROOT
BRANCH   1  12
ATOM     12  C   UNL     1      -9.222  -3.512 -12.507  1.00  0.00     0.021 A 
ATOM     13  C   UNL     1      -9.032  -2.955 -13.784  1.00  0.00     0.016 A 
ATOM     14  C   UNL     1      -9.189  -1.583 -13.991  1.00  0.00     0.051 A 
ATOM     15  C   UNL     1      -9.548  -0.745 -12.928  1.00  0.00     0.157 A 
ATOM     16  C   UNL     1      -9.596  -2.665 -11.445  1.00  0.00     0.062 A 
ATOM     17  C   UNL     1      -9.756  -1.287 -11.654  1.00  0.00     0.158 A 
BRANCH  15  18
ATOM     18  O   UNL     1      -9.705   0.625 -13.131  1.00  0.00    -0.504 OA
ATOM     19  H   UNL     1      -9.112   1.137 -13.773  1.00  0.00     0.293 HD
ENDBRANCH  15  18
BRANCH  17  20
ATOM     20  O   UNL     1     -10.125  -0.452 -10.602  1.00  0.00    -0.504 OA
ATOM     21  H   UNL     1      -9.465  -0.186  -9.880  1.00  0.00     0.293 HD
ENDBRANCH  17  20
ENDBRANCH   1  12
BRANCH   6  22
ATOM     22  O   UNL     1      -8.492 -10.122 -12.445  1.00  0.00    -0.507 OA
ATOM     23  H   UNL     1      -8.382 -10.026 -13.443  1.00  0.00     0.293 HD
ENDBRANCH   6  22
BRANCH   8  24
ATOM     24  O   UNL     1      -7.478  -8.785  -7.962  1.00  0.00    -0.508 OA
ATOM     25  H   UNL     1      -6.503  -8.816  -7.689  1.00  0.00     0.293 HD
ENDBRANCH   8  24
TORSDOF 5
ENDMDL
MODEL 3
REMARK VINA RESULT:    -0.126     14.647     16.315
REMARK INTER + INTRA:          -0.437
REMARK INTER:                  -0.154
REMARK INTRA:                  -0.283
REMARK UNBOUND:                -0.289
REMARK SMILES O=c1cc(-c2ccc(O)c(O)c2)oc2cc(O)cc(O)c12
REMARK SMILES IDX 4 1 3 2 2 3 1 4 21 5 19 6 18 7 16 8 15 9 14 10 13 11 5 12
REMARK SMILES IDX 6 13 7 14 8 15 12 16 10 17 9 18 11 20 20 22 17 24
REMARK H PARENT 9 19 11 21 20 23 17 25
REMARK Flexibility Score: inf
ROOT
ATOM      1  C   UNL     1      -9.069  -4.435 -11.887  1.00  0.00     0.138 A 
ATOM      2  C   UNL     1      -8.611  -4.770 -10.605  1.00  0.00     0.100 A 
ATOM      3  C   UNL     1      -8.537  -6.112 -10.228  1.00  0.00     0.197 A 
ATOM      4  O   UNL     1      -8.063  -6.384  -9.094  1.00  0.00    -0.289 OA
ATOM      5  C   UNL     1      -8.955  -7.120 -11.128  1.00  0.00     0.107 A 
ATOM      6  C   UNL     1      -8.962  -8.517 -10.837  1.00  0.00     0.134 A 
ATOM      7  C   UNL     1      -9.287  -9.431 -11.847  1.00  0.00     0.093 A 
ATOM      8  C   UNL     1      -9.662  -8.997 -13.119  1.00  0.00     0.123 A 
ATOM      9  C   UNL     1      -9.710  -7.630 -13.399  1.00  0.00     0.094 A 
ATOM     10  C   UNL     1      -9.359  -6.695 -12.422  1.00  0.00     0.146 A 
ATOM     11  O   UNL     1      -9.403  -5.404 -12.733  1.00  0.00    -0.456 OA
ENDROOT
BRANCH   1  12
ATOM     12  C   UNL     1      -9.169  -3.025 -12.340  1.00  0.00     0.021 A 
ATOM     13  C   UNL     1      -8.853  -2.702 -13.672  1.00  0.00     0.016 A 
ATOM     14  C   UNL     1      -8.945  -1.384 -14.125  1.00  0.00     0.051 A 
ATOM     15  C   UNL     1      -9.364  -0.367 -13.258  1.00  0.00     0.157 A 
ATOM     16  C   UNL     1      -9.603  -1.999 -11.477  1.00  0.00     0.062 A 
ATOM     17  C   UNL     1      -9.697  -0.675 -11.933  1.00  0.00     0.158 A 
BRANCH  15  18
ATOM     18  O   UNL     1      -9.457   0.950 -13.706  1.00  0.00    -0.504 OA
ATOM     19  H   UNL     1      -8.694   1.605 -13.586  1.00  0.00     0.293 HD
ENDBRANCH  15  18
BRANCH  17  20
ATOM     20  O   UNL     1     -10.125   0.337 -11.077  1.00  0.00    -0.504 OA
ATOM     21  H   UNL     1      -9.510   1.094 -10.801  1.00  0.00     0.293 HD
ENDBRANCH  17  20
ENDBRANCH   1  12
BRANCH   6  22
ATOM     22  O   UNL     1      -8.686  -9.054  -9.576  1.00  0.00    -0.507 OA
ATOM     23  H   UNL     1      -8.962  -9.973  -9.268  1.00  0.00     0.293 HD
ENDBRANCH   6  22
BRANCH   8  24
ATOM     24  O   UNL     1      -9.994  -9.933 -14.095  1.00  0.00    -0.508 OA
ATOM     25  H   UNL     1     -10.508 -10.776 -13.869  1.00  0.00     0.293 HD
ENDBRANCH   8  24
TORSDOF 5
ENDMDL
