MODEL 1
REMARK VINA RESULT:    -4.608      0.000      0.000
REMARK INTER + INTRA:         -13.183
REMARK INTER:                  -9.997
REMARK INTRA:                  -3.186
REMARK UNBOUND:                -3.186
REMARK SMILES CCCCCCCCCCCCCCCCCCCCCC(=O)[O-]
REMARK SMILES IDX 12 1 11 2 10 3 9 4 8 5 7 6 6 7 5 8 4 9 3 10 2 11 1 12 13 13
REMARK SMILES IDX 14 14 15 15 16 16 17 17 18 18 19 19 20 20 21 21 22 22 23 23
REMARK SMILES IDX 24 24
REMARK H PARENT
REMARK Flexibility Score: inf
ROOT
ATOM      1  C   UNL     1       1.951  51.494  -1.143  1.00  0.00     0.000 C 
ENDROOT
BRANCH   1   2
ATOM      2  C   UNL     1       2.262  50.920  -2.537  1.00  0.00     0.000 C 
BRANCH   2   3
ATOM      3  C   UNL     1       2.856  51.966  -3.497  1.00  0.00     0.000 C 
BRANCH   3   4
ATOM      4  C   UNL     1       4.055  51.486  -4.342  1.00  0.00    -0.000 C 
BRANCH   4   5
ATOM      5  C   UNL     1       5.441  51.730  -3.720  1.00  0.00    -0.000 C 
BRANCH   5   6
ATOM      6  C   UNL     1       5.425  52.821  -2.635  1.00  0.00    -0.000 C 
BRANCH   6   7
ATOM      7  C   UNL     1       6.823  53.111  -2.064  1.00  0.00    -0.000 C 
BRANCH   7   8
ATOM      8  C   UNL     1       7.524  51.849  -1.534  1.00  0.00    -0.000 C 
BRANCH   8   9
ATOM      9  C   UNL     1       9.054  51.919  -1.668  1.00  0.00    -0.000 C 
BRANCH   9  10
ATOM     10  C   UNL     1       9.785  51.479  -0.393  1.00  0.00    -0.000 C 
BRANCH  10  11
ATOM     11  C   UNL     1      11.164  52.143  -0.296  1.00  0.00    -0.003 C 
ATOM     12  C   UNL     1      11.590  52.735  -1.637  1.00  0.00     0.004 C 
ENDBRANCH  10  11
ENDBRANCH   9  10
ENDBRANCH   8   9
ENDBRANCH   7   8
ENDBRANCH   6   7
ENDBRANCH   5   6
ENDBRANCH   4   5
ENDBRANCH   3   4
ENDBRANCH   2   3
ENDBRANCH   1   2
BRANCH   1  13
ATOM     13  C   UNL     1       2.402  50.559  -0.003  1.00  0.00     0.000 C 
BRANCH  13  14
ATOM     14  C   UNL     1       3.450  51.183   0.935  1.00  0.00     0.000 C 
BRANCH  14  15
ATOM     15  C   UNL     1       3.696  52.676   0.635  1.00  0.00     0.000 C 
BRANCH  15  16
ATOM     16  C   UNL     1       4.873  53.254   1.440  1.00  0.00     0.000 C 
BRANCH  16  17
ATOM     17  C   UNL     1       6.010  52.242   1.686  1.00  0.00     0.000 C 
BRANCH  17  18
ATOM     18  C   UNL     1       7.324  52.920   2.115  1.00  0.00     0.000 C 
BRANCH  18  19
ATOM     19  C   UNL     1       7.398  54.388   1.665  1.00  0.00     0.000 C 
BRANCH  19  20
ATOM     20  C   UNL     1       8.596  54.655   0.738  1.00  0.00     0.006 C 
BRANCH  20  21
ATOM     21  C   UNL     1       8.582  56.078   0.167  1.00  0.00     0.053 C 
BRANCH  21  22
ATOM     22  C   UNL     1       9.853  56.395  -0.558  1.00  0.00     0.041 C 
ATOM     23  O   UNL     1       9.838  57.160  -1.557  1.00  0.00    -0.550 OA
ATOM     24  O   UNL     1      11.062  55.886  -0.097  1.00  0.00    -0.550 OA
ENDBRANCH  21  22
ENDBRANCH  20  21
ENDBRANCH  19  20
ENDBRANCH  18  19
ENDBRANCH  17  18
ENDBRANCH  16  17
ENDBRANCH  15  16
ENDBRANCH  14  15
ENDBRANCH  13  14
ENDBRANCH   1  13
TORSDOF 20
ENDMDL
MODEL 2
REMARK VINA RESULT:    -4.531      2.225      4.845
REMARK INTER + INTRA:         -13.016
REMARK INTER:                  -9.975
REMARK INTRA:                  -3.041
REMARK UNBOUND:                -3.186
REMARK SMILES CCCCCCCCCCCCCCCCCCCCCC(=O)[O-]
REMARK SMILES IDX 12 1 11 2 10 3 9 4 8 5 7 6 6 7 5 8 4 9 3 10 2 11 1 12 13 13
REMARK SMILES IDX 14 14 15 15 16 16 17 17 18 18 19 19 20 20 21 21 22 22 23 23
REMARK SMILES IDX 24 24
REMARK H PARENT
REMARK Flexibility Score: inf
ROOT
ATOM      1  C   UNL     1       4.823  51.872   0.502  1.00  0.00     0.000 C 
ENDROOT
BRANCH   1   2
ATOM      2  C   UNL     1       6.010  52.238   1.411  1.00  0.00     0.000 C 
BRANCH   2   3
ATOM      3  C   UNL     1       7.229  52.755   0.626  1.00  0.00     0.000 C 
BRANCH   3   4
ATOM      4  C   UNL     1       6.994  52.996  -0.880  1.00  0.00    -0.000 C 
BRANCH   4   5
ATOM      5  C   UNL     1       7.990  52.298  -1.824  1.00  0.00    -0.000 C 
BRANCH   5   6
ATOM      6  C   UNL     1       9.068  51.499  -1.070  1.00  0.00    -0.000 C 
BRANCH   6   7
ATOM      7  C   UNL     1      10.494  51.971  -1.398  1.00  0.00    -0.000 C 
BRANCH   7   8
ATOM      8  C   UNL     1      11.337  52.240  -0.140  1.00  0.00    -0.000 C 
BRANCH   8   9
ATOM      9  C   UNL     1      11.125  53.655   0.424  1.00  0.00    -0.000 C 
BRANCH   9  10
ATOM     10  C   UNL     1      10.816  54.691  -0.665  1.00  0.00    -0.000 C 
BRANCH  10  11
ATOM     11  C   UNL     1       9.627  55.572  -0.260  1.00  0.00    -0.003 C 
ATOM     12  C   UNL     1       8.907  56.128  -1.487  1.00  0.00     0.004 C 
ENDBRANCH  10  11
ENDBRANCH   9  10
ENDBRANCH   8   9
ENDBRANCH   7   8
ENDBRANCH   6   7
ENDBRANCH   5   6
ENDBRANCH   4   5
ENDBRANCH   3   4
ENDBRANCH   2   3
ENDBRANCH   1   2
BRANCH   1  13
ATOM     13  C   UNL     1       3.703  51.131   1.259  1.00  0.00     0.000 C 
BRANCH  13  14
ATOM     14  C   UNL     1       2.460  50.840   0.400  1.00  0.00     0.000 C 
BRANCH  14  15
ATOM     15  C   UNL     1       2.452  51.642  -0.918  1.00  0.00     0.000 C 
BRANCH  15  16
ATOM     16  C   UNL     1       2.247  50.746  -2.152  1.00  0.00     0.000 C 
BRANCH  16  17
ATOM     17  C   UNL     1       2.890  51.307  -3.436  1.00  0.00     0.000 C 
BRANCH  17  18
ATOM     18  C   UNL     1       4.324  51.817  -3.208  1.00  0.00     0.000 C 
BRANCH  18  19
ATOM     19  C   UNL     1       4.471  53.312  -3.534  1.00  0.00     0.000 C 
BRANCH  19  20
ATOM     20  C   UNL     1       5.386  53.559  -4.746  1.00  0.00     0.006 C 
BRANCH  20  21
ATOM     21  C   UNL     1       6.496  54.571  -4.439  1.00  0.00     0.053 C 
BRANCH  21  22
ATOM     22  C   UNL     1       6.918  55.318  -5.666  1.00  0.00     0.041 C 
ATOM     23  O   UNL     1       8.064  55.834  -5.730  1.00  0.00    -0.550 OA
ATOM     24  O   UNL     1       6.063  55.399  -6.758  1.00  0.00    -0.550 OA
ENDBRANCH  21  22
ENDBRANCH  20  21
ENDBRANCH  19  20
ENDBRANCH  18  19
ENDBRANCH  17  18
ENDBRANCH  16  17
ENDBRANCH  15  16
ENDBRANCH  14  15
ENDBRANCH  13  14
ENDBRANCH   1  13
TORSDOF 20
ENDMDL
MODEL 3
REMARK VINA RESULT:    -4.530      2.431      4.693
REMARK INTER + INTRA:         -13.013
REMARK INTER:                 -10.194
REMARK INTRA:                  -2.819
REMARK UNBOUND:                -3.186
REMARK SMILES CCCCCCCCCCCCCCCCCCCCCC(=O)[O-]
REMARK SMILES IDX 12 1 11 2 10 3 9 4 8 5 7 6 6 7 5 8 4 9 3 10 2 11 1 12 13 13
REMARK SMILES IDX 14 14 15 15 16 16 17 17 18 18 19 19 20 20 21 21 22 22 23 23
REMARK SMILES IDX 24 24
REMARK H PARENT
REMARK Flexibility Score: inf
ROOT
ATOM      1  C   UNL     1       2.547  50.873  -0.115  1.00  0.00     0.000 C 
ENDROOT
BRANCH   1   2
ATOM      2  C   UNL     1       3.242  51.895   0.802  1.00  0.00     0.000 C 
BRANCH   2   3
ATOM      3  C   UNL     1       4.567  51.373   1.387  1.00  0.00     0.000 C 
BRANCH   3   4
ATOM      4  C   UNL     1       5.684  52.426   1.543  1.00  0.00    -0.000 C 
BRANCH   4   5
ATOM      5  C   UNL     1       6.952  51.942   2.269  1.00  0.00    -0.000 C 
BRANCH   5   6
ATOM      6  C   UNL     1       8.242  52.534   1.676  1.00  0.00    -0.000 C 
BRANCH   6   7
ATOM      7  C   UNL     1       9.488  51.697   2.011  1.00  0.00    -0.000 C 
BRANCH   7   8
ATOM      8  C   UNL     1      10.208  51.173   0.758  1.00  0.00    -0.000 C 
BRANCH   8   9
ATOM      9  C   UNL     1       9.453  51.499  -0.541  1.00  0.00    -0.000 C 
BRANCH   9  10
ATOM     10  C   UNL     1      10.320  52.243  -1.565  1.00  0.00    -0.000 C 
BRANCH  10  11
ATOM     11  C   UNL     1      11.385  53.095  -0.865  1.00  0.00    -0.003 C 
ATOM     12  C   UNL     1      10.887  54.518  -0.626  1.00  0.00     0.004 C 
ENDBRANCH  10  11
ENDBRANCH   9  10
ENDBRANCH   8   9
ENDBRANCH   7   8
ENDBRANCH   6   7
ENDBRANCH   5   6
ENDBRANCH   4   5
ENDBRANCH   3   4
ENDBRANCH   2   3
ENDBRANCH   1   2
BRANCH   1  13
ATOM     13  C   UNL     1       1.998  51.511  -1.406  1.00  0.00     0.000 C 
BRANCH  13  14
ATOM     14  C   UNL     1       2.359  50.736  -2.685  1.00  0.00     0.000 C 
BRANCH  14  15
ATOM     15  C   UNL     1       2.808  51.666  -3.831  1.00  0.00     0.000 C 
BRANCH  15  16
ATOM     16  C   UNL     1       4.247  51.378  -4.295  1.00  0.00     0.000 C 
BRANCH  16  17
ATOM     17  C   UNL     1       5.261  52.457  -3.868  1.00  0.00     0.000 C 
BRANCH  17  18
ATOM     18  C   UNL     1       5.853  52.195  -2.472  1.00  0.00     0.000 C 
BRANCH  18  19
ATOM     19  C   UNL     1       5.787  53.436  -1.567  1.00  0.00     0.000 C 
BRANCH  19  20
ATOM     20  C   UNL     1       4.499  54.250  -1.784  1.00  0.00     0.006 C 
BRANCH  20  21
ATOM     21  C   UNL     1       4.634  55.694  -1.284  1.00  0.00     0.053 C 
BRANCH  21  22
ATOM     22  C   UNL     1       3.835  55.923  -0.039  1.00  0.00     0.041 C 
ATOM     23  O   UNL     1       4.217  55.433   1.056  1.00  0.00    -0.550 OA
ATOM     24  O   UNL     1       2.698  56.721  -0.079  1.00  0.00    -0.550 OA
ENDBRANCH  21  22
ENDBRANCH  20  21
ENDBRANCH  19  20
ENDBRANCH  18  19
ENDBRANCH  17  18
ENDBRANCH  16  17
ENDBRANCH  15  16
ENDBRANCH  14  15
ENDBRANCH  13  14
ENDBRANCH   1  13
TORSDOF 20
ENDMDL
MODEL 4
REMARK VINA RESULT:    -4.530      1.970      2.855
REMARK INTER + INTRA:         -13.012
REMARK INTER:                 -10.153
REMARK INTRA:                  -2.859
REMARK UNBOUND:                -3.186
REMARK SMILES CCCCCCCCCCCCCCCCCCCCCC(=O)[O-]
REMARK SMILES IDX 12 1 11 2 10 3 9 4 8 5 7 6 6 7 5 8 4 9 3 10 2 11 1 12 13 13
REMARK SMILES IDX 14 14 15 15 16 16 17 17 18 18 19 19 20 20 21 21 22 22 23 23
REMARK SMILES IDX 24 24
REMARK H PARENT
REMARK Flexibility Score: inf
ROOT
ATOM      1  C   UNL     1       2.386  50.821  -2.439  1.00  0.00     0.000 C 
ENDROOT
BRANCH   1   2
ATOM      2  C   UNL     1       2.877  51.950  -3.362  1.00  0.00     0.000 C 
BRANCH   2   3
ATOM      3  C   UNL     1       4.171  51.589  -4.115  1.00  0.00     0.000 C 
BRANCH   3   4
ATOM      4  C   UNL     1       5.483  51.889  -3.361  1.00  0.00    -0.000 C 
BRANCH   4   5
ATOM      5  C   UNL     1       5.714  53.367  -3.000  1.00  0.00    -0.000 C 
BRANCH   5   6
ATOM      6  C   UNL     1       6.967  53.581  -2.132  1.00  0.00    -0.000 C 
BRANCH   6   7
ATOM      7  C   UNL     1       7.597  52.259  -1.664  1.00  0.00    -0.000 C 
BRANCH   7   8
ATOM      8  C   UNL     1       8.575  52.447  -0.493  1.00  0.00    -0.000 C 
BRANCH   8   9
ATOM      9  C   UNL     1       9.806  51.531  -0.594  1.00  0.00    -0.000 C 
BRANCH   9  10
ATOM     10  C   UNL     1      11.118  52.310  -0.762  1.00  0.00    -0.000 C 
BRANCH  10  11
ATOM     11  C   UNL     1      10.844  53.761  -1.173  1.00  0.00    -0.003 C 
ATOM     12  C   UNL     1      11.109  54.724  -0.018  1.00  0.00     0.004 C 
ENDBRANCH  10  11
ENDBRANCH   9  10
ENDBRANCH   8   9
ENDBRANCH   7   8
ENDBRANCH   6   7
ENDBRANCH   5   6
ENDBRANCH   4   5
ENDBRANCH   3   4
ENDBRANCH   2   3
ENDBRANCH   1   2
BRANCH   1  13
ATOM     13  C   UNL     1       1.922  51.339  -1.063  1.00  0.00     0.000 C 
BRANCH  13  14
ATOM     14  C   UNL     1       2.235  50.382   0.099  1.00  0.00     0.000 C 
BRANCH  14  15
ATOM     15  C   UNL     1       3.309  50.943   1.054  1.00  0.00     0.000 C 
BRANCH  15  16
ATOM     16  C   UNL     1       4.428  51.691   0.309  1.00  0.00     0.000 C 
BRANCH  16  17
ATOM     17  C   UNL     1       5.144  52.751   1.170  1.00  0.00     0.000 C 
BRANCH  17  18
ATOM     18  C   UNL     1       4.356  54.069   1.264  1.00  0.00     0.000 C 
BRANCH  18  19
ATOM     19  C   UNL     1       3.538  54.352  -0.006  1.00  0.00     0.000 C 
BRANCH  19  20
ATOM     20  C   UNL     1       3.912  55.696  -0.655  1.00  0.00     0.006 C 
BRANCH  20  21
ATOM     21  C   UNL     1       4.063  56.818   0.380  1.00  0.00     0.053 C 
BRANCH  21  22
ATOM     22  C   UNL     1       5.430  57.429   0.336  1.00  0.00     0.041 C 
ATOM     23  O   UNL     1       6.332  56.910  -0.372  1.00  0.00    -0.550 OA
ATOM     24  O   UNL     1       5.691  58.600   1.037  1.00  0.00    -0.550 OA
ENDBRANCH  21  22
ENDBRANCH  20  21
ENDBRANCH  19  20
ENDBRANCH  18  19
ENDBRANCH  17  18
ENDBRANCH  16  17
ENDBRANCH  15  16
ENDBRANCH  14  15
ENDBRANCH  13  14
ENDBRANCH   1  13
TORSDOF 20
ENDMDL
MODEL 5
REMARK VINA RESULT:    -4.508      1.449      3.659
REMARK INTER + INTRA:         -12.965
REMARK INTER:                  -9.530
REMARK INTRA:                  -3.434
REMARK UNBOUND:                -3.186
REMARK SMILES CCCCCCCCCCCCCCCCCCCCCC(=O)[O-]
REMARK SMILES IDX 12 1 11 2 10 3 9 4 8 5 7 6 6 7 5 8 4 9 3 10 2 11 1 12 13 13
REMARK SMILES IDX 14 14 15 15 16 16 17 17 18 18 19 19 20 20 21 21 22 22 23 23
REMARK SMILES IDX 24 24
REMARK H PARENT
REMARK Flexibility Score: inf
ROOT
ATOM      1  C   UNL     1       1.938  51.448  -0.340  1.00  0.00     0.000 C 
ENDROOT
BRANCH   1   2
ATOM      2  C   UNL     1       2.560  50.568   0.759  1.00  0.00     0.000 C 
BRANCH   2   3
ATOM      3  C   UNL     1       3.668  51.289   1.548  1.00  0.00     0.000 C 
BRANCH   3   4
ATOM      4  C   UNL     1       4.856  51.801   0.707  1.00  0.00    -0.000 C 
BRANCH   4   5
ATOM      5  C   UNL     1       5.102  53.319   0.766  1.00  0.00    -0.000 C 
BRANCH   5   6
ATOM      6  C   UNL     1       6.491  53.677   1.321  1.00  0.00    -0.000 C 
BRANCH   6   7
ATOM      7  C   UNL     1       7.387  52.443   1.521  1.00  0.00    -0.000 C 
BRANCH   7   8
ATOM      8  C   UNL     1       8.736  52.563   0.792  1.00  0.00    -0.000 C 
BRANCH   8   9
ATOM      9  C   UNL     1       9.017  53.991   0.294  1.00  0.00    -0.000 C 
BRANCH   9  10
ATOM     10  C   UNL     1       9.980  54.028  -0.900  1.00  0.00    -0.000 C 
BRANCH  10  11
ATOM     11  C   UNL     1      10.285  52.612  -1.401  1.00  0.00    -0.003 C 
ATOM     12  C   UNL     1      11.788  52.346  -1.431  1.00  0.00     0.004 C 
ENDBRANCH  10  11
ENDBRANCH   9  10
ENDBRANCH   8   9
ENDBRANCH   7   8
ENDBRANCH   6   7
ENDBRANCH   5   6
ENDBRANCH   4   5
ENDBRANCH   3   4
ENDBRANCH   2   3
ENDBRANCH   1   2
BRANCH   1  13
ATOM     13  C   UNL     1       2.310  50.977  -1.760  1.00  0.00     0.000 C 
BRANCH  13  14
ATOM     14  C   UNL     1       3.089  52.021  -2.577  1.00  0.00     0.000 C 
BRANCH  14  15
ATOM     15  C   UNL     1       3.668  51.437  -3.882  1.00  0.00     0.000 C 
BRANCH  15  16
ATOM     16  C   UNL     1       5.188  51.648  -4.000  1.00  0.00     0.000 C 
BRANCH  16  17
ATOM     17  C   UNL     1       5.899  51.801  -2.641  1.00  0.00     0.000 C 
BRANCH  17  18
ATOM     18  C   UNL     1       6.844  53.016  -2.600  1.00  0.00     0.000 C 
BRANCH  18  19
ATOM     19  C   UNL     1       6.115  54.333  -2.909  1.00  0.00     0.000 C 
BRANCH  19  20
ATOM     20  C   UNL     1       6.627  55.501  -2.048  1.00  0.00     0.006 C 
BRANCH  20  21
ATOM     21  C   UNL     1       7.706  56.321  -2.767  1.00  0.00     0.053 C 
BRANCH  21  22
ATOM     22  C   UNL     1       8.355  57.307  -1.845  1.00  0.00     0.041 C 
ATOM     23  O   UNL     1       9.562  57.626  -2.009  1.00  0.00    -0.550 OA
ATOM     24  O   UNL     1       7.612  57.910  -0.837  1.00  0.00    -0.550 OA
ENDBRANCH  21  22
ENDBRANCH  20  21
ENDBRANCH  19  20
ENDBRANCH  18  19
ENDBRANCH  17  18
ENDBRANCH  16  17
ENDBRANCH  15  16
ENDBRANCH  14  15
ENDBRANCH  13  14
ENDBRANCH   1  13
TORSDOF 20
ENDMDL
MODEL 6
REMARK VINA RESULT:    -4.503      2.618      4.438
REMARK INTER + INTRA:         -12.955
REMARK INTER:                  -9.351
REMARK INTRA:                  -3.603
REMARK UNBOUND:                -3.186
REMARK SMILES CCCCCCCCCCCCCCCCCCCCCC(=O)[O-]
REMARK SMILES IDX 12 1 11 2 10 3 9 4 8 5 7 6 6 7 5 8 4 9 3 10 2 11 1 12 13 13
REMARK SMILES IDX 14 14 15 15 16 16 17 17 18 18 19 19 20 20 21 21 22 22 23 23
REMARK SMILES IDX 24 24
REMARK H PARENT
REMARK Flexibility Score: inf
ROOT
ATOM      1  C   UNL     1       1.920  52.664  -0.448  1.00  0.00     0.000 C 
ENDROOT
BRANCH   1   2
ATOM      2  C   UNL     1       2.015  51.211   0.050  1.00  0.00     0.000 C 
BRANCH   2   3
ATOM      3  C   UNL     1       3.128  51.007   1.095  1.00  0.00     0.000 C 
BRANCH   3   4
ATOM      4  C   UNL     1       4.112  52.185   1.253  1.00  0.00    -0.000 C 
BRANCH   4   5
ATOM      5  C   UNL     1       5.558  51.795   1.607  1.00  0.00    -0.000 C 
BRANCH   5   6
ATOM      6  C   UNL     1       6.520  52.996   1.598  1.00  0.00    -0.000 C 
BRANCH   6   7
ATOM      7  C   UNL     1       7.599  52.884   0.508  1.00  0.00    -0.000 C 
BRANCH   7   8
ATOM      8  C   UNL     1       8.370  54.198   0.296  1.00  0.00    -0.000 C 
BRANCH   8   9
ATOM      9  C   UNL     1       9.064  54.265  -1.075  1.00  0.00    -0.000 C 
BRANCH   9  10
ATOM     10  C   UNL     1      10.595  54.272  -0.969  1.00  0.00    -0.000 C 
BRANCH  10  11
ATOM     11  C   UNL     1      11.179  52.917  -1.384  1.00  0.00    -0.003 C 
ATOM     12  C   UNL     1      11.372  52.003  -0.177  1.00  0.00     0.004 C 
ENDBRANCH  10  11
ENDBRANCH   9  10
ENDBRANCH   8   9
ENDBRANCH   7   8
ENDBRANCH   6   7
ENDBRANCH   5   6
ENDBRANCH   4   5
ENDBRANCH   3   4
ENDBRANCH   2   3
ENDBRANCH   1   2
BRANCH   1  13
ATOM     13  C   UNL     1       1.962  52.768  -1.986  1.00  0.00     0.000 C 
BRANCH  13  14
ATOM     14  C   UNL     1       2.589  51.544  -2.675  1.00  0.00     0.000 C 
BRANCH  14  15
ATOM     15  C   UNL     1       3.927  51.877  -3.366  1.00  0.00     0.000 C 
BRANCH  15  16
ATOM     16  C   UNL     1       5.056  52.167  -2.360  1.00  0.00     0.000 C 
BRANCH  16  17
ATOM     17  C   UNL     1       5.807  53.484  -2.637  1.00  0.00     0.000 C 
BRANCH  17  18
ATOM     18  C   UNL     1       4.896  54.573  -3.231  1.00  0.00     0.000 C 
BRANCH  18  19
ATOM     19  C   UNL     1       4.324  55.508  -2.153  1.00  0.00     0.000 C 
BRANCH  19  20
ATOM     20  C   UNL     1       5.077  55.389  -0.816  1.00  0.00     0.006 C 
BRANCH  20  21
ATOM     21  C   UNL     1       4.198  55.771   0.381  1.00  0.00     0.053 C 
BRANCH  21  22
ATOM     22  C   UNL     1       3.501  57.077   0.159  1.00  0.00     0.041 C 
ATOM     23  O   UNL     1       2.244  57.126   0.130  1.00  0.00    -0.550 OA
ATOM     24  O   UNL     1       4.240  58.248   0.036  1.00  0.00    -0.550 OA
ENDBRANCH  21  22
ENDBRANCH  20  21
ENDBRANCH  19  20
ENDBRANCH  18  19
ENDBRANCH  17  18
ENDBRANCH  16  17
ENDBRANCH  15  16
ENDBRANCH  14  15
ENDBRANCH  13  14
ENDBRANCH   1  13
TORSDOF 20
ENDMDL
MODEL 7
REMARK VINA RESULT:    -4.490      1.447      2.051
REMARK INTER + INTRA:         -12.925
REMARK INTER:                  -9.531
REMARK INTRA:                  -3.394
REMARK UNBOUND:                -3.186
REMARK SMILES CCCCCCCCCCCCCCCCCCCCCC(=O)[O-]
REMARK SMILES IDX 12 1 11 2 10 3 9 4 8 5 7 6 6 7 5 8 4 9 3 10 2 11 1 12 13 13
REMARK SMILES IDX 14 14 15 15 16 16 17 17 18 18 19 19 20 20 21 21 22 22 23 23
REMARK SMILES IDX 24 24
REMARK H PARENT
REMARK Flexibility Score: inf
ROOT
ATOM      1  C   UNL     1       2.033  51.894  -0.035  1.00  0.00     0.000 C 
ENDROOT
BRANCH   1   2
ATOM      2  C   UNL     1       2.019  52.189  -1.546  1.00  0.00     0.000 C 
BRANCH   2   3
ATOM      3  C   UNL     1       2.475  50.987  -2.395  1.00  0.00     0.000 C 
BRANCH   3   4
ATOM      4  C   UNL     1       3.080  51.339  -3.770  1.00  0.00    -0.000 C 
BRANCH   4   5
ATOM      5  C   UNL     1       4.616  51.415  -3.816  1.00  0.00    -0.000 C 
BRANCH   5   6
ATOM      6  C   UNL     1       5.142  52.860  -3.870  1.00  0.00    -0.000 C 
BRANCH   6   7
ATOM      7  C   UNL     1       6.467  53.038  -3.111  1.00  0.00    -0.000 C 
BRANCH   7   8
ATOM      8  C   UNL     1       6.640  52.024  -1.968  1.00  0.00    -0.000 C 
BRANCH   8   9
ATOM      9  C   UNL     1       7.798  52.386  -1.023  1.00  0.00    -0.000 C 
BRANCH   9  10
ATOM     10  C   UNL     1       9.138  51.782  -1.463  1.00  0.00    -0.000 C 
BRANCH  10  11
ATOM     11  C   UNL     1      10.241  52.847  -1.477  1.00  0.00    -0.003 C 
ATOM     12  C   UNL     1      11.615  52.225  -1.246  1.00  0.00     0.004 C 
ENDBRANCH  10  11
ENDBRANCH   9  10
ENDBRANCH   8   9
ENDBRANCH   7   8
ENDBRANCH   6   7
ENDBRANCH   5   6
ENDBRANCH   4   5
ENDBRANCH   3   4
ENDBRANCH   2   3
ENDBRANCH   1   2
BRANCH   1  13
ATOM     13  C   UNL     1       3.240  51.036   0.391  1.00  0.00     0.000 C 
BRANCH  13  14
ATOM     14  C   UNL     1       4.446  51.857   0.878  1.00  0.00     0.000 C 
BRANCH  14  15
ATOM     15  C   UNL     1       4.035  53.236   1.435  1.00  0.00     0.000 C 
BRANCH  15  16
ATOM     16  C   UNL     1       4.920  54.376   0.900  1.00  0.00     0.000 C 
BRANCH  16  17
ATOM     17  C   UNL     1       4.510  54.871  -0.501  1.00  0.00     0.000 C 
BRANCH  17  18
ATOM     18  C   UNL     1       5.408  56.012  -1.012  1.00  0.00     0.000 C 
BRANCH  18  19
ATOM     19  C   UNL     1       6.868  55.856  -0.555  1.00  0.00     0.000 C 
BRANCH  19  20
ATOM     20  C   UNL     1       7.868  56.104  -1.697  1.00  0.00     0.006 C 
BRANCH  20  21
ATOM     21  C   UNL     1       9.288  56.361  -1.178  1.00  0.00     0.053 C 
BRANCH  21  22
ATOM     22  C   UNL     1       9.685  57.795  -1.343  1.00  0.00     0.041 C 
ATOM     23  O   UNL     1      10.454  58.339  -0.508  1.00  0.00    -0.550 OA
ATOM     24  O   UNL     1       9.245  58.516  -2.447  1.00  0.00    -0.550 OA
ENDBRANCH  21  22
ENDBRANCH  20  21
ENDBRANCH  19  20
ENDBRANCH  18  19
ENDBRANCH  17  18
ENDBRANCH  16  17
ENDBRANCH  15  16
ENDBRANCH  14  15
ENDBRANCH  13  14
ENDBRANCH   1  13
TORSDOF 20
ENDMDL
MODEL 8
REMARK VINA RESULT:    -4.464      1.611      4.484
REMARK INTER + INTRA:         -12.869
REMARK INTER:                  -9.173
REMARK INTRA:                  -3.696
REMARK UNBOUND:                -3.186
REMARK SMILES CCCCCCCCCCCCCCCCCCCCCC(=O)[O-]
REMARK SMILES IDX 12 1 11 2 10 3 9 4 8 5 7 6 6 7 5 8 4 9 3 10 2 11 1 12 13 13
REMARK SMILES IDX 14 14 15 15 16 16 17 17 18 18 19 19 20 20 21 21 22 22 23 23
REMARK SMILES IDX 24 24
REMARK H PARENT
REMARK Flexibility Score: inf
ROOT
ATOM      1  C   UNL     1       2.377  50.379  -0.986  1.00  0.00     0.000 C 
ENDROOT
BRANCH   1   2
ATOM      2  C   UNL     1       2.042  51.058   0.354  1.00  0.00     0.000 C 
BRANCH   2   3
ATOM      3  C   UNL     1       3.254  51.148   1.300  1.00  0.00     0.000 C 
BRANCH   3   4
ATOM      4  C   UNL     1       4.594  51.515   0.628  1.00  0.00    -0.000 C 
BRANCH   4   5
ATOM      5  C   UNL     1       5.163  52.896   1.000  1.00  0.00    -0.000 C 
BRANCH   5   6
ATOM      6  C   UNL     1       4.081  53.877   1.485  1.00  0.00    -0.000 C 
BRANCH   6   7
ATOM      7  C   UNL     1       3.449  54.679   0.335  1.00  0.00    -0.000 C 
BRANCH   7   8
ATOM      8  C   UNL     1       4.456  55.025  -0.774  1.00  0.00    -0.000 C 
BRANCH   8   9
ATOM      9  C   UNL     1       5.177  56.361  -0.525  1.00  0.00    -0.000 C 
BRANCH   9  10
ATOM     10  C   UNL     1       6.674  56.186  -0.237  1.00  0.00    -0.000 C 
BRANCH  10  11
ATOM     11  C   UNL     1       6.934  56.101   1.272  1.00  0.00    -0.003 C 
ATOM     12  C   UNL     1       8.220  55.333   1.569  1.00  0.00     0.004 C 
ENDBRANCH  10  11
ENDBRANCH   9  10
ENDBRANCH   8   9
ENDBRANCH   7   8
ENDBRANCH   6   7
ENDBRANCH   5   6
ENDBRANCH   4   5
ENDBRANCH   3   4
ENDBRANCH   2   3
ENDBRANCH   1   2
BRANCH   1  13
ATOM     13  C   UNL     1       1.963  51.230  -2.202  1.00  0.00     0.000 C 
BRANCH  13  14
ATOM     14  C   UNL     1       2.997  52.299  -2.594  1.00  0.00     0.000 C 
BRANCH  14  15
ATOM     15  C   UNL     1       3.813  51.901  -3.841  1.00  0.00     0.000 C 
BRANCH  15  16
ATOM     16  C   UNL     1       5.325  51.840  -3.562  1.00  0.00     0.000 C 
BRANCH  16  17
ATOM     17  C   UNL     1       6.029  53.208  -3.664  1.00  0.00     0.000 C 
BRANCH  17  18
ATOM     18  C   UNL     1       7.093  53.410  -2.571  1.00  0.00     0.000 C 
BRANCH  18  19
ATOM     19  C   UNL     1       7.436  52.101  -1.841  1.00  0.00     0.000 C 
BRANCH  19  20
ATOM     20  C   UNL     1       8.445  52.316  -0.699  1.00  0.00     0.006 C 
BRANCH  20  21
ATOM     21  C   UNL     1       9.840  51.783  -1.050  1.00  0.00     0.053 C 
BRANCH  21  22
ATOM     22  C   UNL     1      10.809  52.896  -1.300  1.00  0.00     0.041 C 
ATOM     23  O   UNL     1      11.932  52.653  -1.813  1.00  0.00    -0.550 OA
ATOM     24  O   UNL     1      10.451  54.208  -1.013  1.00  0.00    -0.550 OA
ENDBRANCH  21  22
ENDBRANCH  20  21
ENDBRANCH  19  20
ENDBRANCH  18  19
ENDBRANCH  17  18
ENDBRANCH  16  17
ENDBRANCH  15  16
ENDBRANCH  14  15
ENDBRANCH  13  14
ENDBRANCH   1  13
TORSDOF 20
ENDMDL
MODEL 9
REMARK VINA RESULT:    -4.421      1.903      2.689
REMARK INTER + INTRA:         -12.776
REMARK INTER:                  -8.827
REMARK INTRA:                  -3.949
REMARK UNBOUND:                -3.186
REMARK SMILES CCCCCCCCCCCCCCCCCCCCCC(=O)[O-]
REMARK SMILES IDX 12 1 11 2 10 3 9 4 8 5 7 6 6 7 5 8 4 9 3 10 2 11 1 12 13 13
REMARK SMILES IDX 14 14 15 15 16 16 17 17 18 18 19 19 20 20 21 21 22 22 23 23
REMARK SMILES IDX 24 24
REMARK H PARENT
REMARK Flexibility Score: inf
ROOT
ATOM      1  C   UNL     1       3.019  50.741   0.809  1.00  0.00     0.000 C 
ENDROOT
BRANCH   1   2
ATOM      2  C   UNL     1       2.184  51.186  -0.404  1.00  0.00     0.000 C 
BRANCH   2   3
ATOM      3  C   UNL     1       2.138  52.716  -0.571  1.00  0.00     0.000 C 
BRANCH   3   4
ATOM      4  C   UNL     1       2.774  53.262  -1.867  1.00  0.00    -0.000 C 
BRANCH   4   5
ATOM      5  C   UNL     1       4.309  53.173  -1.936  1.00  0.00    -0.000 C 
BRANCH   5   6
ATOM      6  C   UNL     1       4.804  52.246  -3.060  1.00  0.00    -0.000 C 
BRANCH   6   7
ATOM      7  C   UNL     1       6.329  52.046  -3.036  1.00  0.00    -0.000 C 
BRANCH   7   8
ATOM      8  C   UNL     1       6.921  52.153  -1.622  1.00  0.00    -0.000 C 
BRANCH   8   9
ATOM      9  C   UNL     1       8.458  52.100  -1.616  1.00  0.00    -0.000 C 
BRANCH   9  10
ATOM     10  C   UNL     1       9.062  52.445  -0.248  1.00  0.00    -0.000 C 
BRANCH  10  11
ATOM     11  C   UNL     1      10.469  53.033  -0.404  1.00  0.00    -0.003 C 
ATOM     12  C   UNL     1      11.180  52.455  -1.625  1.00  0.00     0.004 C 
ENDBRANCH  10  11
ENDBRANCH   9  10
ENDBRANCH   8   9
ENDBRANCH   7   8
ENDBRANCH   6   7
ENDBRANCH   5   6
ENDBRANCH   4   5
ENDBRANCH   3   4
ENDBRANCH   2   3
ENDBRANCH   1   2
BRANCH   1  13
ATOM     13  C   UNL     1       3.712  51.921   1.518  1.00  0.00     0.000 C 
BRANCH  13  14
ATOM     14  C   UNL     1       5.248  51.848   1.490  1.00  0.00     0.000 C 
BRANCH  14  15
ATOM     15  C   UNL     1       5.909  53.225   1.711  1.00  0.00     0.000 C 
BRANCH  15  16
ATOM     16  C   UNL     1       4.955  54.393   1.402  1.00  0.00     0.000 C 
BRANCH  16  17
ATOM     17  C   UNL     1       5.673  55.657   0.889  1.00  0.00     0.000 C 
BRANCH  17  18
ATOM     18  C   UNL     1       7.206  55.535   0.950  1.00  0.00     0.000 C 
BRANCH  18  19
ATOM     19  C   UNL     1       7.876  55.923  -0.378  1.00  0.00     0.000 C 
BRANCH  19  20
ATOM     20  C   UNL     1       6.953  55.693  -1.588  1.00  0.00     0.006 C 
BRANCH  20  21
ATOM     21  C   UNL     1       7.728  55.663  -2.911  1.00  0.00     0.053 C 
BRANCH  21  22
ATOM     22  C   UNL     1       7.389  56.839  -3.775  1.00  0.00     0.041 C 
ATOM     23  O   UNL     1       6.361  57.524  -3.535  1.00  0.00    -0.550 OA
ATOM     24  O   UNL     1       8.236  57.205  -4.814  1.00  0.00    -0.550 OA
ENDBRANCH  21  22
ENDBRANCH  20  21
ENDBRANCH  19  20
ENDBRANCH  18  19
ENDBRANCH  17  18
ENDBRANCH  16  17
ENDBRANCH  15  16
ENDBRANCH  14  15
ENDBRANCH  13  14
ENDBRANCH   1  13
TORSDOF 20
ENDMDL
