MODEL 1
REMARK VINA RESULT:     6.839      0.000      0.000
REMARK INTER + INTRA:          17.931
REMARK INTER:                  17.233
REMARK INTRA:                   0.697
REMARK UNBOUND:                 0.697
REMARK SMILES CCCCCCCCCCCCCCCCCCCCCCCCCCCC(=O)[O-]
REMARK SMILES IDX 15 1 16 2 17 3 18 4 19 5 20 6 21 7 22 8 23 9 24 10 25 11
REMARK SMILES IDX 26 12 27 13 28 14 29 15 30 16 14 17 13 18 12 19 11 20 10 21
REMARK SMILES IDX 9 22 8 23 7 24 6 25 5 26 4 27 3 28 2 29 1 30
REMARK H PARENT
REMARK Flexibility Score: inf
ROOT
ATOM      1  C   UNL     1       3.643 -36.281  22.745  1.00  0.00     0.000 C 
ENDROOT
BRANCH   1   2
ATOM      2  C   UNL     1       4.149 -37.343  21.757  1.00  0.00     0.000 C 
BRANCH   2   3
ATOM      3  C   UNL     1       5.070 -38.374  22.428  1.00  0.00     0.000 C 
BRANCH   3   4
ATOM      4  C   UNL     1       4.434 -39.770  22.489  1.00  0.00     0.000 C 
BRANCH   4   5
ATOM      5  C   UNL     1       5.008 -40.586  23.659  1.00  0.00     0.000 C 
BRANCH   5   6
ATOM      6  C   UNL     1       4.916 -39.843  25.001  1.00  0.00     0.000 C 
BRANCH   6   7
ATOM      7  C   UNL     1       5.048 -38.318  24.850  1.00  0.00     0.000 C 
BRANCH   7   8
ATOM      8  C   UNL     1       5.117 -37.597  26.207  1.00  0.00     0.000 C 
BRANCH   8   9
ATOM      9  C   UNL     1       4.164 -38.208  27.247  1.00  0.00     0.000 C 
BRANCH   9  10
ATOM     10  C   UNL     1       2.683 -38.025  26.876  1.00  0.00     0.000 C 
BRANCH  10  11
ATOM     11  C   UNL     1       2.265 -36.547  26.819  1.00  0.00     0.000 C 
BRANCH  11  12
ATOM     12  C   UNL     1       1.632 -36.103  28.143  1.00  0.00     0.006 C 
BRANCH  12  13
ATOM     13  C   UNL     1       2.016 -34.659  28.481  1.00  0.00     0.053 C 
BRANCH  13  14
ATOM     14  C   UNL     1       1.197 -34.143  29.625  1.00  0.00     0.041 C 
ATOM     15  O   UNL     1       1.724 -33.979  30.757  1.00  0.00    -0.550 OA
ATOM     16  O   UNL     1      -0.141 -33.820  29.437  1.00  0.00    -0.550 OA
ENDBRANCH  13  14
ENDBRANCH  12  13
ENDBRANCH  11  12
ENDBRANCH  10  11
ENDBRANCH   9  10
ENDBRANCH   8   9
ENDBRANCH   7   8
ENDBRANCH   6   7
ENDBRANCH   5   6
ENDBRANCH   4   5
ENDBRANCH   3   4
ENDBRANCH   2   3
ENDBRANCH   1   2
BRANCH   1  17
ATOM     17  C   UNL     1       4.800 -35.409  23.249  1.00  0.00     0.000 C 
BRANCH  17  18
ATOM     18  C   UNL     1       4.985 -34.168  22.361  1.00  0.00     0.000 C 
BRANCH  18  19
ATOM     19  C   UNL     1       4.244 -34.291  21.014  1.00  0.00     0.000 C 
BRANCH  19  20
ATOM     20  C   UNL     1       5.104 -33.922  19.788  1.00  0.00     0.000 C 
BRANCH  20  21
ATOM     21  C   UNL     1       4.936 -34.840  18.564  1.00  0.00     0.000 C 
BRANCH  21  22
ATOM     22  C   UNL     1       3.599 -35.600  18.564  1.00  0.00    -0.000 C 
BRANCH  22  23
ATOM     23  C   UNL     1       3.778 -37.127  18.505  1.00  0.00    -0.000 C 
BRANCH  23  24
ATOM     24  C   UNL     1       2.450 -37.902  18.368  1.00  0.00    -0.000 C 
BRANCH  24  25
ATOM     25  C   UNL     1       1.541 -37.299  17.284  1.00  0.00    -0.000 C 
BRANCH  25  26
ATOM     26  C   UNL     1       2.185 -36.102  16.568  1.00  0.00    -0.000 C 
BRANCH  26  27
ATOM     27  C   UNL     1       1.963 -36.129  15.048  1.00  0.00    -0.000 C 
BRANCH  27  28
ATOM     28  C   UNL     1       3.289 -35.948  14.297  1.00  0.00    -0.000 C 
BRANCH  28  29
ATOM     29  C   UNL     1       4.370 -36.938  14.758  1.00  0.00    -0.003 C 
ATOM     30  C   UNL     1       3.982 -38.396  14.514  1.00  0.00     0.004 C 
ENDBRANCH  28  29
ENDBRANCH  27  28
ENDBRANCH  26  27
ENDBRANCH  25  26
ENDBRANCH  24  25
ENDBRANCH  23  24
ENDBRANCH  22  23
ENDBRANCH  21  22
ENDBRANCH  20  21
ENDBRANCH  19  20
ENDBRANCH  18  19
ENDBRANCH  17  18
ENDBRANCH   1  17
TORSDOF 26
ENDMDL
MODEL 2
REMARK VINA RESULT:     8.591      3.039     10.010
REMARK INTER + INTRA:          22.346
REMARK INTER:                  17.454
REMARK INTRA:                   4.891
REMARK UNBOUND:                 0.697
REMARK SMILES CCCCCCCCCCCCCCCCCCCCCCCCCCCC(=O)[O-]
REMARK SMILES IDX 15 1 16 2 17 3 18 4 19 5 20 6 21 7 22 8 23 9 24 10 25 11
REMARK SMILES IDX 26 12 27 13 28 14 29 15 30 16 14 17 13 18 12 19 11 20 10 21
REMARK SMILES IDX 9 22 8 23 7 24 6 25 5 26 4 27 3 28 2 29 1 30
REMARK H PARENT
REMARK Flexibility Score: inf
ROOT
ATOM      1  C   UNL     1       3.447 -35.297  22.030  1.00  0.00     0.000 C 
ENDROOT
BRANCH   1   2
ATOM      2  C   UNL     1       3.934 -36.129  20.835  1.00  0.00     0.000 C 
BRANCH   2   3
ATOM      3  C   UNL     1       5.100 -35.458  20.091  1.00  0.00     0.000 C 
BRANCH   3   4
ATOM      4  C   UNL     1       4.690 -34.128  19.444  1.00  0.00     0.000 C 
BRANCH   4   5
ATOM      5  C   UNL     1       5.125 -34.075  17.970  1.00  0.00     0.000 C 
BRANCH   5   6
ATOM      6  C   UNL     1       3.933 -34.016  17.002  1.00  0.00     0.000 C 
BRANCH   6   7
ATOM      7  C   UNL     1       3.653 -35.365  16.317  1.00  0.00     0.000 C 
BRANCH   7   8
ATOM      8  C   UNL     1       2.723 -35.224  15.100  1.00  0.00     0.000 C 
BRANCH   8   9
ATOM      9  C   UNL     1       2.701 -36.490  14.227  1.00  0.00     0.000 C 
BRANCH   9  10
ATOM     10  C   UNL     1       3.790 -37.502  14.620  1.00  0.00     0.000 C 
BRANCH  10  11
ATOM     11  C   UNL     1       3.435 -38.289  15.891  1.00  0.00     0.000 C 
BRANCH  11  12
ATOM     12  C   UNL     1       2.316 -37.593  16.675  1.00  0.00     0.006 C 
BRANCH  12  13
ATOM     13  C   UNL     1       2.677 -37.469  18.159  1.00  0.00     0.053 C 
BRANCH  13  14
ATOM     14  C   UNL     1       1.483 -37.741  19.023  1.00  0.00     0.041 C 
ATOM     15  O   UNL     1       1.630 -37.964  20.254  1.00  0.00    -0.550 OA
ATOM     16  O   UNL     1       0.206 -37.724  18.476  1.00  0.00    -0.550 OA
ENDBRANCH  13  14
ENDBRANCH  12  13
ENDBRANCH  11  12
ENDBRANCH  10  11
ENDBRANCH   9  10
ENDBRANCH   8   9
ENDBRANCH   7   8
ENDBRANCH   6   7
ENDBRANCH   5   6
ENDBRANCH   4   5
ENDBRANCH   3   4
ENDBRANCH   2   3
ENDBRANCH   1   2
BRANCH   1  17
ATOM     17  C   UNL     1       4.620 -34.909  22.939  1.00  0.00     0.000 C 
BRANCH  17  18
ATOM     18  C   UNL     1       5.119 -36.119  23.746  1.00  0.00     0.000 C 
BRANCH  18  19
ATOM     19  C   UNL     1       5.074 -37.429  22.932  1.00  0.00     0.000 C 
BRANCH  19  20
ATOM     20  C   UNL     1       4.897 -38.697  23.792  1.00  0.00     0.000 C 
BRANCH  20  21
ATOM     21  C   UNL     1       5.043 -38.489  25.310  1.00  0.00     0.000 C 
BRANCH  21  22
ATOM     22  C   UNL     1       4.965 -37.010  25.722  1.00  0.00    -0.000 C 
BRANCH  22  23
ATOM     23  C   UNL     1       3.684 -36.673  26.503  1.00  0.00    -0.000 C 
BRANCH  23  24
ATOM     24  C   UNL     1       3.122 -37.860  27.315  1.00  0.00    -0.000 C 
BRANCH  24  25
ATOM     25  C   UNL     1       1.611 -37.722  27.567  1.00  0.00    -0.000 C 
BRANCH  25  26
ATOM     26  C   UNL     1       1.063 -36.348  27.147  1.00  0.00    -0.000 C 
BRANCH  26  27
ATOM     27  C   UNL     1       1.517 -35.217  28.081  1.00  0.00    -0.000 C 
BRANCH  27  28
ATOM     28  C   UNL     1       0.401 -34.836  29.064  1.00  0.00    -0.000 C 
BRANCH  28  29
ATOM     29  C   UNL     1       0.773 -33.631  29.943  1.00  0.00    -0.003 C 
ATOM     30  C   UNL     1       2.219 -33.682  30.437  1.00  0.00     0.004 C 
ENDBRANCH  28  29
ENDBRANCH  27  28
ENDBRANCH  26  27
ENDBRANCH  25  26
ENDBRANCH  24  25
ENDBRANCH  23  24
ENDBRANCH  22  23
ENDBRANCH  21  22
ENDBRANCH  20  21
ENDBRANCH  19  20
ENDBRANCH  18  19
ENDBRANCH  17  18
ENDBRANCH   1  17
TORSDOF 26
ENDMDL
MODEL 3
REMARK VINA RESULT:     9.634      4.470     10.901
REMARK INTER + INTRA:          24.975
REMARK INTER:                  23.524
REMARK INTRA:                   1.451
REMARK UNBOUND:                 0.697
REMARK SMILES CCCCCCCCCCCCCCCCCCCCCCCCCCCC(=O)[O-]
REMARK SMILES IDX 15 1 16 2 17 3 18 4 19 5 20 6 21 7 22 8 23 9 24 10 25 11
REMARK SMILES IDX 26 12 27 13 28 14 29 15 30 16 14 17 13 18 12 19 11 20 10 21
REMARK SMILES IDX 9 22 8 23 7 24 6 25 5 26 4 27 3 28 2 29 1 30
REMARK H PARENT
REMARK Flexibility Score: inf
ROOT
ATOM      1  C   UNL     1       4.201 -38.357  23.661  1.00  0.00     0.000 C 
ENDROOT
BRANCH   1   2
ATOM      2  C   UNL     1       5.050 -38.851  22.481  1.00  0.00     0.000 C 
BRANCH   2   3
ATOM      3  C   UNL     1       5.121 -37.823  21.340  1.00  0.00     0.000 C 
BRANCH   3   4
ATOM      4  C   UNL     1       4.760 -36.407  21.809  1.00  0.00     0.000 C 
BRANCH   4   5
ATOM      5  C   UNL     1       4.497 -35.480  20.611  1.00  0.00     0.000 C 
BRANCH   5   6
ATOM      6  C   UNL     1       4.579 -36.215  19.264  1.00  0.00     0.000 C 
BRANCH   6   7
ATOM      7  C   UNL     1       3.756 -37.515  19.242  1.00  0.00     0.000 C 
BRANCH   7   8
ATOM      8  C   UNL     1       2.247 -37.258  19.390  1.00  0.00     0.000 C 
BRANCH   8   9
ATOM      9  C   UNL     1       1.528 -37.179  18.033  1.00  0.00     0.000 C 
BRANCH   9  10
ATOM     10  C   UNL     1       2.186 -38.059  16.959  1.00  0.00     0.000 C 
BRANCH  10  11
ATOM     11  C   UNL     1       3.586 -37.565  16.563  1.00  0.00     0.000 C 
BRANCH  11  12
ATOM     12  C   UNL     1       3.842 -37.781  15.067  1.00  0.00     0.006 C 
BRANCH  12  13
ATOM     13  C   UNL     1       3.572 -36.500  14.270  1.00  0.00     0.053 C 
BRANCH  13  14
ATOM     14  C   UNL     1       2.286 -35.864  14.703  1.00  0.00     0.041 C 
ATOM     15  O   UNL     1       1.204 -36.180  14.141  1.00  0.00    -0.550 OA
ATOM     16  O   UNL     1       2.277 -34.940  15.741  1.00  0.00    -0.550 OA
ENDBRANCH  13  14
ENDBRANCH  12  13
ENDBRANCH  11  12
ENDBRANCH  10  11
ENDBRANCH   9  10
ENDBRANCH   8   9
ENDBRANCH   7   8
ENDBRANCH   6   7
ENDBRANCH   5   6
ENDBRANCH   4   5
ENDBRANCH   3   4
ENDBRANCH   2   3
ENDBRANCH   1   2
BRANCH   1  17
ATOM     17  C   UNL     1       5.059 -38.192  24.921  1.00  0.00     0.000 C 
BRANCH  17  18
ATOM     18  C   UNL     1       4.990 -36.750  25.452  1.00  0.00     0.000 C 
BRANCH  18  19
ATOM     19  C   UNL     1       4.238 -36.653  26.796  1.00  0.00     0.000 C 
BRANCH  19  20
ATOM     20  C   UNL     1       2.991 -37.556  26.884  1.00  0.00     0.000 C 
BRANCH  20  21
ATOM     21  C   UNL     1       1.792 -36.954  27.637  1.00  0.00     0.000 C 
BRANCH  21  22
ATOM     22  C   UNL     1       1.889 -35.428  27.795  1.00  0.00    -0.000 C 
BRANCH  22  23
ATOM     23  C   UNL     1       1.701 -34.963  29.250  1.00  0.00    -0.000 C 
BRANCH  23  24
ATOM     24  C   UNL     1       0.654 -33.840  29.411  1.00  0.00    -0.000 C 
BRANCH  24  25
ATOM     25  C   UNL     1      -0.774 -34.398  29.531  1.00  0.00    -0.000 C 
BRANCH  25  26
ATOM     26  C   UNL     1      -1.841 -33.410  29.032  1.00  0.00    -0.000 C 
BRANCH  26  27
ATOM     27  C   UNL     1      -3.167 -33.532  29.796  1.00  0.00    -0.000 C 
BRANCH  27  28
ATOM     28  C   UNL     1      -3.840 -34.883  29.515  1.00  0.00    -0.000 C 
BRANCH  28  29
ATOM     29  C   UNL     1      -4.983 -34.773  28.493  1.00  0.00    -0.003 C 
ATOM     30  C   UNL     1      -4.508 -34.949  27.051  1.00  0.00     0.004 C 
ENDBRANCH  28  29
ENDBRANCH  27  28
ENDBRANCH  26  27
ENDBRANCH  25  26
ENDBRANCH  24  25
ENDBRANCH  23  24
ENDBRANCH  22  23
ENDBRANCH  21  22
ENDBRANCH  20  21
ENDBRANCH  19  20
ENDBRANCH  18  19
ENDBRANCH  17  18
ENDBRANCH   1  17
TORSDOF 26
ENDMDL
