MODEL 1
REMARK VINA RESULT:    -6.159      0.000      0.000
REMARK INTER + INTRA:         -16.207
REMARK INTER:                 -14.081
REMARK INTRA:                  -2.126
REMARK UNBOUND:                -2.126
REMARK SMILES CCCCCCCCCCCCCCCCCCCCCCCC(=O)[O-]
REMARK SMILES IDX 13 1 14 2 15 3 16 4 17 5 18 6 19 7 20 8 21 9 22 10 23 11
REMARK SMILES IDX 24 12 25 13 26 14 12 15 11 16 10 17 9 18 8 19 7 20 6 21 5 22
REMARK SMILES IDX 4 23 3 24 2 25 1 26
REMARK H PARENT
REMARK Flexibility Score: inf
ROOT
ATOM      1  C   UNL     1      46.189 -45.473 165.873  1.00  0.00     0.000 C 
ENDROOT
BRANCH   1   2
ATOM      2  C   UNL     1      47.702 -45.543 165.610  1.00  0.00     0.000 C 
BRANCH   2   3
ATOM      3  C   UNL     1      48.090 -46.722 164.701  1.00  0.00     0.000 C 
BRANCH   3   4
ATOM      4  C   UNL     1      49.530 -47.206 164.945  1.00  0.00     0.000 C 
BRANCH   4   5
ATOM      5  C   UNL     1      50.546 -46.053 164.975  1.00  0.00     0.000 C 
BRANCH   5   6
ATOM      6  C   UNL     1      51.788 -46.379 165.825  1.00  0.00     0.000 C 
BRANCH   6   7
ATOM      7  C   UNL     1      52.365 -47.776 165.526  1.00  0.00     0.000 C 
BRANCH   7   8
ATOM      8  C   UNL     1      53.848 -47.961 165.900  1.00  0.00     0.000 C 
BRANCH   8   9
ATOM      9  C   UNL     1      54.113 -47.762 167.404  1.00  0.00     0.000 C 
BRANCH   9  10
ATOM     10  C   UNL     1      54.442 -49.080 168.125  1.00  0.00     0.006 C 
BRANCH  10  11
ATOM     11  C   UNL     1      54.328 -50.306 167.210  1.00  0.00     0.053 C 
BRANCH  11  12
ATOM     12  C   UNL     1      53.698 -51.453 167.939  1.00  0.00     0.041 C 
ATOM     13  O   UNL     1      53.963 -51.654 169.155  1.00  0.00    -0.550 OA
ATOM     14  O   UNL     1      52.810 -52.295 167.279  1.00  0.00    -0.550 OA
ENDBRANCH  11  12
ENDBRANCH  10  11
ENDBRANCH   9  10
ENDBRANCH   8   9
ENDBRANCH   7   8
ENDBRANCH   6   7
ENDBRANCH   5   6
ENDBRANCH   4   5
ENDBRANCH   3   4
ENDBRANCH   2   3
ENDBRANCH   1   2
BRANCH   1  15
ATOM     15  C   UNL     1      45.415 -46.349 164.880  1.00  0.00     0.000 C 
BRANCH  15  16
ATOM     16  C   UNL     1      44.165 -46.952 165.539  1.00  0.00     0.000 C 
BRANCH  16  17
ATOM     17  C   UNL     1      44.001 -48.452 165.246  1.00  0.00     0.000 C 
BRANCH  17  18
ATOM     18  C   UNL     1      45.285 -49.087 164.683  1.00  0.00    -0.000 C 
BRANCH  18  19
ATOM     19  C   UNL     1      45.114 -49.581 163.238  1.00  0.00    -0.000 C 
BRANCH  19  20
ATOM     20  C   UNL     1      45.840 -48.690 162.217  1.00  0.00    -0.000 C 
BRANCH  20  21
ATOM     21  C   UNL     1      44.921 -47.569 161.717  1.00  0.00    -0.000 C 
BRANCH  21  22
ATOM     22  C   UNL     1      44.114 -48.023 160.491  1.00  0.00    -0.000 C 
BRANCH  22  23
ATOM     23  C   UNL     1      42.595 -47.850 160.673  1.00  0.00    -0.000 C 
BRANCH  23  24
ATOM     24  C   UNL     1      42.114 -47.834 162.137  1.00  0.00    -0.000 C 
BRANCH  24  25
ATOM     25  C   UNL     1      40.584 -47.876 162.263  1.00  0.00    -0.003 C 
ATOM     26  C   UNL     1      39.938 -46.723 161.499  1.00  0.00     0.004 C 
ENDBRANCH  24  25
ENDBRANCH  23  24
ENDBRANCH  22  23
ENDBRANCH  21  22
ENDBRANCH  20  21
ENDBRANCH  19  20
ENDBRANCH  18  19
ENDBRANCH  17  18
ENDBRANCH  16  17
ENDBRANCH  15  16
ENDBRANCH   1  15
TORSDOF 22
ENDMDL
MODEL 2
REMARK VINA RESULT:    -6.152      3.618      7.216
REMARK INTER + INTRA:         -16.189
REMARK INTER:                 -13.835
REMARK INTRA:                  -2.354
REMARK UNBOUND:                -2.126
REMARK SMILES CCCCCCCCCCCCCCCCCCCCCCCC(=O)[O-]
REMARK SMILES IDX 13 1 14 2 15 3 16 4 17 5 18 6 19 7 20 8 21 9 22 10 23 11
REMARK SMILES IDX 24 12 25 13 26 14 12 15 11 16 10 17 9 18 8 19 7 20 6 21 5 22
REMARK SMILES IDX 4 23 3 24 2 25 1 26
REMARK H PARENT
REMARK Flexibility Score: inf
ROOT
ATOM      1  C   UNL     1      41.820 -48.450 163.038  1.00  0.00     0.000 C 
ENDROOT
BRANCH   1   2
ATOM      2  C   UNL     1      41.670 -48.537 164.565  1.00  0.00     0.000 C 
BRANCH   2   3
ATOM      3  C   UNL     1      43.023 -48.499 165.295  1.00  0.00     0.000 C 
BRANCH   3   4
ATOM      4  C   UNL     1      44.070 -49.421 164.645  1.00  0.00     0.000 C 
BRANCH   4   5
ATOM      5  C   UNL     1      45.418 -48.718 164.415  1.00  0.00     0.000 C 
BRANCH   5   6
ATOM      6  C   UNL     1      45.376 -47.729 163.236  1.00  0.00     0.000 C 
BRANCH   6   7
ATOM      7  C   UNL     1      45.853 -46.316 163.625  1.00  0.00     0.000 C 
BRANCH   7   8
ATOM      8  C   UNL     1      45.918 -46.046 165.140  1.00  0.00     0.000 C 
BRANCH   8   9
ATOM      9  C   UNL     1      47.346 -45.744 165.631  1.00  0.00     0.000 C 
BRANCH   9  10
ATOM     10  C   UNL     1      48.408 -45.986 164.546  1.00  0.00     0.006 C 
BRANCH  10  11
ATOM     11  C   UNL     1      49.579 -46.848 165.038  1.00  0.00     0.053 C 
BRANCH  11  12
ATOM     12  C   UNL     1      49.242 -48.304 164.936  1.00  0.00     0.041 C 
ATOM     13  O   UNL     1      48.801 -48.779 163.855  1.00  0.00    -0.550 OA
ATOM     14  O   UNL     1      49.426 -49.140 166.031  1.00  0.00    -0.550 OA
ENDBRANCH  11  12
ENDBRANCH  10  11
ENDBRANCH   9  10
ENDBRANCH   8   9
ENDBRANCH   7   8
ENDBRANCH   6   7
ENDBRANCH   5   6
ENDBRANCH   4   5
ENDBRANCH   3   4
ENDBRANCH   2   3
ENDBRANCH   1   2
BRANCH   1  15
ATOM     15  C   UNL     1      40.548 -47.887 162.390  1.00  0.00     0.000 C 
BRANCH  15  16
ATOM     16  C   UNL     1      39.395 -48.899 162.474  1.00  0.00     0.000 C 
BRANCH  16  17
ATOM     17  C   UNL     1      38.131 -48.424 161.740  1.00  0.00     0.000 C 
BRANCH  17  18
ATOM     18  C   UNL     1      36.839 -48.958 162.383  1.00  0.00    -0.000 C 
BRANCH  18  19
ATOM     19  C   UNL     1      36.811 -50.493 162.461  1.00  0.00    -0.000 C 
BRANCH  19  20
ATOM     20  C   UNL     1      35.767 -51.115 161.520  1.00  0.00    -0.000 C 
BRANCH  20  21
ATOM     21  C   UNL     1      34.916 -50.029 160.851  1.00  0.00    -0.000 C 
BRANCH  21  22
ATOM     22  C   UNL     1      35.033 -50.102 159.321  1.00  0.00    -0.000 C 
BRANCH  22  23
ATOM     23  C   UNL     1      35.362 -48.742 158.679  1.00  0.00    -0.000 C 
BRANCH  23  24
ATOM     24  C   UNL     1      35.053 -47.516 159.559  1.00  0.00    -0.000 C 
BRANCH  24  25
ATOM     25  C   UNL     1      36.133 -46.428 159.467  1.00  0.00    -0.003 C 
ATOM     26  C   UNL     1      35.557 -45.052 159.789  1.00  0.00     0.004 C 
ENDBRANCH  24  25
ENDBRANCH  23  24
ENDBRANCH  22  23
ENDBRANCH  21  22
ENDBRANCH  20  21
ENDBRANCH  19  20
ENDBRANCH  18  19
ENDBRANCH  17  18
ENDBRANCH  16  17
ENDBRANCH  15  16
ENDBRANCH   1  15
TORSDOF 22
ENDMDL
MODEL 3
REMARK VINA RESULT:    -6.117      3.880      5.262
REMARK INTER + INTRA:         -16.110
REMARK INTER:                 -14.760
REMARK INTRA:                  -1.350
REMARK UNBOUND:                -2.126
REMARK SMILES CCCCCCCCCCCCCCCCCCCCCCCC(=O)[O-]
REMARK SMILES IDX 13 1 14 2 15 3 16 4 17 5 18 6 19 7 20 8 21 9 22 10 23 11
REMARK SMILES IDX 24 12 25 13 26 14 12 15 11 16 10 17 9 18 8 19 7 20 6 21 5 22
REMARK SMILES IDX 4 23 3 24 2 25 1 26
REMARK H PARENT
REMARK Flexibility Score: inf
ROOT
ATOM      1  C   UNL     1      44.854 -46.593 164.753  1.00  0.00     0.000 C 
ENDROOT
BRANCH   1   2
ATOM      2  C   UNL     1      46.128 -46.110 165.464  1.00  0.00     0.000 C 
BRANCH   2   3
ATOM      3  C   UNL     1      47.344 -46.048 164.523  1.00  0.00     0.000 C 
BRANCH   3   4
ATOM      4  C   UNL     1      48.483 -46.982 164.969  1.00  0.00     0.000 C 
BRANCH   4   5
ATOM      5  C   UNL     1      49.867 -46.482 164.525  1.00  0.00     0.000 C 
BRANCH   5   6
ATOM      6  C   UNL     1      50.877 -46.425 165.687  1.00  0.00     0.000 C 
BRANCH   6   7
ATOM      7  C   UNL     1      51.965 -47.511 165.585  1.00  0.00     0.000 C 
BRANCH   7   8
ATOM      8  C   UNL     1      53.403 -47.016 165.828  1.00  0.00     0.000 C 
BRANCH   8   9
ATOM      9  C   UNL     1      53.483 -45.930 166.917  1.00  0.00     0.000 C 
BRANCH   9  10
ATOM     10  C   UNL     1      54.182 -44.651 166.426  1.00  0.00     0.006 C 
BRANCH  10  11
ATOM     11  C   UNL     1      53.655 -44.166 165.069  1.00  0.00     0.053 C 
BRANCH  11  12
ATOM     12  C   UNL     1      53.833 -42.685 164.931  1.00  0.00     0.041 C 
ATOM     13  O   UNL     1      53.614 -41.926 165.914  1.00  0.00    -0.550 OA
ATOM     14  O   UNL     1      54.249 -42.143 163.721  1.00  0.00    -0.550 OA
ENDBRANCH  11  12
ENDBRANCH  10  11
ENDBRANCH   9  10
ENDBRANCH   8   9
ENDBRANCH   7   8
ENDBRANCH   6   7
ENDBRANCH   5   6
ENDBRANCH   4   5
ENDBRANCH   3   4
ENDBRANCH   2   3
ENDBRANCH   1   2
BRANCH   1  15
ATOM     15  C   UNL     1      45.008 -46.512 163.229  1.00  0.00     0.000 C 
BRANCH  15  16
ATOM     16  C   UNL     1      43.863 -47.252 162.521  1.00  0.00     0.000 C 
BRANCH  16  17
ATOM     17  C   UNL     1      43.001 -48.079 163.488  1.00  0.00     0.000 C 
BRANCH  17  18
ATOM     18  C   UNL     1      41.626 -48.436 162.896  1.00  0.00    -0.000 C 
BRANCH  18  19
ATOM     19  C   UNL     1      41.031 -47.293 162.058  1.00  0.00    -0.000 C 
BRANCH  19  20
ATOM     20  C   UNL     1      39.617 -47.607 161.546  1.00  0.00    -0.000 C 
BRANCH  20  21
ATOM     21  C   UNL     1      38.954 -48.694 162.400  1.00  0.00    -0.000 C 
BRANCH  21  22
ATOM     22  C   UNL     1      37.538 -49.007 161.893  1.00  0.00    -0.000 C 
BRANCH  22  23
ATOM     23  C   UNL     1      37.182 -48.249 160.601  1.00  0.00    -0.000 C 
BRANCH  23  24
ATOM     24  C   UNL     1      35.678 -47.986 160.395  1.00  0.00    -0.000 C 
BRANCH  24  25
ATOM     25  C   UNL     1      35.161 -48.504 159.046  1.00  0.00    -0.003 C 
ATOM     26  C   UNL     1      35.822 -49.829 158.675  1.00  0.00     0.004 C 
ENDBRANCH  24  25
ENDBRANCH  23  24
ENDBRANCH  22  23
ENDBRANCH  21  22
ENDBRANCH  20  21
ENDBRANCH  19  20
ENDBRANCH  18  19
ENDBRANCH  17  18
ENDBRANCH  16  17
ENDBRANCH  15  16
ENDBRANCH   1  15
TORSDOF 22
ENDMDL
MODEL 4
REMARK VINA RESULT:    -6.115      2.165      3.807
REMARK INTER + INTRA:         -16.105
REMARK INTER:                 -14.733
REMARK INTRA:                  -1.372
REMARK UNBOUND:                -2.126
REMARK SMILES CCCCCCCCCCCCCCCCCCCCCCCC(=O)[O-]
REMARK SMILES IDX 13 1 14 2 15 3 16 4 17 5 18 6 19 7 20 8 21 9 22 10 23 11
REMARK SMILES IDX 24 12 25 13 26 14 12 15 11 16 10 17 9 18 8 19 7 20 6 21 5 22
REMARK SMILES IDX 4 23 3 24 2 25 1 26
REMARK H PARENT
REMARK Flexibility Score: inf
ROOT
ATOM      1  C   UNL     1      46.211 -48.646 163.538  1.00  0.00     0.000 C 
ENDROOT
BRANCH   1   2
ATOM      2  C   UNL     1      46.377 -47.244 164.146  1.00  0.00     0.000 C 
BRANCH   2   3
ATOM      3  C   UNL     1      47.780 -47.015 164.731  1.00  0.00     0.000 C 
BRANCH   3   4
ATOM      4  C   UNL     1      48.662 -48.275 164.660  1.00  0.00     0.000 C 
BRANCH   4   5
ATOM      5  C   UNL     1      50.008 -48.098 165.381  1.00  0.00     0.000 C 
BRANCH   5   6
ATOM      6  C   UNL     1      50.486 -46.634 165.394  1.00  0.00     0.000 C 
BRANCH   6   7
ATOM      7  C   UNL     1      51.962 -46.493 165.811  1.00  0.00     0.000 C 
BRANCH   7   8
ATOM      8  C   UNL     1      52.843 -47.722 165.513  1.00  0.00     0.000 C 
BRANCH   8   9
ATOM      9  C   UNL     1      54.278 -47.569 166.049  1.00  0.00     0.000 C 
BRANCH   9  10
ATOM     10  C   UNL     1      54.731 -48.782 166.881  1.00  0.00     0.006 C 
BRANCH  10  11
ATOM     11  C   UNL     1      53.560 -49.660 167.342  1.00  0.00     0.053 C 
BRANCH  11  12
ATOM     12  C   UNL     1      54.039 -51.031 167.708  1.00  0.00     0.041 C 
ATOM     13  O   UNL     1      53.854 -51.479 168.871  1.00  0.00    -0.550 OA
ATOM     14  O   UNL     1      54.683 -51.820 166.761  1.00  0.00    -0.550 OA
ENDBRANCH  11  12
ENDBRANCH  10  11
ENDBRANCH   9  10
ENDBRANCH   8   9
ENDBRANCH   7   8
ENDBRANCH   6   7
ENDBRANCH   5   6
ENDBRANCH   4   5
ENDBRANCH   3   4
ENDBRANCH   2   3
ENDBRANCH   1   2
BRANCH   1  15
ATOM     15  C   UNL     1      44.806 -49.201 163.807  1.00  0.00     0.000 C 
BRANCH  15  16
ATOM     16  C   UNL     1      43.735 -48.343 163.116  1.00  0.00     0.000 C 
BRANCH  16  17
ATOM     17  C   UNL     1      42.393 -48.348 163.865  1.00  0.00     0.000 C 
BRANCH  17  18
ATOM     18  C   UNL     1      41.200 -48.637 162.937  1.00  0.00    -0.000 C 
BRANCH  18  19
ATOM     19  C   UNL     1      40.841 -47.435 162.049  1.00  0.00    -0.000 C 
BRANCH  19  20
ATOM     20  C   UNL     1      39.392 -47.486 161.540  1.00  0.00    -0.000 C 
BRANCH  20  21
ATOM     21  C   UNL     1      38.647 -48.690 162.128  1.00  0.00    -0.000 C 
BRANCH  21  22
ATOM     22  C   UNL     1      37.175 -48.697 161.687  1.00  0.00    -0.000 C 
BRANCH  22  23
ATOM     23  C   UNL     1      37.007 -48.753 160.158  1.00  0.00    -0.000 C 
BRANCH  23  24
ATOM     24  C   UNL     1      35.804 -47.964 159.607  1.00  0.00    -0.000 C 
BRANCH  24  25
ATOM     25  C   UNL     1      36.088 -46.462 159.467  1.00  0.00    -0.003 C 
ATOM     26  C   UNL     1      35.239 -45.648 160.440  1.00  0.00     0.004 C 
ENDBRANCH  24  25
ENDBRANCH  23  24
ENDBRANCH  22  23
ENDBRANCH  21  22
ENDBRANCH  20  21
ENDBRANCH  19  20
ENDBRANCH  18  19
ENDBRANCH  17  18
ENDBRANCH  16  17
ENDBRANCH  15  16
ENDBRANCH   1  15
TORSDOF 22
ENDMDL
MODEL 5
REMARK VINA RESULT:    -6.108      5.527     12.436
REMARK INTER + INTRA:         -16.090
REMARK INTER:                 -14.837
REMARK INTRA:                  -1.253
REMARK UNBOUND:                -2.126
REMARK SMILES CCCCCCCCCCCCCCCCCCCCCCCC(=O)[O-]
REMARK SMILES IDX 13 1 14 2 15 3 16 4 17 5 18 6 19 7 20 8 21 9 22 10 23 11
REMARK SMILES IDX 24 12 25 13 26 14 12 15 11 16 10 17 9 18 8 19 7 20 6 21 5 22
REMARK SMILES IDX 4 23 3 24 2 25 1 26
REMARK H PARENT
REMARK Flexibility Score: inf
ROOT
ATOM      1  C   UNL     1      45.369 -46.564 163.142  1.00  0.00     0.000 C 
ENDROOT
BRANCH   1   2
ATOM      2  C   UNL     1      44.123 -47.249 162.557  1.00  0.00     0.000 C 
BRANCH   2   3
ATOM      3  C   UNL     1      43.272 -47.946 163.631  1.00  0.00     0.000 C 
BRANCH   3   4
ATOM      4  C   UNL     1      41.883 -48.355 163.109  1.00  0.00     0.000 C 
BRANCH   4   5
ATOM      5  C   UNL     1      41.561 -47.743 161.736  1.00  0.00     0.000 C 
BRANCH   5   6
ATOM      6  C   UNL     1      40.206 -47.011 161.716  1.00  0.00     0.000 C 
BRANCH   6   7
ATOM      7  C   UNL     1      39.008 -47.972 161.843  1.00  0.00     0.000 C 
BRANCH   7   8
ATOM      8  C   UNL     1      37.883 -47.748 160.815  1.00  0.00     0.000 C 
BRANCH   8   9
ATOM      9  C   UNL     1      36.751 -48.785 160.936  1.00  0.00     0.000 C 
BRANCH   9  10
ATOM     10  C   UNL     1      36.895 -49.675 162.182  1.00  0.00     0.006 C 
BRANCH  10  11
ATOM     11  C   UNL     1      35.599 -50.417 162.538  1.00  0.00     0.053 C 
BRANCH  11  12
ATOM     12  C   UNL     1      35.854 -51.886 162.681  1.00  0.00     0.041 C 
ATOM     13  O   UNL     1      35.903 -52.624 161.660  1.00  0.00    -0.550 OA
ATOM     14  O   UNL     1      36.047 -52.441 163.941  1.00  0.00    -0.550 OA
ENDBRANCH  11  12
ENDBRANCH  10  11
ENDBRANCH   9  10
ENDBRANCH   8   9
ENDBRANCH   7   8
ENDBRANCH   6   7
ENDBRANCH   5   6
ENDBRANCH   4   5
ENDBRANCH   3   4
ENDBRANCH   2   3
ENDBRANCH   1   2
BRANCH   1  15
ATOM     15  C   UNL     1      45.146 -46.172 164.608  1.00  0.00     0.000 C 
BRANCH  15  16
ATOM     16  C   UNL     1      46.485 -45.997 165.339  1.00  0.00     0.000 C 
BRANCH  16  17
ATOM     17  C   UNL     1      47.604 -46.873 164.751  1.00  0.00     0.000 C 
BRANCH  17  18
ATOM     18  C   UNL     1      48.954 -46.138 164.682  1.00  0.00    -0.000 C 
BRANCH  18  19
ATOM     19  C   UNL     1      50.128 -47.020 165.139  1.00  0.00    -0.000 C 
BRANCH  19  20
ATOM     20  C   UNL     1      51.369 -46.201 165.525  1.00  0.00    -0.000 C 
BRANCH  20  21
ATOM     21  C   UNL     1      52.566 -47.118 165.803  1.00  0.00    -0.000 C 
BRANCH  21  22
ATOM     22  C   UNL     1      53.749 -46.323 166.375  1.00  0.00    -0.000 C 
BRANCH  22  23
ATOM     23  C   UNL     1      53.749 -44.848 165.937  1.00  0.00    -0.000 C 
BRANCH  23  24
ATOM     24  C   UNL     1      54.726 -44.509 164.794  1.00  0.00    -0.000 C 
BRANCH  24  25
ATOM     25  C   UNL     1      54.453 -43.136 164.162  1.00  0.00    -0.003 C 
ATOM     26  C   UNL     1      53.270 -42.446 164.836  1.00  0.00     0.004 C 
ENDBRANCH  24  25
ENDBRANCH  23  24
ENDBRANCH  22  23
ENDBRANCH  21  22
ENDBRANCH  20  21
ENDBRANCH  19  20
ENDBRANCH  18  19
ENDBRANCH  17  18
ENDBRANCH  16  17
ENDBRANCH  15  16
ENDBRANCH   1  15
TORSDOF 22
ENDMDL
MODEL 6
REMARK VINA RESULT:    -6.055      6.001     13.048
REMARK INTER + INTRA:         -15.969
REMARK INTER:                 -14.555
REMARK INTRA:                  -1.414
REMARK UNBOUND:                -2.126
REMARK SMILES CCCCCCCCCCCCCCCCCCCCCCCC(=O)[O-]
REMARK SMILES IDX 13 1 14 2 15 3 16 4 17 5 18 6 19 7 20 8 21 9 22 10 23 11
REMARK SMILES IDX 24 12 25 13 26 14 12 15 11 16 10 17 9 18 8 19 7 20 6 21 5 22
REMARK SMILES IDX 4 23 3 24 2 25 1 26
REMARK H PARENT
REMARK Flexibility Score: inf
ROOT
ATOM      1  C   UNL     1      43.811 -47.109 162.535  1.00  0.00     0.000 C 
ENDROOT
BRANCH   1   2
ATOM      2  C   UNL     1      43.138 -48.057 163.540  1.00  0.00     0.000 C 
BRANCH   2   3
ATOM      3  C   UNL     1      41.658 -48.313 163.214  1.00  0.00     0.000 C 
BRANCH   3   4
ATOM      4  C   UNL     1      41.072 -47.254 162.263  1.00  0.00     0.000 C 
BRANCH   4   5
ATOM      5  C   UNL     1      39.732 -47.688 161.645  1.00  0.00     0.000 C 
BRANCH   5   6
ATOM      6  C   UNL     1      39.063 -48.834 162.426  1.00  0.00     0.000 C 
BRANCH   6   7
ATOM      7  C   UNL     1      37.539 -48.893 162.208  1.00  0.00     0.000 C 
BRANCH   7   8
ATOM      8  C   UNL     1      37.082 -48.681 160.752  1.00  0.00     0.000 C 
BRANCH   8   9
ATOM      9  C   UNL     1      35.673 -48.066 160.654  1.00  0.00     0.000 C 
BRANCH   9  10
ATOM     10  C   UNL     1      35.547 -47.058 159.499  1.00  0.00     0.006 C 
BRANCH  10  11
ATOM     11  C   UNL     1      36.135 -45.682 159.840  1.00  0.00     0.053 C 
BRANCH  11  12
ATOM     12  C   UNL     1      36.655 -45.010 158.607  1.00  0.00     0.041 C 
ATOM     13  O   UNL     1      36.263 -45.382 157.468  1.00  0.00    -0.550 OA
ATOM     14  O   UNL     1      37.565 -43.964 158.714  1.00  0.00    -0.550 OA
ENDBRANCH  11  12
ENDBRANCH  10  11
ENDBRANCH   9  10
ENDBRANCH   8   9
ENDBRANCH   7   8
ENDBRANCH   6   7
ENDBRANCH   5   6
ENDBRANCH   4   5
ENDBRANCH   3   4
ENDBRANCH   2   3
ENDBRANCH   1   2
BRANCH   1  15
ATOM     15  C   UNL     1      45.106 -46.522 163.110  1.00  0.00     0.000 C 
BRANCH  15  16
ATOM     16  C   UNL     1      45.445 -47.164 164.464  1.00  0.00     0.000 C 
BRANCH  16  17
ATOM     17  C   UNL     1      45.743 -46.125 165.558  1.00  0.00     0.000 C 
BRANCH  17  18
ATOM     18  C   UNL     1      47.200 -45.630 165.521  1.00  0.00    -0.000 C 
BRANCH  18  19
ATOM     19  C   UNL     1      48.188 -46.737 165.119  1.00  0.00    -0.000 C 
BRANCH  19  20
ATOM     20  C   UNL     1      49.403 -46.196 164.351  1.00  0.00    -0.000 C 
BRANCH  20  21
ATOM     21  C   UNL     1      50.661 -46.217 165.229  1.00  0.00    -0.000 C 
BRANCH  21  22
ATOM     22  C   UNL     1      51.095 -47.659 165.535  1.00  0.00    -0.000 C 
BRANCH  22  23
ATOM     23  C   UNL     1      52.612 -47.794 165.755  1.00  0.00    -0.000 C 
BRANCH  23  24
ATOM     24  C   UNL     1      53.287 -46.573 166.409  1.00  0.00    -0.000 C 
BRANCH  24  25
ATOM     25  C   UNL     1      54.326 -45.905 165.497  1.00  0.00    -0.003 C 
ATOM     26  C   UNL     1      54.027 -44.419 165.319  1.00  0.00     0.004 C 
ENDBRANCH  24  25
ENDBRANCH  23  24
ENDBRANCH  22  23
ENDBRANCH  21  22
ENDBRANCH  20  21
ENDBRANCH  19  20
ENDBRANCH  18  19
ENDBRANCH  17  18
ENDBRANCH  16  17
ENDBRANCH  15  16
ENDBRANCH   1  15
TORSDOF 22
ENDMDL
MODEL 7
REMARK VINA RESULT:    -6.052      3.290      6.496
REMARK INTER + INTRA:         -15.962
REMARK INTER:                 -14.138
REMARK INTRA:                  -1.824
REMARK UNBOUND:                -2.126
REMARK SMILES CCCCCCCCCCCCCCCCCCCCCCCC(=O)[O-]
REMARK SMILES IDX 13 1 14 2 15 3 16 4 17 5 18 6 19 7 20 8 21 9 22 10 23 11
REMARK SMILES IDX 24 12 25 13 26 14 12 15 11 16 10 17 9 18 8 19 7 20 6 21 5 22
REMARK SMILES IDX 4 23 3 24 2 25 1 26
REMARK H PARENT
REMARK Flexibility Score: inf
ROOT
ATOM      1  C   UNL     1      42.480 -47.987 161.630  1.00  0.00     0.000 C 
ENDROOT
BRANCH   1   2
ATOM      2  C   UNL     1      43.729 -47.805 162.508  1.00  0.00     0.000 C 
BRANCH   2   3
ATOM      3  C   UNL     1      43.560 -48.410 163.911  1.00  0.00     0.000 C 
BRANCH   3   4
ATOM      4  C   UNL     1      44.136 -47.508 165.016  1.00  0.00     0.000 C 
BRANCH   4   5
ATOM      5  C   UNL     1      45.103 -46.444 164.470  1.00  0.00     0.000 C 
BRANCH   5   6
ATOM      6  C   UNL     1      45.612 -45.488 165.564  1.00  0.00     0.000 C 
BRANCH   6   7
ATOM      7  C   UNL     1      47.127 -45.621 165.814  1.00  0.00     0.000 C 
BRANCH   7   8
ATOM      8  C   UNL     1      47.883 -46.478 164.781  1.00  0.00     0.000 C 
BRANCH   8   9
ATOM      9  C   UNL     1      49.289 -45.931 164.469  1.00  0.00     0.000 C 
BRANCH   9  10
ATOM     10  C   UNL     1      50.393 -46.653 165.259  1.00  0.00     0.006 C 
BRANCH  10  11
ATOM     11  C   UNL     1      51.732 -45.902 165.234  1.00  0.00     0.053 C 
BRANCH  11  12
ATOM     12  C   UNL     1      52.780 -46.667 165.984  1.00  0.00     0.041 C 
ATOM     13  O   UNL     1      52.951 -47.895 165.759  1.00  0.00    -0.550 OA
ATOM     14  O   UNL     1      53.575 -46.021 166.923  1.00  0.00    -0.550 OA
ENDBRANCH  11  12
ENDBRANCH  10  11
ENDBRANCH   9  10
ENDBRANCH   8   9
ENDBRANCH   7   8
ENDBRANCH   6   7
ENDBRANCH   5   6
ENDBRANCH   4   5
ENDBRANCH   3   4
ENDBRANCH   2   3
ENDBRANCH   1   2
BRANCH   1  15
ATOM     15  C   UNL     1      41.198 -47.771 162.444  1.00  0.00     0.000 C 
BRANCH  15  16
ATOM     16  C   UNL     1      40.213 -46.867 161.687  1.00  0.00     0.000 C 
BRANCH  16  17
ATOM     17  C   UNL     1      38.905 -47.587 161.320  1.00  0.00     0.000 C 
BRANCH  17  18
ATOM     18  C   UNL     1      38.665 -48.846 162.170  1.00  0.00    -0.000 C 
BRANCH  18  19
ATOM     19  C   UNL     1      37.173 -49.094 162.447  1.00  0.00    -0.000 C 
BRANCH  19  20
ATOM     20  C   UNL     1      36.813 -50.587 162.457  1.00  0.00    -0.000 C 
BRANCH  20  21
ATOM     21  C   UNL     1      35.585 -50.860 161.580  1.00  0.00    -0.000 C 
BRANCH  21  22
ATOM     22  C   UNL     1      35.029 -49.556 160.988  1.00  0.00    -0.000 C 
BRANCH  22  23
ATOM     23  C   UNL     1      35.133 -49.501 159.453  1.00  0.00    -0.000 C 
BRANCH  23  24
ATOM     24  C   UNL     1      35.654 -48.168 158.884  1.00  0.00    -0.000 C 
BRANCH  24  25
ATOM     25  C   UNL     1      35.437 -46.985 159.839  1.00  0.00    -0.003 C 
ATOM     26  C   UNL     1      36.261 -45.774 159.411  1.00  0.00     0.004 C 
ENDBRANCH  24  25
ENDBRANCH  23  24
ENDBRANCH  22  23
ENDBRANCH  21  22
ENDBRANCH  20  21
ENDBRANCH  19  20
ENDBRANCH  18  19
ENDBRANCH  17  18
ENDBRANCH  16  17
ENDBRANCH  15  16
ENDBRANCH   1  15
TORSDOF 22
ENDMDL
MODEL 8
REMARK VINA RESULT:    -6.009      2.658      4.192
REMARK INTER + INTRA:         -15.863
REMARK INTER:                 -14.625
REMARK INTRA:                  -1.238
REMARK UNBOUND:                -2.126
REMARK SMILES CCCCCCCCCCCCCCCCCCCCCCCC(=O)[O-]
REMARK SMILES IDX 13 1 14 2 15 3 16 4 17 5 18 6 19 7 20 8 21 9 22 10 23 11
REMARK SMILES IDX 24 12 25 13 26 14 12 15 11 16 10 17 9 18 8 19 7 20 6 21 5 22
REMARK SMILES IDX 4 23 3 24 2 25 1 26
REMARK H PARENT
REMARK Flexibility Score: inf
ROOT
ATOM      1  C   UNL     1      45.225 -49.333 164.691  1.00  0.00     0.000 C 
ENDROOT
BRANCH   1   2
ATOM      2  C   UNL     1      46.065 -48.595 163.636  1.00  0.00     0.000 C 
BRANCH   2   3
ATOM      3  C   UNL     1      47.577 -48.737 163.878  1.00  0.00     0.000 C 
BRANCH   3   4
ATOM      4  C   UNL     1      48.104 -47.736 164.921  1.00  0.00     0.000 C 
BRANCH   4   5
ATOM      5  C   UNL     1      49.623 -47.842 165.131  1.00  0.00     0.000 C 
BRANCH   5   6
ATOM      6  C   UNL     1      50.347 -46.501 164.915  1.00  0.00     0.000 C 
BRANCH   6   7
ATOM      7  C   UNL     1      51.728 -46.452 165.596  1.00  0.00     0.000 C 
BRANCH   7   8
ATOM      8  C   UNL     1      52.394 -47.824 165.814  1.00  0.00     0.000 C 
BRANCH   8   9
ATOM      9  C   UNL     1      53.923 -47.725 165.972  1.00  0.00     0.000 C 
BRANCH   9  10
ATOM     10  C   UNL     1      54.535 -48.986 166.604  1.00  0.00     0.006 C 
BRANCH  10  11
ATOM     11  C   UNL     1      53.510 -49.820 167.385  1.00  0.00     0.053 C 
BRANCH  11  12
ATOM     12  C   UNL     1      54.018 -51.212 167.604  1.00  0.00     0.041 C 
ATOM     13  O   UNL     1      53.736 -51.831 168.666  1.00  0.00    -0.550 OA
ATOM     14  O   UNL     1      54.794 -51.831 166.632  1.00  0.00    -0.550 OA
ENDBRANCH  11  12
ENDBRANCH  10  11
ENDBRANCH   9  10
ENDBRANCH   8   9
ENDBRANCH   7   8
ENDBRANCH   6   7
ENDBRANCH   5   6
ENDBRANCH   4   5
ENDBRANCH   3   4
ENDBRANCH   2   3
ENDBRANCH   1   2
BRANCH   1  15
ATOM     15  C   UNL     1      43.829 -48.712 164.819  1.00  0.00     0.000 C 
BRANCH  15  16
ATOM     16  C   UNL     1      43.518 -47.808 163.617  1.00  0.00     0.000 C 
BRANCH  16  17
ATOM     17  C   UNL     1      42.311 -48.297 162.799  1.00  0.00     0.000 C 
BRANCH  17  18
ATOM     18  C   UNL     1      41.237 -48.967 163.675  1.00  0.00    -0.000 C 
BRANCH  18  19
ATOM     19  C   UNL     1      39.923 -49.207 162.914  1.00  0.00    -0.000 C 
BRANCH  19  20
ATOM     20  C   UNL     1      39.643 -48.126 161.859  1.00  0.00    -0.000 C 
BRANCH  20  21
ATOM     21  C   UNL     1      38.137 -47.981 161.610  1.00  0.00    -0.000 C 
BRANCH  21  22
ATOM     22  C   UNL     1      37.342 -49.023 162.411  1.00  0.00    -0.000 C 
BRANCH  22  23
ATOM     23  C   UNL     1      35.871 -49.125 161.970  1.00  0.00    -0.000 C 
BRANCH  23  24
ATOM     24  C   UNL     1      35.128 -50.380 162.466  1.00  0.00    -0.000 C 
BRANCH  24  25
ATOM     25  C   UNL     1      35.975 -51.657 162.357  1.00  0.00    -0.003 C 
ATOM     26  C   UNL     1      35.969 -52.435 163.671  1.00  0.00     0.004 C 
ENDBRANCH  24  25
ENDBRANCH  23  24
ENDBRANCH  22  23
ENDBRANCH  21  22
ENDBRANCH  20  21
ENDBRANCH  19  20
ENDBRANCH  18  19
ENDBRANCH  17  18
ENDBRANCH  16  17
ENDBRANCH  15  16
ENDBRANCH   1  15
TORSDOF 22
ENDMDL
MODEL 9
REMARK VINA RESULT:    -6.009      5.285     12.358
REMARK INTER + INTRA:         -15.862
REMARK INTER:                 -14.490
REMARK INTRA:                  -1.372
REMARK UNBOUND:                -2.126
REMARK SMILES CCCCCCCCCCCCCCCCCCCCCCCC(=O)[O-]
REMARK SMILES IDX 13 1 14 2 15 3 16 4 17 5 18 6 19 7 20 8 21 9 22 10 23 11
REMARK SMILES IDX 24 12 25 13 26 14 12 15 11 16 10 17 9 18 8 19 7 20 6 21 5 22
REMARK SMILES IDX 4 23 3 24 2 25 1 26
REMARK H PARENT
REMARK Flexibility Score: inf
ROOT
ATOM      1  C   UNL     1      46.081 -46.986 164.724  1.00  0.00     0.000 C 
ENDROOT
BRANCH   1   2
ATOM      2  C   UNL     1      45.674 -46.211 163.460  1.00  0.00     0.000 C 
BRANCH   2   3
ATOM      3  C   UNL     1      44.242 -46.535 163.003  1.00  0.00     0.000 C 
BRANCH   3   4
ATOM      4  C   UNL     1      44.192 -47.696 161.995  1.00  0.00     0.000 C 
BRANCH   4   5
ATOM      5  C   UNL     1      42.796 -47.889 161.380  1.00  0.00     0.000 C 
BRANCH   5   6
ATOM      6  C   UNL     1      41.664 -47.668 162.400  1.00  0.00     0.000 C 
BRANCH   6   7
ATOM      7  C   UNL     1      40.328 -47.286 161.734  1.00  0.00     0.000 C 
BRANCH   7   8
ATOM      8  C   UNL     1      39.251 -48.388 161.758  1.00  0.00     0.000 C 
BRANCH   8   9
ATOM      9  C   UNL     1      37.953 -47.968 161.043  1.00  0.00     0.000 C 
BRANCH   9  10
ATOM     10  C   UNL     1      36.736 -48.793 161.493  1.00  0.00     0.006 C 
BRANCH  10  11
ATOM     11  C   UNL     1      37.106 -49.917 162.471  1.00  0.00     0.053 C 
BRANCH  11  12
ATOM     12  C   UNL     1      36.153 -51.065 162.341  1.00  0.00     0.041 C 
ATOM     13  O   UNL     1      35.938 -51.826 163.323  1.00  0.00    -0.550 OA
ATOM     14  O   UNL     1      35.493 -51.291 161.139  1.00  0.00    -0.550 OA
ENDBRANCH  11  12
ENDBRANCH  10  11
ENDBRANCH   9  10
ENDBRANCH   8   9
ENDBRANCH   7   8
ENDBRANCH   6   7
ENDBRANCH   5   6
ENDBRANCH   4   5
ENDBRANCH   3   4
ENDBRANCH   2   3
ENDBRANCH   1   2
BRANCH   1  15
ATOM     15  C   UNL     1      47.592 -47.244 164.751  1.00  0.00     0.000 C 
BRANCH  15  16
ATOM     16  C   UNL     1      48.376 -45.929 164.617  1.00  0.00     0.000 C 
BRANCH  16  17
ATOM     17  C   UNL     1      49.897 -46.129 164.718  1.00  0.00     0.000 C 
BRANCH  17  18
ATOM     18  C   UNL     1      50.276 -47.525 165.243  1.00  0.00    -0.000 C 
BRANCH  18  19
ATOM     19  C   UNL     1      51.786 -47.670 165.492  1.00  0.00    -0.000 C 
BRANCH  19  20
ATOM     20  C   UNL     1      52.417 -46.393 166.066  1.00  0.00    -0.000 C 
BRANCH  20  21
ATOM     21  C   UNL     1      53.917 -46.589 166.320  1.00  0.00    -0.000 C 
BRANCH  21  22
ATOM     22  C   UNL     1      54.458 -47.789 165.528  1.00  0.00    -0.000 C 
BRANCH  22  23
ATOM     23  C   UNL     1      55.071 -48.876 166.429  1.00  0.00    -0.000 C 
BRANCH  23  24
ATOM     24  C   UNL     1      54.749 -48.735 167.929  1.00  0.00    -0.000 C 
BRANCH  24  25
ATOM     25  C   UNL     1      54.041 -49.969 168.507  1.00  0.00    -0.003 C 
ATOM     26  C   UNL     1      53.959 -51.090 167.474  1.00  0.00     0.004 C 
ENDBRANCH  24  25
ENDBRANCH  23  24
ENDBRANCH  22  23
ENDBRANCH  21  22
ENDBRANCH  20  21
ENDBRANCH  19  20
ENDBRANCH  18  19
ENDBRANCH  17  18
ENDBRANCH  16  17
ENDBRANCH  15  16
ENDBRANCH   1  15
TORSDOF 22
ENDMDL
