MODEL 1
REMARK VINA RESULT:    -7.481      0.000      0.000
REMARK INTER + INTRA:          -8.112
REMARK INTER:                  -8.137
REMARK INTRA:                   0.026
REMARK UNBOUND:                 0.026
REMARK SMILES C[C@@H]1[C@H](C)CC[C@@]2(C(=O)[O-])CC[C@]3(C)C(=CC[C@@H]4[C@]5(C)CC[C@@H](O)C(C)(C)[C@H]5CC[C@@]43C)[C@H]12
REMARK SMILES IDX 7 1 6 2 11 3 33 4 5 5 12 6 15 7 2 8 3 9 13 10 16 11 1 12
REMARK SMILES IDX 4 13 14 14 31 15 17 16 18 17 30 18 32 19 19 20 29 21 28 22
REMARK SMILES IDX 21 23 20 24 25 25 22 26 23 27 26 28 27 29 8 30 9 31 10 32
REMARK SMILES IDX 24 33
REMARK H PARENT 24 34
REMARK Flexibility Score: inf
ROOT
ATOM      1  C   UNL     1     -10.052  -8.268  90.698  1.00  0.00     0.017 C 
ATOM      2  C   UNL     1      -8.658  -8.245  89.993  1.00  0.00     0.014 C 
ATOM      3  C   UNL     1     -10.745  -9.654  90.352  1.00  0.00     0.014 C 
ATOM      4  C   UNL     1      -9.963  -8.164  92.268  1.00  0.00     0.030 C 
ATOM      5  C   UNL     1      -7.511  -8.537  90.956  1.00  0.00     0.004 C 
ATOM      6  C   UNL     1     -11.696 -10.221  91.432  1.00  0.00     0.013 C 
ATOM      7  C   UNL     1     -11.406  -8.118  92.841  1.00  0.00    -0.063 C 
ATOM      8  C   UNL     1      -8.752  -7.297  92.843  1.00  0.00    -0.003 C 
ATOM      9  C   UNL     1      -7.422  -7.430  92.014  1.00  0.00    -0.011 C 
ATOM     10  C   UNL     1     -12.453  -9.144  92.296  1.00  0.00    -0.006 C 
ATOM     11  C   UNL     1     -11.824  -7.304  93.830  1.00  0.00    -0.027 C 
ATOM     12  C   UNL     1      -9.025  -5.858  93.347  1.00  0.00     0.008 C 
ATOM     13  C   UNL     1      -6.907  -6.118  91.355  1.00  0.00     0.008 C 
ATOM     14  C   UNL     1     -13.477  -8.442  91.333  1.00  0.00     0.017 C 
ATOM     15  C   UNL     1     -13.202  -9.784  93.596  1.00  0.00    -0.020 C 
ATOM     16  C   UNL     1     -13.279  -7.210  94.129  1.00  0.00     0.032 C 
ATOM     17  C   UNL     1     -13.861  -8.601  94.503  1.00  0.00     0.006 C 
ATOM     18  C   UNL     1     -12.153 -10.634  94.411  1.00  0.00     0.008 C 
ATOM     19  C   UNL     1     -14.298 -10.782  93.111  1.00  0.00     0.012 C 
ATOM     20  C   UNL     1     -14.001  -8.873  96.086  1.00  0.00    -0.025 C 
ATOM     21  C   UNL     1     -12.496 -10.897  95.873  1.00  0.00     0.005 C 
ATOM     22  C   UNL     1     -12.699  -9.570  96.620  1.00  0.00     0.003 C 
ATOM     23  C   UNL     1     -14.188  -7.552  96.913  1.00  0.00     0.010 C 
ATOM     24  C   UNL     1     -15.295  -9.712  96.312  1.00  0.00     0.012 C 
ATOM     25  C   UNL     1     -12.480  -9.680  98.209  1.00  0.00    -0.006 C 
ATOM     26  C   UNL     1     -14.252  -7.805  98.420  1.00  0.00     0.033 C 
ATOM     27  C   UNL     1     -12.893  -8.335  98.896  1.00  0.00     0.120 C 
ATOM     28  C   UNL     1     -10.950  -9.865  98.487  1.00  0.00     0.014 C 
ATOM     29  C   UNL     1     -13.197 -10.894  98.870  1.00  0.00     0.014 C 
ENDROOT
BRANCH   1  30
ATOM     30  C   UNL     1     -10.862  -7.118  90.097  1.00  0.00     0.048 C 
ATOM     31  O   UNL     1     -11.535  -7.292  89.044  1.00  0.00    -0.550 OA
ATOM     32  O   UNL     1     -10.808  -5.850  90.652  1.00  0.00    -0.550 OA
ENDBRANCH   1  30
BRANCH  27  33
ATOM     33  O   UNL     1     -12.847  -8.422 100.302  1.00  0.00    -0.393 OA
ATOM     34  H   UNL     1     -13.005  -7.518 100.690  1.00  0.00     0.210 HD
ENDBRANCH  27  33
TORSDOF 2
ENDMDL
MODEL 2
REMARK VINA RESULT:    -7.162      1.896      7.222
REMARK INTER + INTRA:          -7.764
REMARK INTER:                  -7.790
REMARK INTRA:                   0.026
REMARK UNBOUND:                 0.026
REMARK SMILES C[C@@H]1[C@H](C)CC[C@@]2(C(=O)[O-])CC[C@]3(C)C(=CC[C@@H]4[C@]5(C)CC[C@@H](O)C(C)(C)[C@H]5CC[C@@]43C)[C@H]12
REMARK SMILES IDX 7 1 6 2 11 3 33 4 5 5 12 6 15 7 2 8 3 9 13 10 16 11 1 12
REMARK SMILES IDX 4 13 14 14 31 15 17 16 18 17 30 18 32 19 19 20 29 21 28 22
REMARK SMILES IDX 21 23 20 24 25 25 22 26 23 27 26 28 27 29 8 30 9 31 10 32
REMARK SMILES IDX 24 33
REMARK H PARENT 24 34
REMARK Flexibility Score: inf
ROOT
ATOM      1  C   UNL     1     -13.349  -9.096  97.698  1.00  0.00     0.017 C 
ATOM      2  C   UNL     1     -13.660  -8.247  98.972  1.00  0.00     0.014 C 
ATOM      3  C   UNL     1     -14.734  -9.585  97.095  1.00  0.00     0.014 C 
ATOM      4  C   UNL     1     -12.603  -8.287  96.571  1.00  0.00     0.030 C 
ATOM      5  C   UNL     1     -13.555  -6.746  98.714  1.00  0.00     0.004 C 
ATOM      6  C   UNL     1     -14.774  -9.770  95.560  1.00  0.00     0.013 C 
ATOM      7  C   UNL     1     -12.284  -9.255  95.399  1.00  0.00    -0.063 C 
ATOM      8  C   UNL     1     -11.609  -7.144  97.073  1.00  0.00    -0.003 C 
ATOM      9  C   UNL     1     -12.110  -6.378  98.352  1.00  0.00    -0.011 C 
ATOM     10  C   UNL     1     -13.415 -10.212  94.899  1.00  0.00    -0.006 C 
ATOM     11  C   UNL     1     -11.120  -9.296  94.720  1.00  0.00    -0.027 C 
ATOM     12  C   UNL     1     -10.083  -7.416  97.074  1.00  0.00     0.008 C 
ATOM     13  C   UNL     1     -11.207  -6.510  99.612  1.00  0.00     0.008 C 
ATOM     14  C   UNL     1     -13.151 -11.687  95.372  1.00  0.00     0.017 C 
ATOM     15  C   UNL     1     -13.434 -10.104  93.272  1.00  0.00    -0.020 C 
ATOM     16  C   UNL     1     -10.871 -10.416  93.771  1.00  0.00     0.032 C 
ATOM     17  C   UNL     1     -11.964 -10.463  92.667  1.00  0.00     0.006 C 
ATOM     18  C   UNL     1     -13.896  -8.650  92.871  1.00  0.00     0.008 C 
ATOM     19  C   UNL     1     -14.514 -11.080  92.710  1.00  0.00     0.012 C 
ATOM     20  C   UNL     1     -11.548  -9.770  91.272  1.00  0.00    -0.025 C 
ATOM     21  C   UNL     1     -13.516  -8.191  91.468  1.00  0.00     0.005 C 
ATOM     22  C   UNL     1     -11.993  -8.264  91.276  1.00  0.00     0.003 C 
ATOM     23  C   UNL     1      -9.998  -9.790  91.025  1.00  0.00     0.010 C 
ATOM     24  C   UNL     1     -12.181 -10.604  90.118  1.00  0.00     0.012 C 
ATOM     25  C   UNL     1     -11.436  -7.292  90.122  1.00  0.00    -0.006 C 
ATOM     26  C   UNL     1      -9.598  -9.073  89.735  1.00  0.00     0.033 C 
ATOM     27  C   UNL     1      -9.918  -7.578  89.874  1.00  0.00     0.120 C 
ATOM     28  C   UNL     1     -11.531  -5.815  90.631  1.00  0.00     0.014 C 
ATOM     29  C   UNL     1     -12.245  -7.352  88.792  1.00  0.00     0.014 C 
ENDROOT
BRANCH   1  30
ATOM     30  C   UNL     1     -12.533 -10.301  98.168  1.00  0.00     0.048 C 
ATOM     31  O   UNL     1     -13.112 -11.349  98.568  1.00  0.00    -0.550 OA
ATOM     32  O   UNL     1     -11.151 -10.237  98.235  1.00  0.00    -0.550 OA
ENDBRANCH   1  30
BRANCH  27  33
ATOM     33  O   UNL     1      -9.412  -6.847  88.781  1.00  0.00    -0.393 OA
ATOM     34  H   UNL     1      -9.642  -7.323  87.937  1.00  0.00     0.210 HD
ENDBRANCH  27  33
TORSDOF 2
ENDMDL
MODEL 3
REMARK VINA RESULT:    -6.935      1.813      7.577
REMARK INTER + INTRA:          -7.517
REMARK INTER:                  -7.544
REMARK INTRA:                   0.027
REMARK UNBOUND:                 0.026
REMARK SMILES C[C@@H]1[C@H](C)CC[C@@]2(C(=O)[O-])CC[C@]3(C)C(=CC[C@@H]4[C@]5(C)CC[C@@H](O)C(C)(C)[C@H]5CC[C@@]43C)[C@H]12
REMARK SMILES IDX 7 1 6 2 11 3 33 4 5 5 12 6 15 7 2 8 3 9 13 10 16 11 1 12
REMARK SMILES IDX 4 13 14 14 31 15 17 16 18 17 30 18 32 19 19 20 29 21 28 22
REMARK SMILES IDX 21 23 20 24 25 25 22 26 23 27 26 28 27 29 8 30 9 31 10 32
REMARK SMILES IDX 24 33
REMARK H PARENT 24 34
REMARK Flexibility Score: inf
ROOT
ATOM      1  C   UNL     1     -13.750  -9.299  98.696  1.00  0.00     0.017 C 
ATOM      2  C   UNL     1     -14.815  -9.001  99.800  1.00  0.00     0.014 C 
ATOM      3  C   UNL     1     -13.837 -10.845  98.347  1.00  0.00     0.014 C 
ATOM      4  C   UNL     1     -13.990  -8.499  97.360  1.00  0.00     0.030 C 
ATOM      5  C   UNL     1     -16.068  -8.336  99.238  1.00  0.00     0.004 C 
ATOM      6  C   UNL     1     -13.480 -11.229  96.892  1.00  0.00     0.013 C 
ATOM      7  C   UNL     1     -12.829  -8.820  96.379  1.00  0.00    -0.063 C 
ATOM      8  C   UNL     1     -14.641  -7.050  97.520  1.00  0.00    -0.003 C 
ATOM      9  C   UNL     1     -15.716  -6.956  98.665  1.00  0.00    -0.011 C 
ATOM     10  C   UNL     1     -12.403 -10.314  96.198  1.00  0.00    -0.006 C 
ATOM     11  C   UNL     1     -12.192  -7.917  95.607  1.00  0.00    -0.027 C 
ATOM     12  C   UNL     1     -13.733  -5.799  97.421  1.00  0.00     0.008 C 
ATOM     13  C   UNL     1     -15.377  -5.980  99.827  1.00  0.00     0.008 C 
ATOM     14  C   UNL     1     -11.041 -10.600  96.927  1.00  0.00     0.017 C 
ATOM     15  C   UNL     1     -12.284 -10.576  94.593  1.00  0.00    -0.020 C 
ATOM     16  C   UNL     1     -10.958  -8.324  94.881  1.00  0.00     0.032 C 
ATOM     17  C   UNL     1     -11.241  -9.516  93.926  1.00  0.00     0.006 C 
ATOM     18  C   UNL     1     -13.724 -10.461  93.959  1.00  0.00     0.008 C 
ATOM     19  C   UNL     1     -11.811 -12.042  94.350  1.00  0.00     0.012 C 
ATOM     20  C   UNL     1     -11.485  -9.107  92.386  1.00  0.00    -0.025 C 
ATOM     21  C   UNL     1     -13.775 -10.182  92.461  1.00  0.00     0.005 C 
ATOM     22  C   UNL     1     -13.019  -8.885  92.134  1.00  0.00     0.003 C 
ATOM     23  C   UNL     1     -10.756  -7.773  91.991  1.00  0.00     0.010 C 
ATOM     24  C   UNL     1     -10.861 -10.221  91.492  1.00  0.00     0.012 C 
ATOM     25  C   UNL     1     -13.482  -8.192  90.758  1.00  0.00    -0.006 C 
ATOM     26  C   UNL     1     -11.044  -7.349  90.550  1.00  0.00     0.033 C 
ATOM     27  C   UNL     1     -12.531  -6.996  90.420  1.00  0.00     0.120 C 
ATOM     28  C   UNL     1     -14.907  -7.578  90.968  1.00  0.00     0.014 C 
ATOM     29  C   UNL     1     -13.600  -9.176  89.557  1.00  0.00     0.014 C 
ENDROOT
BRANCH   1  30
ATOM     30  C   UNL     1     -12.387  -8.982  99.312  1.00  0.00     0.048 C 
ATOM     31  O   UNL     1     -11.739  -9.873  99.928  1.00  0.00    -0.550 OA
ATOM     32  O   UNL     1     -11.874  -7.695  99.272  1.00  0.00    -0.550 OA
ENDBRANCH   1  30
BRANCH  27  33
ATOM     33  O   UNL     1     -12.811  -6.437  89.157  1.00  0.00    -0.393 OA
ATOM     34  H   UNL     1     -13.796  -6.438  89.011  1.00  0.00     0.210 HD
ENDBRANCH  27  33
TORSDOF 2
ENDMDL
MODEL 4
REMARK VINA RESULT:    -6.800      1.930      7.263
REMARK INTER + INTRA:          -7.370
REMARK INTER:                  -7.403
REMARK INTRA:                   0.033
REMARK UNBOUND:                 0.026
REMARK SMILES C[C@@H]1[C@H](C)CC[C@@]2(C(=O)[O-])CC[C@]3(C)C(=CC[C@@H]4[C@]5(C)CC[C@@H](O)C(C)(C)[C@H]5CC[C@@]43C)[C@H]12
REMARK SMILES IDX 7 1 6 2 11 3 33 4 5 5 12 6 15 7 2 8 3 9 13 10 16 11 1 12
REMARK SMILES IDX 4 13 14 14 31 15 17 16 18 17 30 18 32 19 19 20 29 21 28 22
REMARK SMILES IDX 21 23 20 24 25 25 22 26 23 27 26 28 27 29 8 30 9 31 10 32
REMARK SMILES IDX 24 33
REMARK H PARENT 24 34
REMARK Flexibility Score: inf
ROOT
ATOM      1  C   UNL     1     -13.771  -9.857  95.909  1.00  0.00     0.017 C 
ATOM      2  C   UNL     1     -14.934  -9.632  96.930  1.00  0.00     0.014 C 
ATOM      3  C   UNL     1     -14.408 -10.427  94.571  1.00  0.00     0.014 C 
ATOM      4  C   UNL     1     -12.998  -8.536  95.539  1.00  0.00     0.030 C 
ATOM      5  C   UNL     1     -15.340  -8.166  97.040  1.00  0.00     0.004 C 
ATOM      6  C   UNL     1     -13.677 -10.048  93.262  1.00  0.00     0.013 C 
ATOM      7  C   UNL     1     -11.826  -8.902  94.587  1.00  0.00    -0.063 C 
ATOM      8  C   UNL     1     -12.891  -7.441  96.696  1.00  0.00    -0.003 C 
ATOM      9  C   UNL     1     -14.173  -7.341  97.601  1.00  0.00    -0.011 C 
ATOM     10  C   UNL     1     -12.119  -9.865  93.389  1.00  0.00    -0.006 C 
ATOM     11  C   UNL     1     -10.577  -8.401  94.662  1.00  0.00    -0.027 C 
ATOM     12  C   UNL     1     -11.565  -7.302  97.486  1.00  0.00     0.008 C 
ATOM     13  C   UNL     1     -13.965  -7.687  99.103  1.00  0.00     0.008 C 
ATOM     14  C   UNL     1     -11.525 -11.294  93.663  1.00  0.00     0.017 C 
ATOM     15  C   UNL     1     -11.447  -9.186  92.067  1.00  0.00    -0.020 C 
ATOM     16  C   UNL     1      -9.502  -9.001  93.827  1.00  0.00     0.032 C 
ATOM     17  C   UNL     1      -9.859  -8.919  92.317  1.00  0.00     0.006 C 
ATOM     18  C   UNL     1     -12.222  -7.851  91.742  1.00  0.00     0.008 C 
ATOM     19  C   UNL     1     -11.663 -10.130  90.845  1.00  0.00     0.012 C 
ATOM     20  C   UNL     1      -9.181  -7.689  91.526  1.00  0.00    -0.025 C 
ATOM     21  C   UNL     1     -11.476  -6.836  90.883  1.00  0.00     0.005 C 
ATOM     22  C   UNL     1     -10.146  -6.450  91.549  1.00  0.00     0.003 C 
ATOM     23  C   UNL     1      -7.825  -7.228  92.170  1.00  0.00     0.010 C 
ATOM     24  C   UNL     1      -8.832  -8.181  90.089  1.00  0.00     0.012 C 
ATOM     25  C   UNL     1      -9.576  -5.021  91.081  1.00  0.00    -0.006 C 
ATOM     26  C   UNL     1      -7.218  -6.018  91.460  1.00  0.00     0.033 C 
ATOM     27  C   UNL     1      -8.138  -4.807  91.661  1.00  0.00     0.120 C 
ATOM     28  C   UNL     1     -10.476  -3.901  91.704  1.00  0.00     0.014 C 
ATOM     29  C   UNL     1      -9.601  -4.798  89.539  1.00  0.00     0.014 C 
ENDROOT
BRANCH   1  30
ATOM     30  C   UNL     1     -12.845 -10.904  96.530  1.00  0.00     0.048 C 
ATOM     31  O   UNL     1     -13.011 -12.131  96.285  1.00  0.00    -0.550 OA
ATOM     32  O   UNL     1     -11.860 -10.532  97.430  1.00  0.00    -0.550 OA
ENDBRANCH   1  30
BRANCH  27  33
ATOM     33  O   UNL     1      -7.540  -3.628  91.173  1.00  0.00    -0.393 OA
ATOM     34  H   UNL     1      -7.750  -3.533  90.204  1.00  0.00     0.210 HD
ENDBRANCH  27  33
TORSDOF 2
ENDMDL
MODEL 5
REMARK VINA RESULT:    -6.774      1.867      4.077
REMARK INTER + INTRA:          -7.343
REMARK INTER:                  -7.368
REMARK INTRA:                   0.025
REMARK UNBOUND:                 0.026
REMARK SMILES C[C@@H]1[C@H](C)CC[C@@]2(C(=O)[O-])CC[C@]3(C)C(=CC[C@@H]4[C@]5(C)CC[C@@H](O)C(C)(C)[C@H]5CC[C@@]43C)[C@H]12
REMARK SMILES IDX 7 1 6 2 11 3 33 4 5 5 12 6 15 7 2 8 3 9 13 10 16 11 1 12
REMARK SMILES IDX 4 13 14 14 31 15 17 16 18 17 30 18 32 19 19 20 29 21 28 22
REMARK SMILES IDX 21 23 20 24 25 25 22 26 23 27 26 28 27 29 8 30 9 31 10 32
REMARK SMILES IDX 24 33
REMARK H PARENT 24 34
REMARK Flexibility Score: inf
ROOT
ATOM      1  C   UNL     1      -9.612  -7.003  90.315  1.00  0.00     0.017 C 
ATOM      2  C   UNL     1      -9.812  -6.177  89.003  1.00  0.00     0.014 C 
ATOM      3  C   UNL     1      -8.611  -6.196  91.245  1.00  0.00     0.014 C 
ATOM      4  C   UNL     1     -10.943  -7.220  91.129  1.00  0.00     0.030 C 
ATOM      5  C   UNL     1     -11.134  -5.415  88.988  1.00  0.00     0.004 C 
ATOM      6  C   UNL     1      -8.816  -6.372  92.768  1.00  0.00     0.013 C 
ATOM      7  C   UNL     1     -10.628  -8.115  92.358  1.00  0.00    -0.063 C 
ATOM      8  C   UNL     1     -12.280  -7.339  90.264  1.00  0.00    -0.003 C 
ATOM      9  C   UNL     1     -12.307  -6.405  88.999  1.00  0.00    -0.011 C 
ATOM     10  C   UNL     1      -9.365  -7.777  93.217  1.00  0.00    -0.006 C 
ATOM     11  C   UNL     1     -11.397  -9.132  92.797  1.00  0.00    -0.027 C 
ATOM     12  C   UNL     1     -12.895  -8.739  90.012  1.00  0.00     0.008 C 
ATOM     13  C   UNL     1     -12.387  -7.133  87.627  1.00  0.00     0.008 C 
ATOM     14  C   UNL     1      -8.212  -8.811  92.948  1.00  0.00     0.017 C 
ATOM     15  C   UNL     1      -9.838  -7.807  94.777  1.00  0.00    -0.020 C 
ATOM     16  C   UNL     1     -10.867 -10.042  93.849  1.00  0.00     0.032 C 
ATOM     17  C   UNL     1     -10.502  -9.252  95.136  1.00  0.00     0.006 C 
ATOM     18  C   UNL     1     -10.849  -6.621  95.017  1.00  0.00     0.008 C 
ATOM     19  C   UNL     1      -8.604  -7.526  95.688  1.00  0.00     0.012 C 
ATOM     20  C   UNL     1     -11.624  -9.284  96.292  1.00  0.00    -0.025 C 
ATOM     21  C   UNL     1     -11.767  -6.758  96.227  1.00  0.00     0.005 C 
ATOM     22  C   UNL     1     -12.587  -8.054  96.129  1.00  0.00     0.003 C 
ATOM     23  C   UNL     1     -12.516 -10.576  96.235  1.00  0.00     0.010 C 
ATOM     24  C   UNL     1     -10.892  -9.325  97.667  1.00  0.00     0.012 C 
ATOM     25  C   UNL     1     -13.951  -8.025  96.980  1.00  0.00    -0.006 C 
ATOM     26  C   UNL     1     -13.624 -10.574  97.289  1.00  0.00     0.033 C 
ATOM     27  C   UNL     1     -14.612  -9.444  96.972  1.00  0.00     0.120 C 
ATOM     28  C   UNL     1     -14.960  -7.064  96.265  1.00  0.00     0.014 C 
ATOM     29  C   UNL     1     -13.786  -7.488  98.433  1.00  0.00     0.014 C 
ENDROOT
BRANCH   1  30
ATOM     30  C   UNL     1      -8.978  -8.331  89.898  1.00  0.00     0.048 C 
ATOM     31  O   UNL     1      -7.724  -8.437  89.794  1.00  0.00    -0.550 OA
ATOM     32  O   UNL     1      -9.768  -9.415  89.554  1.00  0.00    -0.550 OA
ENDBRANCH   1  30
BRANCH  27  33
ATOM     33  O   UNL     1     -15.742  -9.507  97.813  1.00  0.00    -0.393 OA
ATOM     34  H   UNL     1     -15.519 -10.054  98.616  1.00  0.00     0.210 HD
ENDBRANCH  27  33
TORSDOF 2
ENDMDL
MODEL 6
REMARK VINA RESULT:    -6.741      1.622      2.498
REMARK INTER + INTRA:          -7.307
REMARK INTER:                  -7.337
REMARK INTRA:                   0.031
REMARK UNBOUND:                 0.026
REMARK SMILES C[C@@H]1[C@H](C)CC[C@@]2(C(=O)[O-])CC[C@]3(C)C(=CC[C@@H]4[C@]5(C)CC[C@@H](O)C(C)(C)[C@H]5CC[C@@]43C)[C@H]12
REMARK SMILES IDX 7 1 6 2 11 3 33 4 5 5 12 6 15 7 2 8 3 9 13 10 16 11 1 12
REMARK SMILES IDX 4 13 14 14 31 15 17 16 18 17 30 18 32 19 19 20 29 21 28 22
REMARK SMILES IDX 21 23 20 24 25 25 22 26 23 27 26 28 27 29 8 30 9 31 10 32
REMARK SMILES IDX 24 33
REMARK H PARENT 24 34
REMARK Flexibility Score: inf
ROOT
ATOM      1  C   UNL     1     -10.369  -7.621  90.660  1.00  0.00     0.017 C 
ATOM      2  C   UNL     1      -9.564  -6.528  89.885  1.00  0.00     0.014 C 
ATOM      3  C   UNL     1      -9.356  -8.779  91.052  1.00  0.00     0.014 C 
ATOM      4  C   UNL     1     -11.021  -7.093  91.993  1.00  0.00     0.030 C 
ATOM      5  C   UNL     1      -9.233  -5.319  90.755  1.00  0.00     0.004 C 
ATOM      6  C   UNL     1      -9.675  -9.539  92.361  1.00  0.00     0.013 C 
ATOM      7  C   UNL     1     -11.853  -8.243  92.623  1.00  0.00    -0.063 C 
ATOM      8  C   UNL     1     -11.483  -5.565  91.987  1.00  0.00    -0.003 C 
ATOM      9  C   UNL     1     -10.527  -4.611  91.181  1.00  0.00    -0.011 C 
ATOM     10  C   UNL     1     -11.204  -9.664  92.712  1.00  0.00    -0.006 C 
ATOM     11  C   UNL     1     -13.077  -8.108  93.172  1.00  0.00    -0.027 C 
ATOM     12  C   UNL     1     -12.985  -5.229  91.807  1.00  0.00     0.008 C 
ATOM     13  C   UNL     1     -11.164  -3.905  89.949  1.00  0.00     0.008 C 
ATOM     14  C   UNL     1     -11.828 -10.632  91.643  1.00  0.00     0.017 C 
ATOM     15  C   UNL     1     -11.466 -10.205  94.228  1.00  0.00    -0.020 C 
ATOM     16  C   UNL     1     -13.848  -9.327  93.539  1.00  0.00     0.032 C 
ATOM     17  C   UNL     1     -13.062 -10.195  94.560  1.00  0.00     0.006 C 
ATOM     18  C   UNL     1     -10.652  -9.299  95.231  1.00  0.00     0.008 C 
ATOM     19  C   UNL     1     -10.884 -11.645  94.362  1.00  0.00     0.012 C 
ATOM     20  C   UNL     1     -13.497  -9.991  96.099  1.00  0.00    -0.025 C 
ATOM     21  C   UNL     1     -11.129  -9.309  96.679  1.00  0.00     0.005 C 
ATOM     22  C   UNL     1     -12.603  -8.880  96.758  1.00  0.00     0.003 C 
ATOM     23  C   UNL     1     -14.990  -9.529  96.250  1.00  0.00     0.010 C 
ATOM     24  C   UNL     1     -13.398 -11.374  96.810  1.00  0.00     0.012 C 
ATOM     25  C   UNL     1     -13.033  -8.295  98.193  1.00  0.00    -0.006 C 
ATOM     26  C   UNL     1     -15.381  -9.269  97.706  1.00  0.00     0.033 C 
ATOM     27  C   UNL     1     -14.582  -8.070  98.232  1.00  0.00     0.120 C 
ATOM     28  C   UNL     1     -12.377  -6.885  98.370  1.00  0.00     0.014 C 
ATOM     29  C   UNL     1     -12.558  -9.156  99.401  1.00  0.00     0.014 C 
ENDROOT
BRANCH   1  30
ATOM     30  C   UNL     1     -11.419  -8.158  89.686  1.00  0.00     0.048 C 
ATOM     31  O   UNL     1     -11.163  -9.152  88.953  1.00  0.00    -0.550 OA
ATOM     32  O   UNL     1     -12.638  -7.517  89.537  1.00  0.00    -0.550 OA
ENDBRANCH   1  30
BRANCH  27  33
ATOM     33  O   UNL     1     -15.029  -7.684  99.511  1.00  0.00    -0.393 OA
ATOM     34  H   UNL     1     -14.841  -6.714  99.643  1.00  0.00     0.210 HD
ENDBRANCH  27  33
TORSDOF 2
ENDMDL
MODEL 7
REMARK VINA RESULT:    -6.565      2.360      4.601
REMARK INTER + INTRA:          -7.115
REMARK INTER:                  -7.151
REMARK INTRA:                   0.036
REMARK UNBOUND:                 0.026
REMARK SMILES C[C@@H]1[C@H](C)CC[C@@]2(C(=O)[O-])CC[C@]3(C)C(=CC[C@@H]4[C@]5(C)CC[C@@H](O)C(C)(C)[C@H]5CC[C@@]43C)[C@H]12
REMARK SMILES IDX 7 1 6 2 11 3 33 4 5 5 12 6 15 7 2 8 3 9 13 10 16 11 1 12
REMARK SMILES IDX 4 13 14 14 31 15 17 16 18 17 30 18 32 19 19 20 29 21 28 22
REMARK SMILES IDX 21 23 20 24 25 25 22 26 23 27 26 28 27 29 8 30 9 31 10 32
REMARK SMILES IDX 24 33
REMARK H PARENT 24 34
REMARK Flexibility Score: inf
ROOT
ATOM      1  C   UNL     1     -12.507  -6.026  88.851  1.00  0.00     0.017 C 
ATOM      2  C   UNL     1     -12.854  -4.599  88.315  1.00  0.00     0.014 C 
ATOM      3  C   UNL     1     -10.925  -6.157  88.886  1.00  0.00     0.014 C 
ATOM      4  C   UNL     1     -13.035  -6.293  90.311  1.00  0.00     0.030 C 
ATOM      5  C   UNL     1     -13.256  -3.638  89.430  1.00  0.00     0.004 C 
ATOM      6  C   UNL     1     -10.348  -7.075  89.989  1.00  0.00     0.013 C 
ATOM      7  C   UNL     1     -12.698  -7.760  90.696  1.00  0.00    -0.063 C 
ATOM      8  C   UNL     1     -14.399  -5.564  90.706  1.00  0.00    -0.003 C 
ATOM      9  C   UNL     1     -14.552  -4.122  90.095  1.00  0.00    -0.011 C 
ATOM     10  C   UNL     1     -11.258  -8.293  90.396  1.00  0.00    -0.006 C 
ATOM     11  C   UNL     1     -13.529  -8.606  91.337  1.00  0.00    -0.027 C 
ATOM     12  C   UNL     1     -15.718  -6.377  90.708  1.00  0.00     0.008 C 
ATOM     13  C   UNL     1     -15.744  -3.930  89.115  1.00  0.00     0.008 C 
ATOM     14  C   UNL     1     -11.268  -9.271  89.166  1.00  0.00     0.017 C 
ATOM     15  C   UNL     1     -10.746  -9.045  91.749  1.00  0.00    -0.020 C 
ATOM     16  C   UNL     1     -13.160 -10.044  91.446  1.00  0.00     0.032 C 
ATOM     17  C   UNL     1     -11.799 -10.215  92.175  1.00  0.00     0.006 C 
ATOM     18  C   UNL     1     -10.576  -7.967  92.888  1.00  0.00     0.008 C 
ATOM     19  C   UNL     1      -9.329  -9.645  91.493  1.00  0.00     0.012 C 
ATOM     20  C   UNL     1     -11.909 -10.578  93.741  1.00  0.00    -0.025 C 
ATOM     21  C   UNL     1     -10.590  -8.496  94.318  1.00  0.00     0.005 C 
ATOM     22  C   UNL     1     -11.896  -9.257  94.592  1.00  0.00     0.003 C 
ATOM     23  C   UNL     1     -13.237 -11.339  94.094  1.00  0.00     0.010 C 
ATOM     24  C   UNL     1     -10.745 -11.554  94.088  1.00  0.00     0.012 C 
ATOM     25  C   UNL     1     -12.285  -9.340  96.150  1.00  0.00    -0.006 C 
ATOM     26  C   UNL     1     -13.373 -11.622  95.591  1.00  0.00     0.033 C 
ATOM     27  C   UNL     1     -13.515 -10.290  96.340  1.00  0.00     0.120 C 
ATOM     28  C   UNL     1     -12.746  -7.920  96.621  1.00  0.00     0.014 C 
ATOM     29  C   UNL     1     -11.106  -9.751  97.081  1.00  0.00     0.014 C 
ENDROOT
BRANCH   1  30
ATOM     30  C   UNL     1     -13.088  -7.021  87.846  1.00  0.00     0.048 C 
ATOM     31  O   UNL     1     -12.384  -7.449  86.889  1.00  0.00    -0.550 OA
ATOM     32  O   UNL     1     -14.416  -7.409  87.921  1.00  0.00    -0.550 OA
ENDBRANCH   1  30
BRANCH  27  33
ATOM     33  O   UNL     1     -13.814 -10.503  97.701  1.00  0.00    -0.393 OA
ATOM     34  H   UNL     1     -13.023 -10.253  98.252  1.00  0.00     0.210 HD
ENDBRANCH  27  33
TORSDOF 2
ENDMDL
MODEL 8
REMARK VINA RESULT:    -6.438      2.013      3.055
REMARK INTER + INTRA:          -6.977
REMARK INTER:                  -7.007
REMARK INTRA:                   0.029
REMARK UNBOUND:                 0.026
REMARK SMILES C[C@@H]1[C@H](C)CC[C@@]2(C(=O)[O-])CC[C@]3(C)C(=CC[C@@H]4[C@]5(C)CC[C@@H](O)C(C)(C)[C@H]5CC[C@@]43C)[C@H]12
REMARK SMILES IDX 7 1 6 2 11 3 33 4 5 5 12 6 15 7 2 8 3 9 13 10 16 11 1 12
REMARK SMILES IDX 4 13 14 14 31 15 17 16 18 17 30 18 32 19 19 20 29 21 28 22
REMARK SMILES IDX 21 23 20 24 25 25 22 26 23 27 26 28 27 29 8 30 9 31 10 32
REMARK SMILES IDX 24 33
REMARK H PARENT 24 34
REMARK Flexibility Score: inf
ROOT
ATOM      1  C   UNL     1     -12.172  -8.315  91.687  1.00  0.00     0.017 C 
ATOM      2  C   UNL     1     -11.510  -7.372  90.631  1.00  0.00     0.014 C 
ATOM      3  C   UNL     1     -11.283  -9.626  91.788  1.00  0.00     0.014 C 
ATOM      4  C   UNL     1     -12.250  -7.685  93.129  1.00  0.00     0.030 C 
ATOM      5  C   UNL     1     -10.721  -6.236  91.275  1.00  0.00     0.004 C 
ATOM      6  C   UNL     1     -11.262 -10.322  93.169  1.00  0.00     0.013 C 
ATOM      7  C   UNL     1     -12.994  -8.680  94.061  1.00  0.00    -0.063 C 
ATOM      8  C   UNL     1     -12.440  -6.101  93.191  1.00  0.00    -0.003 C 
ATOM      9  C   UNL     1     -11.669  -5.321  92.062  1.00  0.00    -0.011 C 
ATOM     10  C   UNL     1     -12.585 -10.189  94.010  1.00  0.00    -0.006 C 
ATOM     11  C   UNL     1     -13.927  -8.342  94.973  1.00  0.00    -0.027 C 
ATOM     12  C   UNL     1     -13.843  -5.519  93.496  1.00  0.00     0.008 C 
ATOM     13  C   UNL     1     -12.561  -4.518  91.072  1.00  0.00     0.008 C 
ATOM     14  C   UNL     1     -13.675 -11.039  93.261  1.00  0.00     0.017 C 
ATOM     15  C   UNL     1     -12.409 -10.679  95.556  1.00  0.00    -0.020 C 
ATOM     16  C   UNL     1     -14.713  -9.415  95.641  1.00  0.00     0.032 C 
ATOM     17  C   UNL     1     -13.779 -10.403  96.394  1.00  0.00     0.006 C 
ATOM     18  C   UNL     1     -11.175  -9.922  96.183  1.00  0.00     0.008 C 
ATOM     19  C   UNL     1     -12.049 -12.197  95.571  1.00  0.00     0.012 C 
ATOM     20  C   UNL     1     -13.637 -10.129  97.976  1.00  0.00    -0.025 C 
ATOM     21  C   UNL     1     -11.136  -9.853  97.705  1.00  0.00     0.005 C 
ATOM     22  C   UNL     1     -12.411  -9.184  98.241  1.00  0.00     0.003 C 
ATOM     23  C   UNL     1     -14.901  -9.423  98.584  1.00  0.00     0.010 C 
ATOM     24  C   UNL     1     -13.526 -11.509  98.690  1.00  0.00     0.012 C 
ATOM     25  C   UNL     1     -12.240  -8.535  99.703  1.00  0.00    -0.006 C 
ATOM     26  C   UNL     1     -14.739  -9.102 100.070  1.00  0.00     0.033 C 
ATOM     27  C   UNL     1     -13.630  -8.054 100.236  1.00  0.00     0.120 C 
ATOM     28  C   UNL     1     -11.348  -7.255  99.575  1.00  0.00     0.014 C 
ATOM     29  C   UNL     1     -11.531  -9.464 100.733  1.00  0.00     0.014 C 
ENDROOT
BRANCH   1  30
ATOM     30  C   UNL     1     -13.558  -8.668  91.145  1.00  0.00     0.048 C 
ATOM     31  O   UNL     1     -13.715  -9.669  90.392  1.00  0.00    -0.550 OA
ATOM     32  O   UNL     1     -14.648  -7.854  91.406  1.00  0.00    -0.550 OA
ENDBRANCH   1  30
BRANCH  27  33
ATOM     33  O   UNL     1     -13.559  -7.599 101.568  1.00  0.00    -0.393 OA
ATOM     34  H   UNL     1     -12.824  -6.930 101.644  1.00  0.00     0.210 HD
ENDBRANCH  27  33
TORSDOF 2
ENDMDL
MODEL 9
REMARK VINA RESULT:    -6.420      1.947      7.457
REMARK INTER + INTRA:          -6.958
REMARK INTER:                  -7.001
REMARK INTRA:                   0.043
REMARK UNBOUND:                 0.026
REMARK SMILES C[C@@H]1[C@H](C)CC[C@@]2(C(=O)[O-])CC[C@]3(C)C(=CC[C@@H]4[C@]5(C)CC[C@@H](O)C(C)(C)[C@H]5CC[C@@]43C)[C@H]12
REMARK SMILES IDX 7 1 6 2 11 3 33 4 5 5 12 6 15 7 2 8 3 9 13 10 16 11 1 12
REMARK SMILES IDX 4 13 14 14 31 15 17 16 18 17 30 18 32 19 19 20 29 21 28 22
REMARK SMILES IDX 21 23 20 24 25 25 22 26 23 27 26 28 27 29 8 30 9 31 10 32
REMARK SMILES IDX 24 33
REMARK H PARENT 24 34
REMARK Flexibility Score: inf
ROOT
ATOM      1  C   UNL     1     -13.821  -7.807  97.735  1.00  0.00     0.017 C 
ATOM      2  C   UNL     1     -13.901  -8.358  99.196  1.00  0.00     0.014 C 
ATOM      3  C   UNL     1     -13.506  -6.253  97.822  1.00  0.00     0.014 C 
ATOM      4  C   UNL     1     -12.682  -8.473  96.875  1.00  0.00     0.030 C 
ATOM      5  C   UNL     1     -12.635  -9.104  99.608  1.00  0.00     0.004 C 
ATOM      6  C   UNL     1     -12.686  -5.665  96.650  1.00  0.00     0.013 C 
ATOM      7  C   UNL     1     -12.758  -7.902  95.432  1.00  0.00    -0.063 C 
ATOM      8  C   UNL     1     -12.356  -9.999  97.208  1.00  0.00    -0.003 C 
ATOM      9  C   UNL     1     -12.458 -10.355  98.737  1.00  0.00    -0.011 C 
ATOM     10  C   UNL     1     -12.915  -6.356  95.254  1.00  0.00    -0.006 C 
ATOM     11  C   UNL     1     -12.630  -8.625  94.302  1.00  0.00    -0.027 C 
ATOM     12  C   UNL     1     -12.903 -11.110  96.278  1.00  0.00     0.008 C 
ATOM     13  C   UNL     1     -13.539 -11.408  99.111  1.00  0.00     0.008 C 
ATOM     14  C   UNL     1     -14.378  -5.989  94.812  1.00  0.00     0.017 C 
ATOM     15  C   UNL     1     -11.823  -5.900  94.132  1.00  0.00    -0.020 C 
ATOM     16  C   UNL     1     -12.941  -7.990  92.993  1.00  0.00     0.032 C 
ATOM     17  C   UNL     1     -12.049  -6.741  92.754  1.00  0.00     0.006 C 
ATOM     18  C   UNL     1     -10.377  -6.118  94.723  1.00  0.00     0.008 C 
ATOM     19  C   UNL     1     -11.968  -4.368  93.874  1.00  0.00     0.012 C 
ATOM     20  C   UNL     1     -10.758  -6.998  91.824  1.00  0.00    -0.025 C 
ATOM     21  C   UNL     1      -9.248  -6.228  93.704  1.00  0.00     0.005 C 
ATOM     22  C   UNL     1      -9.526  -7.377  92.722  1.00  0.00     0.003 C 
ATOM     23  C   UNL     1     -10.968  -8.179  90.810  1.00  0.00     0.010 C 
ATOM     24  C   UNL     1     -10.530  -5.721  90.960  1.00  0.00     0.012 C 
ATOM     25  C   UNL     1      -8.206  -7.960  92.013  1.00  0.00    -0.006 C 
ATOM     26  C   UNL     1      -9.719  -8.467  89.975  1.00  0.00     0.033 C 
ATOM     27  C   UNL     1      -8.608  -8.984  90.900  1.00  0.00     0.120 C 
ATOM     28  C   UNL     1      -7.387  -8.765  93.078  1.00  0.00     0.014 C 
ATOM     29  C   UNL     1      -7.246  -6.868  91.454  1.00  0.00     0.014 C 
ENDROOT
BRANCH   1  30
ATOM     30  C   UNL     1     -15.203  -8.022  97.115  1.00  0.00     0.048 C 
ATOM     31  O   UNL     1     -16.065  -7.101  97.137  1.00  0.00    -0.550 OA
ATOM     32  O   UNL     1     -15.557  -9.253  96.588  1.00  0.00    -0.550 OA
ENDBRANCH   1  30
BRANCH  27  33
ATOM     33  O   UNL     1      -7.495  -9.425  90.157  1.00  0.00    -0.393 OA
ATOM     34  H   UNL     1      -7.340  -8.798  89.399  1.00  0.00     0.210 HD
ENDBRANCH  27  33
TORSDOF 2
ENDMDL
