MODEL 1
REMARK VINA RESULT:    25.628      0.000      0.000
REMARK INTER + INTRA:          67.359
REMARK INTER:                  67.578
REMARK INTRA:                  -0.218
REMARK UNBOUND:                -0.218
REMARK SMILES CCCCCCCCCCCCCCCCCCCCCCCCCCCCCC(=O)[O-]
REMARK SMILES IDX 16 1 17 2 18 3 19 4 20 5 21 6 22 7 23 8 24 9 25 10 26 11
REMARK SMILES IDX 27 12 28 13 29 14 30 15 31 16 32 17 15 18 14 19 13 20 12 21
REMARK SMILES IDX 11 22 10 23 9 24 8 25 7 26 6 27 5 28 4 29 3 30 2 31 1 32
REMARK H PARENT
REMARK Flexibility Score: inf
ROOT
ATOM      1  C   UNL     1      57.038  -4.131   1.047  1.00  0.00     0.000 C 
ENDROOT
BRANCH   1   2
ATOM      2  C   UNL     1      58.264  -4.718   1.762  1.00  0.00     0.000 C 
BRANCH   2   3
ATOM      3  C   UNL     1      58.266  -6.252   1.668  1.00  0.00     0.000 C 
BRANCH   3   4
ATOM      4  C   UNL     1      57.752  -6.931   2.954  1.00  0.00     0.000 C 
BRANCH   4   5
ATOM      5  C   UNL     1      58.628  -6.656   4.191  1.00  0.00     0.000 C 
BRANCH   5   6
ATOM      6  C   UNL     1      58.009  -7.083   5.535  1.00  0.00     0.000 C 
BRANCH   6   7
ATOM      7  C   UNL     1      57.742  -5.935   6.527  1.00  0.00     0.000 C 
BRANCH   7   8
ATOM      8  C   UNL     1      58.293  -4.586   6.038  1.00  0.00     0.000 C 
BRANCH   8   9
ATOM      9  C   UNL     1      57.397  -3.425   6.499  1.00  0.00     0.000 C 
BRANCH   9  10
ATOM     10  C   UNL     1      57.033  -2.466   5.352  1.00  0.00     0.000 C 
BRANCH  10  11
ATOM     11  C   UNL     1      55.738  -1.679   5.629  1.00  0.00     0.000 C 
BRANCH  11  12
ATOM     12  C   UNL     1      54.750  -2.462   6.507  1.00  0.00     0.000 C 
BRANCH  12  13
ATOM     13  C   UNL     1      53.418  -2.752   5.795  1.00  0.00     0.006 C 
BRANCH  13  14
ATOM     14  C   UNL     1      52.269  -1.895   6.342  1.00  0.00     0.053 C 
BRANCH  14  15
ATOM     15  C   UNL     1      50.964  -2.223   5.684  1.00  0.00     0.041 C 
ATOM     16  O   UNL     1      50.299  -1.322   5.110  1.00  0.00    -0.550 OA
ATOM     17  O   UNL     1      50.494  -3.530   5.687  1.00  0.00    -0.550 OA
ENDBRANCH  14  15
ENDBRANCH  13  14
ENDBRANCH  12  13
ENDBRANCH  11  12
ENDBRANCH  10  11
ENDBRANCH   9  10
ENDBRANCH   8   9
ENDBRANCH   7   8
ENDBRANCH   6   7
ENDBRANCH   5   6
ENDBRANCH   4   5
ENDBRANCH   3   4
ENDBRANCH   2   3
ENDBRANCH   1   2
BRANCH   1  18
ATOM     18  C   UNL     1      56.290  -5.208   0.241  1.00  0.00     0.000 C 
BRANCH  18  19
ATOM     19  C   UNL     1      57.205  -5.941  -0.754  1.00  0.00     0.000 C 
BRANCH  19  20
ATOM     20  C   UNL     1      58.393  -5.078  -1.223  1.00  0.00     0.000 C 
BRANCH  20  21
ATOM     21  C   UNL     1      59.122  -5.684  -2.442  1.00  0.00     0.000 C 
BRANCH  21  22
ATOM     22  C   UNL     1      59.123  -4.781  -3.690  1.00  0.00     0.000 C 
BRANCH  22  23
ATOM     23  C   UNL     1      58.013  -5.077  -4.715  1.00  0.00     0.000 C 
BRANCH  23  24
ATOM     24  C   UNL     1      57.597  -3.883  -5.603  1.00  0.00    -0.000 C 
BRANCH  24  25
ATOM     25  C   UNL     1      58.253  -2.535  -5.251  1.00  0.00    -0.000 C 
BRANCH  25  26
ATOM     26  C   UNL     1      57.306  -1.335  -5.420  1.00  0.00    -0.000 C 
BRANCH  26  27
ATOM     27  C   UNL     1      55.855  -1.656  -5.015  1.00  0.00    -0.000 C 
BRANCH  27  28
ATOM     28  C   UNL     1      55.081  -0.490  -4.373  1.00  0.00    -0.000 C 
BRANCH  28  29
ATOM     29  C   UNL     1      53.564  -0.743  -4.310  1.00  0.00    -0.000 C 
BRANCH  29  30
ATOM     30  C   UNL     1      53.044  -1.489  -5.558  1.00  0.00    -0.000 C 
BRANCH  30  31
ATOM     31  C   UNL     1      52.030  -2.601  -5.237  1.00  0.00    -0.003 C 
ATOM     32  C   UNL     1      51.459  -2.501  -3.824  1.00  0.00     0.004 C 
ENDBRANCH  30  31
ENDBRANCH  29  30
ENDBRANCH  28  29
ENDBRANCH  27  28
ENDBRANCH  26  27
ENDBRANCH  25  26
ENDBRANCH  24  25
ENDBRANCH  23  24
ENDBRANCH  22  23
ENDBRANCH  21  22
ENDBRANCH  20  21
ENDBRANCH  19  20
ENDBRANCH  18  19
ENDBRANCH   1  18
TORSDOF 28
ENDMDL
MODEL 2
REMARK VINA RESULT:    26.713      3.515     10.146
REMARK INTER + INTRA:          70.220
REMARK INTER:                  72.351
REMARK INTRA:                  -2.131
REMARK UNBOUND:                -0.218
REMARK SMILES CCCCCCCCCCCCCCCCCCCCCCCCCCCCCC(=O)[O-]
REMARK SMILES IDX 16 1 17 2 18 3 19 4 20 5 21 6 22 7 23 8 24 9 25 10 26 11
REMARK SMILES IDX 27 12 28 13 29 14 30 15 31 16 32 17 15 18 14 19 13 20 12 21
REMARK SMILES IDX 11 22 10 23 9 24 8 25 7 26 6 27 5 28 4 29 3 30 2 31 1 32
REMARK H PARENT
REMARK Flexibility Score: inf
ROOT
ATOM      1  C   UNL     1      55.061  -4.112   0.502  1.00  0.00     0.000 C 
ENDROOT
BRANCH   1   2
ATOM      2  C   UNL     1      54.426  -2.735   0.742  1.00  0.00     0.000 C 
BRANCH   2   3
ATOM      3  C   UNL     1      54.729  -1.785  -0.427  1.00  0.00     0.000 C 
BRANCH   3   4
ATOM      4  C   UNL     1      53.458  -1.150  -1.027  1.00  0.00     0.000 C 
BRANCH   4   5
ATOM      5  C   UNL     1      53.715  -0.352  -2.319  1.00  0.00     0.000 C 
BRANCH   5   6
ATOM      6  C   UNL     1      53.432  -1.119  -3.625  1.00  0.00     0.000 C 
BRANCH   6   7
ATOM      7  C   UNL     1      54.678  -1.684  -4.334  1.00  0.00     0.000 C 
BRANCH   7   8
ATOM      8  C   UNL     1      54.505  -1.774  -5.859  1.00  0.00     0.000 C 
BRANCH   8   9
ATOM      9  C   UNL     1      55.196  -0.595  -6.563  1.00  0.00     0.000 C 
BRANCH   9  10
ATOM     10  C   UNL     1      56.284   0.060  -5.694  1.00  0.00     0.000 C 
BRANCH  10  11
ATOM     11  C   UNL     1      57.612   0.247  -6.452  1.00  0.00     0.000 C 
BRANCH  11  12
ATOM     12  C   UNL     1      58.690  -0.754  -6.006  1.00  0.00     0.000 C 
BRANCH  12  13
ATOM     13  C   UNL     1      58.099  -2.062  -5.453  1.00  0.00     0.006 C 
BRANCH  13  14
ATOM     14  C   UNL     1      59.120  -2.858  -4.632  1.00  0.00     0.053 C 
BRANCH  14  15
ATOM     15  C   UNL     1      58.620  -4.228  -4.293  1.00  0.00     0.041 C 
ATOM     16  O   UNL     1      58.052  -4.930  -5.169  1.00  0.00    -0.550 OA
ATOM     17  O   UNL     1      58.800  -4.737  -3.013  1.00  0.00    -0.550 OA
ENDBRANCH  14  15
ENDBRANCH  13  14
ENDBRANCH  12  13
ENDBRANCH  11  12
ENDBRANCH  10  11
ENDBRANCH   9  10
ENDBRANCH   8   9
ENDBRANCH   7   8
ENDBRANCH   6   7
ENDBRANCH   5   6
ENDBRANCH   4   5
ENDBRANCH   3   4
ENDBRANCH   2   3
ENDBRANCH   1   2
BRANCH   1  18
ATOM     18  C   UNL     1      56.548  -4.121   0.899  1.00  0.00     0.000 C 
BRANCH  18  19
ATOM     19  C   UNL     1      57.429  -4.844  -0.134  1.00  0.00     0.000 C 
BRANCH  19  20
ATOM     20  C   UNL     1      57.405  -6.376   0.026  1.00  0.00     0.000 C 
BRANCH  20  21
ATOM     21  C   UNL     1      58.732  -6.935   0.584  1.00  0.00     0.000 C 
BRANCH  21  22
ATOM     22  C   UNL     1      59.065  -6.464   2.012  1.00  0.00     0.000 C 
BRANCH  22  23
ATOM     23  C   UNL     1      58.134  -7.001   3.114  1.00  0.00     0.000 C 
BRANCH  23  24
ATOM     24  C   UNL     1      58.487  -6.557   4.551  1.00  0.00    -0.000 C 
BRANCH  24  25
ATOM     25  C   UNL     1      58.339  -5.051   4.835  1.00  0.00    -0.000 C 
BRANCH  25  26
ATOM     26  C   UNL     1      58.159  -4.728   6.328  1.00  0.00    -0.000 C 
BRANCH  26  27
ATOM     27  C   UNL     1      57.575  -3.323   6.570  1.00  0.00    -0.000 C 
BRANCH  27  28
ATOM     28  C   UNL     1      56.603  -2.823   5.486  1.00  0.00    -0.000 C 
BRANCH  28  29
ATOM     29  C   UNL     1      55.626  -1.755   6.008  1.00  0.00    -0.000 C 
BRANCH  29  30
ATOM     30  C   UNL     1      54.747  -1.167   4.883  1.00  0.00    -0.000 C 
BRANCH  30  31
ATOM     31  C   UNL     1      53.256  -1.528   5.008  1.00  0.00    -0.003 C 
ATOM     32  C   UNL     1      52.980  -2.565   6.095  1.00  0.00     0.004 C 
ENDBRANCH  30  31
ENDBRANCH  29  30
ENDBRANCH  28  29
ENDBRANCH  27  28
ENDBRANCH  26  27
ENDBRANCH  25  26
ENDBRANCH  24  25
ENDBRANCH  23  24
ENDBRANCH  22  23
ENDBRANCH  21  22
ENDBRANCH  20  21
ENDBRANCH  19  20
ENDBRANCH  18  19
ENDBRANCH   1  18
TORSDOF 28
ENDMDL
MODEL 3
REMARK VINA RESULT:    27.200     15.916     20.763
REMARK INTER + INTRA:          71.504
REMARK INTER:                  72.091
REMARK INTRA:                  -0.587
REMARK UNBOUND:                -0.218
REMARK SMILES CCCCCCCCCCCCCCCCCCCCCCCCCCCCCC(=O)[O-]
REMARK SMILES IDX 16 1 17 2 18 3 19 4 20 5 21 6 22 7 23 8 24 9 25 10 26 11
REMARK SMILES IDX 27 12 28 13 29 14 30 15 31 16 32 17 15 18 14 19 13 20 12 21
REMARK SMILES IDX 11 22 10 23 9 24 8 25 7 26 6 27 5 28 4 29 3 30 2 31 1 32
REMARK H PARENT
REMARK Flexibility Score: inf
ROOT
ATOM      1  C   UNL     1      40.108   8.243  12.832  1.00  0.00     0.000 C 
ENDROOT
BRANCH   1   2
ATOM      2  C   UNL     1      38.880   9.087  12.460  1.00  0.00     0.000 C 
BRANCH   2   3
ATOM      3  C   UNL     1      39.307  10.407  11.799  1.00  0.00     0.000 C 
BRANCH   3   4
ATOM      4  C   UNL     1      39.259  10.348  10.259  1.00  0.00     0.000 C 
BRANCH   4   5
ATOM      5  C   UNL     1      40.612  10.647   9.585  1.00  0.00     0.000 C 
BRANCH   5   6
ATOM      6  C   UNL     1      41.438   9.405   9.201  1.00  0.00     0.000 C 
BRANCH   6   7
ATOM      7  C   UNL     1      42.471   9.628   8.080  1.00  0.00     0.000 C 
BRANCH   7   8
ATOM      8  C   UNL     1      42.407  11.042   7.483  1.00  0.00     0.000 C 
BRANCH   8   9
ATOM      9  C   UNL     1      43.734  11.414   6.802  1.00  0.00     0.000 C 
BRANCH   9  10
ATOM     10  C   UNL     1      43.531  12.068   5.424  1.00  0.00     0.000 C 
BRANCH  10  11
ATOM     11  C   UNL     1      43.291  11.034   4.309  1.00  0.00     0.000 C 
BRANCH  11  12
ATOM     12  C   UNL     1      42.377  11.569   3.196  1.00  0.00     0.000 C 
BRANCH  12  13
ATOM     13  C   UNL     1      41.812  10.455   2.299  1.00  0.00     0.006 C 
BRANCH  13  14
ATOM     14  C   UNL     1      41.589   9.148   3.070  1.00  0.00     0.053 C 
BRANCH  14  15
ATOM     15  C   UNL     1      40.904   8.114   2.230  1.00  0.00     0.041 C 
ATOM     16  O   UNL     1      40.070   7.327   2.748  1.00  0.00    -0.550 OA
ATOM     17  O   UNL     1      41.174   8.034   0.870  1.00  0.00    -0.550 OA
ENDBRANCH  14  15
ENDBRANCH  13  14
ENDBRANCH  12  13
ENDBRANCH  11  12
ENDBRANCH  10  11
ENDBRANCH   9  10
ENDBRANCH   8   9
ENDBRANCH   7   8
ENDBRANCH   6   7
ENDBRANCH   5   6
ENDBRANCH   4   5
ENDBRANCH   3   4
ENDBRANCH   2   3
ENDBRANCH   1   2
BRANCH   1  18
ATOM     18  C   UNL     1      39.719   6.782  13.118  1.00  0.00     0.000 C 
BRANCH  18  19
ATOM     19  C   UNL     1      40.818   5.788  12.703  1.00  0.00     0.000 C 
BRANCH  19  20
ATOM     20  C   UNL     1      41.973   6.458  11.935  1.00  0.00     0.000 C 
BRANCH  20  21
ATOM     21  C   UNL     1      41.593   6.810  10.480  1.00  0.00     0.000 C 
BRANCH  21  22
ATOM     22  C   UNL     1      42.769   6.755   9.488  1.00  0.00     0.000 C 
BRANCH  22  23
ATOM     23  C   UNL     1      42.615   5.736   8.344  1.00  0.00     0.000 C 
BRANCH  23  24
ATOM     24  C   UNL     1      43.939   5.230   7.728  1.00  0.00    -0.000 C 
BRANCH  24  25
ATOM     25  C   UNL     1      44.520   6.102   6.600  1.00  0.00    -0.000 C 
BRANCH  25  26
ATOM     26  C   UNL     1      44.036   7.561   6.647  1.00  0.00    -0.000 C 
BRANCH  26  27
ATOM     27  C   UNL     1      44.823   8.484   5.698  1.00  0.00    -0.000 C 
BRANCH  27  28
ATOM     28  C   UNL     1      46.137   7.895   5.153  1.00  0.00    -0.000 C 
BRANCH  28  29
ATOM     29  C   UNL     1      46.621   8.599   3.873  1.00  0.00    -0.000 C 
BRANCH  29  30
ATOM     30  C   UNL     1      48.077   9.096   3.993  1.00  0.00    -0.000 C 
BRANCH  30  31
ATOM     31  C   UNL     1      48.856   8.454   5.155  1.00  0.00    -0.003 C 
ATOM     32  C   UNL     1      49.870   9.402   5.793  1.00  0.00     0.004 C 
ENDBRANCH  30  31
ENDBRANCH  29  30
ENDBRANCH  28  29
ENDBRANCH  27  28
ENDBRANCH  26  27
ENDBRANCH  25  26
ENDBRANCH  24  25
ENDBRANCH  23  24
ENDBRANCH  22  23
ENDBRANCH  21  22
ENDBRANCH  20  21
ENDBRANCH  19  20
ENDBRANCH  18  19
ENDBRANCH   1  18
TORSDOF 28
ENDMDL
MODEL 4
REMARK VINA RESULT:    27.565     16.732     22.678
REMARK INTER + INTRA:          72.469
REMARK INTER:                  72.288
REMARK INTRA:                   0.180
REMARK UNBOUND:                -0.218
REMARK SMILES CCCCCCCCCCCCCCCCCCCCCCCCCCCCCC(=O)[O-]
REMARK SMILES IDX 16 1 17 2 18 3 19 4 20 5 21 6 22 7 23 8 24 9 25 10 26 11
REMARK SMILES IDX 27 12 28 13 29 14 30 15 31 16 32 17 15 18 14 19 13 20 12 21
REMARK SMILES IDX 11 22 10 23 9 24 8 25 7 26 6 27 5 28 4 29 3 30 2 31 1 32
REMARK H PARENT
REMARK Flexibility Score: inf
ROOT
ATOM      1  C   UNL     1      42.019  10.100   8.348  1.00  0.00     0.000 C 
ENDROOT
BRANCH   1   2
ATOM      2  C   UNL     1      42.597  11.045   7.286  1.00  0.00     0.000 C 
BRANCH   2   3
ATOM      3  C   UNL     1      41.709  11.061   6.031  1.00  0.00     0.000 C 
BRANCH   3   4
ATOM      4  C   UNL     1      42.309  10.251   4.864  1.00  0.00     0.000 C 
BRANCH   4   5
ATOM      5  C   UNL     1      41.265   9.797   3.825  1.00  0.00     0.000 C 
BRANCH   5   6
ATOM      6  C   UNL     1      41.203  10.654   2.546  1.00  0.00     0.000 C 
BRANCH   6   7
ATOM      7  C   UNL     1      41.959  10.076   1.335  1.00  0.00     0.000 C 
BRANCH   7   8
ATOM      8  C   UNL     1      41.131  10.120   0.040  1.00  0.00     0.000 C 
BRANCH   8   9
ATOM      9  C   UNL     1      41.440   8.908  -0.853  1.00  0.00     0.000 C 
BRANCH   9  10
ATOM     10  C   UNL     1      40.184   8.339  -1.536  1.00  0.00     0.000 C 
BRANCH  10  11
ATOM     11  C   UNL     1      40.447   6.988  -2.226  1.00  0.00     0.000 C 
BRANCH  11  12
ATOM     12  C   UNL     1      39.527   6.754  -3.434  1.00  0.00     0.000 C 
BRANCH  12  13
ATOM     13  C   UNL     1      39.715   7.808  -4.539  1.00  0.00     0.006 C 
BRANCH  13  14
ATOM     14  C   UNL     1      40.024   7.172  -5.900  1.00  0.00     0.053 C 
BRANCH  14  15
ATOM     15  C   UNL     1      41.492   7.174  -6.198  1.00  0.00     0.041 C 
ATOM     16  O   UNL     1      42.252   6.338  -5.646  1.00  0.00    -0.550 OA
ATOM     17  O   UNL     1      42.015   8.089  -7.104  1.00  0.00    -0.550 OA
ENDBRANCH  14  15
ENDBRANCH  13  14
ENDBRANCH  12  13
ENDBRANCH  11  12
ENDBRANCH  10  11
ENDBRANCH   9  10
ENDBRANCH   8   9
ENDBRANCH   7   8
ENDBRANCH   6   7
ENDBRANCH   5   6
ENDBRANCH   4   5
ENDBRANCH   3   4
ENDBRANCH   2   3
ENDBRANCH   1   2
BRANCH   1  18
ATOM     18  C   UNL     1      40.747  10.685   8.987  1.00  0.00     0.000 C 
BRANCH  18  19
ATOM     19  C   UNL     1      40.531  10.191  10.428  1.00  0.00     0.000 C 
BRANCH  19  20
ATOM     20  C   UNL     1      39.054  10.241  10.863  1.00  0.00     0.000 C 
BRANCH  20  21
ATOM     21  C   UNL     1      38.888  10.276  12.398  1.00  0.00     0.000 C 
BRANCH  21  22
ATOM     22  C   UNL     1      39.460   9.045  13.125  1.00  0.00     0.000 C 
BRANCH  22  23
ATOM     23  C   UNL     1      38.892   7.690  12.664  1.00  0.00     0.000 C 
BRANCH  23  24
ATOM     24  C   UNL     1      39.800   6.468  12.929  1.00  0.00    -0.000 C 
BRANCH  24  25
ATOM     25  C   UNL     1      40.889   6.211  11.871  1.00  0.00    -0.000 C 
BRANCH  25  26
ATOM     26  C   UNL     1      40.636   6.948  10.545  1.00  0.00    -0.000 C 
BRANCH  26  27
ATOM     27  C   UNL     1      41.783   7.903  10.162  1.00  0.00    -0.000 C 
BRANCH  27  28
ATOM     28  C   UNL     1      43.106   7.214   9.779  1.00  0.00    -0.000 C 
BRANCH  28  29
ATOM     29  C   UNL     1      43.071   6.598   8.369  1.00  0.00    -0.000 C 
BRANCH  29  30
ATOM     30  C   UNL     1      44.321   5.742   8.074  1.00  0.00    -0.000 C 
BRANCH  30  31
ATOM     31  C   UNL     1      44.302   5.074   6.688  1.00  0.00    -0.003 C 
ATOM     32  C   UNL     1      43.269   5.684   5.743  1.00  0.00     0.004 C 
ENDBRANCH  30  31
ENDBRANCH  29  30
ENDBRANCH  28  29
ENDBRANCH  27  28
ENDBRANCH  26  27
ENDBRANCH  25  26
ENDBRANCH  24  25
ENDBRANCH  23  24
ENDBRANCH  22  23
ENDBRANCH  21  22
ENDBRANCH  20  21
ENDBRANCH  19  20
ENDBRANCH  18  19
ENDBRANCH   1  18
TORSDOF 28
ENDMDL
