MODEL 1
REMARK VINA RESULT:    -7.044      0.000      0.000
REMARK INTER + INTRA:          -7.986
REMARK INTER:                  -8.279
REMARK INTRA:                   0.293
REMARK UNBOUND:                 0.293
REMARK SMILES O=c1c(O)c(-c2ccc(O)cc2)oc2cc(O)cc(O)c12
REMARK SMILES IDX 5 1 3 2 2 3 1 4 21 5 19 6 18 7 16 8 15 9 14 10 13 11 6 12
REMARK SMILES IDX 7 13 8 14 9 15 12 16 11 17 10 18 4 20 20 22 17 24
REMARK H PARENT 10 19 4 21 20 23 17 25
REMARK Flexibility Score: inf
ROOT
ATOM      1  C   UNL     1      16.229  30.728  66.230  1.00  0.00     0.180 A 
ATOM      2  C   UNL     1      14.913  30.752  66.724  1.00  0.00     0.208 A 
ATOM      3  C   UNL     1      14.707  30.781  68.113  1.00  0.00     0.238 A 
ATOM      4  O   UNL     1      13.529  30.857  68.548  1.00  0.00    -0.285 OA
ATOM      5  C   UNL     1      15.818  30.769  68.990  1.00  0.00     0.111 A 
ATOM      6  C   UNL     1      15.726  30.756  70.414  1.00  0.00     0.134 A 
ATOM      7  C   UNL     1      16.891  30.876  71.183  1.00  0.00     0.093 A 
ATOM      8  C   UNL     1      18.146  30.944  70.581  1.00  0.00     0.123 A 
ATOM      9  C   UNL     1      18.252  30.898  69.191  1.00  0.00     0.094 A 
ATOM     10  C   UNL     1      17.107  30.814  68.397  1.00  0.00     0.146 A 
ATOM     11  O   UNL     1      17.250  30.784  67.077  1.00  0.00    -0.452 OA
ENDROOT
BRANCH   1  12
ATOM     12  C   UNL     1      16.525  30.671  64.781  1.00  0.00     0.021 A 
ATOM     13  C   UNL     1      17.743  31.183  64.303  1.00  0.00     0.016 A 
ATOM     14  C   UNL     1      18.053  31.119  62.941  1.00  0.00     0.047 A 
ATOM     15  C   UNL     1      17.155  30.530  62.042  1.00  0.00     0.115 A 
ATOM     16  C   UNL     1      15.637  30.063  63.873  1.00  0.00     0.016 A 
ATOM     17  C   UNL     1      15.951  30.000  62.512  1.00  0.00     0.047 A 
BRANCH  15  18
ATOM     18  O   UNL     1      17.453  30.461  60.683  1.00  0.00    -0.508 OA
ATOM     19  H   UNL     1      17.001  29.787  60.076  1.00  0.00     0.293 HD
ENDBRANCH  15  18
ENDBRANCH   1  12
BRANCH   2  20
ATOM     20  O   UNL     1      13.831  30.785  65.840  1.00  0.00    -0.502 OA
ATOM     21  H   UNL     1      12.882  30.968  66.147  1.00  0.00     0.293 HD
ENDBRANCH   2  20
BRANCH   6  22
ATOM     22  O   UNL     1      14.528  30.599  71.117  1.00  0.00    -0.507 OA
ATOM     23  H   UNL     1      14.359  29.890  71.814  1.00  0.00     0.293 HD
ENDBRANCH   6  22
BRANCH   8  24
ATOM     24  O   UNL     1      19.285  31.048  71.377  1.00  0.00    -0.508 OA
ATOM     25  H   UNL     1      19.550  30.312  72.022  1.00  0.00     0.293 HD
ENDBRANCH   8  24
TORSDOF 5
ENDMDL
MODEL 2
REMARK VINA RESULT:    -6.920      3.558      5.834
REMARK INTER + INTRA:          -7.840
REMARK INTER:                  -7.600
REMARK INTRA:                  -0.240
REMARK UNBOUND:                 0.293
REMARK SMILES O=c1c(O)c(-c2ccc(O)cc2)oc2cc(O)cc(O)c12
REMARK SMILES IDX 5 1 3 2 2 3 1 4 21 5 19 6 18 7 16 8 15 9 14 10 13 11 6 12
REMARK SMILES IDX 7 13 8 14 9 15 12 16 11 17 10 18 4 20 20 22 17 24
REMARK H PARENT 10 19 4 21 20 23 17 25
REMARK Flexibility Score: inf
ROOT
ATOM      1  C   UNL     1      18.316  31.698  67.824  1.00  0.00     0.180 A 
ATOM      2  C   UNL     1      18.602  32.761  66.949  1.00  0.00     0.208 A 
ATOM      3  C   UNL     1      17.571  33.645  66.591  1.00  0.00     0.238 A 
ATOM      4  O   UNL     1      17.845  34.625  65.852  1.00  0.00    -0.285 OA
ATOM      5  C   UNL     1      16.265  33.445  67.099  1.00  0.00     0.111 A 
ATOM      6  C   UNL     1      15.136  34.255  66.772  1.00  0.00     0.134 A 
ATOM      7  C   UNL     1      13.920  34.045  67.434  1.00  0.00     0.093 A 
ATOM      8  C   UNL     1      13.774  33.015  68.362  1.00  0.00     0.123 A 
ATOM      9  C   UNL     1      14.855  32.180  68.646  1.00  0.00     0.094 A 
ATOM     10  C   UNL     1      16.090  32.387  68.028  1.00  0.00     0.146 A 
ATOM     11  O   UNL     1      17.096  31.577  68.334  1.00  0.00    -0.452 OA
ENDROOT
BRANCH   1  12
ATOM     12  C   UNL     1      19.344  30.711  68.226  1.00  0.00     0.021 A 
ATOM     13  C   UNL     1      19.844  30.730  69.539  1.00  0.00     0.016 A 
ATOM     14  C   UNL     1      20.799  29.793  69.946  1.00  0.00     0.047 A 
ATOM     15  C   UNL     1      21.254  28.817  69.051  1.00  0.00     0.115 A 
ATOM     16  C   UNL     1      19.792  29.715  67.339  1.00  0.00     0.016 A 
ATOM     17  C   UNL     1      20.746  28.779  67.750  1.00  0.00     0.047 A 
BRANCH  15  18
ATOM     18  O   UNL     1      22.205  27.878  69.446  1.00  0.00    -0.508 OA
ATOM     19  H   UNL     1      22.110  27.361  70.313  1.00  0.00     0.293 HD
ENDBRANCH  15  18
ENDBRANCH   1  12
BRANCH   2  20
ATOM     20  O   UNL     1      19.903  32.952  66.477  1.00  0.00    -0.502 OA
ATOM     21  H   UNL     1      20.314  32.366  65.760  1.00  0.00     0.293 HD
ENDBRANCH   2  20
BRANCH   6  22
ATOM     22  O   UNL     1      15.148  35.251  65.791  1.00  0.00    -0.507 OA
ATOM     23  H   UNL     1      14.370  35.477  65.191  1.00  0.00     0.293 HD
ENDBRANCH   6  22
BRANCH   8  24
ATOM     24  O   UNL     1      12.546  32.825  68.991  1.00  0.00    -0.508 OA
ATOM     25  H   UNL     1      11.917  33.600  69.171  1.00  0.00     0.293 HD
ENDBRANCH   8  24
TORSDOF 5
ENDMDL
MODEL 3
REMARK VINA RESULT:    -6.897      3.473      5.143
REMARK INTER + INTRA:          -7.814
REMARK INTER:                  -7.527
REMARK INTRA:                  -0.288
REMARK UNBOUND:                 0.293
REMARK SMILES O=c1c(O)c(-c2ccc(O)cc2)oc2cc(O)cc(O)c12
REMARK SMILES IDX 5 1 3 2 2 3 1 4 21 5 19 6 18 7 16 8 15 9 14 10 13 11 6 12
REMARK SMILES IDX 7 13 8 14 9 15 12 16 11 17 10 18 4 20 20 22 17 24
REMARK H PARENT 10 19 4 21 20 23 17 25
REMARK Flexibility Score: inf
ROOT
ATOM      1  C   UNL     1      17.781  32.988  66.235  1.00  0.00     0.180 A 
ATOM      2  C   UNL     1      17.591  32.012  65.241  1.00  0.00     0.208 A 
ATOM      3  C   UNL     1      16.563  31.069  65.400  1.00  0.00     0.238 A 
ATOM      4  O   UNL     1      16.362  30.233  64.481  1.00  0.00    -0.285 OA
ATOM      5  C   UNL     1      15.748  31.104  66.557  1.00  0.00     0.111 A 
ATOM      6  C   UNL     1      14.703  30.174  66.841  1.00  0.00     0.134 A 
ATOM      7  C   UNL     1      13.876  30.381  67.952  1.00  0.00     0.093 A 
ATOM      8  C   UNL     1      14.097  31.446  68.825  1.00  0.00     0.123 A 
ATOM      9  C   UNL     1      15.153  32.327  68.590  1.00  0.00     0.094 A 
ATOM     10  C   UNL     1      15.972  32.167  67.470  1.00  0.00     0.146 A 
ATOM     11  O   UNL     1      16.959  33.034  67.277  1.00  0.00    -0.452 OA
ENDROOT
BRANCH   1  12
ATOM     12  C   UNL     1      18.860  33.998  66.151  1.00  0.00     0.021 A 
ATOM     13  C   UNL     1      18.621  35.211  65.483  1.00  0.00     0.016 A 
ATOM     14  C   UNL     1      19.619  36.188  65.411  1.00  0.00     0.047 A 
ATOM     15  C   UNL     1      20.862  35.971  66.018  1.00  0.00     0.115 A 
ATOM     16  C   UNL     1      20.105  33.796  66.775  1.00  0.00     0.016 A 
ATOM     17  C   UNL     1      21.100  34.776  66.702  1.00  0.00     0.047 A 
BRANCH  15  18
ATOM     18  O   UNL     1      21.863  36.938  65.953  1.00  0.00    -0.508 OA
ATOM     19  H   UNL     1      22.740  36.759  65.477  1.00  0.00     0.293 HD
ENDBRANCH  15  18
ENDBRANCH   1  12
BRANCH   2  20
ATOM     20  O   UNL     1      18.392  32.010  64.096  1.00  0.00    -0.502 OA
ATOM     21  H   UNL     1      18.428  32.793  63.455  1.00  0.00     0.293 HD
ENDBRANCH   2  20
BRANCH   6  22
ATOM     22  O   UNL     1      14.455  29.024  66.085  1.00  0.00    -0.507 OA
ATOM     23  H   UNL     1      13.958  29.009  65.208  1.00  0.00     0.293 HD
ENDBRANCH   6  22
BRANCH   8  24
ATOM     24  O   UNL     1      13.265  31.613  69.929  1.00  0.00    -0.508 OA
ATOM     25  H   UNL     1      13.628  31.591  70.875  1.00  0.00     0.293 HD
ENDBRANCH   8  24
TORSDOF 5
ENDMDL
MODEL 4
REMARK VINA RESULT:    -6.887      2.461      5.672
REMARK INTER + INTRA:          -7.802
REMARK INTER:                  -7.518
REMARK INTRA:                  -0.285
REMARK UNBOUND:                 0.293
REMARK SMILES O=c1c(O)c(-c2ccc(O)cc2)oc2cc(O)cc(O)c12
REMARK SMILES IDX 5 1 3 2 2 3 1 4 21 5 19 6 18 7 16 8 15 9 14 10 13 11 6 12
REMARK SMILES IDX 7 13 8 14 9 15 12 16 11 17 10 18 4 20 20 22 17 24
REMARK H PARENT 10 19 4 21 20 23 17 25
REMARK Flexibility Score: inf
ROOT
ATOM      1  C   UNL     1      14.771  31.201  67.522  1.00  0.00     0.180 A 
ATOM      2  C   UNL     1      15.555  31.202  68.689  1.00  0.00     0.208 A 
ATOM      3  C   UNL     1      16.953  31.139  68.571  1.00  0.00     0.238 A 
ATOM      4  O   UNL     1      17.651  31.195  69.616  1.00  0.00    -0.285 OA
ATOM      5  C   UNL     1      17.548  31.060  67.289  1.00  0.00     0.111 A 
ATOM      6  C   UNL     1      18.952  30.952  67.052  1.00  0.00     0.134 A 
ATOM      7  C   UNL     1      19.438  31.012  65.740  1.00  0.00     0.093 A 
ATOM      8  C   UNL     1      18.570  31.110  64.655  1.00  0.00     0.123 A 
ATOM      9  C   UNL     1      17.192  31.157  64.871  1.00  0.00     0.094 A 
ATOM     10  C   UNL     1      16.679  31.135  66.169  1.00  0.00     0.146 A 
ATOM     11  O   UNL     1      15.363  31.192  66.333  1.00  0.00    -0.452 OA
ENDROOT
BRANCH   1  12
ATOM     12  C   UNL     1      13.292  31.239  67.566  1.00  0.00     0.021 A 
ATOM     13  C   UNL     1      12.624  32.453  67.334  1.00  0.00     0.016 A 
ATOM     14  C   UNL     1      11.227  32.507  67.350  1.00  0.00     0.047 A 
ATOM     15  C   UNL     1      10.480  31.345  67.583  1.00  0.00     0.115 A 
ATOM     16  C   UNL     1      12.534  30.073  67.780  1.00  0.00     0.016 A 
ATOM     17  C   UNL     1      11.137  30.130  67.794  1.00  0.00     0.047 A 
BRANCH  15  18
ATOM     18  O   UNL     1       9.088  31.387  67.601  1.00  0.00    -0.508 OA
ATOM     19  H   UNL     1       8.568  31.975  66.960  1.00  0.00     0.293 HD
ENDBRANCH  15  18
ENDBRANCH   1  12
BRANCH   2  20
ATOM     20  O   UNL     1      14.948  31.303  69.943  1.00  0.00    -0.502 OA
ATOM     21  H   UNL     1      14.274  32.025  70.165  1.00  0.00     0.293 HD
ENDBRANCH   2  20
BRANCH   6  22
ATOM     22  O   UNL     1      19.900  30.757  68.061  1.00  0.00    -0.507 OA
ATOM     23  H   UNL     1      20.044  31.378  68.842  1.00  0.00     0.293 HD
ENDBRANCH   6  22
BRANCH   8  24
ATOM     24  O   UNL     1      19.088  31.152  63.362  1.00  0.00    -0.508 OA
ATOM     25  H   UNL     1      18.545  30.844  62.563  1.00  0.00     0.293 HD
ENDBRANCH   8  24
TORSDOF 5
ENDMDL
MODEL 5
REMARK VINA RESULT:    -6.858      2.348      5.049
REMARK INTER + INTRA:          -7.768
REMARK INTER:                  -7.478
REMARK INTRA:                  -0.290
REMARK UNBOUND:                 0.293
REMARK SMILES O=c1c(O)c(-c2ccc(O)cc2)oc2cc(O)cc(O)c12
REMARK SMILES IDX 5 1 3 2 2 3 1 4 21 5 19 6 18 7 16 8 15 9 14 10 13 11 6 12
REMARK SMILES IDX 7 13 8 14 9 15 12 16 11 17 10 18 4 20 20 22 17 24
REMARK H PARENT 10 19 4 21 20 23 17 25
REMARK Flexibility Score: inf
ROOT
ATOM      1  C   UNL     1      14.712  31.180  67.259  1.00  0.00     0.180 A 
ATOM      2  C   UNL     1      15.428  31.047  66.057  1.00  0.00     0.208 A 
ATOM      3  C   UNL     1      16.831  30.979  66.104  1.00  0.00     0.238 A 
ATOM      4  O   UNL     1      17.463  30.805  65.031  1.00  0.00    -0.285 OA
ATOM      5  C   UNL     1      17.498  31.061  67.350  1.00  0.00     0.111 A 
ATOM      6  C   UNL     1      18.916  31.043  67.512  1.00  0.00     0.134 A 
ATOM      7  C   UNL     1      19.464  30.999  68.800  1.00  0.00     0.093 A 
ATOM      8  C   UNL     1      18.649  31.038  69.930  1.00  0.00     0.123 A 
ATOM      9  C   UNL     1      17.264  31.116  69.784  1.00  0.00     0.094 A 
ATOM     10  C   UNL     1      16.687  31.125  68.512  1.00  0.00     0.146 A 
ATOM     11  O   UNL     1      15.364  31.188  68.416  1.00  0.00    -0.452 OA
ENDROOT
BRANCH   1  12
ATOM     12  C   UNL     1      13.236  31.284  67.289  1.00  0.00     0.021 A 
ATOM     13  C   UNL     1      12.467  30.145  67.583  1.00  0.00     0.016 A 
ATOM     14  C   UNL     1      11.073  30.226  67.637  1.00  0.00     0.047 A 
ATOM     15  C   UNL     1      10.430  31.450  67.413  1.00  0.00     0.115 A 
ATOM     16  C   UNL     1      12.582  32.514  67.084  1.00  0.00     0.016 A 
ATOM     17  C   UNL     1      11.188  32.592  67.140  1.00  0.00     0.047 A 
BRANCH  15  18
ATOM     18  O   UNL     1       9.040  31.543  67.465  1.00  0.00    -0.508 OA
ATOM     19  H   UNL     1       8.478  31.547  66.622  1.00  0.00     0.293 HD
ENDBRANCH  15  18
ENDBRANCH   1  12
BRANCH   2  20
ATOM     20  O   UNL     1      14.748  30.946  64.841  1.00  0.00    -0.502 OA
ATOM     21  H   UNL     1      13.832  30.522  64.763  1.00  0.00     0.293 HD
ENDBRANCH   2  20
BRANCH   6  22
ATOM     22  O   UNL     1      19.824  31.096  66.449  1.00  0.00    -0.507 OA
ATOM     23  H   UNL     1      20.736  30.665  66.451  1.00  0.00     0.293 HD
ENDBRANCH   6  22
BRANCH   8  24
ATOM     24  O   UNL     1      19.229  31.008  71.196  1.00  0.00    -0.508 OA
ATOM     25  H   UNL     1      19.620  31.842  71.621  1.00  0.00     0.293 HD
ENDBRANCH   8  24
TORSDOF 5
ENDMDL
MODEL 6
REMARK VINA RESULT:    -6.826      3.468      6.093
REMARK INTER + INTRA:          -7.730
REMARK INTER:                  -7.443
REMARK INTRA:                  -0.287
REMARK UNBOUND:                 0.293
REMARK SMILES O=c1c(O)c(-c2ccc(O)cc2)oc2cc(O)cc(O)c12
REMARK SMILES IDX 5 1 3 2 2 3 1 4 21 5 19 6 18 7 16 8 15 9 14 10 13 11 6 12
REMARK SMILES IDX 7 13 8 14 9 15 12 16 11 17 10 18 4 20 20 22 17 24
REMARK H PARENT 10 19 4 21 20 23 17 25
REMARK Flexibility Score: inf
ROOT
ATOM      1  C   UNL     1      15.360  32.662  66.942  1.00  0.00     0.180 A 
ATOM      2  C   UNL     1      16.311  31.630  67.036  1.00  0.00     0.208 A 
ATOM      3  C   UNL     1      17.657  31.916  66.755  1.00  0.00     0.238 A 
ATOM      4  O   UNL     1      18.511  31.003  66.894  1.00  0.00    -0.285 OA
ATOM      5  C   UNL     1      18.032  33.225  66.367  1.00  0.00     0.111 A 
ATOM      6  C   UNL     1      19.360  33.618  66.020  1.00  0.00     0.134 A 
ATOM      7  C   UNL     1      19.640  34.969  65.778  1.00  0.00     0.093 A 
ATOM      8  C   UNL     1      18.630  35.929  65.807  1.00  0.00     0.123 A 
ATOM      9  C   UNL     1      17.318  35.547  66.087  1.00  0.00     0.094 A 
ATOM     10  C   UNL     1      17.014  34.214  66.367  1.00  0.00     0.146 A 
ATOM     11  O   UNL     1      15.755  33.893  66.640  1.00  0.00    -0.452 OA
ENDROOT
BRANCH   1  12
ATOM     12  C   UNL     1      13.921  32.432  67.198  1.00  0.00     0.021 A 
ATOM     13  C   UNL     1      13.080  32.060  66.135  1.00  0.00     0.016 A 
ATOM     14  C   UNL     1      11.721  31.816  66.359  1.00  0.00     0.047 A 
ATOM     15  C   UNL     1      11.190  31.928  67.650  1.00  0.00     0.115 A 
ATOM     16  C   UNL     1      13.382  32.523  68.495  1.00  0.00     0.016 A 
ATOM     17  C   UNL     1      12.023  32.278  68.715  1.00  0.00     0.047 A 
BRANCH  15  18
ATOM     18  O   UNL     1       9.837  31.687  67.884  1.00  0.00    -0.508 OA
ATOM     19  H   UNL     1       9.282  31.125  67.250  1.00  0.00     0.293 HD
ENDBRANCH  15  18
ENDBRANCH   1  12
BRANCH   2  20
ATOM     20  O   UNL     1      15.922  30.351  67.441  1.00  0.00    -0.502 OA
ATOM     21  H   UNL     1      16.118  29.990  68.368  1.00  0.00     0.293 HD
ENDBRANCH   2  20
BRANCH   6  22
ATOM     22  O   UNL     1      20.425  32.724  65.872  1.00  0.00    -0.507 OA
ATOM     23  H   UNL     1      21.081  32.733  65.107  1.00  0.00     0.293 HD
ENDBRANCH   6  22
BRANCH   8  24
ATOM     24  O   UNL     1      18.942  37.262  65.546  1.00  0.00    -0.508 OA
ATOM     25  H   UNL     1      18.306  37.866  65.039  1.00  0.00     0.293 HD
ENDBRANCH   8  24
TORSDOF 5
ENDMDL
MODEL 7
REMARK VINA RESULT:    -6.730      3.717      6.212
REMARK INTER + INTRA:          -7.618
REMARK INTER:                  -7.319
REMARK INTRA:                  -0.298
REMARK UNBOUND:                 0.293
REMARK SMILES O=c1c(O)c(-c2ccc(O)cc2)oc2cc(O)cc(O)c12
REMARK SMILES IDX 5 1 3 2 2 3 1 4 21 5 19 6 18 7 16 8 15 9 14 10 13 11 6 12
REMARK SMILES IDX 7 13 8 14 9 15 12 16 11 17 10 18 4 20 20 22 17 24
REMARK H PARENT 10 19 4 21 20 23 17 25
REMARK Flexibility Score: inf
ROOT
ATOM      1  C   UNL     1      14.597  33.316  67.096  1.00  0.00     0.180 A 
ATOM      2  C   UNL     1      14.757  34.703  66.939  1.00  0.00     0.208 A 
ATOM      3  C   UNL     1      16.015  35.206  66.566  1.00  0.00     0.238 A 
ATOM      4  O   UNL     1      16.138  36.443  66.373  1.00  0.00    -0.285 OA
ATOM      5  C   UNL     1      17.099  34.316  66.372  1.00  0.00     0.111 A 
ATOM      6  C   UNL     1      18.426  34.718  66.032  1.00  0.00     0.134 A 
ATOM      7  C   UNL     1      19.388  33.745  65.736  1.00  0.00     0.093 A 
ATOM      8  C   UNL     1      19.091  32.387  65.831  1.00  0.00     0.123 A 
ATOM      9  C   UNL     1      17.813  31.982  66.220  1.00  0.00     0.094 A 
ATOM     10  C   UNL     1      16.822  32.929  66.486  1.00  0.00     0.146 A 
ATOM     11  O   UNL     1      15.616  32.503  66.843  1.00  0.00    -0.452 OA
ENDROOT
BRANCH   1  12
ATOM     12  C   UNL     1      13.310  32.714  67.512  1.00  0.00     0.021 A 
ATOM     13  C   UNL     1      12.429  32.222  66.535  1.00  0.00     0.016 A 
ATOM     14  C   UNL     1      11.218  31.629  66.907  1.00  0.00     0.047 A 
ATOM     15  C   UNL     1      10.880  31.509  68.261  1.00  0.00     0.115 A 
ATOM     16  C   UNL     1      12.972  32.572  68.871  1.00  0.00     0.016 A 
ATOM     17  C   UNL     1      11.761  31.978  69.239  1.00  0.00     0.047 A 
BRANCH  15  18
ATOM     18  O   UNL     1       9.676  30.921  68.643  1.00  0.00    -0.508 OA
ATOM     19  H   UNL     1       9.162  31.246  69.453  1.00  0.00     0.293 HD
ENDBRANCH  15  18
ENDBRANCH   1  12
BRANCH   2  20
ATOM     20  O   UNL     1      13.669  35.562  67.114  1.00  0.00    -0.502 OA
ATOM     21  H   UNL     1      12.710  35.235  67.102  1.00  0.00     0.293 HD
ENDBRANCH   2  20
BRANCH   6  22
ATOM     22  O   UNL     1      18.854  36.049  65.999  1.00  0.00    -0.507 OA
ATOM     23  H   UNL     1      19.462  36.440  65.296  1.00  0.00     0.293 HD
ENDBRANCH   6  22
BRANCH   8  24
ATOM     24  O   UNL     1      20.077  31.445  65.545  1.00  0.00    -0.508 OA
ATOM     25  H   UNL     1      21.063  31.674  65.607  1.00  0.00     0.293 HD
ENDBRANCH   8  24
TORSDOF 5
ENDMDL
MODEL 8
REMARK VINA RESULT:    -6.722      3.322      5.148
REMARK INTER + INTRA:          -7.608
REMARK INTER:                  -7.609
REMARK INTRA:                   0.001
REMARK UNBOUND:                 0.293
REMARK SMILES O=c1c(O)c(-c2ccc(O)cc2)oc2cc(O)cc(O)c12
REMARK SMILES IDX 5 1 3 2 2 3 1 4 21 5 19 6 18 7 16 8 15 9 14 10 13 11 6 12
REMARK SMILES IDX 7 13 8 14 9 15 12 16 11 17 10 18 4 20 20 22 17 24
REMARK H PARENT 10 19 4 21 20 23 17 25
REMARK Flexibility Score: inf
ROOT
ATOM      1  C   UNL     1      17.222  32.597  67.134  1.00  0.00     0.180 A 
ATOM      2  C   UNL     1      18.084  32.175  66.106  1.00  0.00     0.208 A 
ATOM      3  C   UNL     1      18.926  31.074  66.332  1.00  0.00     0.238 A 
ATOM      4  O   UNL     1      19.655  30.668  65.391  1.00  0.00    -0.285 OA
ATOM      5  C   UNL     1      18.906  30.419  67.587  1.00  0.00     0.111 A 
ATOM      6  C   UNL     1      19.744  29.318  67.939  1.00  0.00     0.134 A 
ATOM      7  C   UNL     1      19.549  28.665  69.162  1.00  0.00     0.093 A 
ATOM      8  C   UNL     1      18.592  29.111  70.072  1.00  0.00     0.123 A 
ATOM      9  C   UNL     1      17.807  30.223  69.762  1.00  0.00     0.094 A 
ATOM     10  C   UNL     1      17.954  30.873  68.536  1.00  0.00     0.146 A 
ATOM     11  O   UNL     1      17.180  31.920  68.276  1.00  0.00    -0.452 OA
ENDROOT
BRANCH   1  12
ATOM     12  C   UNL     1      16.325  33.764  66.980  1.00  0.00     0.021 A 
ATOM     13  C   UNL     1      14.973  33.651  67.347  1.00  0.00     0.016 A 
ATOM     14  C   UNL     1      14.114  34.748  67.231  1.00  0.00     0.047 A 
ATOM     15  C   UNL     1      14.598  35.974  66.760  1.00  0.00     0.115 A 
ATOM     16  C   UNL     1      16.807  35.006  66.525  1.00  0.00     0.016 A 
ATOM     17  C   UNL     1      15.945  36.100  66.411  1.00  0.00     0.047 A 
BRANCH  15  18
ATOM     18  O   UNL     1      13.750  37.074  66.640  1.00  0.00    -0.508 OA
ATOM     19  H   UNL     1      14.013  37.986  66.995  1.00  0.00     0.293 HD
ENDBRANCH  15  18
ENDBRANCH   1  12
BRANCH   2  20
ATOM     20  O   UNL     1      18.071  32.823  64.868  1.00  0.00    -0.502 OA
ATOM     21  H   UNL     1      18.592  32.480  64.069  1.00  0.00     0.293 HD
ENDBRANCH   2  20
BRANCH   6  22
ATOM     22  O   UNL     1      20.794  28.850  67.142  1.00  0.00    -0.507 OA
ATOM     23  H   UNL     1      21.046  29.230  66.243  1.00  0.00     0.293 HD
ENDBRANCH   6  22
BRANCH   8  24
ATOM     24  O   UNL     1      18.435  28.446  71.286  1.00  0.00    -0.508 OA
ATOM     25  H   UNL     1      17.738  27.721  71.407  1.00  0.00     0.293 HD
ENDBRANCH   8  24
TORSDOF 5
ENDMDL
MODEL 9
REMARK VINA RESULT:    -6.636      2.865      5.292
REMARK INTER + INTRA:          -7.508
REMARK INTER:                  -7.208
REMARK INTRA:                  -0.300
REMARK UNBOUND:                 0.293
REMARK SMILES O=c1c(O)c(-c2ccc(O)cc2)oc2cc(O)cc(O)c12
REMARK SMILES IDX 5 1 3 2 2 3 1 4 21 5 19 6 18 7 16 8 15 9 14 10 13 11 6 12
REMARK SMILES IDX 7 13 8 14 9 15 12 16 11 17 10 18 4 20 20 22 17 24
REMARK H PARENT 10 19 4 21 20 23 17 25
REMARK Flexibility Score: inf
ROOT
ATOM      1  C   UNL     1      14.811  31.019  68.768  1.00  0.00     0.180 A 
ATOM      2  C   UNL     1      15.271  30.793  70.077  1.00  0.00     0.208 A 
ATOM      3  C   UNL     1      16.648  30.880  70.339  1.00  0.00     0.238 A 
ATOM      4  O   UNL     1      17.048  30.731  71.522  1.00  0.00    -0.285 OA
ATOM      5  C   UNL     1      17.548  31.176  69.287  1.00  0.00     0.111 A 
ATOM      6  C   UNL     1      18.966  31.251  69.430  1.00  0.00     0.134 A 
ATOM      7  C   UNL     1      19.748  31.679  68.351  1.00  0.00     0.093 A 
ATOM      8  C   UNL     1      19.171  31.973  67.116  1.00  0.00     0.123 A 
ATOM      9  C   UNL     1      17.792  31.847  66.948  1.00  0.00     0.094 A 
ATOM     10  C   UNL     1      16.982  31.456  68.016  1.00  0.00     0.146 A 
ATOM     11  O   UNL     1      15.673  31.359  67.817  1.00  0.00    -0.452 OA
ENDROOT
BRANCH   1  12
ATOM     12  C   UNL     1      13.378  30.919  68.409  1.00  0.00     0.021 A 
ATOM     13  C   UNL     1      12.582  32.077  68.409  1.00  0.00     0.016 A 
ATOM     14  C   UNL     1      11.232  32.009  68.052  1.00  0.00     0.047 A 
ATOM     15  C   UNL     1      10.665  30.785  67.676  1.00  0.00     0.115 A 
ATOM     16  C   UNL     1      12.804  29.697  68.011  1.00  0.00     0.016 A 
ATOM     17  C   UNL     1      11.454  29.632  67.653  1.00  0.00     0.047 A 
BRANCH  15  18
ATOM     18  O   UNL     1       9.320  30.705  67.318  1.00  0.00    -0.508 OA
ATOM     19  H   UNL     1       8.604  30.484  67.999  1.00  0.00     0.293 HD
ENDBRANCH  15  18
ENDBRANCH   1  12
BRANCH   2  20
ATOM     20  O   UNL     1      14.364  30.523  71.105  1.00  0.00    -0.502 OA
ATOM     21  H   UNL     1      13.534  31.084  71.260  1.00  0.00     0.293 HD
ENDBRANCH   2  20
BRANCH   6  22
ATOM     22  O   UNL     1      19.653  30.890  70.594  1.00  0.00    -0.507 OA
ATOM     23  H   UNL     1      19.214  30.665  71.473  1.00  0.00     0.293 HD
ENDBRANCH   6  22
BRANCH   8  24
ATOM     24  O   UNL     1      19.982  32.382  66.059  1.00  0.00    -0.508 OA
ATOM     25  H   UNL     1      19.609  32.518  65.127  1.00  0.00     0.293 HD
ENDBRANCH   8  24
TORSDOF 5
ENDMDL
