MODEL 1
REMARK VINA RESULT:    -5.624      0.000      0.000
REMARK INTER + INTRA:          -7.051
REMARK INTER:                  -6.775
REMARK INTRA:                  -0.276
REMARK UNBOUND:                -0.276
REMARK SMILES O=c1c(O)c(-c2ccc(O)c(O)c2)oc2cc(O)cc(O)c12
REMARK SMILES IDX 5 1 3 2 2 3 1 4 22 5 20 6 19 7 17 8 16 9 15 10 14 11 6 12
REMARK SMILES IDX 7 13 8 14 9 15 13 16 11 17 10 18 12 20 4 22 21 24 18 26
REMARK H PARENT 10 19 12 21 4 23 21 25 18 27
REMARK Flexibility Score: inf
ROOT
ATOM      1  C   UNL     1     213.629 217.042 220.300  1.00  0.00     0.180 A 
ATOM      2  C   UNL     1     212.956 215.808 220.256  1.00  0.00     0.208 A 
ATOM      3  C   UNL     1     213.708 214.623 220.223  1.00  0.00     0.238 A 
ATOM      4  O   UNL     1     213.102 213.524 220.129  1.00  0.00    -0.285 OA
ATOM      5  C   UNL     1     215.123 214.686 220.250  1.00  0.00     0.111 A 
ATOM      6  C   UNL     1     215.984 213.548 220.261  1.00  0.00     0.134 A 
ATOM      7  C   UNL     1     217.369 213.729 220.156  1.00  0.00     0.093 A 
ATOM      8  C   UNL     1     217.926 215.009 220.107  1.00  0.00     0.123 A 
ATOM      9  C   UNL     1     217.097 216.127 220.155  1.00  0.00     0.094 A 
ATOM     10  C   UNL     1     215.709 215.978 220.224  1.00  0.00     0.146 A 
ATOM     11  O   UNL     1     214.955 217.069 220.257  1.00  0.00    -0.452 OA
ENDROOT
BRANCH   1  12
ATOM     12  C   UNL     1     212.904 218.332 220.361  1.00  0.00     0.025 A 
ATOM     13  C   UNL     1     212.886 219.169 219.235  1.00  0.00     0.016 A 
ATOM     14  C   UNL     1     212.226 220.399 219.277  1.00  0.00     0.051 A 
ATOM     15  C   UNL     1     211.589 220.820 220.448  1.00  0.00     0.157 A 
ATOM     16  C   UNL     1     212.280 218.765 221.545  1.00  0.00     0.062 A 
ATOM     17  C   UNL     1     211.619 220.002 221.590  1.00  0.00     0.158 A 
BRANCH  15  18
ATOM     18  O   UNL     1     210.937 222.053 220.461  1.00  0.00    -0.504 OA
ATOM     19  H   UNL     1     210.703 222.529 221.324  1.00  0.00     0.293 HD
ENDBRANCH  15  18
BRANCH  17  20
ATOM     20  O   UNL     1     210.998 220.421 222.765  1.00  0.00    -0.504 OA
ATOM     21  H   UNL     1     211.478 220.399 223.658  1.00  0.00     0.293 HD
ENDBRANCH  17  20
ENDBRANCH   1  12
BRANCH   2  22
ATOM     22  O   UNL     1     211.560 215.770 220.208  1.00  0.00    -0.502 OA
ATOM     23  H   UNL     1     210.998 216.600 220.062  1.00  0.00     0.293 HD
ENDBRANCH   2  22
BRANCH   6  24
ATOM     24  O   UNL     1     215.535 212.231 220.400  1.00  0.00    -0.507 OA
ATOM     25  H   UNL     1     214.573 211.940 220.318  1.00  0.00     0.293 HD
ENDBRANCH   6  24
BRANCH   8  26
ATOM     26  O   UNL     1     219.306 215.181 220.018  1.00  0.00    -0.508 OA
ATOM     27  H   UNL     1     219.808 215.776 220.667  1.00  0.00     0.293 HD
ENDBRANCH   8  26
TORSDOF 6
ENDMDL
MODEL 2
REMARK VINA RESULT:    -5.606      4.356      9.471
REMARK INTER + INTRA:          -7.028
REMARK INTER:                  -6.716
REMARK INTRA:                  -0.312
REMARK UNBOUND:                -0.276
REMARK SMILES O=c1c(O)c(-c2ccc(O)c(O)c2)oc2cc(O)cc(O)c12
REMARK SMILES IDX 5 1 3 2 2 3 1 4 22 5 20 6 19 7 17 8 16 9 15 10 14 11 6 12
REMARK SMILES IDX 7 13 8 14 9 15 13 16 11 17 10 18 12 20 4 22 21 24 18 26
REMARK H PARENT 10 19 12 21 4 23 21 25 18 27
REMARK Flexibility Score: inf
ROOT
ATOM      1  C   UNL     1     220.644 217.290 220.319  1.00  0.00     0.180 A 
ATOM      2  C   UNL     1     221.329 218.516 220.268  1.00  0.00     0.208 A 
ATOM      3  C   UNL     1     220.590 219.708 220.222  1.00  0.00     0.238 A 
ATOM      4  O   UNL     1     221.208 220.800 220.121  1.00  0.00    -0.285 OA
ATOM      5  C   UNL     1     219.175 219.661 220.247  1.00  0.00     0.111 A 
ATOM      6  C   UNL     1     218.326 220.808 220.246  1.00  0.00     0.134 A 
ATOM      7  C   UNL     1     216.939 220.641 220.139  1.00  0.00     0.093 A 
ATOM      8  C   UNL     1     216.369 219.367 220.100  1.00  0.00     0.123 A 
ATOM      9  C   UNL     1     217.186 218.241 220.159  1.00  0.00     0.094 A 
ATOM     10  C   UNL     1     218.575 218.375 220.230  1.00  0.00     0.146 A 
ATOM     11  O   UNL     1     219.317 217.276 220.274  1.00  0.00    -0.452 OA
ENDROOT
BRANCH   1  12
ATOM     12  C   UNL     1     221.354 215.993 220.393  1.00  0.00     0.025 A 
ATOM     13  C   UNL     1     221.471 215.201 219.240  1.00  0.00     0.016 A 
ATOM     14  C   UNL     1     222.119 213.965 219.292  1.00  0.00     0.051 A 
ATOM     15  C   UNL     1     222.646 213.492 220.497  1.00  0.00     0.157 A 
ATOM     16  C   UNL     1     221.867 215.507 221.610  1.00  0.00     0.062 A 
ATOM     17  C   UNL     1     222.517 214.264 221.664  1.00  0.00     0.158 A 
BRANCH  15  18
ATOM     18  O   UNL     1     223.289 212.255 220.518  1.00  0.00    -0.504 OA
ATOM     19  H   UNL     1     223.899 211.953 219.768  1.00  0.00     0.293 HD
ENDBRANCH  15  18
BRANCH  17  20
ATOM     20  O   UNL     1     223.026 213.793 222.873  1.00  0.00    -0.504 OA
ATOM     21  H   UNL     1     224.021 213.788 223.064  1.00  0.00     0.293 HD
ENDBRANCH  17  20
ENDBRANCH   1  12
BRANCH   2  22
ATOM     22  O   UNL     1     222.726 218.539 220.222  1.00  0.00    -0.502 OA
ATOM     23  H   UNL     1     223.300 218.048 220.898  1.00  0.00     0.293 HD
ENDBRANCH   2  22
BRANCH   6  24
ATOM     24  O   UNL     1     218.788 222.121 220.376  1.00  0.00    -0.507 OA
ATOM     25  H   UNL     1     218.811 222.799 219.629  1.00  0.00     0.293 HD
ENDBRANCH   6  24
BRANCH   8  26
ATOM     26  O   UNL     1     214.987 219.209 220.009  1.00  0.00    -0.508 OA
ATOM     27  H   UNL     1     214.418 219.045 220.831  1.00  0.00     0.293 HD
ENDBRANCH   8  26
TORSDOF 6
ENDMDL
MODEL 3
REMARK VINA RESULT:    -5.549      4.719      7.310
REMARK INTER + INTRA:          -6.960
REMARK INTER:                  -6.662
REMARK INTRA:                  -0.297
REMARK UNBOUND:                -0.276
REMARK SMILES O=c1c(O)c(-c2ccc(O)c(O)c2)oc2cc(O)cc(O)c12
REMARK SMILES IDX 5 1 3 2 2 3 1 4 22 5 20 6 19 7 17 8 16 9 15 10 14 11 6 12
REMARK SMILES IDX 7 13 8 14 9 15 13 16 11 17 10 18 12 20 4 22 21 24 18 26
REMARK H PARENT 10 19 12 21 4 23 21 25 18 27
REMARK Flexibility Score: inf
ROOT
ATOM      1  C   UNL     1     217.422 220.458 220.349  1.00  0.00     0.180 A 
ATOM      2  C   UNL     1     217.371 219.067 220.153  1.00  0.00     0.208 A 
ATOM      3  C   UNL     1     216.119 218.436 220.079  1.00  0.00     0.238 A 
ATOM      4  O   UNL     1     216.079 217.184 219.958  1.00  0.00    -0.285 OA
ATOM      5  C   UNL     1     214.935 219.205 220.185  1.00  0.00     0.111 A 
ATOM      6  C   UNL     1     213.613 218.675 220.084  1.00  0.00     0.134 A 
ATOM      7  C   UNL     1     212.515 219.507 220.335  1.00  0.00     0.093 A 
ATOM      8  C   UNL     1     212.689 220.864 220.619  1.00  0.00     0.123 A 
ATOM      9  C   UNL     1     213.973 221.402 220.662  1.00  0.00     0.094 A 
ATOM     10  C   UNL     1     215.090 220.590 220.451  1.00  0.00     0.146 A 
ATOM     11  O   UNL     1     216.296 221.141 220.511  1.00  0.00    -0.452 OA
ENDROOT
BRANCH   1  12
ATOM     12  C   UNL     1     218.704 221.197 220.414  1.00  0.00     0.025 A 
ATOM     13  C   UNL     1     219.376 221.520 219.225  1.00  0.00     0.016 A 
ATOM     14  C   UNL     1     220.596 222.199 219.263  1.00  0.00     0.051 A 
ATOM     15  C   UNL     1     221.171 222.552 220.488  1.00  0.00     0.157 A 
ATOM     16  C   UNL     1     219.293 221.535 221.646  1.00  0.00     0.062 A 
ATOM     17  C   UNL     1     220.519 222.216 221.686  1.00  0.00     0.158 A 
BRANCH  15  18
ATOM     18  O   UNL     1     222.389 223.232 220.495  1.00  0.00    -0.504 OA
ATOM     19  H   UNL     1     222.445 224.237 220.387  1.00  0.00     0.293 HD
ENDBRANCH  15  18
BRANCH  17  20
ATOM     20  O   UNL     1     221.093 222.552 222.911  1.00  0.00    -0.504 OA
ATOM     21  H   UNL     1     220.621 222.367 223.788  1.00  0.00     0.293 HD
ENDBRANCH  17  20
ENDBRANCH   1  12
BRANCH   2  22
ATOM     22  O   UNL     1     218.552 218.324 220.073  1.00  0.00    -0.502 OA
ATOM     23  H   UNL     1     219.425 218.724 219.749  1.00  0.00     0.293 HD
ENDBRANCH   2  22
BRANCH   6  24
ATOM     24  O   UNL     1     213.327 217.357 219.715  1.00  0.00    -0.507 OA
ATOM     25  H   UNL     1     213.497 216.549 220.294  1.00  0.00     0.293 HD
ENDBRANCH   6  24
BRANCH   8  26
ATOM     26  O   UNL     1     211.590 221.688 220.852  1.00  0.00    -0.508 OA
ATOM     27  H   UNL     1     210.964 221.960 220.103  1.00  0.00     0.293 HD
ENDBRANCH   8  26
TORSDOF 6
ENDMDL
MODEL 4
REMARK VINA RESULT:    -5.542      4.503      6.295
REMARK INTER + INTRA:          -6.951
REMARK INTER:                  -6.640
REMARK INTRA:                  -0.312
REMARK UNBOUND:                -0.276
REMARK SMILES O=c1c(O)c(-c2ccc(O)c(O)c2)oc2cc(O)cc(O)c12
REMARK SMILES IDX 5 1 3 2 2 3 1 4 22 5 20 6 19 7 17 8 16 9 15 10 14 11 6 12
REMARK SMILES IDX 7 13 8 14 9 15 13 16 11 17 10 18 12 20 4 22 21 24 18 26
REMARK H PARENT 10 19 12 21 4 23 21 25 18 27
REMARK Flexibility Score: inf
ROOT
ATOM      1  C   UNL     1     216.988 213.991 220.343  1.00  0.00     0.180 A 
ATOM      2  C   UNL     1     217.049 215.381 220.139  1.00  0.00     0.208 A 
ATOM      3  C   UNL     1     218.304 216.004 220.060  1.00  0.00     0.238 A 
ATOM      4  O   UNL     1     218.352 217.255 219.933  1.00  0.00    -0.285 OA
ATOM      5  C   UNL     1     219.484 215.228 220.167  1.00  0.00     0.111 A 
ATOM      6  C   UNL     1     220.808 215.748 220.061  1.00  0.00     0.134 A 
ATOM      7  C   UNL     1     221.902 214.910 220.314  1.00  0.00     0.093 A 
ATOM      8  C   UNL     1     221.719 213.556 220.605  1.00  0.00     0.123 A 
ATOM      9  C   UNL     1     220.432 213.027 220.653  1.00  0.00     0.094 A 
ATOM     10  C   UNL     1     219.320 213.845 220.441  1.00  0.00     0.146 A 
ATOM     11  O   UNL     1     218.111 213.301 220.506  1.00  0.00    -0.452 OA
ENDROOT
BRANCH   1  12
ATOM     12  C   UNL     1     215.703 213.260 220.413  1.00  0.00     0.025 A 
ATOM     13  C   UNL     1     215.057 212.880 219.226  1.00  0.00     0.016 A 
ATOM     14  C   UNL     1     213.833 212.208 219.269  1.00  0.00     0.051 A 
ATOM     15  C   UNL     1     213.228 211.919 220.496  1.00  0.00     0.157 A 
ATOM     16  C   UNL     1     215.083 212.987 221.646  1.00  0.00     0.062 A 
ATOM     17  C   UNL     1     213.852 212.313 221.691  1.00  0.00     0.158 A 
BRANCH  15  18
ATOM     18  O   UNL     1     212.007 211.245 220.508  1.00  0.00    -0.504 OA
ATOM     19  H   UNL     1     211.679 210.740 221.322  1.00  0.00     0.293 HD
ENDBRANCH  15  18
BRANCH  17  20
ATOM     20  O   UNL     1     213.248 212.041 222.917  1.00  0.00    -0.504 OA
ATOM     21  H   UNL     1     212.927 212.783 223.528  1.00  0.00     0.293 HD
ENDBRANCH  17  20
ENDBRANCH   1  12
BRANCH   2  22
ATOM     22  O   UNL     1     215.872 216.131 220.058  1.00  0.00    -0.502 OA
ATOM     23  H   UNL     1     215.466 216.411 219.173  1.00  0.00     0.293 HD
ENDBRANCH   2  22
BRANCH   6  24
ATOM     24  O   UNL     1     221.102 217.062 219.685  1.00  0.00    -0.507 OA
ATOM     25  H   UNL     1     220.665 217.553 218.920  1.00  0.00     0.293 HD
ENDBRANCH   6  24
BRANCH   8  26
ATOM     26  O   UNL     1     222.813 212.726 220.841  1.00  0.00    -0.508 OA
ATOM     27  H   UNL     1     222.867 212.142 221.667  1.00  0.00     0.293 HD
ENDBRANCH   8  26
TORSDOF 6
ENDMDL
MODEL 5
REMARK VINA RESULT:    -5.489      4.827      6.763
REMARK INTER + INTRA:          -6.888
REMARK INTER:                  -6.576
REMARK INTRA:                  -0.312
REMARK UNBOUND:                -0.276
REMARK SMILES O=c1c(O)c(-c2ccc(O)c(O)c2)oc2cc(O)cc(O)c12
REMARK SMILES IDX 5 1 3 2 2 3 1 4 22 5 20 6 19 7 17 8 16 9 15 10 14 11 6 12
REMARK SMILES IDX 7 13 8 14 9 15 13 16 11 17 10 18 12 20 4 22 21 24 18 26
REMARK H PARENT 10 19 12 21 4 23 21 25 18 27
REMARK Flexibility Score: inf
ROOT
ATOM      1  C   UNL     1     217.155 220.606 220.326  1.00  0.00     0.180 A 
ATOM      2  C   UNL     1     215.933 221.300 220.279  1.00  0.00     0.208 A 
ATOM      3  C   UNL     1     214.736 220.570 220.237  1.00  0.00     0.238 A 
ATOM      4  O   UNL     1     213.648 221.195 220.140  1.00  0.00    -0.285 OA
ATOM      5  C   UNL     1     214.773 219.154 220.261  1.00  0.00     0.111 A 
ATOM      6  C   UNL     1     213.620 218.313 220.264  1.00  0.00     0.134 A 
ATOM      7  C   UNL     1     213.777 216.925 220.156  1.00  0.00     0.093 A 
ATOM      8  C   UNL     1     215.047 216.346 220.112  1.00  0.00     0.123 A 
ATOM      9  C   UNL     1     216.179 217.155 220.168  1.00  0.00     0.094 A 
ATOM     10  C   UNL     1     216.055 218.545 220.239  1.00  0.00     0.146 A 
ATOM     11  O   UNL     1     217.159 219.280 220.280  1.00  0.00    -0.452 OA
ENDROOT
BRANCH   1  12
ATOM     12  C   UNL     1     218.457 221.307 220.396  1.00  0.00     0.025 A 
ATOM     13  C   UNL     1     219.244 221.422 219.239  1.00  0.00     0.016 A 
ATOM     14  C   UNL     1     220.485 222.061 219.286  1.00  0.00     0.051 A 
ATOM     15  C   UNL     1     220.967 222.581 220.491  1.00  0.00     0.157 A 
ATOM     16  C   UNL     1     218.952 221.813 221.611  1.00  0.00     0.062 A 
ATOM     17  C   UNL     1     220.200 222.454 221.662  1.00  0.00     0.158 A 
BRANCH  15  18
ATOM     18  O   UNL     1     222.209 223.215 220.508  1.00  0.00    -0.504 OA
ATOM     19  H   UNL     1     223.001 222.832 221.009  1.00  0.00     0.293 HD
ENDBRANCH  15  18
BRANCH  17  20
ATOM     20  O   UNL     1     220.680 222.957 222.869  1.00  0.00    -0.504 OA
ATOM     21  H   UNL     1     221.520 222.592 223.301  1.00  0.00     0.293 HD
ENDBRANCH  17  20
ENDBRANCH   1  12
BRANCH   2  22
ATOM     22  O   UNL     1     215.920 222.697 220.234  1.00  0.00    -0.502 OA
ATOM     23  H   UNL     1     216.334 223.268 220.962  1.00  0.00     0.293 HD
ENDBRANCH   2  22
BRANCH   6  24
ATOM     24  O   UNL     1     212.310 218.785 220.398  1.00  0.00    -0.507 OA
ATOM     25  H   UNL     1     211.847 218.951 221.278  1.00  0.00     0.293 HD
ENDBRANCH   6  24
BRANCH   8  26
ATOM     26  O   UNL     1     215.195 214.963 220.020  1.00  0.00    -0.508 OA
ATOM     27  H   UNL     1     214.578 214.331 220.516  1.00  0.00     0.293 HD
ENDBRANCH   8  26
TORSDOF 6
ENDMDL
MODEL 6
REMARK VINA RESULT:    -5.479      1.220      2.979
REMARK INTER + INTRA:          -6.875
REMARK INTER:                  -6.573
REMARK INTRA:                  -0.302
REMARK UNBOUND:                -0.276
REMARK SMILES O=c1c(O)c(-c2ccc(O)c(O)c2)oc2cc(O)cc(O)c12
REMARK SMILES IDX 5 1 3 2 2 3 1 4 22 5 20 6 19 7 17 8 16 9 15 10 14 11 6 12
REMARK SMILES IDX 7 13 8 14 9 15 13 16 11 17 10 18 12 20 4 22 21 24 18 26
REMARK H PARENT 10 19 12 21 4 23 21 25 18 27
REMARK Flexibility Score: inf
ROOT
ATOM      1  C   UNL     1     213.841 217.271 220.334  1.00  0.00     0.180 A 
ATOM      2  C   UNL     1     215.236 217.217 220.164  1.00  0.00     0.208 A 
ATOM      3  C   UNL     1     215.863 215.965 220.078  1.00  0.00     0.238 A 
ATOM      4  O   UNL     1     217.117 215.922 219.981  1.00  0.00    -0.285 OA
ATOM      5  C   UNL     1     215.088 214.782 220.144  1.00  0.00     0.111 A 
ATOM      6  C   UNL     1     215.614 213.460 220.028  1.00  0.00     0.134 A 
ATOM      7  C   UNL     1     214.773 212.360 220.240  1.00  0.00     0.093 A 
ATOM      8  C   UNL     1     213.411 212.535 220.500  1.00  0.00     0.123 A 
ATOM      9  C   UNL     1     212.877 213.820 220.558  1.00  0.00     0.094 A 
ATOM     10  C   UNL     1     213.698 214.938 220.386  1.00  0.00     0.146 A 
ATOM     11  O   UNL     1     213.150 216.144 220.459  1.00  0.00    -0.452 OA
ENDROOT
BRANCH   1  12
ATOM     12  C   UNL     1     213.106 218.554 220.409  1.00  0.00     0.025 A 
ATOM     13  C   UNL     1     212.793 219.242 219.226  1.00  0.00     0.016 A 
ATOM     14  C   UNL     1     212.118 220.464 219.276  1.00  0.00     0.051 A 
ATOM     15  C   UNL     1     211.759 221.025 220.505  1.00  0.00     0.157 A 
ATOM     16  C   UNL     1     212.762 219.129 221.646  1.00  0.00     0.062 A 
ATOM     17  C   UNL     1     212.085 220.357 221.697  1.00  0.00     0.158 A 
BRANCH  15  18
ATOM     18  O   UNL     1     211.084 222.245 220.523  1.00  0.00    -0.504 OA
ATOM     19  H   UNL     1     210.115 222.329 220.238  1.00  0.00     0.293 HD
ENDBRANCH  15  18
BRANCH  17  20
ATOM     20  O   UNL     1     211.743 220.917 222.927  1.00  0.00    -0.504 OA
ATOM     21  H   UNL     1     212.436 221.080 223.648  1.00  0.00     0.293 HD
ENDBRANCH  17  20
ENDBRANCH   1  12
BRANCH   2  22
ATOM     22  O   UNL     1     215.984 218.397 220.122  1.00  0.00    -0.502 OA
ATOM     23  H   UNL     1     216.972 218.406 219.895  1.00  0.00     0.293 HD
ENDBRANCH   2  22
BRANCH   6  24
ATOM     24  O   UNL     1     216.938 213.175 219.679  1.00  0.00    -0.507 OA
ATOM     25  H   UNL     1     217.735 213.327 220.278  1.00  0.00     0.293 HD
ENDBRANCH   6  24
BRANCH   8  26
ATOM     26  O   UNL     1     212.578 211.436 220.695  1.00  0.00    -0.508 OA
ATOM     27  H   UNL     1     212.679 210.591 220.145  1.00  0.00     0.293 HD
ENDBRANCH   8  26
TORSDOF 6
ENDMDL
MODEL 7
REMARK VINA RESULT:    -5.479      4.715      6.553
REMARK INTER + INTRA:          -6.875
REMARK INTER:                  -6.555
REMARK INTRA:                  -0.320
REMARK UNBOUND:                -0.276
REMARK SMILES O=c1c(O)c(-c2ccc(O)c(O)c2)oc2cc(O)cc(O)c12
REMARK SMILES IDX 5 1 3 2 2 3 1 4 22 5 20 6 19 7 17 8 16 9 15 10 14 11 6 12
REMARK SMILES IDX 7 13 8 14 9 15 13 16 11 17 10 18 12 20 4 22 21 24 18 26
REMARK H PARENT 10 19 12 21 4 23 21 25 18 27
REMARK Flexibility Score: inf
ROOT
ATOM      1  C   UNL     1     217.137 213.833 220.305  1.00  0.00     0.180 A 
ATOM      2  C   UNL     1     218.370 213.161 220.249  1.00  0.00     0.208 A 
ATOM      3  C   UNL     1     219.554 213.913 220.203  1.00  0.00     0.238 A 
ATOM      4  O   UNL     1     220.652 213.308 220.098  1.00  0.00    -0.285 OA
ATOM      5  C   UNL     1     219.491 215.328 220.233  1.00  0.00     0.111 A 
ATOM      6  C   UNL     1     220.629 216.189 220.232  1.00  0.00     0.134 A 
ATOM      7  C   UNL     1     220.447 217.574 220.130  1.00  0.00     0.093 A 
ATOM      8  C   UNL     1     219.166 218.131 220.095  1.00  0.00     0.123 A 
ATOM      9  C   UNL     1     218.049 217.301 220.154  1.00  0.00     0.094 A 
ATOM     10  C   UNL     1     218.199 215.914 220.220  1.00  0.00     0.146 A 
ATOM     11  O   UNL     1     217.108 215.159 220.265  1.00  0.00    -0.452 OA
ENDROOT
BRANCH   1  12
ATOM     12  C   UNL     1     215.847 213.108 220.380  1.00  0.00     0.025 A 
ATOM     13  C   UNL     1     215.075 212.949 219.219  1.00  0.00     0.016 A 
ATOM     14  C   UNL     1     213.846 212.287 219.270  1.00  0.00     0.051 A 
ATOM     15  C   UNL     1     213.362 211.788 220.483  1.00  0.00     0.157 A 
ATOM     16  C   UNL     1     215.350 212.623 221.603  1.00  0.00     0.062 A 
ATOM     17  C   UNL     1     214.115 211.958 221.657  1.00  0.00     0.158 A 
BRANCH  15  18
ATOM     18  O   UNL     1     212.133 211.129 220.503  1.00  0.00    -0.504 OA
ATOM     19  H   UNL     1     211.341 211.451 219.960  1.00  0.00     0.293 HD
ENDBRANCH  15  18
BRANCH  17  20
ATOM     20  O   UNL     1     213.632 211.476 222.872  1.00  0.00    -0.504 OA
ATOM     21  H   UNL     1     214.226 210.964 223.514  1.00  0.00     0.293 HD
ENDBRANCH  17  20
ENDBRANCH   1  12
BRANCH   2  22
ATOM     22  O   UNL     1     218.408 211.764 220.199  1.00  0.00    -0.502 OA
ATOM     23  H   UNL     1     219.232 211.253 219.906  1.00  0.00     0.293 HD
ENDBRANCH   2  22
BRANCH   6  24
ATOM     24  O   UNL     1     221.947 215.741 220.357  1.00  0.00    -0.507 OA
ATOM     25  H   UNL     1     222.629 215.744 219.613  1.00  0.00     0.293 HD
ENDBRANCH   6  24
BRANCH   8  26
ATOM     26  O   UNL     1     218.993 219.511 220.009  1.00  0.00    -0.508 OA
ATOM     27  H   UNL     1     218.556 220.037 220.757  1.00  0.00     0.293 HD
ENDBRANCH   8  26
TORSDOF 6
ENDMDL
MODEL 8
REMARK VINA RESULT:    -5.394      2.254      6.602
REMARK INTER + INTRA:          -6.774
REMARK INTER:                  -6.446
REMARK INTRA:                  -0.328
REMARK UNBOUND:                -0.276
REMARK SMILES O=c1c(O)c(-c2ccc(O)c(O)c2)oc2cc(O)cc(O)c12
REMARK SMILES IDX 5 1 3 2 2 3 1 4 22 5 20 6 19 7 17 8 16 9 15 10 14 11 6 12
REMARK SMILES IDX 7 13 8 14 9 15 13 16 11 17 10 18 12 20 4 22 21 24 18 26
REMARK H PARENT 10 19 12 21 4 23 21 25 18 27
REMARK Flexibility Score: inf
ROOT
ATOM      1  C   UNL     1     214.581 215.843 220.644  1.00  0.00     0.180 A 
ATOM      2  C   UNL     1     215.914 216.249 220.827  1.00  0.00     0.208 A 
ATOM      3  C   UNL     1     216.232 217.612 220.720  1.00  0.00     0.238 A 
ATOM      4  O   UNL     1     217.436 217.963 220.831  1.00  0.00    -0.285 OA
ATOM      5  C   UNL     1     215.211 218.554 220.447  1.00  0.00     0.111 A 
ATOM      6  C   UNL     1     215.413 219.964 220.357  1.00  0.00     0.134 A 
ATOM      7  C   UNL     1     214.355 220.789 219.953  1.00  0.00     0.093 A 
ATOM      8  C   UNL     1     213.087 220.261 219.700  1.00  0.00     0.123 A 
ATOM      9  C   UNL     1     212.866 218.894 219.842  1.00  0.00     0.094 A 
ATOM     10  C   UNL     1     213.910 218.040 220.209  1.00  0.00     0.146 A 
ATOM     11  O   UNL     1     213.658 216.742 220.324  1.00  0.00    -0.452 OA
ENDROOT
BRANCH   1  12
ATOM     12  C   UNL     1     214.164 214.428 220.765  1.00  0.00     0.025 A 
ATOM     13  C   UNL     1     214.172 213.604 219.628  1.00  0.00     0.016 A 
ATOM     14  C   UNL     1     213.764 212.272 219.716  1.00  0.00     0.051 A 
ATOM     15  C   UNL     1     213.325 211.745 220.935  1.00  0.00     0.157 A 
ATOM     16  C   UNL     1     213.704 213.902 221.986  1.00  0.00     0.062 A 
ATOM     17  C   UNL     1     213.291 212.564 222.076  1.00  0.00     0.158 A 
BRANCH  15  18
ATOM     18  O   UNL     1     212.925 210.410 220.993  1.00  0.00    -0.504 OA
ATOM     19  H   UNL     1     213.549 209.674 221.302  1.00  0.00     0.293 HD
ENDBRANCH  15  18
BRANCH  17  20
ATOM     20  O   UNL     1     212.842 212.050 223.291  1.00  0.00    -0.504 OA
ATOM     21  H   UNL     1     211.857 212.029 223.528  1.00  0.00     0.293 HD
ENDBRANCH  17  20
ENDBRANCH   1  12
BRANCH   2  22
ATOM     22  O   UNL     1     216.910 215.299 221.074  1.00  0.00    -0.502 OA
ATOM     23  H   UNL     1     216.957 214.773 221.939  1.00  0.00     0.293 HD
ENDBRANCH   2  22
BRANCH   6  24
ATOM     24  O   UNL     1     216.615 220.602 220.678  1.00  0.00    -0.507 OA
ATOM     25  H   UNL     1     216.875 221.527 220.370  1.00  0.00     0.293 HD
ENDBRANCH   6  24
BRANCH   8  26
ATOM     26  O   UNL     1     212.036 221.090 219.313  1.00  0.00    -0.508 OA
ATOM     27  H   UNL     1     211.243 221.258 219.921  1.00  0.00     0.293 HD
ENDBRANCH   8  26
TORSDOF 6
ENDMDL
MODEL 9
REMARK VINA RESULT:    -5.392      4.956      6.712
REMARK INTER + INTRA:          -6.772
REMARK INTER:                  -6.442
REMARK INTRA:                  -0.330
REMARK UNBOUND:                -0.276
REMARK SMILES O=c1c(O)c(-c2ccc(O)c(O)c2)oc2cc(O)cc(O)c12
REMARK SMILES IDX 5 1 3 2 2 3 1 4 22 5 20 6 19 7 17 8 16 9 15 10 14 11 6 12
REMARK SMILES IDX 7 13 8 14 9 15 13 16 11 17 10 18 12 20 4 22 21 24 18 26
REMARK H PARENT 10 19 12 21 4 23 21 25 18 27
REMARK Flexibility Score: inf
ROOT
ATOM      1  C   UNL     1     219.814 218.517 220.655  1.00  0.00     0.180 A 
ATOM      2  C   UNL     1     218.490 218.094 220.861  1.00  0.00     0.208 A 
ATOM      3  C   UNL     1     218.185 216.728 220.751  1.00  0.00     0.238 A 
ATOM      4  O   UNL     1     216.989 216.362 220.883  1.00  0.00    -0.285 OA
ATOM      5  C   UNL     1     219.212 215.800 220.453  1.00  0.00     0.111 A 
ATOM      6  C   UNL     1     219.025 214.388 220.358  1.00  0.00     0.134 A 
ATOM      7  C   UNL     1     220.085 213.578 219.929  1.00  0.00     0.093 A 
ATOM      8  C   UNL     1     221.342 214.123 219.655  1.00  0.00     0.123 A 
ATOM      9  C   UNL     1     221.550 215.492 219.802  1.00  0.00     0.094 A 
ATOM     10  C   UNL     1     220.503 216.330 220.194  1.00  0.00     0.146 A 
ATOM     11  O   UNL     1     220.741 217.631 220.312  1.00  0.00    -0.452 OA
ENDROOT
BRANCH   1  12
ATOM     12  C   UNL     1     220.216 219.937 220.777  1.00  0.00     0.025 A 
ATOM     13  C   UNL     1     220.202 220.760 219.641  1.00  0.00     0.016 A 
ATOM     14  C   UNL     1     220.597 222.097 219.729  1.00  0.00     0.051 A 
ATOM     15  C   UNL     1     221.028 222.628 220.949  1.00  0.00     0.157 A 
ATOM     16  C   UNL     1     220.669 220.466 221.999  1.00  0.00     0.062 A 
ATOM     17  C   UNL     1     221.068 221.809 222.090  1.00  0.00     0.158 A 
BRANCH  15  18
ATOM     18  O   UNL     1     221.414 223.966 221.008  1.00  0.00    -0.504 OA
ATOM     19  H   UNL     1     221.724 224.399 221.869  1.00  0.00     0.293 HD
ENDBRANCH  15  18
BRANCH  17  20
ATOM     20  O   UNL     1     221.509 222.327 223.306  1.00  0.00    -0.504 OA
ATOM     21  H   UNL     1     222.496 222.416 223.519  1.00  0.00     0.293 HD
ENDBRANCH  17  20
ENDBRANCH   1  12
BRANCH   2  22
ATOM     22  O   UNL     1     217.488 219.030 221.133  1.00  0.00    -0.502 OA
ATOM     23  H   UNL     1     217.694 219.971 221.448  1.00  0.00     0.293 HD
ENDBRANCH   2  22
BRANCH   6  24
ATOM     24  O   UNL     1     217.838 213.734 220.698  1.00  0.00    -0.507 OA
ATOM     25  H   UNL     1     216.982 214.197 220.965  1.00  0.00     0.293 HD
ENDBRANCH   6  24
BRANCH   8  26
ATOM     26  O   UNL     1     222.395 213.309 219.243  1.00  0.00    -0.508 OA
ATOM     27  H   UNL     1     223.340 213.458 219.576  1.00  0.00     0.293 HD
ENDBRANCH   8  26
TORSDOF 6
ENDMDL
