MODEL 1
REMARK VINA RESULT:     6.809      0.000      0.000
REMARK INTER + INTRA:           8.181
REMARK INTER:                   8.202
REMARK INTRA:                  -0.022
REMARK UNBOUND:                -0.022
REMARK SMILES O=c1c(O)c(-c2ccc(O)c(O)c2)oc2cc(O)cc(O)c12
REMARK SMILES IDX 5 1 3 2 2 3 1 4 22 5 20 6 19 7 17 8 16 9 15 10 14 11 6 12
REMARK SMILES IDX 7 13 8 14 9 15 13 16 11 17 10 18 12 20 4 22 21 24 18 26
REMARK H PARENT 10 19 12 21 4 23 21 25 18 27
REMARK Flexibility Score: inf
ROOT
ATOM      1  C   UNL     1      -1.089 -21.335  31.894  1.00  0.00     0.180 A 
ATOM      2  C   UNL     1      -1.187 -21.302  33.295  1.00  0.00     0.208 A 
ATOM      3  C   UNL     1      -1.724 -20.161  33.914  1.00  0.00     0.238 A 
ATOM      4  O   UNL     1      -1.759 -20.114  35.171  1.00  0.00    -0.285 OA
ATOM      5  C   UNL     1      -2.171 -19.076  33.123  1.00  0.00     0.111 A 
ATOM      6  C   UNL     1      -2.769 -17.887  33.640  1.00  0.00     0.134 A 
ATOM      7  C   UNL     1      -3.054 -16.824  32.774  1.00  0.00     0.093 A 
ATOM      8  C   UNL     1      -2.824 -16.932  31.401  1.00  0.00     0.123 A 
ATOM      9  C   UNL     1      -2.296 -18.110  30.878  1.00  0.00     0.094 A 
ATOM     10  C   UNL     1      -1.967 -19.175  31.721  1.00  0.00     0.146 A 
ATOM     11  O   UNL     1      -1.457 -20.276  31.183  1.00  0.00    -0.452 OA
ENDROOT
BRANCH   1  12
ATOM     12  C   UNL     1      -0.558 -22.513  31.169  1.00  0.00     0.025 A 
ATOM     13  C   UNL     1      -1.286 -23.122  30.132  1.00  0.00     0.016 A 
ATOM     14  C   UNL     1      -0.754 -24.217  29.445  1.00  0.00     0.051 A 
ATOM     15  C   UNL     1       0.516 -24.710  29.774  1.00  0.00     0.157 A 
ATOM     16  C   UNL     1       0.723 -22.997  31.481  1.00  0.00     0.062 A 
ATOM     17  C   UNL     1       1.257 -24.094  30.796  1.00  0.00     0.158 A 
BRANCH  15  18
ATOM     18  O   UNL     1       1.042 -25.804  29.089  1.00  0.00    -0.504 OA
ATOM     19  H   UNL     1       2.040 -25.978  29.055  1.00  0.00     0.293 HD
ENDBRANCH  15  18
BRANCH  17  20
ATOM     20  O   UNL     1       2.526 -24.557  31.144  1.00  0.00    -0.504 OA
ATOM     21  H   UNL     1       3.372 -24.126  30.791  1.00  0.00     0.293 HD
ENDBRANCH  17  20
ENDBRANCH   1  12
BRANCH   2  22
ATOM     22  O   UNL     1      -0.719 -22.375  34.059  1.00  0.00    -0.502 OA
ATOM     23  H   UNL     1       0.050 -22.962  33.759  1.00  0.00     0.293 HD
ENDBRANCH   2  22
BRANCH   6  24
ATOM     24  O   UNL     1      -3.125 -17.713  34.981  1.00  0.00    -0.507 OA
ATOM     25  H   UNL     1      -3.482 -16.856  35.374  1.00  0.00     0.293 HD
ENDBRANCH   6  24
BRANCH   8  26
ATOM     26  O   UNL     1      -3.125 -15.875  30.545  1.00  0.00    -0.508 OA
ATOM     27  H   UNL     1      -3.316 -16.027  29.561  1.00  0.00     0.293 HD
ENDBRANCH   8  26
TORSDOF 6
ENDMDL
MODEL 2
REMARK VINA RESULT:     9.762     14.504     16.470
REMARK INTER + INTRA:          11.737
REMARK INTER:                  11.213
REMARK INTRA:                   0.524
REMARK UNBOUND:                -0.022
REMARK SMILES O=c1c(O)c(-c2ccc(O)c(O)c2)oc2cc(O)cc(O)c12
REMARK SMILES IDX 5 1 3 2 2 3 1 4 22 5 20 6 19 7 17 8 16 9 15 10 14 11 6 12
REMARK SMILES IDX 7 13 8 14 9 15 13 16 11 17 10 18 12 20 4 22 21 24 18 26
REMARK H PARENT 10 19 12 21 4 23 21 25 18 27
REMARK Flexibility Score: inf
ROOT
ATOM      1  C   UNL     1       8.936 -30.083  23.309  1.00  0.00     0.180 A 
ATOM      2  C   UNL     1       8.506 -30.590  22.071  1.00  0.00     0.208 A 
ATOM      3  C   UNL     1       8.089 -29.692  21.075  1.00  0.00     0.238 A 
ATOM      4  O   UNL     1       7.654 -30.154  19.988  1.00  0.00    -0.285 OA
ATOM      5  C   UNL     1       8.122 -28.299  21.324  1.00  0.00     0.111 A 
ATOM      6  C   UNL     1       7.761 -27.297  20.373  1.00  0.00     0.134 A 
ATOM      7  C   UNL     1       7.708 -25.955  20.771  1.00  0.00     0.093 A 
ATOM      8  C   UNL     1       8.067 -25.573  22.066  1.00  0.00     0.123 A 
ATOM      9  C   UNL     1       8.477 -26.537  22.983  1.00  0.00     0.094 A 
ATOM     10  C   UNL     1       8.506 -27.888  22.627  1.00  0.00     0.146 A 
ATOM     11  O   UNL     1       8.894 -28.776  23.534  1.00  0.00    -0.452 OA
ENDROOT
BRANCH   1  12
ATOM     12  C   UNL     1       9.414 -30.965  24.399  1.00  0.00     0.025 A 
ATOM     13  C   UNL     1       9.983 -30.436  25.570  1.00  0.00     0.016 A 
ATOM     14  C   UNL     1      10.405 -31.287  26.596  1.00  0.00     0.051 A 
ATOM     15  C   UNL     1      10.252 -32.673  26.473  1.00  0.00     0.157 A 
ATOM     16  C   UNL     1       9.243 -32.355  24.289  1.00  0.00     0.062 A 
ATOM     17  C   UNL     1       9.666 -33.209  25.314  1.00  0.00     0.158 A 
BRANCH  15  18
ATOM     18  O   UNL     1      10.676 -33.519  27.497  1.00  0.00    -0.504 OA
ATOM     19  H   UNL     1      11.217 -33.173  28.281  1.00  0.00     0.293 HD
ENDBRANCH  15  18
BRANCH  17  20
ATOM     20  O   UNL     1       9.493 -34.584  25.163  1.00  0.00    -0.504 OA
ATOM     21  H   UNL     1       9.571 -35.042  24.263  1.00  0.00     0.293 HD
ENDBRANCH  17  20
ENDBRANCH   1  12
BRANCH   2  22
ATOM     22  O   UNL     1       8.460 -31.970  21.854  1.00  0.00    -0.502 OA
ATOM     23  H   UNL     1       9.172 -32.600  22.202  1.00  0.00     0.293 HD
ENDBRANCH   2  22
BRANCH   6  24
ATOM     24  O   UNL     1       7.475 -27.562  19.030  1.00  0.00    -0.507 OA
ATOM     25  H   UNL     1       7.275 -28.476  18.654  1.00  0.00     0.293 HD
ENDBRANCH   6  24
BRANCH   8  26
ATOM     26  O   UNL     1       8.026 -24.234  22.448  1.00  0.00    -0.508 OA
ATOM     27  H   UNL     1       7.440 -23.562  21.965  1.00  0.00     0.293 HD
ENDBRANCH   8  26
TORSDOF 6
ENDMDL
