MODEL 1
REMARK VINA RESULT:    -0.927      0.000      0.000
REMARK INTER + INTRA:          -3.618
REMARK INTER:                  -2.120
REMARK INTRA:                  -1.499
REMARK UNBOUND:                -1.499
REMARK SMILES CCCCCCCCCCCCCCCCCCCCCCCC(=O)[O-]
REMARK SMILES IDX 13 1 14 2 15 3 16 4 17 5 18 6 19 7 20 8 21 9 22 10 23 11
REMARK SMILES IDX 24 12 25 13 26 14 12 15 11 16 10 17 9 18 8 19 7 20 6 21 5 22
REMARK SMILES IDX 4 23 3 24 2 25 1 26
REMARK H PARENT
REMARK Flexibility Score: inf
ROOT
ATOM      1  C   UNL     1      -5.597  34.787  23.321  1.00  0.00     0.000 C 
ENDROOT
BRANCH   1   2
ATOM      2  C   UNL     1      -5.806  36.212  23.870  1.00  0.00     0.000 C 
BRANCH   2   3
ATOM      3  C   UNL     1      -5.345  36.430  25.325  1.00  0.00     0.000 C 
BRANCH   3   4
ATOM      4  C   UNL     1      -4.866  37.858  25.646  1.00  0.00     0.000 C 
BRANCH   4   5
ATOM      5  C   UNL     1      -4.271  38.573  24.425  1.00  0.00     0.000 C 
BRANCH   5   6
ATOM      6  C   UNL     1      -5.293  39.529  23.792  1.00  0.00     0.000 C 
BRANCH   6   7
ATOM      7  C   UNL     1      -5.319  39.437  22.259  1.00  0.00     0.000 C 
BRANCH   7   8
ATOM      8  C   UNL     1      -3.955  39.044  21.665  1.00  0.00     0.000 C 
BRANCH   8   9
ATOM      9  C   UNL     1      -4.087  38.100  20.458  1.00  0.00     0.000 C 
BRANCH   9  10
ATOM     10  C   UNL     1      -2.750  37.440  20.076  1.00  0.00     0.006 C 
BRANCH  10  11
ATOM     11  C   UNL     1      -2.120  38.088  18.835  1.00  0.00     0.053 C 
BRANCH  11  12
ATOM     12  C   UNL     1      -0.683  37.693  18.668  1.00  0.00     0.041 C 
ATOM     13  O   UNL     1      -0.133  36.933  19.509  1.00  0.00    -0.550 OA
ATOM     14  O   UNL     1       0.046  38.164  17.583  1.00  0.00    -0.550 OA
ENDBRANCH  11  12
ENDBRANCH  10  11
ENDBRANCH   9  10
ENDBRANCH   8   9
ENDBRANCH   7   8
ENDBRANCH   6   7
ENDBRANCH   5   6
ENDBRANCH   4   5
ENDBRANCH   3   4
ENDBRANCH   2   3
ENDBRANCH   1   2
BRANCH   1  15
ATOM     15  C   UNL     1      -5.622  34.664  21.786  1.00  0.00     0.000 C 
BRANCH  15  16
ATOM     16  C   UNL     1      -6.022  35.972  21.085  1.00  0.00     0.000 C 
BRANCH  16  17
ATOM     17  C   UNL     1      -6.042  35.848  19.551  1.00  0.00     0.000 C 
BRANCH  17  18
ATOM     18  C   UNL     1      -5.354  34.573  19.019  1.00  0.00    -0.000 C 
BRANCH  18  19
ATOM     19  C   UNL     1      -3.953  34.863  18.452  1.00  0.00    -0.000 C 
BRANCH  19  20
ATOM     20  C   UNL     1      -3.995  35.705  17.164  1.00  0.00    -0.000 C 
BRANCH  20  21
ATOM     21  C   UNL     1      -2.667  35.757  16.381  1.00  0.00    -0.000 C 
BRANCH  21  22
ATOM     22  C   UNL     1      -2.800  36.138  14.893  1.00  0.00    -0.000 C 
BRANCH  22  23
ATOM     23  C   UNL     1      -4.108  36.865  14.524  1.00  0.00    -0.000 C 
BRANCH  23  24
ATOM     24  C   UNL     1      -3.927  38.292  13.969  1.00  0.00    -0.000 C 
BRANCH  24  25
ATOM     25  C   UNL     1      -5.221  39.119  13.875  1.00  0.00    -0.003 C 
ATOM     26  C   UNL     1      -5.042  40.562  14.340  1.00  0.00     0.004 C 
ENDBRANCH  24  25
ENDBRANCH  23  24
ENDBRANCH  22  23
ENDBRANCH  21  22
ENDBRANCH  20  21
ENDBRANCH  19  20
ENDBRANCH  18  19
ENDBRANCH  17  18
ENDBRANCH  16  17
ENDBRANCH  15  16
ENDBRANCH   1  15
TORSDOF 22
ENDMDL
MODEL 2
REMARK VINA RESULT:    -0.743      1.204      2.444
REMARK INTER + INTRA:          -3.197
REMARK INTER:                  -1.636
REMARK INTRA:                  -1.561
REMARK UNBOUND:                -1.499
REMARK SMILES CCCCCCCCCCCCCCCCCCCCCCCC(=O)[O-]
REMARK SMILES IDX 13 1 14 2 15 3 16 4 17 5 18 6 19 7 20 8 21 9 22 10 23 11
REMARK SMILES IDX 24 12 25 13 26 14 12 15 11 16 10 17 9 18 8 19 7 20 6 21 5 22
REMARK SMILES IDX 4 23 3 24 2 25 1 26
REMARK H PARENT
REMARK Flexibility Score: inf
ROOT
ATOM      1  C   UNL     1      -6.124  36.301  25.186  1.00  0.00     0.000 C 
ENDROOT
BRANCH   1   2
ATOM      2  C   UNL     1      -4.828  36.825  25.835  1.00  0.00     0.000 C 
BRANCH   2   3
ATOM      3  C   UNL     1      -4.289  38.146  25.253  1.00  0.00     0.000 C 
BRANCH   3   4
ATOM      4  C   UNL     1      -5.295  38.934  24.393  1.00  0.00     0.000 C 
BRANCH   4   5
ATOM      5  C   UNL     1      -4.638  39.610  23.181  1.00  0.00     0.000 C 
BRANCH   5   6
ATOM      6  C   UNL     1      -5.559  39.555  21.953  1.00  0.00     0.000 C 
BRANCH   6   7
ATOM      7  C   UNL     1      -5.425  38.238  21.172  1.00  0.00     0.000 C 
BRANCH   7   8
ATOM      8  C   UNL     1      -4.881  38.445  19.749  1.00  0.00     0.000 C 
BRANCH   8   9
ATOM      9  C   UNL     1      -3.385  38.108  19.634  1.00  0.00     0.000 C 
BRANCH   9  10
ATOM     10  C   UNL     1      -2.969  37.752  18.196  1.00  0.00     0.006 C 
BRANCH  10  11
ATOM     11  C   UNL     1      -1.682  36.916  18.156  1.00  0.00     0.053 C 
BRANCH  11  12
ATOM     12  C   UNL     1      -0.505  37.677  18.686  1.00  0.00     0.041 C 
ATOM     13  O   UNL     1      -0.317  38.874  18.343  1.00  0.00    -0.550 OA
ATOM     14  O   UNL     1       0.384  37.063  19.561  1.00  0.00    -0.550 OA
ENDBRANCH  11  12
ENDBRANCH  10  11
ENDBRANCH   9  10
ENDBRANCH   8   9
ENDBRANCH   7   8
ENDBRANCH   6   7
ENDBRANCH   5   6
ENDBRANCH   4   5
ENDBRANCH   3   4
ENDBRANCH   2   3
ENDBRANCH   1   2
BRANCH   1  15
ATOM     15  C   UNL     1      -6.105  34.813  24.786  1.00  0.00     0.000 C 
BRANCH  15  16
ATOM     16  C   UNL     1      -6.075  34.602  23.264  1.00  0.00     0.000 C 
BRANCH  16  17
ATOM     17  C   UNL     1      -5.112  35.563  22.543  1.00  0.00     0.000 C 
BRANCH  17  18
ATOM     18  C   UNL     1      -3.907  34.860  21.884  1.00  0.00    -0.000 C 
BRANCH  18  19
ATOM     19  C   UNL     1      -3.915  35.009  20.352  1.00  0.00    -0.000 C 
BRANCH  19  20
ATOM     20  C   UNL     1      -5.332  34.941  19.755  1.00  0.00    -0.000 C 
BRANCH  20  21
ATOM     21  C   UNL     1      -5.387  34.580  18.256  1.00  0.00    -0.000 C 
BRANCH  21  22
ATOM     22  C   UNL     1      -4.060  34.755  17.493  1.00  0.00    -0.000 C 
BRANCH  22  23
ATOM     23  C   UNL     1      -4.148  35.628  16.227  1.00  0.00    -0.000 C 
BRANCH  23  24
ATOM     24  C   UNL     1      -2.878  35.641  15.353  1.00  0.00    -0.000 C 
BRANCH  24  25
ATOM     25  C   UNL     1      -2.805  36.792  14.335  1.00  0.00    -0.003 C 
ATOM     26  C   UNL     1      -3.786  37.922  14.641  1.00  0.00     0.004 C 
ENDBRANCH  24  25
ENDBRANCH  23  24
ENDBRANCH  22  23
ENDBRANCH  21  22
ENDBRANCH  20  21
ENDBRANCH  19  20
ENDBRANCH  18  19
ENDBRANCH  17  18
ENDBRANCH  16  17
ENDBRANCH  15  16
ENDBRANCH   1  15
TORSDOF 22
ENDMDL
MODEL 3
REMARK VINA RESULT:    -0.728      2.144      5.561
REMARK INTER + INTRA:          -3.162
REMARK INTER:                  -1.418
REMARK INTRA:                  -1.745
REMARK UNBOUND:                -1.499
REMARK SMILES CCCCCCCCCCCCCCCCCCCCCCCC(=O)[O-]
REMARK SMILES IDX 13 1 14 2 15 3 16 4 17 5 18 6 19 7 20 8 21 9 22 10 23 11
REMARK SMILES IDX 24 12 25 13 26 14 12 15 11 16 10 17 9 18 8 19 7 20 6 21 5 22
REMARK SMILES IDX 4 23 3 24 2 25 1 26
REMARK H PARENT
REMARK Flexibility Score: inf
ROOT
ATOM      1  C   UNL     1      -6.125  36.350  24.658  1.00  0.00     0.000 C 
ENDROOT
BRANCH   1   2
ATOM      2  C   UNL     1      -6.063  35.878  23.192  1.00  0.00     0.000 C 
BRANCH   2   3
ATOM      3  C   UNL     1      -4.643  35.689  22.621  1.00  0.00     0.000 C 
BRANCH   3   4
ATOM      4  C   UNL     1      -4.393  34.329  21.943  1.00  0.00     0.000 C 
BRANCH   4   5
ATOM      5  C   UNL     1      -4.014  34.466  20.462  1.00  0.00     0.000 C 
BRANCH   5   6
ATOM      6  C   UNL     1      -5.256  34.725  19.596  1.00  0.00     0.000 C 
BRANCH   6   7
ATOM      7  C   UNL     1      -4.969  34.584  18.093  1.00  0.00     0.000 C 
BRANCH   7   8
ATOM      8  C   UNL     1      -3.643  35.242  17.678  1.00  0.00     0.000 C 
BRANCH   8   9
ATOM      9  C   UNL     1      -3.530  35.432  16.156  1.00  0.00     0.000 C 
BRANCH   9  10
ATOM     10  C   UNL     1      -2.710  36.678  15.776  1.00  0.00     0.006 C 
BRANCH  10  11
ATOM     11  C   UNL     1      -2.889  37.061  14.300  1.00  0.00     0.053 C 
BRANCH  11  12
ATOM     12  C   UNL     1      -4.215  37.715  14.051  1.00  0.00     0.041 C 
ATOM     13  O   UNL     1      -4.302  38.970  13.997  1.00  0.00    -0.550 OA
ATOM     14  O   UNL     1      -5.353  36.937  13.875  1.00  0.00    -0.550 OA
ENDBRANCH  11  12
ENDBRANCH  10  11
ENDBRANCH   9  10
ENDBRANCH   8   9
ENDBRANCH   7   8
ENDBRANCH   6   7
ENDBRANCH   5   6
ENDBRANCH   4   5
ENDBRANCH   3   4
ENDBRANCH   2   3
ENDBRANCH   1   2
BRANCH   1  15
ATOM     15  C   UNL     1      -4.761  36.546  25.344  1.00  0.00     0.000 C 
BRANCH  15  16
ATOM     16  C   UNL     1      -4.331  38.020  25.414  1.00  0.00     0.000 C 
BRANCH  16  17
ATOM     17  C   UNL     1      -5.123  38.922  24.450  1.00  0.00     0.000 C 
BRANCH  17  18
ATOM     18  C   UNL     1      -4.345  39.305  23.174  1.00  0.00    -0.000 C 
BRANCH  18  19
ATOM     19  C   UNL     1      -5.028  40.445  22.398  1.00  0.00    -0.000 C 
BRANCH  19  20
ATOM     20  C   UNL     1      -5.890  39.936  21.228  1.00  0.00    -0.000 C 
BRANCH  20  21
ATOM     21  C   UNL     1      -5.817  38.415  20.983  1.00  0.00    -0.000 C 
BRANCH  21  22
ATOM     22  C   UNL     1      -5.029  37.992  19.728  1.00  0.00    -0.000 C 
BRANCH  22  23
ATOM     23  C   UNL     1      -3.575  37.556  19.992  1.00  0.00    -0.000 C 
BRANCH  23  24
ATOM     24  C   UNL     1      -2.537  38.108  18.995  1.00  0.00    -0.000 C 
BRANCH  24  25
ATOM     25  C   UNL     1      -1.220  37.317  18.927  1.00  0.00    -0.003 C 
ATOM     26  C   UNL     1      -0.096  38.087  18.237  1.00  0.00     0.004 C 
ENDBRANCH  24  25
ENDBRANCH  23  24
ENDBRANCH  22  23
ENDBRANCH  21  22
ENDBRANCH  20  21
ENDBRANCH  19  20
ENDBRANCH  18  19
ENDBRANCH  17  18
ENDBRANCH  16  17
ENDBRANCH  15  16
ENDBRANCH   1  15
TORSDOF 22
ENDMDL
MODEL 4
REMARK VINA RESULT:     0.289      1.897      3.807
REMARK INTER + INTRA:          -0.839
REMARK INTER:                   1.543
REMARK INTRA:                  -2.382
REMARK UNBOUND:                -1.499
REMARK SMILES CCCCCCCCCCCCCCCCCCCCCCCC(=O)[O-]
REMARK SMILES IDX 13 1 14 2 15 3 16 4 17 5 18 6 19 7 20 8 21 9 22 10 23 11
REMARK SMILES IDX 24 12 25 13 26 14 12 15 11 16 10 17 9 18 8 19 7 20 6 21 5 22
REMARK SMILES IDX 4 23 3 24 2 25 1 26
REMARK H PARENT
REMARK Flexibility Score: inf
ROOT
ATOM      1  C   UNL     1      -5.958  39.759  21.655  1.00  0.00     0.000 C 
ENDROOT
BRANCH   1   2
ATOM      2  C   UNL     1      -5.141  39.930  22.950  1.00  0.00     0.000 C 
BRANCH   2   3
ATOM      3  C   UNL     1      -3.967  38.946  23.123  1.00  0.00     0.000 C 
BRANCH   3   4
ATOM      4  C   UNL     1      -4.187  37.854  24.186  1.00  0.00     0.000 C 
BRANCH   4   5
ATOM      5  C   UNL     1      -5.482  38.057  24.985  1.00  0.00     0.000 C 
BRANCH   5   6
ATOM      6  C   UNL     1      -5.830  36.802  25.800  1.00  0.00     0.000 C 
BRANCH   6   7
ATOM      7  C   UNL     1      -5.286  35.514  25.163  1.00  0.00     0.000 C 
BRANCH   7   8
ATOM      8  C   UNL     1      -6.123  35.049  23.959  1.00  0.00     0.000 C 
BRANCH   8   9
ATOM      9  C   UNL     1      -5.269  34.373  22.873  1.00  0.00     0.000 C 
BRANCH   9  10
ATOM     10  C   UNL     1      -5.079  35.263  21.632  1.00  0.00     0.006 C 
BRANCH  10  11
ATOM     11  C   UNL     1      -6.101  34.947  20.532  1.00  0.00     0.053 C 
BRANCH  11  12
ATOM     12  C   UNL     1      -5.460  34.867  19.180  1.00  0.00     0.041 C 
ATOM     13  O   UNL     1      -6.104  35.204  18.151  1.00  0.00    -0.550 OA
ATOM     14  O   UNL     1      -4.149  34.423  19.056  1.00  0.00    -0.550 OA
ENDBRANCH  11  12
ENDBRANCH  10  11
ENDBRANCH   9  10
ENDBRANCH   8   9
ENDBRANCH   7   8
ENDBRANCH   6   7
ENDBRANCH   5   6
ENDBRANCH   4   5
ENDBRANCH   3   4
ENDBRANCH   2   3
ENDBRANCH   1   2
BRANCH   1  15
ATOM     15  C   UNL     1      -5.915  38.352  21.031  1.00  0.00     0.000 C 
BRANCH  15  16
ATOM     16  C   UNL     1      -5.834  38.379  19.496  1.00  0.00     0.000 C 
BRANCH  16  17
ATOM     17  C   UNL     1      -4.388  38.324  18.970  1.00  0.00     0.000 C 
BRANCH  17  18
ATOM     18  C   UNL     1      -3.331  38.113  20.075  1.00  0.00    -0.000 C 
BRANCH  18  19
ATOM     19  C   UNL     1      -2.012  37.550  19.516  1.00  0.00    -0.000 C 
BRANCH  19  20
ATOM     20  C   UNL     1      -2.213  36.730  18.228  1.00  0.00    -0.000 C 
BRANCH  20  21
ATOM     21  C   UNL     1      -1.319  37.154  17.044  1.00  0.00    -0.000 C 
BRANCH  21  22
ATOM     22  C   UNL     1      -1.562  36.381  15.733  1.00  0.00    -0.000 C 
BRANCH  22  23
ATOM     23  C   UNL     1      -2.987  35.818  15.566  1.00  0.00    -0.000 C 
BRANCH  23  24
ATOM     24  C   UNL     1      -4.078  36.873  15.295  1.00  0.00    -0.000 C 
BRANCH  24  25
ATOM     25  C   UNL     1      -3.906  37.660  13.984  1.00  0.00    -0.003 C 
ATOM     26  C   UNL     1      -4.531  39.052  14.038  1.00  0.00     0.004 C 
ENDBRANCH  24  25
ENDBRANCH  23  24
ENDBRANCH  22  23
ENDBRANCH  21  22
ENDBRANCH  20  21
ENDBRANCH  19  20
ENDBRANCH  18  19
ENDBRANCH  17  18
ENDBRANCH  16  17
ENDBRANCH  15  16
ENDBRANCH   1  15
TORSDOF 22
ENDMDL
MODEL 5
REMARK VINA RESULT:     0.603      2.068      5.911
REMARK INTER + INTRA:          -0.119
REMARK INTER:                   0.567
REMARK INTRA:                  -0.686
REMARK UNBOUND:                -1.499
REMARK SMILES CCCCCCCCCCCCCCCCCCCCCCCC(=O)[O-]
REMARK SMILES IDX 13 1 14 2 15 3 16 4 17 5 18 6 19 7 20 8 21 9 22 10 23 11
REMARK SMILES IDX 24 12 25 13 26 14 12 15 11 16 10 17 9 18 8 19 7 20 6 21 5 22
REMARK SMILES IDX 4 23 3 24 2 25 1 26
REMARK H PARENT
REMARK Flexibility Score: inf
ROOT
ATOM      1  C   UNL     1      -5.143  40.073  22.527  1.00  0.00     0.000 C 
ENDROOT
BRANCH   1   2
ATOM      2  C   UNL     1      -5.909  39.199  21.514  1.00  0.00     0.000 C 
BRANCH   2   3
ATOM      3  C   UNL     1      -5.085  38.071  20.862  1.00  0.00     0.000 C 
BRANCH   3   4
ATOM      4  C   UNL     1      -5.878  36.791  20.542  1.00  0.00     0.000 C 
BRANCH   4   5
ATOM      5  C   UNL     1      -6.011  36.536  19.034  1.00  0.00     0.000 C 
BRANCH   5   6
ATOM      6  C   UNL     1      -6.010  35.031  18.727  1.00  0.00     0.000 C 
BRANCH   6   7
ATOM      7  C   UNL     1      -4.592  34.454  18.604  1.00  0.00     0.000 C 
BRANCH   7   8
ATOM      8  C   UNL     1      -4.062  34.482  17.161  1.00  0.00     0.000 C 
BRANCH   8   9
ATOM      9  C   UNL     1      -3.475  35.850  16.774  1.00  0.00     0.000 C 
BRANCH   9  10
ATOM     10  C   UNL     1      -2.954  35.881  15.327  1.00  0.00     0.006 C 
BRANCH  10  11
ATOM     11  C   UNL     1      -2.836  37.312  14.785  1.00  0.00     0.053 C 
BRANCH  11  12
ATOM     12  C   UNL     1      -4.145  37.820  14.259  1.00  0.00     0.041 C 
ATOM     13  O   UNL     1      -5.031  37.011  13.876  1.00  0.00    -0.550 OA
ATOM     14  O   UNL     1      -4.386  39.187  14.196  1.00  0.00    -0.550 OA
ENDBRANCH  11  12
ENDBRANCH  10  11
ENDBRANCH   9  10
ENDBRANCH   8   9
ENDBRANCH   7   8
ENDBRANCH   6   7
ENDBRANCH   5   6
ENDBRANCH   4   5
ENDBRANCH   3   4
ENDBRANCH   2   3
ENDBRANCH   1   2
BRANCH   1  15
ATOM     15  C   UNL     1      -5.054  39.501  23.954  1.00  0.00     0.000 C 
BRANCH  15  16
ATOM     16  C   UNL     1      -4.568  38.044  23.987  1.00  0.00     0.000 C 
BRANCH  16  17
ATOM     17  C   UNL     1      -4.921  37.323  25.301  1.00  0.00     0.000 C 
BRANCH  17  18
ATOM     18  C   UNL     1      -5.762  36.044  25.104  1.00  0.00    -0.000 C 
BRANCH  18  19
ATOM     19  C   UNL     1      -6.107  35.800  23.624  1.00  0.00    -0.000 C 
BRANCH  19  20
ATOM     20  C   UNL     1      -5.964  34.323  23.215  1.00  0.00    -0.000 C 
BRANCH  20  21
ATOM     21  C   UNL     1      -4.755  34.016  22.307  1.00  0.00    -0.000 C 
BRANCH  21  22
ATOM     22  C   UNL     1      -3.655  35.096  22.297  1.00  0.00    -0.000 C 
BRANCH  22  23
ATOM     23  C   UNL     1      -2.937  35.278  20.945  1.00  0.00    -0.000 C 
BRANCH  23  24
ATOM     24  C   UNL     1      -2.482  36.718  20.637  1.00  0.00    -0.000 C 
BRANCH  24  25
ATOM     25  C   UNL     1      -2.400  37.065  19.141  1.00  0.00    -0.003 C 
ATOM     26  C   UNL     1      -1.041  37.632  18.734  1.00  0.00     0.004 C 
ENDBRANCH  24  25
ENDBRANCH  23  24
ENDBRANCH  22  23
ENDBRANCH  21  22
ENDBRANCH  20  21
ENDBRANCH  19  20
ENDBRANCH  18  19
ENDBRANCH  17  18
ENDBRANCH  16  17
ENDBRANCH  15  16
ENDBRANCH   1  15
TORSDOF 22
ENDMDL
MODEL 6
REMARK VINA RESULT:     0.681      2.672      4.341
REMARK INTER + INTRA:           0.059
REMARK INTER:                  -0.443
REMARK INTRA:                   0.502
REMARK UNBOUND:                -1.499
REMARK SMILES CCCCCCCCCCCCCCCCCCCCCCCC(=O)[O-]
REMARK SMILES IDX 13 1 14 2 15 3 16 4 17 5 18 6 19 7 20 8 21 9 22 10 23 11
REMARK SMILES IDX 24 12 25 13 26 14 12 15 11 16 10 17 9 18 8 19 7 20 6 21 5 22
REMARK SMILES IDX 4 23 3 24 2 25 1 26
REMARK H PARENT
REMARK Flexibility Score: inf
ROOT
ATOM      1  C   UNL     1      -4.841  35.316  22.616  1.00  0.00     0.000 C 
ENDROOT
BRANCH   1   2
ATOM      2  C   UNL     1      -6.125  35.806  21.918  1.00  0.00     0.000 C 
BRANCH   2   3
ATOM      3  C   UNL     1      -5.903  36.596  20.613  1.00  0.00     0.000 C 
BRANCH   3   4
ATOM      4  C   UNL     1      -5.522  38.075  20.807  1.00  0.00     0.000 C 
BRANCH   4   5
ATOM      5  C   UNL     1      -4.043  38.264  21.174  1.00  0.00     0.000 C 
BRANCH   5   6
ATOM      6  C   UNL     1      -3.894  39.136  22.429  1.00  0.00     0.000 C 
BRANCH   6   7
ATOM      7  C   UNL     1      -5.243  39.461  23.088  1.00  0.00     0.000 C 
BRANCH   7   8
ATOM      8  C   UNL     1      -5.282  39.086  24.579  1.00  0.00     0.000 C 
BRANCH   8   9
ATOM      9  C   UNL     1      -5.438  37.572  24.802  1.00  0.00     0.000 C 
BRANCH   9  10
ATOM     10  C   UNL     1      -4.277  36.974  25.616  1.00  0.00     0.006 C 
BRANCH  10  11
ATOM     11  C   UNL     1      -3.659  37.995  26.580  1.00  0.00     0.053 C 
BRANCH  11  12
ATOM     12  C   UNL     1      -2.330  37.538  27.101  1.00  0.00     0.041 C 
ATOM     13  O   UNL     1      -1.325  38.294  27.025  1.00  0.00    -0.550 OA
ATOM     14  O   UNL     1      -2.202  36.278  27.673  1.00  0.00    -0.550 OA
ENDBRANCH  11  12
ENDBRANCH  10  11
ENDBRANCH   9  10
ENDBRANCH   8   9
ENDBRANCH   7   8
ENDBRANCH   6   7
ENDBRANCH   5   6
ENDBRANCH   4   5
ENDBRANCH   3   4
ENDBRANCH   2   3
ENDBRANCH   1   2
BRANCH   1  15
ATOM     15  C   UNL     1      -3.862  34.535  21.719  1.00  0.00     0.000 C 
BRANCH  15  16
ATOM     16  C   UNL     1      -3.897  34.993  20.252  1.00  0.00     0.000 C 
BRANCH  16  17
ATOM     17  C   UNL     1      -4.631  34.001  19.332  1.00  0.00     0.000 C 
BRANCH  17  18
ATOM     18  C   UNL     1      -5.094  34.617  17.995  1.00  0.00    -0.000 C 
BRANCH  18  19
ATOM     19  C   UNL     1      -3.962  35.378  17.284  1.00  0.00    -0.000 C 
BRANCH  19  20
ATOM     20  C   UNL     1      -3.710  36.772  17.887  1.00  0.00    -0.000 C 
BRANCH  20  21
ATOM     21  C   UNL     1      -2.233  37.217  17.899  1.00  0.00    -0.000 C 
BRANCH  21  22
ATOM     22  C   UNL     1      -1.547  37.241  16.520  1.00  0.00    -0.000 C 
BRANCH  22  23
ATOM     23  C   UNL     1      -2.004  36.136  15.548  1.00  0.00    -0.000 C 
BRANCH  23  24
ATOM     24  C   UNL     1      -2.429  36.630  14.151  1.00  0.00    -0.000 C 
BRANCH  24  25
ATOM     25  C   UNL     1      -3.926  36.955  14.007  1.00  0.00    -0.003 C 
ATOM     26  C   UNL     1      -4.236  38.438  14.195  1.00  0.00     0.004 C 
ENDBRANCH  24  25
ENDBRANCH  23  24
ENDBRANCH  22  23
ENDBRANCH  21  22
ENDBRANCH  20  21
ENDBRANCH  19  20
ENDBRANCH  18  19
ENDBRANCH  17  18
ENDBRANCH  16  17
ENDBRANCH  15  16
ENDBRANCH   1  15
TORSDOF 22
ENDMDL
MODEL 7
REMARK VINA RESULT:     0.781      1.462      6.039
REMARK INTER + INTRA:           0.286
REMARK INTER:                   1.440
REMARK INTRA:                  -1.154
REMARK UNBOUND:                -1.499
REMARK SMILES CCCCCCCCCCCCCCCCCCCCCCCC(=O)[O-]
REMARK SMILES IDX 13 1 14 2 15 3 16 4 17 5 18 6 19 7 20 8 21 9 22 10 23 11
REMARK SMILES IDX 24 12 25 13 26 14 12 15 11 16 10 17 9 18 8 19 7 20 6 21 5 22
REMARK SMILES IDX 4 23 3 24 2 25 1 26
REMARK H PARENT
REMARK Flexibility Score: inf
ROOT
ATOM      1  C   UNL     1      -4.072  34.944  22.142  1.00  0.00     0.000 C 
ENDROOT
BRANCH   1   2
ATOM      2  C   UNL     1      -4.195  34.797  20.613  1.00  0.00     0.000 C 
BRANCH   2   3
ATOM      3  C   UNL     1      -5.626  34.922  20.053  1.00  0.00     0.000 C 
BRANCH   3   4
ATOM      4  C   UNL     1      -5.750  34.692  18.535  1.00  0.00     0.000 C 
BRANCH   4   5
ATOM      5  C   UNL     1      -4.570  33.898  17.957  1.00  0.00     0.000 C 
BRANCH   5   6
ATOM      6  C   UNL     1      -3.893  34.671  16.815  1.00  0.00     0.000 C 
BRANCH   6   7
ATOM      7  C   UNL     1      -4.225  36.171  16.838  1.00  0.00     0.000 C 
BRANCH   7   8
ATOM      8  C   UNL     1      -3.606  36.934  15.654  1.00  0.00     0.000 C 
BRANCH   8   9
ATOM      9  C   UNL     1      -2.259  36.340  15.209  1.00  0.00     0.000 C 
BRANCH   9  10
ATOM     10  C   UNL     1      -1.197  36.387  16.321  1.00  0.00     0.006 C 
BRANCH  10  11
ATOM     11  C   UNL     1      -1.542  37.415  17.407  1.00  0.00     0.053 C 
BRANCH  11  12
ATOM     12  C   UNL     1      -0.408  37.617  18.366  1.00  0.00     0.041 C 
ATOM     13  O   UNL     1      -0.511  37.230  19.561  1.00  0.00    -0.550 OA
ATOM     14  O   UNL     1       0.763  38.232  17.939  1.00  0.00    -0.550 OA
ENDBRANCH  11  12
ENDBRANCH  10  11
ENDBRANCH   9  10
ENDBRANCH   8   9
ENDBRANCH   7   8
ENDBRANCH   6   7
ENDBRANCH   5   6
ENDBRANCH   4   5
ENDBRANCH   3   4
ENDBRANCH   2   3
ENDBRANCH   1   2
BRANCH   1  15
ATOM     15  C   UNL     1      -5.198  35.748  22.818  1.00  0.00     0.000 C 
BRANCH  15  16
ATOM     16  C   UNL     1      -6.125  34.875  23.679  1.00  0.00     0.000 C 
BRANCH  16  17
ATOM     17  C   UNL     1      -6.055  35.223  25.178  1.00  0.00     0.000 C 
BRANCH  17  18
ATOM     18  C   UNL     1      -6.045  36.738  25.466  1.00  0.00    -0.000 C 
BRANCH  18  19
ATOM     19  C   UNL     1      -4.634  37.257  25.796  1.00  0.00    -0.000 C 
BRANCH  19  20
ATOM     20  C   UNL     1      -4.100  38.243  24.741  1.00  0.00    -0.000 C 
BRANCH  20  21
ATOM     21  C   UNL     1      -5.051  39.410  24.404  1.00  0.00    -0.000 C 
BRANCH  21  22
ATOM     22  C   UNL     1      -5.860  39.238  23.104  1.00  0.00    -0.000 C 
BRANCH  22  23
ATOM     23  C   UNL     1      -5.038  39.366  21.806  1.00  0.00    -0.000 C 
BRANCH  23  24
ATOM     24  C   UNL     1      -5.842  39.181  20.504  1.00  0.00    -0.000 C 
BRANCH  24  25
ATOM     25  C   UNL     1      -5.223  38.197  19.496  1.00  0.00    -0.003 C 
ATOM     26  C   UNL     1      -3.793  37.797  19.853  1.00  0.00     0.004 C 
ENDBRANCH  24  25
ENDBRANCH  23  24
ENDBRANCH  22  23
ENDBRANCH  21  22
ENDBRANCH  20  21
ENDBRANCH  19  20
ENDBRANCH  18  19
ENDBRANCH  17  18
ENDBRANCH  16  17
ENDBRANCH  15  16
ENDBRANCH   1  15
TORSDOF 22
ENDMDL
MODEL 8
REMARK VINA RESULT:     1.057      2.233      8.014
REMARK INTER + INTRA:           0.918
REMARK INTER:                   1.072
REMARK INTRA:                  -0.154
REMARK UNBOUND:                -1.499
REMARK SMILES CCCCCCCCCCCCCCCCCCCCCCCC(=O)[O-]
REMARK SMILES IDX 13 1 14 2 15 3 16 4 17 5 18 6 19 7 20 8 21 9 22 10 23 11
REMARK SMILES IDX 24 12 25 13 26 14 12 15 11 16 10 17 9 18 8 19 7 20 6 21 5 22
REMARK SMILES IDX 4 23 3 24 2 25 1 26
REMARK H PARENT
REMARK Flexibility Score: inf
ROOT
ATOM      1  C   UNL     1      -1.354  37.873  19.339  1.00  0.00     0.000 C 
ENDROOT
BRANCH   1   2
ATOM      2  C   UNL     1      -0.503  37.553  18.094  1.00  0.00     0.000 C 
BRANCH   2   3
ATOM      3  C   UNL     1      -1.102  36.501  17.140  1.00  0.00     0.000 C 
BRANCH   3   4
ATOM      4  C   UNL     1      -1.958  37.075  15.996  1.00  0.00     0.000 C 
BRANCH   4   5
ATOM      5  C   UNL     1      -2.984  36.067  15.459  1.00  0.00     0.000 C 
BRANCH   5   6
ATOM      6  C   UNL     1      -4.267  36.083  16.303  1.00  0.00     0.000 C 
BRANCH   6   7
ATOM      7  C   UNL     1      -4.091  35.383  17.659  1.00  0.00     0.000 C 
BRANCH   7   8
ATOM      8  C   UNL     1      -4.953  34.116  17.789  1.00  0.00     0.000 C 
BRANCH   8   9
ATOM      9  C   UNL     1      -5.844  34.135  19.042  1.00  0.00     0.000 C 
BRANCH   9  10
ATOM     10  C   UNL     1      -5.864  35.510  19.732  1.00  0.00     0.006 C 
BRANCH  10  11
ATOM     11  C   UNL     1      -6.117  35.397  21.241  1.00  0.00     0.053 C 
BRANCH  11  12
ATOM     12  C   UNL     1      -4.934  34.826  21.964  1.00  0.00     0.041 C 
ATOM     13  O   UNL     1      -3.767  35.050  21.547  1.00  0.00    -0.550 OA
ATOM     14  O   UNL     1      -5.122  34.049  23.101  1.00  0.00    -0.550 OA
ENDBRANCH  11  12
ENDBRANCH  10  11
ENDBRANCH   9  10
ENDBRANCH   8   9
ENDBRANCH   7   8
ENDBRANCH   6   7
ENDBRANCH   5   6
ENDBRANCH   4   5
ENDBRANCH   3   4
ENDBRANCH   2   3
ENDBRANCH   1   2
BRANCH   1  15
ATOM     15  C   UNL     1      -2.877  37.886  19.109  1.00  0.00     0.000 C 
BRANCH  15  16
ATOM     16  C   UNL     1      -3.671  38.253  20.373  1.00  0.00     0.000 C 
BRANCH  16  17
ATOM     17  C   UNL     1      -5.195  38.179  20.167  1.00  0.00     0.000 C 
BRANCH  17  18
ATOM     18  C   UNL     1      -5.910  39.539  20.308  1.00  0.00    -0.000 C 
BRANCH  18  19
ATOM     19  C   UNL     1      -5.596  40.222  21.651  1.00  0.00    -0.000 C 
BRANCH  19  20
ATOM     20  C   UNL     1      -5.852  39.304  22.860  1.00  0.00    -0.000 C 
BRANCH  20  21
ATOM     21  C   UNL     1      -4.588  38.645  23.452  1.00  0.00    -0.000 C 
BRANCH  21  22
ATOM     22  C   UNL     1      -4.789  37.215  23.989  1.00  0.00    -0.000 C 
BRANCH  22  23
ATOM     23  C   UNL     1      -4.939  37.111  25.519  1.00  0.00    -0.000 C 
BRANCH  23  24
ATOM     24  C   UNL     1      -4.006  38.032  26.331  1.00  0.00    -0.000 C 
BRANCH  24  25
ATOM     25  C   UNL     1      -2.825  37.319  27.011  1.00  0.00    -0.003 C 
ATOM     26  C   UNL     1      -1.532  38.130  26.967  1.00  0.00     0.004 C 
ENDBRANCH  24  25
ENDBRANCH  23  24
ENDBRANCH  22  23
ENDBRANCH  21  22
ENDBRANCH  20  21
ENDBRANCH  19  20
ENDBRANCH  18  19
ENDBRANCH  17  18
ENDBRANCH  16  17
ENDBRANCH  15  16
ENDBRANCH   1  15
TORSDOF 22
ENDMDL
MODEL 9
REMARK VINA RESULT:     1.114      2.020      6.287
REMARK INTER + INTRA:           1.047
REMARK INTER:                  -1.557
REMARK INTRA:                   2.604
REMARK UNBOUND:                -1.499
REMARK SMILES CCCCCCCCCCCCCCCCCCCCCCCC(=O)[O-]
REMARK SMILES IDX 13 1 14 2 15 3 16 4 17 5 18 6 19 7 20 8 21 9 22 10 23 11
REMARK SMILES IDX 24 12 25 13 26 14 12 15 11 16 10 17 9 18 8 19 7 20 6 21 5 22
REMARK SMILES IDX 4 23 3 24 2 25 1 26
REMARK H PARENT
REMARK Flexibility Score: inf
ROOT
ATOM      1  C   UNL     1      -4.484  35.750  21.771  1.00  0.00     0.000 C 
ENDROOT
BRANCH   1   2
ATOM      2  C   UNL     1      -5.417  35.960  20.563  1.00  0.00     0.000 C 
BRANCH   2   3
ATOM      3  C   UNL     1      -6.125  34.690  20.051  1.00  0.00     0.000 C 
BRANCH   3   4
ATOM      4  C   UNL     1      -5.316  33.862  19.035  1.00  0.00     0.000 C 
BRANCH   4   5
ATOM      5  C   UNL     1      -5.313  34.484  17.631  1.00  0.00     0.000 C 
BRANCH   5   6
ATOM      6  C   UNL     1      -3.916  35.006  17.263  1.00  0.00     0.000 C 
BRANCH   6   7
ATOM      7  C   UNL     1      -3.774  36.520  17.483  1.00  0.00     0.000 C 
BRANCH   7   8
ATOM      8  C   UNL     1      -2.311  36.959  17.661  1.00  0.00     0.000 C 
BRANCH   8   9
ATOM      9  C   UNL     1      -1.538  36.988  16.332  1.00  0.00     0.000 C 
BRANCH   9  10
ATOM     10  C   UNL     1      -2.107  36.003  15.296  1.00  0.00     0.006 C 
BRANCH  10  11
ATOM     11  C   UNL     1      -2.532  36.707  14.000  1.00  0.00     0.053 C 
BRANCH  11  12
ATOM     12  C   UNL     1      -3.848  37.409  14.151  1.00  0.00     0.041 C 
ATOM     13  O   UNL     1      -3.886  38.611  14.525  1.00  0.00    -0.550 OA
ATOM     14  O   UNL     1      -5.031  36.735  13.875  1.00  0.00    -0.550 OA
ENDBRANCH  11  12
ENDBRANCH  10  11
ENDBRANCH   9  10
ENDBRANCH   8   9
ENDBRANCH   7   8
ENDBRANCH   6   7
ENDBRANCH   5   6
ENDBRANCH   4   5
ENDBRANCH   3   4
ENDBRANCH   2   3
ENDBRANCH   1   2
BRANCH   1  15
ATOM     15  C   UNL     1      -4.769  34.493  22.613  1.00  0.00     0.000 C 
BRANCH  15  16
ATOM     16  C   UNL     1      -6.005  34.643  23.516  1.00  0.00     0.000 C 
BRANCH  16  17
ATOM     17  C   UNL     1      -6.067  36.009  24.224  1.00  0.00     0.000 C 
BRANCH  17  18
ATOM     18  C   UNL     1      -5.144  36.114  25.456  1.00  0.00    -0.000 C 
BRANCH  18  19
ATOM     19  C   UNL     1      -4.866  37.576  25.850  1.00  0.00    -0.000 C 
BRANCH  19  20
ATOM     20  C   UNL     1      -4.342  38.420  24.674  1.00  0.00    -0.000 C 
BRANCH  20  21
ATOM     21  C   UNL     1      -5.401  38.781  23.612  1.00  0.00    -0.000 C 
BRANCH  21  22
ATOM     22  C   UNL     1      -5.062  40.008  22.743  1.00  0.00    -0.000 C 
BRANCH  22  23
ATOM     23  C   UNL     1      -6.008  40.237  21.548  1.00  0.00    -0.000 C 
BRANCH  23  24
ATOM     24  C   UNL     1      -5.805  39.274  20.361  1.00  0.00    -0.000 C 
BRANCH  24  25
ATOM     25  C   UNL     1      -4.733  38.194  20.580  1.00  0.00    -0.003 C 
ATOM     26  C   UNL     1      -3.412  38.512  19.882  1.00  0.00     0.004 C 
ENDBRANCH  24  25
ENDBRANCH  23  24
ENDBRANCH  22  23
ENDBRANCH  21  22
ENDBRANCH  20  21
ENDBRANCH  19  20
ENDBRANCH  18  19
ENDBRANCH  17  18
ENDBRANCH  16  17
ENDBRANCH  15  16
ENDBRANCH   1  15
TORSDOF 22
ENDMDL
