MODEL 1
REMARK VINA RESULT:    -3.180      0.000      0.000
REMARK INTER + INTRA:         -12.942
REMARK INTER:                  -8.385
REMARK INTRA:                  -4.558
REMARK UNBOUND:                -4.558
REMARK SMILES CCCCCCCCCCCCCCCCCCCCCCCCCCCCCC(=O)[O-]
REMARK SMILES IDX 16 1 17 2 18 3 19 4 20 5 21 6 22 7 23 8 24 9 25 10 26 11
REMARK SMILES IDX 27 12 28 13 29 14 30 15 31 16 32 17 15 18 14 19 13 20 12 21
REMARK SMILES IDX 11 22 10 23 9 24 8 25 7 26 6 27 5 28 4 29 3 30 2 31 1 32
REMARK H PARENT
REMARK Flexibility Score: inf
ROOT
ATOM      1  C   UNL     1       8.751 -19.166   5.509  1.00  0.00     0.000 C 
ENDROOT
BRANCH   1   2
ATOM      2  C   UNL     1       8.262 -19.450   4.073  1.00  0.00     0.000 C 
BRANCH   2   3
ATOM      3  C   UNL     1       8.504 -18.304   3.073  1.00  0.00     0.000 C 
BRANCH   3   4
ATOM      4  C   UNL     1       9.682 -18.568   2.122  1.00  0.00     0.000 C 
BRANCH   4   5
ATOM      5  C   UNL     1      10.020 -20.067   2.083  1.00  0.00     0.000 C 
BRANCH   5   6
ATOM      6  C   UNL     1      11.532 -20.333   2.015  1.00  0.00     0.000 C 
BRANCH   6   7
ATOM      7  C   UNL     1      12.349 -19.047   1.805  1.00  0.00     0.000 C 
BRANCH   7   8
ATOM      8  C   UNL     1      12.981 -18.963   0.405  1.00  0.00     0.000 C 
BRANCH   8   9
ATOM      9  C   UNL     1      12.602 -20.140  -0.518  1.00  0.00     0.000 C 
BRANCH   9  10
ATOM     10  C   UNL     1      11.868 -19.670  -1.785  1.00  0.00     0.000 C 
BRANCH  10  11
ATOM     11  C   UNL     1      10.747 -18.658  -1.489  1.00  0.00     0.000 C 
BRANCH  11  12
ATOM     12  C   UNL     1      10.687 -17.458  -2.452  1.00  0.00     0.000 C 
BRANCH  12  13
ATOM     13  C   UNL     1      11.860 -16.481  -2.259  1.00  0.00     0.006 C 
BRANCH  13  14
ATOM     14  C   UNL     1      11.737 -15.243  -3.159  1.00  0.00     0.053 C 
BRANCH  14  15
ATOM     15  C   UNL     1      11.049 -14.098  -2.475  1.00  0.00     0.041 C 
ATOM     16  O   UNL     1      10.373 -14.292  -1.429  1.00  0.00    -0.550 OA
ATOM     17  O   UNL     1      11.097 -12.826  -3.034  1.00  0.00    -0.550 OA
ENDBRANCH  14  15
ENDBRANCH  13  14
ENDBRANCH  12  13
ENDBRANCH  11  12
ENDBRANCH  10  11
ENDBRANCH   9  10
ENDBRANCH   8   9
ENDBRANCH   7   8
ENDBRANCH   6   7
ENDBRANCH   5   6
ENDBRANCH   4   5
ENDBRANCH   3   4
ENDBRANCH   2   3
ENDBRANCH   1   2
BRANCH   1  18
ATOM     18  C   UNL     1      10.037 -19.922   5.900  1.00  0.00     0.000 C 
BRANCH  18  19
ATOM     19  C   UNL     1      11.336 -19.243   5.417  1.00  0.00     0.000 C 
BRANCH  19  20
ATOM     20  C   UNL     1      11.549 -17.836   6.013  1.00  0.00     0.000 C 
BRANCH  20  21
ATOM     21  C   UNL     1      11.337 -16.678   5.016  1.00  0.00     0.000 C 
BRANCH  21  22
ATOM     22  C   UNL     1      10.764 -15.380   5.619  1.00  0.00     0.000 C 
BRANCH  22  23
ATOM     23  C   UNL     1       9.240 -15.380   5.850  1.00  0.00     0.000 C 
BRANCH  23  24
ATOM     24  C   UNL     1       8.802 -14.906   7.247  1.00  0.00    -0.000 C 
BRANCH  24  25
ATOM     25  C   UNL     1       9.370 -15.785   8.375  1.00  0.00    -0.000 C 
BRANCH  25  26
ATOM     26  C   UNL     1       8.535 -17.055   8.610  1.00  0.00    -0.000 C 
BRANCH  26  27
ATOM     27  C   UNL     1       7.637 -16.945   9.855  1.00  0.00    -0.000 C 
BRANCH  27  28
ATOM     28  C   UNL     1       6.253 -17.584   9.644  1.00  0.00    -0.000 C 
BRANCH  28  29
ATOM     29  C   UNL     1       5.530 -17.044   8.398  1.00  0.00    -0.000 C 
BRANCH  29  30
ATOM     30  C   UNL     1       5.203 -15.541   8.520  1.00  0.00    -0.000 C 
BRANCH  30  31
ATOM     31  C   UNL     1       4.693 -14.909   7.213  1.00  0.00    -0.003 C 
ATOM     32  C   UNL     1       5.110 -13.448   7.053  1.00  0.00     0.004 C 
ENDBRANCH  30  31
ENDBRANCH  29  30
ENDBRANCH  28  29
ENDBRANCH  27  28
ENDBRANCH  26  27
ENDBRANCH  25  26
ENDBRANCH  24  25
ENDBRANCH  23  24
ENDBRANCH  22  23
ENDBRANCH  21  22
ENDBRANCH  20  21
ENDBRANCH  19  20
ENDBRANCH  18  19
ENDBRANCH   1  18
TORSDOF 28
ENDMDL
MODEL 2
REMARK VINA RESULT:    -3.175      3.513      7.278
REMARK INTER + INTRA:         -12.929
REMARK INTER:                  -7.484
REMARK INTRA:                  -5.445
REMARK UNBOUND:                -4.558
REMARK SMILES CCCCCCCCCCCCCCCCCCCCCCCCCCCCCC(=O)[O-]
REMARK SMILES IDX 16 1 17 2 18 3 19 4 20 5 21 6 22 7 23 8 24 9 25 10 26 11
REMARK SMILES IDX 27 12 28 13 29 14 30 15 31 16 32 17 15 18 14 19 13 20 12 21
REMARK SMILES IDX 11 22 10 23 9 24 8 25 7 26 6 27 5 28 4 29 3 30 2 31 1 32
REMARK H PARENT
REMARK Flexibility Score: inf
ROOT
ATOM      1  C   UNL     1       2.880 -18.131   2.972  1.00  0.00     0.000 C 
ENDROOT
BRANCH   1   2
ATOM      2  C   UNL     1       2.222 -18.858   4.164  1.00  0.00     0.000 C 
BRANCH   2   3
ATOM      3  C   UNL     1       2.519 -18.235   5.541  1.00  0.00     0.000 C 
BRANCH   3   4
ATOM      4  C   UNL     1       3.578 -19.010   6.340  1.00  0.00     0.000 C 
BRANCH   4   5
ATOM      5  C   UNL     1       4.374 -18.059   7.248  1.00  0.00     0.000 C 
BRANCH   5   6
ATOM      6  C   UNL     1       5.094 -18.792   8.391  1.00  0.00     0.000 C 
BRANCH   6   7
ATOM      7  C   UNL     1       6.282 -17.990   8.949  1.00  0.00     0.000 C 
BRANCH   7   8
ATOM      8  C   UNL     1       6.513 -16.666   8.201  1.00  0.00     0.000 C 
BRANCH   8   9
ATOM      9  C   UNL     1       8.001 -16.286   8.060  1.00  0.00     0.000 C 
BRANCH   9  10
ATOM     10  C   UNL     1       8.202 -15.049   7.168  1.00  0.00     0.000 C 
BRANCH  10  11
ATOM     11  C   UNL     1       9.218 -15.285   6.036  1.00  0.00     0.000 C 
BRANCH  11  12
ATOM     12  C   UNL     1       9.450 -16.762   5.671  1.00  0.00     0.000 C 
BRANCH  12  13
ATOM     13  C   UNL     1      10.390 -16.937   4.464  1.00  0.00     0.006 C 
BRANCH  13  14
ATOM     14  C   UNL     1      10.343 -18.362   3.895  1.00  0.00     0.053 C 
BRANCH  14  15
ATOM     15  C   UNL     1       9.556 -18.450   2.622  1.00  0.00     0.041 C 
ATOM     16  O   UNL     1       8.844 -17.480   2.243  1.00  0.00    -0.550 OA
ATOM     17  O   UNL     1       9.552 -19.631   1.888  1.00  0.00    -0.550 OA
ENDBRANCH  14  15
ENDBRANCH  13  14
ENDBRANCH  12  13
ENDBRANCH  11  12
ENDBRANCH  10  11
ENDBRANCH   9  10
ENDBRANCH   8   9
ENDBRANCH   7   8
ENDBRANCH   6   7
ENDBRANCH   5   6
ENDBRANCH   4   5
ENDBRANCH   3   4
ENDBRANCH   2   3
ENDBRANCH   1   2
BRANCH   1  18
ATOM     18  C   UNL     1       4.097 -18.867   2.376  1.00  0.00     0.000 C 
BRANCH  18  19
ATOM     19  C   UNL     1       4.148 -20.372   2.717  1.00  0.00     0.000 C 
BRANCH  19  20
ATOM     20  C   UNL     1       5.376 -20.766   3.563  1.00  0.00     0.000 C 
BRANCH  20  21
ATOM     21  C   UNL     1       6.429 -19.650   3.725  1.00  0.00     0.000 C 
BRANCH  21  22
ATOM     22  C   UNL     1       7.034 -19.507   5.136  1.00  0.00     0.000 C 
BRANCH  22  23
ATOM     23  C   UNL     1       7.495 -20.824   5.790  1.00  0.00     0.000 C 
BRANCH  23  24
ATOM     24  C   UNL     1       8.062 -20.671   7.212  1.00  0.00    -0.000 C 
BRANCH  24  25
ATOM     25  C   UNL     1       9.599 -20.683   7.241  1.00  0.00    -0.000 C 
BRANCH  25  26
ATOM     26  C   UNL     1      10.195 -19.308   7.589  1.00  0.00    -0.000 C 
BRANCH  26  27
ATOM     27  C   UNL     1      10.713 -19.242   9.036  1.00  0.00    -0.000 C 
BRANCH  27  28
ATOM     28  C   UNL     1      11.967 -18.361   9.175  1.00  0.00    -0.000 C 
BRANCH  28  29
ATOM     29  C   UNL     1      11.632 -16.869   9.349  1.00  0.00    -0.000 C 
BRANCH  29  30
ATOM     30  C   UNL     1      12.146 -16.017   8.170  1.00  0.00    -0.000 C 
BRANCH  30  31
ATOM     31  C   UNL     1      11.920 -14.506   8.353  1.00  0.00    -0.003 C 
ATOM     32  C   UNL     1      10.906 -14.181   9.448  1.00  0.00     0.004 C 
ENDBRANCH  30  31
ENDBRANCH  29  30
ENDBRANCH  28  29
ENDBRANCH  27  28
ENDBRANCH  26  27
ENDBRANCH  25  26
ENDBRANCH  24  25
ENDBRANCH  23  24
ENDBRANCH  22  23
ENDBRANCH  21  22
ENDBRANCH  20  21
ENDBRANCH  19  20
ENDBRANCH  18  19
ENDBRANCH   1  18
TORSDOF 28
ENDMDL
MODEL 3
REMARK VINA RESULT:    -3.153      4.863      8.455
REMARK INTER + INTRA:         -12.871
REMARK INTER:                  -8.033
REMARK INTRA:                  -4.838
REMARK UNBOUND:                -4.558
REMARK SMILES CCCCCCCCCCCCCCCCCCCCCCCCCCCCCC(=O)[O-]
REMARK SMILES IDX 16 1 17 2 18 3 19 4 20 5 21 6 22 7 23 8 24 9 25 10 26 11
REMARK SMILES IDX 27 12 28 13 29 14 30 15 31 16 32 17 15 18 14 19 13 20 12 21
REMARK SMILES IDX 11 22 10 23 9 24 8 25 7 26 6 27 5 28 4 29 3 30 2 31 1 32
REMARK H PARENT
REMARK Flexibility Score: inf
ROOT
ATOM      1  C   UNL     1       4.014 -18.579   2.232  1.00  0.00     0.000 C 
ENDROOT
BRANCH   1   2
ATOM      2  C   UNL     1       2.815 -17.950   2.974  1.00  0.00     0.000 C 
BRANCH   2   3
ATOM      3  C   UNL     1       1.797 -18.964   3.527  1.00  0.00     0.000 C 
BRANCH   3   4
ATOM      4  C   UNL     1       1.885 -19.140   5.051  1.00  0.00     0.000 C 
BRANCH   4   5
ATOM      5  C   UNL     1       2.643 -17.965   5.689  1.00  0.00     0.000 C 
BRANCH   5   6
ATOM      6  C   UNL     1       3.423 -18.373   6.948  1.00  0.00     0.000 C 
BRANCH   6   7
ATOM      7  C   UNL     1       3.923 -19.826   6.887  1.00  0.00     0.000 C 
BRANCH   7   8
ATOM      8  C   UNL     1       5.417 -19.958   7.229  1.00  0.00     0.000 C 
BRANCH   8   9
ATOM      9  C   UNL     1       6.096 -18.614   7.568  1.00  0.00     0.000 C 
BRANCH   9  10
ATOM     10  C   UNL     1       6.441 -18.499   9.062  1.00  0.00     0.000 C 
BRANCH  10  11
ATOM     11  C   UNL     1       7.831 -17.885   9.310  1.00  0.00     0.000 C 
BRANCH  11  12
ATOM     12  C   UNL     1       7.850 -16.705  10.298  1.00  0.00     0.000 C 
BRANCH  12  13
ATOM     13  C   UNL     1       9.258 -16.413  10.849  1.00  0.00     0.006 C 
BRANCH  13  14
ATOM     14  C   UNL     1      10.352 -17.151  10.065  1.00  0.00     0.053 C 
BRANCH  14  15
ATOM     15  C   UNL     1      11.726 -16.624  10.358  1.00  0.00     0.041 C 
ATOM     16  O   UNL     1      12.113 -15.535   9.856  1.00  0.00    -0.550 OA
ATOM     17  O   UNL     1      12.607 -17.375  11.129  1.00  0.00    -0.550 OA
ENDBRANCH  14  15
ENDBRANCH  13  14
ENDBRANCH  12  13
ENDBRANCH  11  12
ENDBRANCH  10  11
ENDBRANCH   9  10
ENDBRANCH   8   9
ENDBRANCH   7   8
ENDBRANCH   6   7
ENDBRANCH   5   6
ENDBRANCH   4   5
ENDBRANCH   3   4
ENDBRANCH   2   3
ENDBRANCH   1   2
BRANCH   1  18
ATOM     18  C   UNL     1       4.107 -20.112   2.367  1.00  0.00     0.000 C 
BRANCH  18  19
ATOM     19  C   UNL     1       5.078 -20.588   3.468  1.00  0.00     0.000 C 
BRANCH  19  20
ATOM     20  C   UNL     1       6.270 -19.634   3.686  1.00  0.00     0.000 C 
BRANCH  20  21
ATOM     21  C   UNL     1       7.648 -20.241   3.350  1.00  0.00     0.000 C 
BRANCH  21  22
ATOM     22  C   UNL     1       8.852 -19.586   4.056  1.00  0.00     0.000 C 
BRANCH  22  23
ATOM     23  C   UNL     1       8.517 -18.817   5.350  1.00  0.00     0.000 C 
BRANCH  23  24
ATOM     24  C   UNL     1       9.630 -17.877   5.845  1.00  0.00    -0.000 C 
BRANCH  24  25
ATOM     25  C   UNL     1       9.955 -16.762   4.837  1.00  0.00    -0.000 C 
BRANCH  25  26
ATOM     26  C   UNL     1      10.183 -15.401   5.515  1.00  0.00    -0.000 C 
BRANCH  26  27
ATOM     27  C   UNL     1       9.936 -15.452   7.033  1.00  0.00    -0.000 C 
BRANCH  27  28
ATOM     28  C   UNL     1       8.889 -14.424   7.497  1.00  0.00    -0.000 C 
BRANCH  28  29
ATOM     29  C   UNL     1       7.454 -14.813   7.098  1.00  0.00    -0.000 C 
BRANCH  29  30
ATOM     30  C   UNL     1       6.625 -13.592   6.647  1.00  0.00    -0.000 C 
BRANCH  30  31
ATOM     31  C   UNL     1       5.193 -13.573   7.211  1.00  0.00    -0.003 C 
ATOM     32  C   UNL     1       4.683 -14.961   7.593  1.00  0.00     0.004 C 
ENDBRANCH  30  31
ENDBRANCH  29  30
ENDBRANCH  28  29
ENDBRANCH  27  28
ENDBRANCH  26  27
ENDBRANCH  25  26
ENDBRANCH  24  25
ENDBRANCH  23  24
ENDBRANCH  22  23
ENDBRANCH  21  22
ENDBRANCH  20  21
ENDBRANCH  19  20
ENDBRANCH  18  19
ENDBRANCH   1  18
TORSDOF 28
ENDMDL
MODEL 4
REMARK VINA RESULT:    -3.132      5.091      8.908
REMARK INTER + INTRA:         -12.817
REMARK INTER:                  -7.217
REMARK INTRA:                  -5.599
REMARK UNBOUND:                -4.558
REMARK SMILES CCCCCCCCCCCCCCCCCCCCCCCCCCCCCC(=O)[O-]
REMARK SMILES IDX 16 1 17 2 18 3 19 4 20 5 21 6 22 7 23 8 24 9 25 10 26 11
REMARK SMILES IDX 27 12 28 13 29 14 30 15 31 16 32 17 15 18 14 19 13 20 12 21
REMARK SMILES IDX 11 22 10 23 9 24 8 25 7 26 6 27 5 28 4 29 3 30 2 31 1 32
REMARK H PARENT
REMARK Flexibility Score: inf
ROOT
ATOM      1  C   UNL     1       6.734 -19.764   3.891  1.00  0.00     0.000 C 
ENDROOT
BRANCH   1   2
ATOM      2  C   UNL     1       8.263 -19.634   3.719  1.00  0.00     0.000 C 
BRANCH   2   3
ATOM      3  C   UNL     1       8.720 -18.373   2.962  1.00  0.00     0.000 C 
BRANCH   3   4
ATOM      4  C   UNL     1       9.269 -17.277   3.888  1.00  0.00     0.000 C 
BRANCH   4   5
ATOM      5  C   UNL     1       9.516 -17.834   5.299  1.00  0.00     0.000 C 
BRANCH   5   6
ATOM      6  C   UNL     1       8.925 -16.942   6.402  1.00  0.00     0.000 C 
BRANCH   6   7
ATOM      7  C   UNL     1       9.257 -15.454   6.198  1.00  0.00     0.000 C 
BRANCH   7   8
ATOM      8  C   UNL     1       9.420 -14.691   7.524  1.00  0.00     0.000 C 
BRANCH   8   9
ATOM      9  C   UNL     1      10.619 -15.168   8.369  1.00  0.00     0.000 C 
BRANCH   9  10
ATOM     10  C   UNL     1      10.438 -14.851   9.863  1.00  0.00     0.000 C 
BRANCH  10  11
ATOM     11  C   UNL     1      10.117 -16.099  10.706  1.00  0.00     0.000 C 
BRANCH  11  12
ATOM     12  C   UNL     1       9.943 -17.398   9.899  1.00  0.00     0.000 C 
BRANCH  12  13
ATOM     13  C   UNL     1       8.546 -18.021  10.067  1.00  0.00     0.006 C 
BRANCH  13  14
ATOM     14  C   UNL     1       7.423 -17.009   9.798  1.00  0.00     0.053 C 
BRANCH  14  15
ATOM     15  C   UNL     1       6.416 -16.956  10.908  1.00  0.00     0.041 C 
ATOM     16  O   UNL     1       5.196 -16.761  10.655  1.00  0.00    -0.550 OA
ATOM     17  O   UNL     1       6.835 -17.052  12.231  1.00  0.00    -0.550 OA
ENDBRANCH  14  15
ENDBRANCH  13  14
ENDBRANCH  12  13
ENDBRANCH  11  12
ENDBRANCH  10  11
ENDBRANCH   9  10
ENDBRANCH   8   9
ENDBRANCH   7   8
ENDBRANCH   6   7
ENDBRANCH   5   6
ENDBRANCH   4   5
ENDBRANCH   3   4
ENDBRANCH   2   3
ENDBRANCH   1   2
BRANCH   1  18
ATOM     18  C   UNL     1       6.219 -21.218   3.884  1.00  0.00     0.000 C 
BRANCH  18  19
ATOM     19  C   UNL     1       4.810 -21.387   4.492  1.00  0.00     0.000 C 
BRANCH  19  20
ATOM     20  C   UNL     1       3.767 -21.906   3.482  1.00  0.00     0.000 C 
BRANCH  20  21
ATOM     21  C   UNL     1       3.988 -21.435   2.030  1.00  0.00     0.000 C 
BRANCH  21  22
ATOM     22  C   UNL     1       3.101 -20.261   1.570  1.00  0.00     0.000 C 
BRANCH  22  23
ATOM     23  C   UNL     1       3.646 -18.857   1.901  1.00  0.00     0.000 C 
BRANCH  23  24
ATOM     24  C   UNL     1       2.720 -18.000   2.782  1.00  0.00    -0.000 C 
BRANCH  24  25
ATOM     25  C   UNL     1       3.053 -18.117   4.279  1.00  0.00    -0.000 C 
BRANCH  25  26
ATOM     26  C   UNL     1       2.058 -19.013   5.036  1.00  0.00    -0.000 C 
BRANCH  26  27
ATOM     27  C   UNL     1       2.481 -19.257   6.495  1.00  0.00    -0.000 C 
BRANCH  27  28
ATOM     28  C   UNL     1       3.744 -18.470   6.885  1.00  0.00    -0.000 C 
BRANCH  28  29
ATOM     29  C   UNL     1       4.628 -19.223   7.894  1.00  0.00    -0.000 C 
BRANCH  29  30
ATOM     30  C   UNL     1       6.103 -19.285   7.444  1.00  0.00    -0.000 C 
BRANCH  30  31
ATOM     31  C   UNL     1       6.801 -20.613   7.787  1.00  0.00    -0.003 C 
ATOM     32  C   UNL     1       8.251 -20.666   7.311  1.00  0.00     0.004 C 
ENDBRANCH  30  31
ENDBRANCH  29  30
ENDBRANCH  28  29
ENDBRANCH  27  28
ENDBRANCH  26  27
ENDBRANCH  25  26
ENDBRANCH  24  25
ENDBRANCH  23  24
ENDBRANCH  22  23
ENDBRANCH  21  22
ENDBRANCH  20  21
ENDBRANCH  19  20
ENDBRANCH  18  19
ENDBRANCH   1  18
TORSDOF 28
ENDMDL
MODEL 5
REMARK VINA RESULT:    -3.097      4.231      7.333
REMARK INTER + INTRA:         -12.724
REMARK INTER:                  -7.238
REMARK INTRA:                  -5.486
REMARK UNBOUND:                -4.558
REMARK SMILES CCCCCCCCCCCCCCCCCCCCCCCCCCCCCC(=O)[O-]
REMARK SMILES IDX 16 1 17 2 18 3 19 4 20 5 21 6 22 7 23 8 24 9 25 10 26 11
REMARK SMILES IDX 27 12 28 13 29 14 30 15 31 16 32 17 15 18 14 19 13 20 12 21
REMARK SMILES IDX 11 22 10 23 9 24 8 25 7 26 6 27 5 28 4 29 3 30 2 31 1 32
REMARK H PARENT
REMARK Flexibility Score: inf
ROOT
ATOM      1  C   UNL     1       3.922 -18.740   1.951  1.00  0.00     0.000 C 
ENDROOT
BRANCH   1   2
ATOM      2  C   UNL     1       3.205 -19.926   1.271  1.00  0.00     0.000 C 
BRANCH   2   3
ATOM      3  C   UNL     1       3.486 -21.300   1.909  1.00  0.00     0.000 C 
BRANCH   3   4
ATOM      4  C   UNL     1       4.797 -21.338   2.709  1.00  0.00     0.000 C 
BRANCH   4   5
ATOM      5  C   UNL     1       4.525 -21.692   4.179  1.00  0.00     0.000 C 
BRANCH   5   6
ATOM      6  C   UNL     1       5.635 -21.205   5.124  1.00  0.00     0.000 C 
BRANCH   6   7
ATOM      7  C   UNL     1       6.047 -19.750   4.848  1.00  0.00     0.000 C 
BRANCH   7   8
ATOM      8  C   UNL     1       7.516 -19.618   4.411  1.00  0.00     0.000 C 
BRANCH   8   9
ATOM      9  C   UNL     1       7.697 -18.908   3.053  1.00  0.00     0.000 C 
BRANCH   9  10
ATOM     10  C   UNL     1       8.893 -17.942   3.058  1.00  0.00     0.000 C 
BRANCH  10  11
ATOM     11  C   UNL     1       9.570 -17.832   4.437  1.00  0.00     0.000 C 
BRANCH  11  12
ATOM     12  C   UNL     1      10.673 -16.762   4.533  1.00  0.00     0.000 C 
BRANCH  12  13
ATOM     13  C   UNL     1      10.313 -15.622   5.503  1.00  0.00     0.006 C 
BRANCH  13  14
ATOM     14  C   UNL     1       9.007 -15.897   6.262  1.00  0.00     0.053 C 
BRANCH  14  15
ATOM     15  C   UNL     1       8.578 -14.737   7.111  1.00  0.00     0.041 C 
ATOM     16  O   UNL     1       7.544 -14.079   6.818  1.00  0.00    -0.550 OA
ATOM     17  O   UNL     1       9.363 -14.338   8.188  1.00  0.00    -0.550 OA
ENDBRANCH  14  15
ENDBRANCH  13  14
ENDBRANCH  12  13
ENDBRANCH  11  12
ENDBRANCH  10  11
ENDBRANCH   9  10
ENDBRANCH   8   9
ENDBRANCH   7   8
ENDBRANCH   6   7
ENDBRANCH   5   6
ENDBRANCH   4   5
ENDBRANCH   3   4
ENDBRANCH   2   3
ENDBRANCH   1   2
BRANCH   1  18
ATOM     18  C   UNL     1       3.062 -17.993   2.990  1.00  0.00     0.000 C 
BRANCH  18  19
ATOM     19  C   UNL     1       1.750 -18.719   3.357  1.00  0.00     0.000 C 
BRANCH  19  20
ATOM     20  C   UNL     1       1.756 -19.311   4.781  1.00  0.00     0.000 C 
BRANCH  20  21
ATOM     21  C   UNL     1       2.684 -18.583   5.775  1.00  0.00     0.000 C 
BRANCH  21  22
ATOM     22  C   UNL     1       2.757 -19.197   7.187  1.00  0.00     0.000 C 
BRANCH  22  23
ATOM     23  C   UNL     1       4.125 -19.075   7.887  1.00  0.00     0.000 C 
BRANCH  23  24
ATOM     24  C   UNL     1       4.812 -17.709   7.721  1.00  0.00    -0.000 C 
BRANCH  24  25
ATOM     25  C   UNL     1       6.070 -17.569   8.594  1.00  0.00    -0.000 C 
BRANCH  25  26
ATOM     26  C   UNL     1       6.823 -18.900   8.763  1.00  0.00    -0.000 C 
BRANCH  26  27
ATOM     27  C   UNL     1       8.043 -19.006   7.831  1.00  0.00    -0.000 C 
BRANCH  27  28
ATOM     28  C   UNL     1       9.333 -19.372   8.585  1.00  0.00    -0.000 C 
BRANCH  28  29
ATOM     29  C   UNL     1      10.541 -18.526   8.144  1.00  0.00    -0.000 C 
BRANCH  29  30
ATOM     30  C   UNL     1      11.504 -19.318   7.234  1.00  0.00    -0.000 C 
BRANCH  30  31
ATOM     31  C   UNL     1      11.108 -20.793   7.046  1.00  0.00    -0.003 C 
ATOM     32  C   UNL     1      10.728 -21.131   5.606  1.00  0.00     0.004 C 
ENDBRANCH  30  31
ENDBRANCH  29  30
ENDBRANCH  28  29
ENDBRANCH  27  28
ENDBRANCH  26  27
ENDBRANCH  25  26
ENDBRANCH  24  25
ENDBRANCH  23  24
ENDBRANCH  22  23
ENDBRANCH  21  22
ENDBRANCH  20  21
ENDBRANCH  19  20
ENDBRANCH  18  19
ENDBRANCH   1  18
TORSDOF 28
ENDMDL
MODEL 6
REMARK VINA RESULT:    -3.083      4.334      6.724
REMARK INTER + INTRA:         -12.688
REMARK INTER:                  -6.758
REMARK INTRA:                  -5.930
REMARK UNBOUND:                -4.558
REMARK SMILES CCCCCCCCCCCCCCCCCCCCCCCCCCCCCC(=O)[O-]
REMARK SMILES IDX 16 1 17 2 18 3 19 4 20 5 21 6 22 7 23 8 24 9 25 10 26 11
REMARK SMILES IDX 27 12 28 13 29 14 30 15 31 16 32 17 15 18 14 19 13 20 12 21
REMARK SMILES IDX 11 22 10 23 9 24 8 25 7 26 6 27 5 28 4 29 3 30 2 31 1 32
REMARK H PARENT
REMARK Flexibility Score: inf
ROOT
ATOM      1  C   UNL     1       7.641 -16.223   7.767  1.00  0.00     0.000 C 
ENDROOT
BRANCH   1   2
ATOM      2  C   UNL     1       8.409 -15.060   7.104  1.00  0.00     0.000 C 
BRANCH   2   3
ATOM      3  C   UNL     1       9.713 -14.659   7.820  1.00  0.00     0.000 C 
BRANCH   3   4
ATOM      4  C   UNL     1      10.977 -15.054   7.040  1.00  0.00     0.000 C 
BRANCH   4   5
ATOM      5  C   UNL     1      10.605 -15.789   5.743  1.00  0.00     0.000 C 
BRANCH   5   6
ATOM      6  C   UNL     1      11.366 -17.113   5.571  1.00  0.00     0.000 C 
BRANCH   6   7
ATOM      7  C   UNL     1      10.726 -18.027   4.513  1.00  0.00     0.000 C 
BRANCH   7   8
ATOM      8  C   UNL     1       9.515 -17.381   3.819  1.00  0.00     0.000 C 
BRANCH   8   9
ATOM      9  C   UNL     1       8.410 -18.388   3.437  1.00  0.00     0.000 C 
BRANCH   9  10
ATOM     10  C   UNL     1       8.663 -19.782   4.034  1.00  0.00     0.000 C 
BRANCH  10  11
ATOM     11  C   UNL     1       7.376 -20.462   4.536  1.00  0.00     0.000 C 
BRANCH  11  12
ATOM     12  C   UNL     1       6.090 -19.641   4.335  1.00  0.00     0.000 C 
BRANCH  12  13
ATOM     13  C   UNL     1       4.885 -20.511   3.935  1.00  0.00     0.006 C 
BRANCH  13  14
ATOM     14  C   UNL     1       3.596 -19.688   3.794  1.00  0.00     0.053 C 
BRANCH  14  15
ATOM     15  C   UNL     1       3.602 -18.811   2.577  1.00  0.00     0.041 C 
ATOM     16  O   UNL     1       3.244 -17.605   2.656  1.00  0.00    -0.550 OA
ATOM     17  O   UNL     1       3.935 -19.347   1.337  1.00  0.00    -0.550 OA
ENDBRANCH  14  15
ENDBRANCH  13  14
ENDBRANCH  12  13
ENDBRANCH  11  12
ENDBRANCH  10  11
ENDBRANCH   9  10
ENDBRANCH   8   9
ENDBRANCH   7   8
ENDBRANCH   6   7
ENDBRANCH   5   6
ENDBRANCH   4   5
ENDBRANCH   3   4
ENDBRANCH   2   3
ENDBRANCH   1   2
BRANCH   1  18
ATOM     18  C   UNL     1       7.835 -17.586   7.072  1.00  0.00     0.000 C 
BRANCH  18  19
ATOM     19  C   UNL     1       8.728 -18.569   7.858  1.00  0.00     0.000 C 
BRANCH  19  20
ATOM     20  C   UNL     1       8.002 -19.869   8.259  1.00  0.00     0.000 C 
BRANCH  20  21
ATOM     21  C   UNL     1       6.467 -19.819   8.109  1.00  0.00     0.000 C 
BRANCH  21  22
ATOM     22  C   UNL     1       5.668 -19.909   9.425  1.00  0.00     0.000 C 
BRANCH  22  23
ATOM     23  C   UNL     1       6.278 -19.147  10.618  1.00  0.00     0.000 C 
BRANCH  23  24
ATOM     24  C   UNL     1       5.829 -17.681  10.740  1.00  0.00    -0.000 C 
BRANCH  24  25
ATOM     25  C   UNL     1       6.913 -16.778  11.353  1.00  0.00    -0.000 C 
BRANCH  25  26
ATOM     26  C   UNL     1       8.300 -17.443  11.359  1.00  0.00    -0.000 C 
BRANCH  26  27
ATOM     27  C   UNL     1       9.423 -16.463  10.977  1.00  0.00    -0.000 C 
BRANCH  27  28
ATOM     28  C   UNL     1      10.725 -17.180  10.580  1.00  0.00    -0.000 C 
BRANCH  28  29
ATOM     29  C   UNL     1      11.924 -16.222  10.469  1.00  0.00    -0.000 C 
BRANCH  29  30
ATOM     30  C   UNL     1      11.572 -14.793  10.934  1.00  0.00    -0.000 C 
BRANCH  30  31
ATOM     31  C   UNL     1      12.412 -13.696  10.258  1.00  0.00    -0.003 C 
ATOM     32  C   UNL     1      12.015 -12.286  10.691  1.00  0.00     0.004 C 
ENDBRANCH  30  31
ENDBRANCH  29  30
ENDBRANCH  28  29
ENDBRANCH  27  28
ENDBRANCH  26  27
ENDBRANCH  25  26
ENDBRANCH  24  25
ENDBRANCH  23  24
ENDBRANCH  22  23
ENDBRANCH  21  22
ENDBRANCH  20  21
ENDBRANCH  19  20
ENDBRANCH  18  19
ENDBRANCH   1  18
TORSDOF 28
ENDMDL
MODEL 7
REMARK VINA RESULT:    -3.068      5.357     10.042
REMARK INTER + INTRA:         -12.647
REMARK INTER:                  -7.533
REMARK INTRA:                  -5.115
REMARK UNBOUND:                -4.558
REMARK SMILES CCCCCCCCCCCCCCCCCCCCCCCCCCCCCC(=O)[O-]
REMARK SMILES IDX 16 1 17 2 18 3 19 4 20 5 21 6 22 7 23 8 24 9 25 10 26 11
REMARK SMILES IDX 27 12 28 13 29 14 30 15 31 16 32 17 15 18 14 19 13 20 12 21
REMARK SMILES IDX 11 22 10 23 9 24 8 25 7 26 6 27 5 28 4 29 3 30 2 31 1 32
REMARK H PARENT
REMARK Flexibility Score: inf
ROOT
ATOM      1  C   UNL     1       0.511 -19.127   2.991  1.00  0.00     0.000 C 
ENDROOT
BRANCH   1   2
ATOM      2  C   UNL     1      -0.010 -20.301   3.847  1.00  0.00     0.000 C 
BRANCH   2   3
ATOM      3  C   UNL     1       0.409 -20.253   5.329  1.00  0.00     0.000 C 
BRANCH   3   4
ATOM      4  C   UNL     1       1.696 -21.039   5.620  1.00  0.00     0.000 C 
BRANCH   4   5
ATOM      5  C   UNL     1       2.710 -20.159   6.368  1.00  0.00     0.000 C 
BRANCH   5   6
ATOM      6  C   UNL     1       2.398 -18.660   6.251  1.00  0.00     0.000 C 
BRANCH   6   7
ATOM      7  C   UNL     1       3.563 -17.776   6.725  1.00  0.00     0.000 C 
BRANCH   7   8
ATOM      8  C   UNL     1       4.346 -18.396   7.894  1.00  0.00     0.000 C 
BRANCH   8   9
ATOM      9  C   UNL     1       5.841 -18.016   7.911  1.00  0.00     0.000 C 
BRANCH   9  10
ATOM     10  C   UNL     1       6.695 -19.050   8.662  1.00  0.00     0.000 C 
BRANCH  10  11
ATOM     11  C   UNL     1       7.717 -18.405   9.616  1.00  0.00     0.000 C 
BRANCH  11  12
ATOM     12  C   UNL     1       7.418 -16.944   9.994  1.00  0.00     0.000 C 
BRANCH  12  13
ATOM     13  C   UNL     1       6.707 -16.814  11.353  1.00  0.00     0.006 C 
BRANCH  13  14
ATOM     14  C   UNL     1       5.195 -16.598  11.198  1.00  0.00     0.053 C 
BRANCH  14  15
ATOM     15  C   UNL     1       4.387 -17.634  11.921  1.00  0.00     0.041 C 
ATOM     16  O   UNL     1       4.672 -18.857  11.813  1.00  0.00    -0.550 OA
ATOM     17  O   UNL     1       3.271 -17.254  12.660  1.00  0.00    -0.550 OA
ENDBRANCH  14  15
ENDBRANCH  13  14
ENDBRANCH  12  13
ENDBRANCH  11  12
ENDBRANCH  10  11
ENDBRANCH   9  10
ENDBRANCH   8   9
ENDBRANCH   7   8
ENDBRANCH   6   7
ENDBRANCH   5   6
ENDBRANCH   4   5
ENDBRANCH   3   4
ENDBRANCH   2   3
ENDBRANCH   1   2
BRANCH   1  18
ATOM     18  C   UNL     1       1.860 -19.401   2.297  1.00  0.00     0.000 C 
BRANCH  18  19
ATOM     19  C   UNL     1       2.955 -18.363   2.624  1.00  0.00     0.000 C 
BRANCH  19  20
ATOM     20  C   UNL     1       4.377 -18.960   2.640  1.00  0.00     0.000 C 
BRANCH  20  21
ATOM     21  C   UNL     1       4.431 -20.488   2.845  1.00  0.00     0.000 C 
BRANCH  21  22
ATOM     22  C   UNL     1       5.264 -20.968   4.050  1.00  0.00     0.000 C 
BRANCH  22  23
ATOM     23  C   UNL     1       6.044 -19.865   4.791  1.00  0.00     0.000 C 
BRANCH  23  24
ATOM     24  C   UNL     1       7.442 -20.284   5.278  1.00  0.00    -0.000 C 
BRANCH  24  25
ATOM     25  C   UNL     1       8.553 -19.910   4.282  1.00  0.00    -0.000 C 
BRANCH  25  26
ATOM     26  C   UNL     1       8.054 -18.979   3.164  1.00  0.00    -0.000 C 
BRANCH  26  27
ATOM     27  C   UNL     1       8.854 -17.667   3.092  1.00  0.00    -0.000 C 
BRANCH  27  28
ATOM     28  C   UNL     1      10.003 -17.618   4.114  1.00  0.00    -0.000 C 
BRANCH  28  29
ATOM     29  C   UNL     1      10.300 -16.192   4.610  1.00  0.00    -0.000 C 
BRANCH  29  30
ATOM     30  C   UNL     1      10.188 -16.075   6.145  1.00  0.00    -0.000 C 
BRANCH  30  31
ATOM     31  C   UNL     1       8.740 -16.087   6.663  1.00  0.00    -0.003 C 
ATOM     32  C   UNL     1       8.220 -14.695   7.018  1.00  0.00     0.004 C 
ENDBRANCH  30  31
ENDBRANCH  29  30
ENDBRANCH  28  29
ENDBRANCH  27  28
ENDBRANCH  26  27
ENDBRANCH  25  26
ENDBRANCH  24  25
ENDBRANCH  23  24
ENDBRANCH  22  23
ENDBRANCH  21  22
ENDBRANCH  20  21
ENDBRANCH  19  20
ENDBRANCH  18  19
ENDBRANCH   1  18
TORSDOF 28
ENDMDL
MODEL 8
REMARK VINA RESULT:    -3.064      5.122      8.377
REMARK INTER + INTRA:         -12.637
REMARK INTER:                  -7.319
REMARK INTRA:                  -5.318
REMARK UNBOUND:                -4.558
REMARK SMILES CCCCCCCCCCCCCCCCCCCCCCCCCCCCCC(=O)[O-]
REMARK SMILES IDX 16 1 17 2 18 3 19 4 20 5 21 6 22 7 23 8 24 9 25 10 26 11
REMARK SMILES IDX 27 12 28 13 29 14 30 15 31 16 32 17 15 18 14 19 13 20 12 21
REMARK SMILES IDX 11 22 10 23 9 24 8 25 7 26 6 27 5 28 4 29 3 30 2 31 1 32
REMARK H PARENT
REMARK Flexibility Score: inf
ROOT
ATOM      1  C   UNL     1      10.364 -14.254   9.011  1.00  0.00     0.000 C 
ENDROOT
BRANCH   1   2
ATOM      2  C   UNL     1      10.959 -15.124  10.139  1.00  0.00     0.000 C 
BRANCH   2   3
ATOM      3  C   UNL     1      12.487 -15.013  10.300  1.00  0.00     0.000 C 
BRANCH   3   4
ATOM      4  C   UNL     1      13.226 -14.856   8.962  1.00  0.00     0.000 C 
BRANCH   4   5
ATOM      5  C   UNL     1      13.769 -16.211   8.481  1.00  0.00     0.000 C 
BRANCH   5   6
ATOM      6  C   UNL     1      13.414 -16.506   7.015  1.00  0.00     0.000 C 
BRANCH   6   7
ATOM      7  C   UNL     1      12.720 -17.867   6.840  1.00  0.00     0.000 C 
BRANCH   7   8
ATOM      8  C   UNL     1      11.543 -18.067   7.809  1.00  0.00     0.000 C 
BRANCH   8   9
ATOM      9  C   UNL     1      10.899 -19.466   7.723  1.00  0.00     0.000 C 
BRANCH   9  10
ATOM     10  C   UNL     1      10.114 -19.823   8.996  1.00  0.00     0.000 C 
BRANCH  10  11
ATOM     11  C   UNL     1       9.808 -18.598   9.876  1.00  0.00     0.000 C 
BRANCH  11  12
ATOM     12  C   UNL     1       8.325 -18.189   9.925  1.00  0.00     0.000 C 
BRANCH  12  13
ATOM     13  C   UNL     1       7.642 -18.262   8.548  1.00  0.00     0.006 C 
BRANCH  13  14
ATOM     14  C   UNL     1       6.527 -17.216   8.398  1.00  0.00     0.053 C 
BRANCH  14  15
ATOM     15  C   UNL     1       5.458 -17.359   9.441  1.00  0.00     0.041 C 
ATOM     16  O   UNL     1       5.290 -16.462  10.311  1.00  0.00    -0.550 OA
ATOM     17  O   UNL     1       4.692 -18.519   9.495  1.00  0.00    -0.550 OA
ENDBRANCH  14  15
ENDBRANCH  13  14
ENDBRANCH  12  13
ENDBRANCH  11  12
ENDBRANCH  10  11
ENDBRANCH   9  10
ENDBRANCH   8   9
ENDBRANCH   7   8
ENDBRANCH   6   7
ENDBRANCH   5   6
ENDBRANCH   4   5
ENDBRANCH   3   4
ENDBRANCH   2   3
ENDBRANCH   1   2
BRANCH   1  18
ATOM     18  C   UNL     1       9.354 -14.992   8.109  1.00  0.00     0.000 C 
BRANCH  18  19
ATOM     19  C   UNL     1       9.750 -15.021   6.617  1.00  0.00     0.000 C 
BRANCH  19  20
ATOM     20  C   UNL     1       9.207 -16.252   5.864  1.00  0.00     0.000 C 
BRANCH  20  21
ATOM     21  C   UNL     1      10.026 -16.658   4.621  1.00  0.00     0.000 C 
BRANCH  21  22
ATOM     22  C   UNL     1       9.862 -18.122   4.167  1.00  0.00     0.000 C 
BRANCH  22  23
ATOM     23  C   UNL     1       8.595 -18.832   4.683  1.00  0.00     0.000 C 
BRANCH  23  24
ATOM     24  C   UNL     1       7.790 -19.575   3.603  1.00  0.00    -0.000 C 
BRANCH  24  25
ATOM     25  C   UNL     1       6.359 -19.910   4.057  1.00  0.00    -0.000 C 
BRANCH  25  26
ATOM     26  C   UNL     1       6.165 -19.740   5.573  1.00  0.00    -0.000 C 
BRANCH  26  27
ATOM     27  C   UNL     1       4.682 -19.629   5.967  1.00  0.00    -0.000 C 
BRANCH  27  28
ATOM     28  C   UNL     1       3.744 -19.643   4.748  1.00  0.00    -0.000 C 
BRANCH  28  29
ATOM     29  C   UNL     1       2.918 -18.352   4.616  1.00  0.00    -0.000 C 
BRANCH  29  30
ATOM     30  C   UNL     1       2.647 -17.982   3.143  1.00  0.00    -0.000 C 
BRANCH  30  31
ATOM     31  C   UNL     1       3.796 -18.354   2.189  1.00  0.00    -0.003 C 
ATOM     32  C   UNL     1       3.394 -19.397   1.148  1.00  0.00     0.004 C 
ENDBRANCH  30  31
ENDBRANCH  29  30
ENDBRANCH  28  29
ENDBRANCH  27  28
ENDBRANCH  26  27
ENDBRANCH  25  26
ENDBRANCH  24  25
ENDBRANCH  23  24
ENDBRANCH  22  23
ENDBRANCH  21  22
ENDBRANCH  20  21
ENDBRANCH  19  20
ENDBRANCH  18  19
ENDBRANCH   1  18
TORSDOF 28
ENDMDL
MODEL 9
REMARK VINA RESULT:    -3.059      4.890      8.892
REMARK INTER + INTRA:         -12.625
REMARK INTER:                  -7.029
REMARK INTRA:                  -5.596
REMARK UNBOUND:                -4.558
REMARK SMILES CCCCCCCCCCCCCCCCCCCCCCCCCCCCCC(=O)[O-]
REMARK SMILES IDX 16 1 17 2 18 3 19 4 20 5 21 6 22 7 23 8 24 9 25 10 26 11
REMARK SMILES IDX 27 12 28 13 29 14 30 15 31 16 32 17 15 18 14 19 13 20 12 21
REMARK SMILES IDX 11 22 10 23 9 24 8 25 7 26 6 27 5 28 4 29 3 30 2 31 1 32
REMARK H PARENT
REMARK Flexibility Score: inf
ROOT
ATOM      1  C   UNL     1       3.203 -20.017   1.440  1.00  0.00     0.000 C 
ENDROOT
BRANCH   1   2
ATOM      2  C   UNL     1       3.730 -18.646   1.913  1.00  0.00     0.000 C 
BRANCH   2   3
ATOM      3  C   UNL     1       2.851 -17.947   2.967  1.00  0.00     0.000 C 
BRANCH   3   4
ATOM      4  C   UNL     1       1.695 -18.825   3.469  1.00  0.00     0.000 C 
BRANCH   4   5
ATOM      5  C   UNL     1       1.818 -19.071   4.981  1.00  0.00     0.000 C 
BRANCH   5   6
ATOM      6  C   UNL     1       2.823 -18.126   5.657  1.00  0.00     0.000 C 
BRANCH   6   7
ATOM      7  C   UNL     1       3.847 -18.877   6.525  1.00  0.00     0.000 C 
BRANCH   7   8
ATOM      8  C   UNL     1       3.482 -20.357   6.732  1.00  0.00     0.000 C 
BRANCH   8   9
ATOM      9  C   UNL     1       4.540 -21.150   7.527  1.00  0.00     0.000 C 
BRANCH   9  10
ATOM     10  C   UNL     1       5.410 -20.238   8.407  1.00  0.00     0.000 C 
BRANCH  10  11
ATOM     11  C   UNL     1       5.029 -20.302   9.897  1.00  0.00     0.000 C 
BRANCH  11  12
ATOM     12  C   UNL     1       5.750 -19.279  10.794  1.00  0.00     0.000 C 
BRANCH  12  13
ATOM     13  C   UNL     1       7.158 -19.740  11.211  1.00  0.00     0.006 C 
BRANCH  13  14
ATOM     14  C   UNL     1       8.237 -18.711  10.846  1.00  0.00     0.053 C 
BRANCH  14  15
ATOM     15  C   UNL     1       9.240 -19.248   9.868  1.00  0.00     0.041 C 
ATOM     16  O   UNL     1       8.859 -19.839   8.822  1.00  0.00    -0.550 OA
ATOM     17  O   UNL     1      10.599 -19.157  10.148  1.00  0.00    -0.550 OA
ENDBRANCH  14  15
ENDBRANCH  13  14
ENDBRANCH  12  13
ENDBRANCH  11  12
ENDBRANCH  10  11
ENDBRANCH   9  10
ENDBRANCH   8   9
ENDBRANCH   7   8
ENDBRANCH   6   7
ENDBRANCH   5   6
ENDBRANCH   4   5
ENDBRANCH   3   4
ENDBRANCH   2   3
ENDBRANCH   1   2
BRANCH   1  18
ATOM     18  C   UNL     1       4.085 -21.211   1.858  1.00  0.00     0.000 C 
BRANCH  18  19
ATOM     19  C   UNL     1       4.401 -21.259   3.369  1.00  0.00     0.000 C 
BRANCH  19  20
ATOM     20  C   UNL     1       5.910 -21.198   3.680  1.00  0.00     0.000 C 
BRANCH  20  21
ATOM     21  C   UNL     1       6.451 -19.780   3.962  1.00  0.00     0.000 C 
BRANCH  21  22
ATOM     22  C   UNL     1       7.203 -19.610   5.297  1.00  0.00     0.000 C 
BRANCH  22  23
ATOM     23  C   UNL     1       8.663 -19.132   5.173  1.00  0.00     0.000 C 
BRANCH  23  24
ATOM     24  C   UNL     1       8.956 -18.281   3.925  1.00  0.00    -0.000 C 
BRANCH  24  25
ATOM     25  C   UNL     1       9.648 -16.951   4.266  1.00  0.00    -0.000 C 
BRANCH  25  26
ATOM     26  C   UNL     1       9.821 -16.746   5.780  1.00  0.00    -0.000 C 
BRANCH  26  27
ATOM     27  C   UNL     1       9.604 -15.282   6.203  1.00  0.00    -0.000 C 
BRANCH  27  28
ATOM     28  C   UNL     1       8.350 -15.098   7.074  1.00  0.00    -0.000 C 
BRANCH  28  29
ATOM     29  C   UNL     1       8.126 -16.265   8.053  1.00  0.00    -0.000 C 
BRANCH  29  30
ATOM     30  C   UNL     1       6.759 -16.948   7.840  1.00  0.00    -0.000 C 
BRANCH  30  31
ATOM     31  C   UNL     1       5.605 -16.277   8.604  1.00  0.00    -0.003 C 
ATOM     32  C   UNL     1       4.737 -15.388   7.715  1.00  0.00     0.004 C 
ENDBRANCH  30  31
ENDBRANCH  29  30
ENDBRANCH  28  29
ENDBRANCH  27  28
ENDBRANCH  26  27
ENDBRANCH  25  26
ENDBRANCH  24  25
ENDBRANCH  23  24
ENDBRANCH  22  23
ENDBRANCH  21  22
ENDBRANCH  20  21
ENDBRANCH  19  20
ENDBRANCH  18  19
ENDBRANCH   1  18
TORSDOF 28
ENDMDL
