MODEL 1
REMARK VINA RESULT:    -4.421      0.000      0.000
REMARK INTER + INTRA:          -9.681
REMARK INTER:                  -8.297
REMARK INTRA:                  -1.384
REMARK UNBOUND:                -1.384
REMARK SMILES CCCCCCCCC=CCCCCCCCC(=O)[O-]
REMARK SMILES IDX 10 1 9 2 11 3 12 4 13 5 14 6 15 7 16 8 17 9 18 10 19 11
REMARK SMILES IDX 20 12 8 13 7 14 6 15 5 16 4 17 3 18 2 19 1 20
REMARK H PARENT
REMARK Flexibility Score: inf
ROOT
ATOM      1  C   UNL     1       3.486   5.330   9.553  1.00  0.00    -0.031 C 
ATOM      2  C   UNL     1       3.908   6.553   9.922  1.00  0.00    -0.031 C 
ENDROOT
BRANCH   1   3
ATOM      3  C   UNL     1       3.085   4.974   8.142  1.00  0.00     0.027 C 
BRANCH   3   4
ATOM      4  C   UNL     1       4.170   4.138   7.454  1.00  0.00     0.004 C 
BRANCH   4   5
ATOM      5  C   UNL     1       4.409   2.821   8.203  1.00  0.00     0.000 C 
BRANCH   5   6
ATOM      6  C   UNL     1       5.846   2.742   8.735  1.00  0.00     0.000 C 
BRANCH   6   7
ATOM      7  C   UNL     1       6.720   3.847   8.123  1.00  0.00     0.000 C 
BRANCH   7   8
ATOM      8  C   UNL     1       7.779   3.301   7.149  1.00  0.00     0.006 C 
BRANCH   8   9
ATOM      9  C   UNL     1       7.456   3.535   5.665  1.00  0.00     0.053 C 
BRANCH   9  10
ATOM     10  C   UNL     1       8.198   2.588   4.773  1.00  0.00     0.041 C 
ATOM     11  O   UNL     1       8.866   3.026   3.800  1.00  0.00    -0.550 OA
ATOM     12  O   UNL     1       8.175   1.224   5.033  1.00  0.00    -0.550 OA
ENDBRANCH   9  10
ENDBRANCH   8   9
ENDBRANCH   7   8
ENDBRANCH   6   7
ENDBRANCH   5   6
ENDBRANCH   4   5
ENDBRANCH   3   4
ENDBRANCH   1   3
BRANCH   2  13
ATOM     13  C   UNL     1       4.080   7.716   8.976  1.00  0.00     0.027 C 
BRANCH  13  14
ATOM     14  C   UNL     1       3.868   9.066   9.677  1.00  0.00     0.004 C 
BRANCH  14  15
ATOM     15  C   UNL     1       4.508  10.228   8.903  1.00  0.00     0.000 C 
BRANCH  15  16
ATOM     16  C   UNL     1       5.160   9.733   7.606  1.00  0.00     0.000 C 
BRANCH  16  17
ATOM     17  C   UNL     1       4.875  10.694   6.445  1.00  0.00    -0.000 C 
BRANCH  17  18
ATOM     18  C   UNL     1       4.018  11.880   6.911  1.00  0.00    -0.000 C 
BRANCH  18  19
ATOM     19  C   UNL     1       4.642  13.235   6.546  1.00  0.00    -0.003 C 
ATOM     20  C   UNL     1       5.396  13.873   7.712  1.00  0.00     0.004 C 
ENDBRANCH  18  19
ENDBRANCH  17  18
ENDBRANCH  16  17
ENDBRANCH  15  16
ENDBRANCH  14  15
ENDBRANCH  13  14
ENDBRANCH   2  13
TORSDOF 15
ENDMDL
MODEL 2
REMARK VINA RESULT:    -4.339      3.654      8.044
REMARK INTER + INTRA:          -9.527
REMARK INTER:                  -7.920
REMARK INTRA:                  -1.607
REMARK UNBOUND:                -1.384
REMARK SMILES CCCCCCCCC=CCCCCCCCC(=O)[O-]
REMARK SMILES IDX 10 1 9 2 11 3 12 4 13 5 14 6 15 7 16 8 17 9 18 10 19 11
REMARK SMILES IDX 20 12 8 13 7 14 6 15 5 16 4 17 3 18 2 19 1 20
REMARK H PARENT
REMARK Flexibility Score: inf
ROOT
ATOM      1  C   UNL     1       4.876  11.269   6.270  1.00  0.00    -0.031 C 
ATOM      2  C   UNL     1       5.265  10.256   7.065  1.00  0.00    -0.031 C 
ENDROOT
BRANCH   1   3
ATOM      3  C   UNL     1       4.116  12.475   6.765  1.00  0.00     0.027 C 
BRANCH   3   4
ATOM      4  C   UNL     1       4.910  13.765   6.528  1.00  0.00     0.004 C 
BRANCH   4   5
ATOM      5  C   UNL     1       5.421  14.348   7.852  1.00  0.00     0.000 C 
BRANCH   5   6
ATOM      6  C   UNL     1       6.774  13.736   8.237  1.00  0.00     0.000 C 
BRANCH   6   7
ATOM      7  C   UNL     1       7.919  14.401   7.460  1.00  0.00     0.000 C 
BRANCH   7   8
ATOM      8  C   UNL     1       9.004  13.401   7.023  1.00  0.00     0.006 C 
BRANCH   8   9
ATOM      9  C   UNL     1       8.531  11.940   6.960  1.00  0.00     0.053 C 
BRANCH   9  10
ATOM     10  C   UNL     1       9.461  11.084   6.156  1.00  0.00     0.041 C 
ATOM     11  O   UNL     1       9.977  11.528   5.097  1.00  0.00    -0.550 OA
ATOM     12  O   UNL     1       9.781   9.805   6.593  1.00  0.00    -0.550 OA
ENDBRANCH   9  10
ENDBRANCH   8   9
ENDBRANCH   7   8
ENDBRANCH   6   7
ENDBRANCH   5   6
ENDBRANCH   4   5
ENDBRANCH   3   4
ENDBRANCH   1   3
BRANCH   2  13
ATOM     13  C   UNL     1       5.036  10.206   8.556  1.00  0.00     0.027 C 
BRANCH  13  14
ATOM     14  C   UNL     1       3.812   9.355   8.924  1.00  0.00     0.004 C 
BRANCH  14  15
ATOM     15  C   UNL     1       4.096   8.407  10.099  1.00  0.00     0.000 C 
BRANCH  15  16
ATOM     16  C   UNL     1       4.713   7.092   9.608  1.00  0.00     0.000 C 
BRANCH  16  17
ATOM     17  C   UNL     1       3.724   6.314   8.730  1.00  0.00    -0.000 C 
BRANCH  17  18
ATOM     18  C   UNL     1       3.019   5.215   9.540  1.00  0.00    -0.000 C 
BRANCH  18  19
ATOM     19  C   UNL     1       2.402   4.130   8.645  1.00  0.00    -0.003 C 
ATOM     20  C   UNL     1       2.751   4.311   7.169  1.00  0.00     0.004 C 
ENDBRANCH  18  19
ENDBRANCH  17  18
ENDBRANCH  16  17
ENDBRANCH  15  16
ENDBRANCH  14  15
ENDBRANCH  13  14
ENDBRANCH   2  13
TORSDOF 15
ENDMDL
MODEL 3
REMARK VINA RESULT:    -4.146      4.205      8.612
REMARK INTER + INTRA:          -9.165
REMARK INTER:                  -8.165
REMARK INTRA:                  -1.000
REMARK UNBOUND:                -1.384
REMARK SMILES CCCCCCCCC=CCCCCCCCC(=O)[O-]
REMARK SMILES IDX 10 1 9 2 11 3 12 4 13 5 14 6 15 7 16 8 17 9 18 10 19 11
REMARK SMILES IDX 20 12 8 13 7 14 6 15 5 16 4 17 3 18 2 19 1 20
REMARK H PARENT
REMARK Flexibility Score: inf
ROOT
ATOM      1  C   UNL     1       3.792   7.219   9.857  1.00  0.00    -0.031 C 
ATOM      2  C   UNL     1       3.700   5.900   9.612  1.00  0.00    -0.031 C 
ENDROOT
BRANCH   1   3
ATOM      3  C   UNL     1       4.256   8.228   8.836  1.00  0.00     0.027 C 
BRANCH   3   4
ATOM      4  C   UNL     1       4.055   9.661   9.344  1.00  0.00     0.004 C 
BRANCH   4   5
ATOM      5  C   UNL     1       4.971  10.642   8.601  1.00  0.00     0.000 C 
BRANCH   5   6
ATOM      6  C   UNL     1       5.250  10.161   7.172  1.00  0.00     0.000 C 
BRANCH   6   7
ATOM      7  C   UNL     1       4.836  11.222   6.143  1.00  0.00     0.000 C 
BRANCH   7   8
ATOM      8  C   UNL     1       4.152  12.442   6.784  1.00  0.00     0.006 C 
BRANCH   8   9
ATOM      9  C   UNL     1       4.754  13.795   6.374  1.00  0.00     0.053 C 
BRANCH   9  10
ATOM     10  C   UNL     1       5.636  14.365   7.442  1.00  0.00     0.041 C 
ATOM     11  O   UNL     1       5.229  14.431   8.632  1.00  0.00    -0.550 OA
ATOM     12  O   UNL     1       6.919  14.796   7.129  1.00  0.00    -0.550 OA
ENDBRANCH   9  10
ENDBRANCH   8   9
ENDBRANCH   7   8
ENDBRANCH   6   7
ENDBRANCH   5   6
ENDBRANCH   4   5
ENDBRANCH   3   4
ENDBRANCH   1   3
BRANCH   2  13
ATOM     13  C   UNL     1       4.002   5.257   8.280  1.00  0.00     0.027 C 
BRANCH  13  14
ATOM     14  C   UNL     1       3.434   3.833   8.184  1.00  0.00     0.004 C 
BRANCH  14  15
ATOM     15  C   UNL     1       4.534   2.764   8.255  1.00  0.00     0.000 C 
BRANCH  15  16
ATOM     16  C   UNL     1       5.927   3.402   8.202  1.00  0.00     0.000 C 
BRANCH  16  17
ATOM     17  C   UNL     1       6.853   2.625   7.256  1.00  0.00    -0.000 C 
BRANCH  17  18
ATOM     18  C   UNL     1       7.224   3.475   6.031  1.00  0.00    -0.000 C 
BRANCH  18  19
ATOM     19  C   UNL     1       8.583   3.081   5.433  1.00  0.00    -0.003 C 
ATOM     20  C   UNL     1       8.866   3.773   4.100  1.00  0.00     0.004 C 
ENDBRANCH  18  19
ENDBRANCH  17  18
ENDBRANCH  16  17
ENDBRANCH  15  16
ENDBRANCH  14  15
ENDBRANCH  13  14
ENDBRANCH   2  13
TORSDOF 15
ENDMDL
MODEL 4
REMARK VINA RESULT:    -4.127     13.991     15.619
REMARK INTER + INTRA:          -9.130
REMARK INTER:                  -7.449
REMARK INTRA:                  -1.681
REMARK UNBOUND:                -1.384
REMARK SMILES CCCCCCCCC=CCCCCCCCC(=O)[O-]
REMARK SMILES IDX 10 1 9 2 11 3 12 4 13 5 14 6 15 7 16 8 17 9 18 10 19 11
REMARK SMILES IDX 20 12 8 13 7 14 6 15 5 16 4 17 3 18 2 19 1 20
REMARK H PARENT
REMARK Flexibility Score: inf
ROOT
ATOM      1  C   UNL     1       2.562   7.915  -8.895  1.00  0.00    -0.031 C 
ATOM      2  C   UNL     1       3.589   8.523  -8.274  1.00  0.00    -0.031 C 
ENDROOT
BRANCH   1   3
ATOM      3  C   UNL     1       2.731   6.777  -9.872  1.00  0.00     0.027 C 
BRANCH   3   4
ATOM      4  C   UNL     1       1.966   5.532  -9.408  1.00  0.00     0.004 C 
BRANCH   4   5
ATOM      5  C   UNL     1       2.860   4.287  -9.455  1.00  0.00     0.000 C 
BRANCH   5   6
ATOM      6  C   UNL     1       4.343   4.672  -9.418  1.00  0.00     0.000 C 
BRANCH   6   7
ATOM      7  C   UNL     1       5.145   3.694  -8.547  1.00  0.00     0.000 C 
BRANCH   7   8
ATOM      8  C   UNL     1       4.388   2.383  -8.270  1.00  0.00     0.006 C 
BRANCH   8   9
ATOM      9  C   UNL     1       5.244   1.282  -7.623  1.00  0.00     0.053 C 
BRANCH   9  10
ATOM     10  C   UNL     1       4.757   0.926  -6.252  1.00  0.00     0.041 C 
ATOM     11  O   UNL     1       5.353   1.365  -5.233  1.00  0.00    -0.550 OA
ATOM     12  O   UNL     1       3.627   0.132  -6.099  1.00  0.00    -0.550 OA
ENDBRANCH   9  10
ENDBRANCH   8   9
ENDBRANCH   7   8
ENDBRANCH   6   7
ENDBRANCH   5   6
ENDBRANCH   4   5
ENDBRANCH   3   4
ENDBRANCH   1   3
BRANCH   2  13
ATOM     13  C   UNL     1       5.036   8.125  -8.432  1.00  0.00     0.027 C 
BRANCH  13  14
ATOM     14  C   UNL     1       5.691   7.781  -7.086  1.00  0.00     0.004 C 
BRANCH  14  15
ATOM     15  C   UNL     1       7.150   8.254  -7.013  1.00  0.00     0.000 C 
BRANCH  15  16
ATOM     16  C   UNL     1       7.388   9.117  -5.768  1.00  0.00     0.000 C 
BRANCH  16  17
ATOM     17  C   UNL     1       8.141  10.405  -6.126  1.00  0.00    -0.000 C 
BRANCH  17  18
ATOM     18  C   UNL     1       7.174  11.592  -6.243  1.00  0.00    -0.000 C 
BRANCH  18  19
ATOM     19  C   UNL     1       6.439  11.621  -7.591  1.00  0.00    -0.003 C 
ATOM     20  C   UNL     1       4.952  11.943  -7.447  1.00  0.00     0.004 C 
ENDBRANCH  18  19
ENDBRANCH  17  18
ENDBRANCH  16  17
ENDBRANCH  15  16
ENDBRANCH  14  15
ENDBRANCH  13  14
ENDBRANCH   2  13
TORSDOF 15
ENDMDL
MODEL 5
REMARK VINA RESULT:    -4.053     18.092     20.661
REMARK INTER + INTRA:          -8.991
REMARK INTER:                  -6.753
REMARK INTRA:                  -2.238
REMARK UNBOUND:                -1.384
REMARK SMILES CCCCCCCCC=CCCCCCCCC(=O)[O-]
REMARK SMILES IDX 10 1 9 2 11 3 12 4 13 5 14 6 15 7 16 8 17 9 18 10 19 11
REMARK SMILES IDX 20 12 8 13 7 14 6 15 5 16 4 17 3 18 2 19 1 20
REMARK H PARENT
REMARK Flexibility Score: inf
ROOT
ATOM      1  C   UNL     1      -6.955   1.586  -6.350  1.00  0.00    -0.031 C 
ATOM      2  C   UNL     1      -7.097   0.296  -6.705  1.00  0.00    -0.031 C 
ENDROOT
BRANCH   1   3
ATOM      3  C   UNL     1      -8.028   2.629  -6.543  1.00  0.00     0.027 C 
BRANCH   3   4
ATOM      4  C   UNL     1      -8.154   3.527  -5.307  1.00  0.00     0.004 C 
BRANCH   4   5
ATOM      5  C   UNL     1      -9.426   3.199  -4.515  1.00  0.00     0.000 C 
BRANCH   5   6
ATOM      6  C   UNL     1      -9.084   2.659  -3.121  1.00  0.00     0.000 C 
BRANCH   6   7
ATOM      7  C   UNL     1      -9.616   1.230  -2.939  1.00  0.00     0.000 C 
BRANCH   7   8
ATOM      8  C   UNL     1      -8.575   0.155  -3.299  1.00  0.00     0.006 C 
BRANCH   8   9
ATOM      9  C   UNL     1      -7.161   0.438  -2.768  1.00  0.00     0.053 C 
BRANCH   9  10
ATOM     10  C   UNL     1      -6.953  -0.129  -1.397  1.00  0.00     0.041 C 
ATOM     11  O   UNL     1      -7.281   0.536  -0.379  1.00  0.00    -0.550 OA
ATOM     12  O   UNL     1      -6.424  -1.404  -1.244  1.00  0.00    -0.550 OA
ENDBRANCH   9  10
ENDBRANCH   8   9
ENDBRANCH   7   8
ENDBRANCH   6   7
ENDBRANCH   5   6
ENDBRANCH   4   5
ENDBRANCH   3   4
ENDBRANCH   1   3
BRANCH   2  13
ATOM     13  C   UNL     1      -8.353  -0.291  -7.300  1.00  0.00     0.027 C 
BRANCH  13  14
ATOM     14  C   UNL     1      -8.277  -1.820  -7.418  1.00  0.00     0.004 C 
BRANCH  14  15
ATOM     15  C   UNL     1      -6.832  -2.318  -7.576  1.00  0.00     0.000 C 
BRANCH  15  16
ATOM     16  C   UNL     1      -6.743  -3.831  -7.344  1.00  0.00     0.000 C 
BRANCH  16  17
ATOM     17  C   UNL     1      -7.738  -4.283  -6.267  1.00  0.00    -0.000 C 
BRANCH  17  18
ATOM     18  C   UNL     1      -7.036  -5.125  -5.191  1.00  0.00    -0.000 C 
BRANCH  18  19
ATOM     19  C   UNL     1      -7.515  -4.782  -3.772  1.00  0.00    -0.003 C 
ATOM     20  C   UNL     1      -8.363  -3.512  -3.724  1.00  0.00     0.004 C 
ENDBRANCH  18  19
ENDBRANCH  17  18
ENDBRANCH  16  17
ENDBRANCH  15  16
ENDBRANCH  14  15
ENDBRANCH  13  14
ENDBRANCH   2  13
TORSDOF 15
ENDMDL
MODEL 6
REMARK VINA RESULT:    -4.045     13.932     16.910
REMARK INTER + INTRA:          -8.976
REMARK INTER:                  -7.752
REMARK INTRA:                  -1.224
REMARK UNBOUND:                -1.384
REMARK SMILES CCCCCCCCC=CCCCCCCCC(=O)[O-]
REMARK SMILES IDX 10 1 9 2 11 3 12 4 13 5 14 6 15 7 16 8 17 9 18 10 19 11
REMARK SMILES IDX 20 12 8 13 7 14 6 15 5 16 4 17 3 18 2 19 1 20
REMARK H PARENT
REMARK Flexibility Score: inf
ROOT
ATOM      1  C   UNL     1       3.000   8.007  -8.622  1.00  0.00    -0.031 C 
ATOM      2  C   UNL     1       2.169   7.123  -9.202  1.00  0.00    -0.031 C 
ENDROOT
BRANCH   1   3
ATOM      3  C   UNL     1       4.504   7.932  -8.725  1.00  0.00     0.027 C 
BRANCH   3   4
ATOM      4  C   UNL     1       5.141   7.696  -7.351  1.00  0.00     0.004 C 
BRANCH   4   5
ATOM      5  C   UNL     1       6.670   7.792  -7.429  1.00  0.00     0.000 C 
BRANCH   5   6
ATOM      6  C   UNL     1       7.158   9.176  -6.982  1.00  0.00     0.000 C 
BRANCH   6   7
ATOM      7  C   UNL     1       8.082   9.065  -5.761  1.00  0.00     0.000 C 
BRANCH   7   8
ATOM      8  C   UNL     1       8.128  10.358  -4.927  1.00  0.00     0.006 C 
BRANCH   8   9
ATOM      9  C   UNL     1       7.592  11.601  -5.654  1.00  0.00     0.053 C 
BRANCH   9  10
ATOM     10  C   UNL     1       7.988  12.870  -4.964  1.00  0.00     0.041 C 
ATOM     11  O   UNL     1       7.106  13.661  -4.538  1.00  0.00    -0.550 OA
ATOM     12  O   UNL     1       9.330  13.165  -4.766  1.00  0.00    -0.550 OA
ENDBRANCH   9  10
ENDBRANCH   8   9
ENDBRANCH   7   8
ENDBRANCH   6   7
ENDBRANCH   5   6
ENDBRANCH   4   5
ENDBRANCH   3   4
ENDBRANCH   1   3
BRANCH   2  13
ATOM     13  C   UNL     1       2.618   5.969 -10.065  1.00  0.00     0.027 C 
BRANCH  13  14
ATOM     14  C   UNL     1       2.492   4.622  -9.340  1.00  0.00     0.004 C 
BRANCH  14  15
ATOM     15  C   UNL     1       3.724   3.729  -9.556  1.00  0.00     0.000 C 
BRANCH  15  16
ATOM     16  C   UNL     1       4.901   4.198  -8.693  1.00  0.00     0.000 C 
BRANCH  16  17
ATOM     17  C   UNL     1       5.591   3.009  -8.011  1.00  0.00    -0.000 C 
BRANCH  17  18
ATOM     18  C   UNL     1       4.568   1.935  -7.613  1.00  0.00    -0.000 C 
BRANCH  18  19
ATOM     19  C   UNL     1       4.723   1.488  -6.152  1.00  0.00    -0.003 C 
ATOM     20  C   UNL     1       4.005   0.172  -5.856  1.00  0.00     0.004 C 
ENDBRANCH  18  19
ENDBRANCH  17  18
ENDBRANCH  16  17
ENDBRANCH  15  16
ENDBRANCH  14  15
ENDBRANCH  13  14
ENDBRANCH   2  13
TORSDOF 15
ENDMDL
MODEL 7
REMARK VINA RESULT:    -4.022     13.690     15.679
REMARK INTER + INTRA:          -8.933
REMARK INTER:                  -7.033
REMARK INTRA:                  -1.900
REMARK UNBOUND:                -1.384
REMARK SMILES CCCCCCCCC=CCCCCCCCC(=O)[O-]
REMARK SMILES IDX 10 1 9 2 11 3 12 4 13 5 14 6 15 7 16 8 17 9 18 10 19 11
REMARK SMILES IDX 20 12 8 13 7 14 6 15 5 16 4 17 3 18 2 19 1 20
REMARK H PARENT
REMARK Flexibility Score: inf
ROOT
ATOM      1  C   UNL     1       3.499   8.663  -8.314  1.00  0.00    -0.031 C 
ATOM      2  C   UNL     1       4.563   8.567  -7.497  1.00  0.00    -0.031 C 
ENDROOT
BRANCH   1   3
ATOM      3  C   UNL     1       3.178   7.657  -9.391  1.00  0.00     0.027 C 
BRANCH   3   4
ATOM      4  C   UNL     1       1.839   6.962  -9.118  1.00  0.00     0.004 C 
BRANCH   4   5
ATOM      5  C   UNL     1       1.902   5.477  -9.496  1.00  0.00     0.000 C 
BRANCH   5   6
ATOM      6  C   UNL     1       3.337   5.053  -9.830  1.00  0.00     0.000 C 
BRANCH   6   7
ATOM      7  C   UNL     1       3.713   3.756  -9.099  1.00  0.00     0.000 C 
BRANCH   7   8
ATOM      8  C   UNL     1       5.212   3.424  -9.202  1.00  0.00     0.006 C 
BRANCH   8   9
ATOM      9  C   UNL     1       6.035   3.817  -7.965  1.00  0.00     0.053 C 
BRANCH   9  10
ATOM     10  C   UNL     1       6.149   2.689  -6.986  1.00  0.00     0.041 C 
ATOM     11  O   UNL     1       6.216   1.500  -7.394  1.00  0.00    -0.550 OA
ATOM     12  O   UNL     1       6.212   2.954  -5.624  1.00  0.00    -0.550 OA
ENDBRANCH   9  10
ENDBRANCH   8   9
ENDBRANCH   7   8
ENDBRANCH   6   7
ENDBRANCH   5   6
ENDBRANCH   4   5
ENDBRANCH   3   4
ENDBRANCH   1   3
BRANCH   2  13
ATOM     13  C   UNL     1       5.551   7.426  -7.515  1.00  0.00     0.027 C 
BRANCH  13  14
ATOM     14  C   UNL     1       6.908   7.846  -8.100  1.00  0.00     0.004 C 
BRANCH  14  15
ATOM     15  C   UNL     1       6.960   9.346  -8.424  1.00  0.00     0.000 C 
BRANCH  15  16
ATOM     16  C   UNL     1       8.012  10.059  -7.566  1.00  0.00     0.000 C 
BRANCH  16  17
ATOM     17  C   UNL     1       7.368  10.718  -6.340  1.00  0.00    -0.000 C 
BRANCH  17  18
ATOM     18  C   UNL     1       8.222  10.493  -5.083  1.00  0.00    -0.000 C 
BRANCH  18  19
ATOM     19  C   UNL     1       8.009   9.102  -4.468  1.00  0.00    -0.003 C 
ATOM     20  C   UNL     1       9.234   8.199  -4.608  1.00  0.00     0.004 C 
ENDBRANCH  18  19
ENDBRANCH  17  18
ENDBRANCH  16  17
ENDBRANCH  15  16
ENDBRANCH  14  15
ENDBRANCH  13  14
ENDBRANCH   2  13
TORSDOF 15
ENDMDL
MODEL 8
REMARK VINA RESULT:    -3.953      4.894      9.749
REMARK INTER + INTRA:          -8.803
REMARK INTER:                  -6.133
REMARK INTRA:                  -2.670
REMARK UNBOUND:                -1.384
REMARK SMILES CCCCCCCCC=CCCCCCCCC(=O)[O-]
REMARK SMILES IDX 10 1 9 2 11 3 12 4 13 5 14 6 15 7 16 8 17 9 18 10 19 11
REMARK SMILES IDX 20 12 8 13 7 14 6 15 5 16 4 17 3 18 2 19 1 20
REMARK H PARENT
REMARK Flexibility Score: inf
ROOT
ATOM      1  C   UNL     1       7.879   0.947   5.138  1.00  0.00    -0.031 C 
ATOM      2  C   UNL     1       7.684  -0.083   5.980  1.00  0.00    -0.031 C 
ENDROOT
BRANCH   1   3
ATOM      3  C   UNL     1       8.635   2.199   5.511  1.00  0.00     0.027 C 
BRANCH   3   4
ATOM      4  C   UNL     1       7.771   3.449   5.302  1.00  0.00     0.004 C 
BRANCH   4   5
ATOM      5  C   UNL     1       6.625   3.503   6.320  1.00  0.00     0.000 C 
BRANCH   5   6
ATOM      6  C   UNL     1       7.157   3.390   7.754  1.00  0.00     0.000 C 
BRANCH   6   7
ATOM      7  C   UNL     1       6.007   3.417   8.771  1.00  0.00     0.000 C 
BRANCH   7   8
ATOM      8  C   UNL     1       4.759   2.659   8.284  1.00  0.00     0.006 C 
BRANCH   8   9
ATOM      9  C   UNL     1       3.432   3.385   8.552  1.00  0.00     0.053 C 
BRANCH   9  10
ATOM     10  C   UNL     1       3.217   4.530   7.610  1.00  0.00     0.041 C 
ATOM     11  O   UNL     1       2.757   4.324   6.457  1.00  0.00    -0.550 OA
ATOM     12  O   UNL     1       3.497   5.828   8.018  1.00  0.00    -0.550 OA
ENDBRANCH   9  10
ENDBRANCH   8   9
ENDBRANCH   7   8
ENDBRANCH   6   7
ENDBRANCH   5   6
ENDBRANCH   4   5
ENDBRANCH   3   4
ENDBRANCH   1   3
BRANCH   2  13
ATOM     13  C   UNL     1       8.227  -0.150   7.386  1.00  0.00     0.027 C 
BRANCH  13  14
ATOM     14  C   UNL     1       7.109  -0.285   8.431  1.00  0.00     0.004 C 
BRANCH  14  15
ATOM     15  C   UNL     1       5.801  -0.806   7.817  1.00  0.00     0.000 C 
BRANCH  15  16
ATOM     16  C   UNL     1       5.212  -1.943   8.660  1.00  0.00     0.000 C 
BRANCH  16  17
ATOM     17  C   UNL     1       6.320  -2.854   9.207  1.00  0.00    -0.000 C 
BRANCH  17  18
ATOM     18  C   UNL     1       6.519  -4.080   8.304  1.00  0.00    -0.000 C 
BRANCH  18  19
ATOM     19  C   UNL     1       7.676  -3.897   7.311  1.00  0.00    -0.003 C 
ATOM     20  C   UNL     1       7.203  -3.823   5.859  1.00  0.00     0.004 C 
ENDBRANCH  18  19
ENDBRANCH  17  18
ENDBRANCH  16  17
ENDBRANCH  15  16
ENDBRANCH  14  15
ENDBRANCH  13  14
ENDBRANCH   2  13
TORSDOF 15
ENDMDL
MODEL 9
REMARK VINA RESULT:    -3.928     18.331     20.053
REMARK INTER + INTRA:          -8.756
REMARK INTER:                  -6.035
REMARK INTRA:                  -2.721
REMARK UNBOUND:                -1.384
REMARK SMILES CCCCCCCCC=CCCCCCCCC(=O)[O-]
REMARK SMILES IDX 10 1 9 2 11 3 12 4 13 5 14 6 15 7 16 8 17 9 18 10 19 11
REMARK SMILES IDX 20 12 8 13 7 14 6 15 5 16 4 17 3 18 2 19 1 20
REMARK H PARENT
REMARK Flexibility Score: inf
ROOT
ATOM      1  C   UNL     1      -7.605  -0.274  -6.259  1.00  0.00    -0.031 C 
ATOM      2  C   UNL     1      -6.896   0.868  -6.302  1.00  0.00    -0.031 C 
ENDROOT
BRANCH   1   3
ATOM      3  C   UNL     1      -9.110  -0.327  -6.355  1.00  0.00     0.027 C 
BRANCH   3   4
ATOM      4  C   UNL     1      -9.689  -1.380  -5.402  1.00  0.00     0.004 C 
BRANCH   4   5
ATOM      5  C   UNL     1      -8.607  -1.923  -4.460  1.00  0.00     0.000 C 
BRANCH   5   6
ATOM      6  C   UNL     1      -9.053  -3.238  -3.809  1.00  0.00     0.000 C 
BRANCH   6   7
ATOM      7  C   UNL     1      -8.015  -4.346  -4.039  1.00  0.00     0.000 C 
BRANCH   7   8
ATOM      8  C   UNL     1      -8.058  -4.919  -5.467  1.00  0.00     0.006 C 
BRANCH   8   9
ATOM      9  C   UNL     1      -6.757  -4.734  -6.264  1.00  0.00     0.053 C 
BRANCH   9  10
ATOM     10  C   UNL     1      -6.902  -3.710  -7.346  1.00  0.00     0.041 C 
ATOM     11  O   UNL     1      -5.887  -3.113  -7.794  1.00  0.00    -0.550 OA
ATOM     12  O   UNL     1      -8.153  -3.434  -7.882  1.00  0.00    -0.550 OA
ENDBRANCH   9  10
ENDBRANCH   8   9
ENDBRANCH   7   8
ENDBRANCH   6   7
ENDBRANCH   5   6
ENDBRANCH   4   5
ENDBRANCH   3   4
ENDBRANCH   1   3
BRANCH   2  13
ATOM     13  C   UNL     1      -7.498   2.238  -6.497  1.00  0.00     0.027 C 
BRANCH  13  14
ATOM     14  C   UNL     1      -7.492   3.061  -5.200  1.00  0.00     0.004 C 
BRANCH  14  15
ATOM     15  C   UNL     1      -8.906   3.486  -4.777  1.00  0.00     0.000 C 
BRANCH  15  16
ATOM     16  C   UNL     1      -9.197   3.067  -3.330  1.00  0.00     0.000 C 
BRANCH  16  17
ATOM     17  C   UNL     1      -8.991   1.559  -3.142  1.00  0.00    -0.000 C 
BRANCH  17  18
ATOM     18  C   UNL     1      -8.130   1.272  -1.903  1.00  0.00    -0.000 C 
BRANCH  18  19
ATOM     19  C   UNL     1      -6.902   0.409  -2.227  1.00  0.00    -0.003 C 
ATOM     20  C   UNL     1      -6.834  -0.864  -1.384  1.00  0.00     0.004 C 
ENDBRANCH  18  19
ENDBRANCH  17  18
ENDBRANCH  16  17
ENDBRANCH  15  16
ENDBRANCH  14  15
ENDBRANCH  13  14
ENDBRANCH   2  13
TORSDOF 15
ENDMDL
