MODEL 1
REMARK VINA RESULT:    -4.416      0.000      0.000
REMARK INTER + INTRA:         -16.295
REMARK INTER:                 -11.645
REMARK INTRA:                  -4.651
REMARK UNBOUND:                -4.651
REMARK SMILES CCCCCCCCCCCCCCCCCCCCCCCCCCCCCC(=O)[O-]
REMARK SMILES IDX 16 1 17 2 18 3 19 4 20 5 21 6 22 7 23 8 24 9 25 10 26 11
REMARK SMILES IDX 27 12 28 13 29 14 30 15 31 16 32 17 15 18 14 19 13 20 12 21
REMARK SMILES IDX 11 22 10 23 9 24 8 25 7 26 6 27 5 28 4 29 3 30 2 31 1 32
REMARK H PARENT
REMARK Flexibility Score: inf
ROOT
ATOM      1  C   UNL     1      31.708   5.573  12.243  1.00  0.00     0.000 C 
ENDROOT
BRANCH   1   2
ATOM      2  C   UNL     1      31.934   6.979  12.813  1.00  0.00     0.000 C 
BRANCH   2   3
ATOM      3  C   UNL     1      32.477   7.935  11.740  1.00  0.00     0.000 C 
BRANCH   3   4
ATOM      4  C   UNL     1      33.986   8.191  11.890  1.00  0.00     0.000 C 
BRANCH   4   5
ATOM      5  C   UNL     1      34.644   7.255  12.914  1.00  0.00     0.000 C 
BRANCH   5   6
ATOM      6  C   UNL     1      35.714   6.374  12.246  1.00  0.00     0.000 C 
BRANCH   6   7
ATOM      7  C   UNL     1      36.448   7.092  11.102  1.00  0.00     0.000 C 
BRANCH   7   8
ATOM      8  C   UNL     1      36.876   6.135   9.974  1.00  0.00     0.000 C 
BRANCH   8   9
ATOM      9  C   UNL     1      35.949   4.907   9.860  1.00  0.00     0.000 C 
BRANCH   9  10
ATOM     10  C   UNL     1      35.531   4.564   8.415  1.00  0.00     0.000 C 
BRANCH  10  11
ATOM     11  C   UNL     1      34.708   5.648   7.691  1.00  0.00     0.000 C 
BRANCH  11  12
ATOM     12  C   UNL     1      33.773   6.446   8.619  1.00  0.00     0.000 C 
BRANCH  12  13
ATOM     13  C   UNL     1      33.904   7.972   8.424  1.00  0.00     0.006 C 
BRANCH  13  14
ATOM     14  C   UNL     1      33.562   8.418   6.995  1.00  0.00     0.053 C 
BRANCH  14  15
ATOM     15  C   UNL     1      33.118   9.850   6.956  1.00  0.00     0.041 C 
ATOM     16  O   UNL     1      33.450  10.644   7.875  1.00  0.00    -0.550 OA
ATOM     17  O   UNL     1      32.318  10.300   5.913  1.00  0.00    -0.550 OA
ENDBRANCH  14  15
ENDBRANCH  13  14
ENDBRANCH  12  13
ENDBRANCH  11  12
ENDBRANCH  10  11
ENDBRANCH   9  10
ENDBRANCH   8   9
ENDBRANCH   7   8
ENDBRANCH   6   7
ENDBRANCH   5   6
ENDBRANCH   4   5
ENDBRANCH   3   4
ENDBRANCH   2   3
ENDBRANCH   1   2
BRANCH   1  18
ATOM     18  C   UNL     1      32.149   4.498  13.249  1.00  0.00     0.000 C 
BRANCH  18  19
ATOM     19  C   UNL     1      33.341   3.664  12.746  1.00  0.00     0.000 C 
BRANCH  19  20
ATOM     20  C   UNL     1      32.903   2.301  12.178  1.00  0.00     0.000 C 
BRANCH  20  21
ATOM     21  C   UNL     1      33.442   2.049  10.760  1.00  0.00     0.000 C 
BRANCH  21  22
ATOM     22  C   UNL     1      32.320   1.957   9.711  1.00  0.00     0.000 C 
BRANCH  22  23
ATOM     23  C   UNL     1      32.153   3.257   8.910  1.00  0.00     0.000 C 
BRANCH  23  24
ATOM     24  C   UNL     1      32.072   3.017   7.391  1.00  0.00    -0.000 C 
BRANCH  24  25
ATOM     25  C   UNL     1      31.155   4.030   6.684  1.00  0.00    -0.000 C 
BRANCH  25  26
ATOM     26  C   UNL     1      31.903   4.868   5.632  1.00  0.00    -0.000 C 
BRANCH  26  27
ATOM     27  C   UNL     1      31.251   4.778   4.235  1.00  0.00    -0.000 C 
BRANCH  27  28
ATOM     28  C   UNL     1      30.419   3.503   4.013  1.00  0.00    -0.000 C 
BRANCH  28  29
ATOM     29  C   UNL     1      29.050   3.782   3.381  1.00  0.00    -0.000 C 
BRANCH  29  30
ATOM     30  C   UNL     1      27.931   3.715   4.434  1.00  0.00    -0.000 C 
BRANCH  30  31
ATOM     31  C   UNL     1      27.766   2.308   5.032  1.00  0.00    -0.003 C 
ATOM     32  C   UNL     1      27.875   2.294   6.558  1.00  0.00     0.004 C 
ENDBRANCH  30  31
ENDBRANCH  29  30
ENDBRANCH  28  29
ENDBRANCH  27  28
ENDBRANCH  26  27
ENDBRANCH  25  26
ENDBRANCH  24  25
ENDBRANCH  23  24
ENDBRANCH  22  23
ENDBRANCH  21  22
ENDBRANCH  20  21
ENDBRANCH  19  20
ENDBRANCH  18  19
ENDBRANCH   1  18
TORSDOF 28
ENDMDL
MODEL 2
REMARK VINA RESULT:    -4.100      2.025      4.124
REMARK INTER + INTRA:         -15.462
REMARK INTER:                 -11.660
REMARK INTRA:                  -3.802
REMARK UNBOUND:                -4.651
REMARK SMILES CCCCCCCCCCCCCCCCCCCCCCCCCCCCCC(=O)[O-]
REMARK SMILES IDX 16 1 17 2 18 3 19 4 20 5 21 6 22 7 23 8 24 9 25 10 26 11
REMARK SMILES IDX 27 12 28 13 29 14 30 15 31 16 32 17 15 18 14 19 13 20 12 21
REMARK SMILES IDX 11 22 10 23 9 24 8 25 7 26 6 27 5 28 4 29 3 30 2 31 1 32
REMARK H PARENT
REMARK Flexibility Score: inf
ROOT
ATOM      1  C   UNL     1      37.016   6.801  10.323  1.00  0.00     0.000 C 
ENDROOT
BRANCH   1   2
ATOM      2  C   UNL     1      36.943   6.655  11.848  1.00  0.00     0.000 C 
BRANCH   2   3
ATOM      3  C   UNL     1      35.515   6.321  12.307  1.00  0.00     0.000 C 
BRANCH   3   4
ATOM      4  C   UNL     1      35.478   5.727  13.725  1.00  0.00     0.000 C 
BRANCH   4   5
ATOM      5  C   UNL     1      34.106   5.136  14.082  1.00  0.00     0.000 C 
BRANCH   5   6
ATOM      6  C   UNL     1      34.261   3.822  14.865  1.00  0.00     0.000 C 
BRANCH   6   7
ATOM      7  C   UNL     1      33.290   2.727  14.389  1.00  0.00     0.000 C 
BRANCH   7   8
ATOM      8  C   UNL     1      33.867   1.875  13.243  1.00  0.00     0.000 C 
BRANCH   8   9
ATOM      9  C   UNL     1      33.087   2.052  11.925  1.00  0.00     0.000 C 
BRANCH   9  10
ATOM     10  C   UNL     1      33.419   3.353  11.164  1.00  0.00     0.000 C 
BRANCH  10  11
ATOM     11  C   UNL     1      32.213   4.257  10.845  1.00  0.00     0.000 C 
BRANCH  11  12
ATOM     12  C   UNL     1      31.907   5.300  11.936  1.00  0.00     0.000 C 
BRANCH  12  13
ATOM     13  C   UNL     1      31.949   6.748  11.401  1.00  0.00     0.006 C 
BRANCH  13  14
ATOM     14  C   UNL     1      31.662   7.790  12.491  1.00  0.00     0.053 C 
BRANCH  14  15
ATOM     15  C   UNL     1      32.385   9.077  12.228  1.00  0.00     0.041 C 
ATOM     16  O   UNL     1      33.644   9.109  12.213  1.00  0.00    -0.550 OA
ATOM     17  O   UNL     1      31.664  10.247  12.021  1.00  0.00    -0.550 OA
ENDBRANCH  14  15
ENDBRANCH  13  14
ENDBRANCH  12  13
ENDBRANCH  11  12
ENDBRANCH  10  11
ENDBRANCH   9  10
ENDBRANCH   8   9
ENDBRANCH   7   8
ENDBRANCH   6   7
ENDBRANCH   5   6
ENDBRANCH   4   5
ENDBRANCH   3   4
ENDBRANCH   2   3
ENDBRANCH   1   2
BRANCH   1  18
ATOM     18  C   UNL     1      35.705   6.342   9.665  1.00  0.00     0.000 C 
BRANCH  18  19
ATOM     19  C   UNL     1      35.745   4.868   9.222  1.00  0.00     0.000 C 
BRANCH  19  20
ATOM     20  C   UNL     1      34.754   4.574   8.081  1.00  0.00     0.000 C 
BRANCH  20  21
ATOM     21  C   UNL     1      33.811   5.754   7.796  1.00  0.00     0.000 C 
BRANCH  21  22
ATOM     22  C   UNL     1      32.844   5.468   6.632  1.00  0.00     0.000 C 
BRANCH  22  23
ATOM     23  C   UNL     1      31.918   4.276   6.914  1.00  0.00     0.000 C 
BRANCH  23  24
ATOM     24  C   UNL     1      32.109   3.121   5.915  1.00  0.00    -0.000 C 
BRANCH  24  25
ATOM     25  C   UNL     1      30.898   2.942   4.983  1.00  0.00    -0.000 C 
BRANCH  25  26
ATOM     26  C   UNL     1      30.746   4.103   3.985  1.00  0.00    -0.000 C 
BRANCH  26  27
ATOM     27  C   UNL     1      29.550   3.905   3.029  1.00  0.00    -0.000 C 
BRANCH  27  28
ATOM     28  C   UNL     1      28.823   2.559   3.206  1.00  0.00    -0.000 C 
BRANCH  28  29
ATOM     29  C   UNL     1      27.298   2.707   3.286  1.00  0.00    -0.000 C 
BRANCH  29  30
ATOM     30  C   UNL     1      26.904   3.877   4.202  1.00  0.00    -0.000 C 
BRANCH  30  31
ATOM     31  C   UNL     1      27.135   3.567   5.690  1.00  0.00    -0.003 C 
ATOM     32  C   UNL     1      27.882   4.683   6.422  1.00  0.00     0.004 C 
ENDBRANCH  30  31
ENDBRANCH  29  30
ENDBRANCH  28  29
ENDBRANCH  27  28
ENDBRANCH  26  27
ENDBRANCH  25  26
ENDBRANCH  24  25
ENDBRANCH  23  24
ENDBRANCH  22  23
ENDBRANCH  21  22
ENDBRANCH  20  21
ENDBRANCH  19  20
ENDBRANCH  18  19
ENDBRANCH   1  18
TORSDOF 28
ENDMDL
MODEL 3
REMARK VINA RESULT:    -3.924      1.944      4.299
REMARK INTER + INTRA:         -14.998
REMARK INTER:                 -11.113
REMARK INTRA:                  -3.885
REMARK UNBOUND:                -4.651
REMARK SMILES CCCCCCCCCCCCCCCCCCCCCCCCCCCCCC(=O)[O-]
REMARK SMILES IDX 16 1 17 2 18 3 19 4 20 5 21 6 22 7 23 8 24 9 25 10 26 11
REMARK SMILES IDX 27 12 28 13 29 14 30 15 31 16 32 17 15 18 14 19 13 20 12 21
REMARK SMILES IDX 11 22 10 23 9 24 8 25 7 26 6 27 5 28 4 29 3 30 2 31 1 32
REMARK H PARENT
REMARK Flexibility Score: inf
ROOT
ATOM      1  C   UNL     1      35.490   5.738  12.119  1.00  0.00     0.000 C 
ENDROOT
BRANCH   1   2
ATOM      2  C   UNL     1      35.399   5.893  13.642  1.00  0.00     0.000 C 
BRANCH   2   3
ATOM      3  C   UNL     1      34.127   5.231  14.194  1.00  0.00     0.000 C 
BRANCH   3   4
ATOM      4  C   UNL     1      34.312   3.726  14.451  1.00  0.00     0.000 C 
BRANCH   4   5
ATOM      5  C   UNL     1      33.060   2.909  14.102  1.00  0.00     0.000 C 
BRANCH   5   6
ATOM      6  C   UNL     1      33.343   1.936  12.945  1.00  0.00     0.000 C 
BRANCH   6   7
ATOM      7  C   UNL     1      33.733   2.655  11.643  1.00  0.00     0.000 C 
BRANCH   7   8
ATOM      8  C   UNL     1      32.511   3.120  10.829  1.00  0.00     0.000 C 
BRANCH   8   9
ATOM      9  C   UNL     1      32.324   4.650  10.866  1.00  0.00     0.000 C 
BRANCH   9  10
ATOM     10  C   UNL     1      31.460   5.153  12.041  1.00  0.00     0.000 C 
BRANCH  10  11
ATOM     11  C   UNL     1      31.383   6.684  12.196  1.00  0.00     0.000 C 
BRANCH  11  12
ATOM     12  C   UNL     1      32.611   7.431  11.644  1.00  0.00     0.000 C 
BRANCH  12  13
ATOM     13  C   UNL     1      32.720   8.874  12.184  1.00  0.00     0.006 C 
BRANCH  13  14
ATOM     14  C   UNL     1      31.395   9.393  12.758  1.00  0.00     0.053 C 
BRANCH  14  15
ATOM     15  C   UNL     1      31.111  10.795  12.309  1.00  0.00     0.041 C 
ATOM     16  O   UNL     1      32.038  11.644  12.249  1.00  0.00    -0.550 OA
ATOM     17  O   UNL     1      29.813  11.168  11.978  1.00  0.00    -0.550 OA
ENDBRANCH  14  15
ENDBRANCH  13  14
ENDBRANCH  12  13
ENDBRANCH  11  12
ENDBRANCH  10  11
ENDBRANCH   9  10
ENDBRANCH   8   9
ENDBRANCH   7   8
ENDBRANCH   6   7
ENDBRANCH   5   6
ENDBRANCH   4   5
ENDBRANCH   3   4
ENDBRANCH   2   3
ENDBRANCH   1   2
BRANCH   1  18
ATOM     18  C   UNL     1      36.324   6.872  11.502  1.00  0.00     0.000 C 
BRANCH  18  19
ATOM     19  C   UNL     1      36.597   6.662  10.002  1.00  0.00     0.000 C 
BRANCH  19  20
ATOM     20  C   UNL     1      35.437   5.942   9.292  1.00  0.00     0.000 C 
BRANCH  20  21
ATOM     21  C   UNL     1      34.372   6.915   8.757  1.00  0.00     0.000 C 
BRANCH  21  22
ATOM     22  C   UNL     1      33.614   6.350   7.543  1.00  0.00     0.000 C 
BRANCH  22  23
ATOM     23  C   UNL     1      33.411   4.830   7.629  1.00  0.00     0.000 C 
BRANCH  23  24
ATOM     24  C   UNL     1      32.528   4.280   6.494  1.00  0.00    -0.000 C 
BRANCH  24  25
ATOM     25  C   UNL     1      32.184   5.349   5.443  1.00  0.00    -0.000 C 
BRANCH  25  26
ATOM     26  C   UNL     1      31.297   4.801   4.312  1.00  0.00    -0.000 C 
BRANCH  26  27
ATOM     27  C   UNL     1      30.816   3.360   4.587  1.00  0.00    -0.000 C 
BRANCH  27  28
ATOM     28  C   UNL     1      29.575   2.949   3.773  1.00  0.00    -0.000 C 
BRANCH  28  29
ATOM     29  C   UNL     1      28.549   2.165   4.600  1.00  0.00    -0.000 C 
BRANCH  29  30
ATOM     30  C   UNL     1      28.295   2.846   5.955  1.00  0.00    -0.000 C 
BRANCH  30  31
ATOM     31  C   UNL     1      27.822   4.301   5.806  1.00  0.00    -0.003 C 
ATOM     32  C   UNL     1      26.910   4.750   6.948  1.00  0.00     0.004 C 
ENDBRANCH  30  31
ENDBRANCH  29  30
ENDBRANCH  28  29
ENDBRANCH  27  28
ENDBRANCH  26  27
ENDBRANCH  25  26
ENDBRANCH  24  25
ENDBRANCH  23  24
ENDBRANCH  22  23
ENDBRANCH  21  22
ENDBRANCH  20  21
ENDBRANCH  19  20
ENDBRANCH  18  19
ENDBRANCH   1  18
TORSDOF 28
ENDMDL
MODEL 4
REMARK VINA RESULT:    -3.866      2.244      4.797
REMARK INTER + INTRA:         -14.845
REMARK INTER:                 -10.926
REMARK INTRA:                  -3.919
REMARK UNBOUND:                -4.651
REMARK SMILES CCCCCCCCCCCCCCCCCCCCCCCCCCCCCC(=O)[O-]
REMARK SMILES IDX 16 1 17 2 18 3 19 4 20 5 21 6 22 7 23 8 24 9 25 10 26 11
REMARK SMILES IDX 27 12 28 13 29 14 30 15 31 16 32 17 15 18 14 19 13 20 12 21
REMARK SMILES IDX 11 22 10 23 9 24 8 25 7 26 6 27 5 28 4 29 3 30 2 31 1 32
REMARK H PARENT
REMARK Flexibility Score: inf
ROOT
ATOM      1  C   UNL     1      32.009   7.928  12.974  1.00  0.00     0.000 C 
ENDROOT
BRANCH   1   2
ATOM      2  C   UNL     1      31.292   6.903  12.087  1.00  0.00     0.000 C 
BRANCH   2   3
ATOM      3  C   UNL     1      31.828   5.484  12.331  1.00  0.00     0.000 C 
BRANCH   3   4
ATOM      4  C   UNL     1      32.124   4.735  11.021  1.00  0.00     0.000 C 
BRANCH   4   5
ATOM      5  C   UNL     1      33.323   3.783  11.143  1.00  0.00     0.000 C 
BRANCH   5   6
ATOM      6  C   UNL     1      32.882   2.408  11.671  1.00  0.00     0.000 C 
BRANCH   6   7
ATOM      7  C   UNL     1      33.784   1.886  12.801  1.00  0.00     0.000 C 
BRANCH   7   8
ATOM      8  C   UNL     1      33.281   2.288  14.200  1.00  0.00     0.000 C 
BRANCH   8   9
ATOM      9  C   UNL     1      33.495   3.786  14.497  1.00  0.00     0.000 C 
BRANCH   9  10
ATOM     10  C   UNL     1      34.841   4.109  15.180  1.00  0.00     0.000 C 
BRANCH  10  11
ATOM     11  C   UNL     1      35.538   5.393  14.692  1.00  0.00     0.000 C 
BRANCH  11  12
ATOM     12  C   UNL     1      35.114   5.836  13.280  1.00  0.00     0.000 C 
BRANCH  12  13
ATOM     13  C   UNL     1      36.211   6.649  12.558  1.00  0.00     0.006 C 
BRANCH  13  14
ATOM     14  C   UNL     1      36.832   5.889  11.379  1.00  0.00     0.053 C 
BRANCH  14  15
ATOM     15  C   UNL     1      38.032   6.603  10.832  1.00  0.00     0.041 C 
ATOM     16  O   UNL     1      38.013   7.080   9.667  1.00  0.00    -0.550 OA
ATOM     17  O   UNL     1      39.180   6.721  11.606  1.00  0.00    -0.550 OA
ENDBRANCH  14  15
ENDBRANCH  13  14
ENDBRANCH  12  13
ENDBRANCH  11  12
ENDBRANCH  10  11
ENDBRANCH   9  10
ENDBRANCH   8   9
ENDBRANCH   7   8
ENDBRANCH   6   7
ENDBRANCH   5   6
ENDBRANCH   4   5
ENDBRANCH   3   4
ENDBRANCH   2   3
ENDBRANCH   1   2
BRANCH   1  18
ATOM     18  C   UNL     1      33.142   8.623  12.202  1.00  0.00     0.000 C 
BRANCH  18  19
ATOM     19  C   UNL     1      32.980   8.508  10.675  1.00  0.00     0.000 C 
BRANCH  19  20
ATOM     20  C   UNL     1      34.187   7.822  10.009  1.00  0.00     0.000 C 
BRANCH  20  21
ATOM     21  C   UNL     1      33.792   6.996   8.774  1.00  0.00     0.000 C 
BRANCH  21  22
ATOM     22  C   UNL     1      34.874   5.978   8.375  1.00  0.00     0.000 C 
BRANCH  22  23
ATOM     23  C   UNL     1      34.285   4.703   7.753  1.00  0.00     0.000 C 
BRANCH  23  24
ATOM     24  C   UNL     1      32.836   4.888   7.269  1.00  0.00    -0.000 C 
BRANCH  24  25
ATOM     25  C   UNL     1      32.759   5.397   5.820  1.00  0.00    -0.000 C 
BRANCH  25  26
ATOM     26  C   UNL     1      31.664   4.687   5.003  1.00  0.00    -0.000 C 
BRANCH  26  27
ATOM     27  C   UNL     1      31.023   3.513   5.773  1.00  0.00    -0.000 C 
BRANCH  27  28
ATOM     28  C   UNL     1      29.640   3.835   6.367  1.00  0.00    -0.000 C 
BRANCH  28  29
ATOM     29  C   UNL     1      28.482   3.292   5.520  1.00  0.00    -0.000 C 
BRANCH  29  30
ATOM     30  C   UNL     1      28.996   2.346   4.423  1.00  0.00    -0.000 C 
BRANCH  30  31
ATOM     31  C   UNL     1      28.827   2.931   3.011  1.00  0.00    -0.003 C 
ATOM     32  C   UNL     1      27.580   3.807   2.876  1.00  0.00     0.004 C 
ENDBRANCH  30  31
ENDBRANCH  29  30
ENDBRANCH  28  29
ENDBRANCH  27  28
ENDBRANCH  26  27
ENDBRANCH  25  26
ENDBRANCH  24  25
ENDBRANCH  23  24
ENDBRANCH  22  23
ENDBRANCH  21  22
ENDBRANCH  20  21
ENDBRANCH  19  20
ENDBRANCH  18  19
ENDBRANCH   1  18
TORSDOF 28
ENDMDL
MODEL 5
REMARK VINA RESULT:    -3.852      2.214      7.330
REMARK INTER + INTRA:         -14.807
REMARK INTER:                 -11.014
REMARK INTRA:                  -3.794
REMARK UNBOUND:                -4.651
REMARK SMILES CCCCCCCCCCCCCCCCCCCCCCCCCCCCCC(=O)[O-]
REMARK SMILES IDX 16 1 17 2 18 3 19 4 20 5 21 6 22 7 23 8 24 9 25 10 26 11
REMARK SMILES IDX 27 12 28 13 29 14 30 15 31 16 32 17 15 18 14 19 13 20 12 21
REMARK SMILES IDX 11 22 10 23 9 24 8 25 7 26 6 27 5 28 4 29 3 30 2 31 1 32
REMARK H PARENT
REMARK Flexibility Score: inf
ROOT
ATOM      1  C   UNL     1      31.653   4.068   4.434  1.00  0.00     0.000 C 
ENDROOT
BRANCH   1   2
ATOM      2  C   UNL     1      31.316   5.508   4.839  1.00  0.00     0.000 C 
BRANCH   2   3
ATOM      3  C   UNL     1      32.406   6.101   5.746  1.00  0.00     0.000 C 
BRANCH   3   4
ATOM      4  C   UNL     1      33.224   5.016   6.467  1.00  0.00     0.000 C 
BRANCH   4   5
ATOM      5  C   UNL     1      33.897   5.537   7.745  1.00  0.00     0.000 C 
BRANCH   5   6
ATOM      6  C   UNL     1      35.358   5.065   7.829  1.00  0.00     0.000 C 
BRANCH   6   7
ATOM      7  C   UNL     1      35.723   4.495   9.210  1.00  0.00     0.000 C 
BRANCH   7   8
ATOM      8  C   UNL     1      36.624   5.440  10.026  1.00  0.00     0.000 C 
BRANCH   8   9
ATOM      9  C   UNL     1      35.909   6.009  11.269  1.00  0.00     0.000 C 
BRANCH   9  10
ATOM     10  C   UNL     1      35.545   7.505  11.159  1.00  0.00     0.000 C 
BRANCH  10  11
ATOM     11  C   UNL     1      34.319   7.822  10.282  1.00  0.00     0.000 C 
BRANCH  11  12
ATOM     12  C   UNL     1      32.976   7.732  11.029  1.00  0.00     0.000 C 
BRANCH  12  13
ATOM     13  C   UNL     1      32.901   8.693  12.235  1.00  0.00     0.006 C 
BRANCH  13  14
ATOM     14  C   UNL     1      31.463   9.111  12.570  1.00  0.00     0.053 C 
BRANCH  14  15
ATOM     15  C   UNL     1      31.116  10.435  11.956  1.00  0.00     0.041 C 
ATOM     16  O   UNL     1      31.802  10.895  11.006  1.00  0.00    -0.550 OA
ATOM     17  O   UNL     1      30.046  11.171  12.453  1.00  0.00    -0.550 OA
ENDBRANCH  14  15
ENDBRANCH  13  14
ENDBRANCH  12  13
ENDBRANCH  11  12
ENDBRANCH  10  11
ENDBRANCH   9  10
ENDBRANCH   8   9
ENDBRANCH   7   8
ENDBRANCH   6   7
ENDBRANCH   5   6
ENDBRANCH   4   5
ENDBRANCH   3   4
ENDBRANCH   2   3
ENDBRANCH   1   2
BRANCH   1  18
ATOM     18  C   UNL     1      30.372   3.244   4.226  1.00  0.00     0.000 C 
BRANCH  18  19
ATOM     19  C   UNL     1      30.183   2.156   5.298  1.00  0.00     0.000 C 
BRANCH  19  20
ATOM     20  C   UNL     1      29.942   2.749   6.698  1.00  0.00     0.000 C 
BRANCH  20  21
ATOM     21  C   UNL     1      30.591   1.914   7.815  1.00  0.00     0.000 C 
BRANCH  21  22
ATOM     22  C   UNL     1      32.090   2.217   7.982  1.00  0.00     0.000 C 
BRANCH  22  23
ATOM     23  C   UNL     1      32.508   2.338   9.455  1.00  0.00     0.000 C 
BRANCH  23  24
ATOM     24  C   UNL     1      32.374   3.771   9.999  1.00  0.00    -0.000 C 
BRANCH  24  25
ATOM     25  C   UNL     1      32.904   3.908  11.436  1.00  0.00    -0.000 C 
BRANCH  25  26
ATOM     26  C   UNL     1      32.025   4.825  12.304  1.00  0.00    -0.000 C 
BRANCH  26  27
ATOM     27  C   UNL     1      32.527   4.914  13.762  1.00  0.00    -0.000 C 
BRANCH  27  28
ATOM     28  C   UNL     1      33.738   4.014  14.063  1.00  0.00    -0.000 C 
BRANCH  28  29
ATOM     29  C   UNL     1      35.014   4.808  14.370  1.00  0.00    -0.000 C 
BRANCH  29  30
ATOM     30  C   UNL     1      35.394   4.691  15.856  1.00  0.00    -0.000 C 
BRANCH  30  31
ATOM     31  C   UNL     1      36.520   5.658  16.255  1.00  0.00    -0.003 C 
ATOM     32  C   UNL     1      37.696   4.954  16.935  1.00  0.00     0.004 C 
ENDBRANCH  30  31
ENDBRANCH  29  30
ENDBRANCH  28  29
ENDBRANCH  27  28
ENDBRANCH  26  27
ENDBRANCH  25  26
ENDBRANCH  24  25
ENDBRANCH  23  24
ENDBRANCH  22  23
ENDBRANCH  21  22
ENDBRANCH  20  21
ENDBRANCH  19  20
ENDBRANCH  18  19
ENDBRANCH   1  18
TORSDOF 28
ENDMDL
MODEL 6
REMARK VINA RESULT:    -3.750      2.353      7.312
REMARK INTER + INTRA:         -14.538
REMARK INTER:                 -11.424
REMARK INTRA:                  -3.115
REMARK UNBOUND:                -4.651
REMARK SMILES CCCCCCCCCCCCCCCCCCCCCCCCCCCCCC(=O)[O-]
REMARK SMILES IDX 16 1 17 2 18 3 19 4 20 5 21 6 22 7 23 8 24 9 25 10 26 11
REMARK SMILES IDX 27 12 28 13 29 14 30 15 31 16 32 17 15 18 14 19 13 20 12 21
REMARK SMILES IDX 11 22 10 23 9 24 8 25 7 26 6 27 5 28 4 29 3 30 2 31 1 32
REMARK H PARENT
REMARK Flexibility Score: inf
ROOT
ATOM      1  C   UNL     1      31.673   8.850  12.156  1.00  0.00     0.000 C 
ENDROOT
BRANCH   1   2
ATOM      2  C   UNL     1      32.774   9.187  11.142  1.00  0.00     0.000 C 
BRANCH   2   3
ATOM      3  C   UNL     1      33.480   7.916  10.645  1.00  0.00     0.000 C 
BRANCH   3   4
ATOM      4  C   UNL     1      33.724   7.936   9.127  1.00  0.00     0.000 C 
BRANCH   4   5
ATOM      5  C   UNL     1      34.296   6.611   8.603  1.00  0.00     0.000 C 
BRANCH   5   6
ATOM      6  C   UNL     1      33.460   6.077   7.427  1.00  0.00     0.000 C 
BRANCH   6   7
ATOM      7  C   UNL     1      33.317   4.546   7.444  1.00  0.00     0.000 C 
BRANCH   7   8
ATOM      8  C   UNL     1      31.892   4.077   7.095  1.00  0.00     0.000 C 
BRANCH   8   9
ATOM      9  C   UNL     1      31.464   4.495   5.673  1.00  0.00     0.000 C 
BRANCH   9  10
ATOM     10  C   UNL     1      31.119   3.312   4.744  1.00  0.00     0.000 C 
BRANCH  10  11
ATOM     11  C   UNL     1      29.999   3.582   3.721  1.00  0.00     0.000 C 
BRANCH  11  12
ATOM     12  C   UNL     1      29.061   2.384   3.490  1.00  0.00     0.000 C 
BRANCH  12  13
ATOM     13  C   UNL     1      27.675   2.579   4.143  1.00  0.00     0.006 C 
BRANCH  13  14
ATOM     14  C   UNL     1      27.457   4.012   4.648  1.00  0.00     0.053 C 
BRANCH  14  15
ATOM     15  C   UNL     1      27.520   4.085   6.145  1.00  0.00     0.041 C 
ATOM     16  O   UNL     1      27.065   3.145   6.848  1.00  0.00    -0.550 OA
ATOM     17  O   UNL     1      28.064   5.206   6.762  1.00  0.00    -0.550 OA
ENDBRANCH  14  15
ENDBRANCH  13  14
ENDBRANCH  12  13
ENDBRANCH  11  12
ENDBRANCH  10  11
ENDBRANCH   9  10
ENDBRANCH   8   9
ENDBRANCH   7   8
ENDBRANCH   6   7
ENDBRANCH   5   6
ENDBRANCH   4   5
ENDBRANCH   3   4
ENDBRANCH   2   3
ENDBRANCH   1   2
BRANCH   1  18
ATOM     18  C   UNL     1      31.865   7.434  12.722  1.00  0.00     0.000 C 
BRANCH  18  19
ATOM     19  C   UNL     1      31.115   6.361  11.911  1.00  0.00     0.000 C 
BRANCH  19  20
ATOM     20  C   UNL     1      31.726   4.960  12.090  1.00  0.00     0.000 C 
BRANCH  20  21
ATOM     21  C   UNL     1      32.426   4.451  10.819  1.00  0.00     0.000 C 
BRANCH  21  22
ATOM     22  C   UNL     1      32.527   2.916  10.776  1.00  0.00     0.000 C 
BRANCH  22  23
ATOM     23  C   UNL     1      33.618   2.371  11.710  1.00  0.00     0.000 C 
BRANCH  23  24
ATOM     24  C   UNL     1      33.090   2.038  13.117  1.00  0.00    -0.000 C 
BRANCH  24  25
ATOM     25  C   UNL     1      33.976   2.620  14.231  1.00  0.00    -0.000 C 
BRANCH  25  26
ATOM     26  C   UNL     1      33.768   4.132  14.422  1.00  0.00    -0.000 C 
BRANCH  26  27
ATOM     27  C   UNL     1      35.085   4.929  14.293  1.00  0.00    -0.000 C 
BRANCH  27  28
ATOM     28  C   UNL     1      35.025   6.076  13.269  1.00  0.00    -0.000 C 
BRANCH  28  29
ATOM     29  C   UNL     1      35.711   5.732  11.942  1.00  0.00    -0.000 C 
BRANCH  29  30
ATOM     30  C   UNL     1      36.466   6.948  11.378  1.00  0.00    -0.000 C 
BRANCH  30  31
ATOM     31  C   UNL     1      37.732   6.549  10.602  1.00  0.00    -0.003 C 
ATOM     32  C   UNL     1      39.014   6.739  11.415  1.00  0.00     0.004 C 
ENDBRANCH  30  31
ENDBRANCH  29  30
ENDBRANCH  28  29
ENDBRANCH  27  28
ENDBRANCH  26  27
ENDBRANCH  25  26
ENDBRANCH  24  25
ENDBRANCH  23  24
ENDBRANCH  22  23
ENDBRANCH  21  22
ENDBRANCH  20  21
ENDBRANCH  19  20
ENDBRANCH  18  19
ENDBRANCH   1  18
TORSDOF 28
ENDMDL
MODEL 7
REMARK VINA RESULT:    -3.733      2.136      4.547
REMARK INTER + INTRA:         -14.494
REMARK INTER:                 -10.511
REMARK INTRA:                  -3.982
REMARK UNBOUND:                -4.651
REMARK SMILES CCCCCCCCCCCCCCCCCCCCCCCCCCCCCC(=O)[O-]
REMARK SMILES IDX 16 1 17 2 18 3 19 4 20 5 21 6 22 7 23 8 24 9 25 10 26 11
REMARK SMILES IDX 27 12 28 13 29 14 30 15 31 16 32 17 15 18 14 19 13 20 12 21
REMARK SMILES IDX 11 22 10 23 9 24 8 25 7 26 6 27 5 28 4 29 3 30 2 31 1 32
REMARK H PARENT
REMARK Flexibility Score: inf
ROOT
ATOM      1  C   UNL     1      33.423   8.627  11.707  1.00  0.00     0.000 C 
ENDROOT
BRANCH   1   2
ATOM      2  C   UNL     1      32.033   7.999  11.546  1.00  0.00     0.000 C 
BRANCH   2   3
ATOM      3  C   UNL     1      31.783   6.920  12.611  1.00  0.00     0.000 C 
BRANCH   3   4
ATOM      4  C   UNL     1      31.363   5.574  11.997  1.00  0.00     0.000 C 
BRANCH   4   5
ATOM      5  C   UNL     1      32.441   4.984  11.076  1.00  0.00     0.000 C 
BRANCH   5   6
ATOM      6  C   UNL     1      32.322   3.453  11.001  1.00  0.00     0.000 C 
BRANCH   6   7
ATOM      7  C   UNL     1      33.606   2.732  11.445  1.00  0.00     0.000 C 
BRANCH   7   8
ATOM      8  C   UNL     1      33.523   2.201  12.888  1.00  0.00     0.000 C 
BRANCH   8   9
ATOM      9  C   UNL     1      33.181   3.309  13.906  1.00  0.00     0.000 C 
BRANCH   9  10
ATOM     10  C   UNL     1      34.274   3.550  14.968  1.00  0.00     0.000 C 
BRANCH  10  11
ATOM     11  C   UNL     1      35.045   4.876  14.832  1.00  0.00     0.000 C 
BRANCH  11  12
ATOM     12  C   UNL     1      34.806   5.604  13.497  1.00  0.00     0.000 C 
BRANCH  12  13
ATOM     13  C   UNL     1      36.082   6.286  12.956  1.00  0.00     0.006 C 
BRANCH  13  14
ATOM     14  C   UNL     1      36.413   5.867  11.517  1.00  0.00     0.053 C 
BRANCH  14  15
ATOM     15  C   UNL     1      37.696   6.484  11.043  1.00  0.00     0.041 C 
ATOM     16  O   UNL     1      38.709   6.497  11.791  1.00  0.00    -0.550 OA
ATOM     17  O   UNL     1      37.762   7.064   9.782  1.00  0.00    -0.550 OA
ENDBRANCH  14  15
ENDBRANCH  13  14
ENDBRANCH  12  13
ENDBRANCH  11  12
ENDBRANCH  10  11
ENDBRANCH   9  10
ENDBRANCH   8   9
ENDBRANCH   7   8
ENDBRANCH   6   7
ENDBRANCH   5   6
ENDBRANCH   4   5
ENDBRANCH   3   4
ENDBRANCH   2   3
ENDBRANCH   1   2
BRANCH   1  18
ATOM     18  C   UNL     1      34.396   8.081  10.649  1.00  0.00     0.000 C 
BRANCH  18  19
ATOM     19  C   UNL     1      33.718   7.829   9.290  1.00  0.00     0.000 C 
BRANCH  19  20
ATOM     20  C   UNL     1      34.257   6.566   8.594  1.00  0.00     0.000 C 
BRANCH  20  21
ATOM     21  C   UNL     1      33.393   6.133   7.398  1.00  0.00     0.000 C 
BRANCH  21  22
ATOM     22  C   UNL     1      33.353   4.605   7.221  1.00  0.00     0.000 C 
BRANCH  22  23
ATOM     23  C   UNL     1      31.958   4.017   7.480  1.00  0.00     0.000 C 
BRANCH  23  24
ATOM     24  C   UNL     1      30.967   4.302   6.337  1.00  0.00    -0.000 C 
BRANCH  24  25
ATOM     25  C   UNL     1      31.425   3.703   4.997  1.00  0.00    -0.000 C 
BRANCH  25  26
ATOM     26  C   UNL     1      31.055   4.592   3.796  1.00  0.00    -0.000 C 
BRANCH  26  27
ATOM     27  C   UNL     1      29.669   4.245   3.212  1.00  0.00    -0.000 C 
BRANCH  27  28
ATOM     28  C   UNL     1      29.270   2.768   3.381  1.00  0.00    -0.000 C 
BRANCH  28  29
ATOM     29  C   UNL     1      27.896   2.590   4.040  1.00  0.00    -0.000 C 
BRANCH  29  30
ATOM     30  C   UNL     1      27.521   3.824   4.878  1.00  0.00    -0.000 C 
BRANCH  30  31
ATOM     31  C   UNL     1      27.299   3.486   6.361  1.00  0.00    -0.003 C 
ATOM     32  C   UNL     1      27.934   2.156   6.770  1.00  0.00     0.004 C 
ENDBRANCH  30  31
ENDBRANCH  29  30
ENDBRANCH  28  29
ENDBRANCH  27  28
ENDBRANCH  26  27
ENDBRANCH  25  26
ENDBRANCH  24  25
ENDBRANCH  23  24
ENDBRANCH  22  23
ENDBRANCH  21  22
ENDBRANCH  20  21
ENDBRANCH  19  20
ENDBRANCH  18  19
ENDBRANCH   1  18
TORSDOF 28
ENDMDL
MODEL 8
REMARK VINA RESULT:    -3.725      2.729      7.632
REMARK INTER + INTRA:         -14.473
REMARK INTER:                 -10.236
REMARK INTRA:                  -4.237
REMARK UNBOUND:                -4.651
REMARK SMILES CCCCCCCCCCCCCCCCCCCCCCCCCCCCCC(=O)[O-]
REMARK SMILES IDX 16 1 17 2 18 3 19 4 20 5 21 6 22 7 23 8 24 9 25 10 26 11
REMARK SMILES IDX 27 12 28 13 29 14 30 15 31 16 32 17 15 18 14 19 13 20 12 21
REMARK SMILES IDX 11 22 10 23 9 24 8 25 7 26 6 27 5 28 4 29 3 30 2 31 1 32
REMARK H PARENT
REMARK Flexibility Score: inf
ROOT
ATOM      1  C   UNL     1      32.486   8.977  11.475  1.00  0.00     0.000 C 
ENDROOT
BRANCH   1   2
ATOM      2  C   UNL     1      31.565   8.070  12.301  1.00  0.00     0.000 C 
BRANCH   2   3
ATOM      3  C   UNL     1      32.241   6.727  12.616  1.00  0.00     0.000 C 
BRANCH   3   4
ATOM      4  C   UNL     1      31.297   5.531  12.410  1.00  0.00     0.000 C 
BRANCH   4   5
ATOM      5  C   UNL     1      32.052   4.203  12.254  1.00  0.00     0.000 C 
BRANCH   5   6
ATOM      6  C   UNL     1      32.712   4.104  10.869  1.00  0.00     0.000 C 
BRANCH   6   7
ATOM      7  C   UNL     1      33.030   2.656  10.462  1.00  0.00     0.000 C 
BRANCH   7   8
ATOM      8  C   UNL     1      31.984   2.064   9.499  1.00  0.00     0.000 C 
BRANCH   8   9
ATOM      9  C   UNL     1      32.417   2.166   8.022  1.00  0.00     0.000 C 
BRANCH   9  10
ATOM     10  C   UNL     1      31.313   2.682   7.075  1.00  0.00     0.000 C 
BRANCH  10  11
ATOM     11  C   UNL     1      31.812   3.447   5.835  1.00  0.00     0.000 C 
BRANCH  11  12
ATOM     12  C   UNL     1      30.778   3.537   4.697  1.00  0.00     0.000 C 
BRANCH  12  13
ATOM     13  C   UNL     1      29.922   2.258   4.571  1.00  0.00     0.006 C 
BRANCH  13  14
ATOM     14  C   UNL     1      28.423   2.560   4.435  1.00  0.00     0.053 C 
BRANCH  14  15
ATOM     15  C   UNL     1      27.860   3.142   5.697  1.00  0.00     0.041 C 
ATOM     16  O   UNL     1      27.612   4.374   5.774  1.00  0.00    -0.550 OA
ATOM     17  O   UNL     1      27.633   2.323   6.797  1.00  0.00    -0.550 OA
ENDBRANCH  14  15
ENDBRANCH  13  14
ENDBRANCH  12  13
ENDBRANCH  11  12
ENDBRANCH  10  11
ENDBRANCH   9  10
ENDBRANCH   8   9
ENDBRANCH   7   8
ENDBRANCH   6   7
ENDBRANCH   5   6
ENDBRANCH   4   5
ENDBRANCH   3   4
ENDBRANCH   2   3
ENDBRANCH   1   2
BRANCH   1  18
ATOM     18  C   UNL     1      33.789   8.247  11.111  1.00  0.00     0.000 C 
BRANCH  18  19
ATOM     19  C   UNL     1      33.942   8.019   9.596  1.00  0.00     0.000 C 
BRANCH  19  20
ATOM     20  C   UNL     1      33.274   6.712   9.132  1.00  0.00     0.000 C 
BRANCH  20  21
ATOM     21  C   UNL     1      33.744   6.270   7.736  1.00  0.00     0.000 C 
BRANCH  21  22
ATOM     22  C   UNL     1      34.480   4.918   7.763  1.00  0.00     0.000 C 
BRANCH  22  23
ATOM     23  C   UNL     1      35.962   5.061   8.142  1.00  0.00     0.000 C 
BRANCH  23  24
ATOM     24  C   UNL     1      36.242   4.689   9.609  1.00  0.00    -0.000 C 
BRANCH  24  25
ATOM     25  C   UNL     1      37.265   5.629  10.270  1.00  0.00    -0.000 C 
BRANCH  25  26
ATOM     26  C   UNL     1      36.653   6.459  11.412  1.00  0.00    -0.000 C 
BRANCH  26  27
ATOM     27  C   UNL     1      35.628   5.654  12.240  1.00  0.00    -0.000 C 
BRANCH  27  28
ATOM     28  C   UNL     1      35.560   6.065  13.722  1.00  0.00    -0.000 C 
BRANCH  28  29
ATOM     29  C   UNL     1      34.709   5.112  14.570  1.00  0.00    -0.000 C 
BRANCH  29  30
ATOM     30  C   UNL     1      35.522   4.541  15.744  1.00  0.00    -0.000 C 
BRANCH  30  31
ATOM     31  C   UNL     1      36.561   5.538  16.284  1.00  0.00    -0.003 C 
ATOM     32  C   UNL     1      37.670   4.863  17.092  1.00  0.00     0.004 C 
ENDBRANCH  30  31
ENDBRANCH  29  30
ENDBRANCH  28  29
ENDBRANCH  27  28
ENDBRANCH  26  27
ENDBRANCH  25  26
ENDBRANCH  24  25
ENDBRANCH  23  24
ENDBRANCH  22  23
ENDBRANCH  21  22
ENDBRANCH  20  21
ENDBRANCH  19  20
ENDBRANCH  18  19
ENDBRANCH   1  18
TORSDOF 28
ENDMDL
MODEL 9
REMARK VINA RESULT:    -3.687      3.186      4.532
REMARK INTER + INTRA:         -14.372
REMARK INTER:                 -10.035
REMARK INTRA:                  -4.337
REMARK UNBOUND:                -4.651
REMARK SMILES CCCCCCCCCCCCCCCCCCCCCCCCCCCCCC(=O)[O-]
REMARK SMILES IDX 16 1 17 2 18 3 19 4 20 5 21 6 22 7 23 8 24 9 25 10 26 11
REMARK SMILES IDX 27 12 28 13 29 14 30 15 31 16 32 17 15 18 14 19 13 20 12 21
REMARK SMILES IDX 11 22 10 23 9 24 8 25 7 26 6 27 5 28 4 29 3 30 2 31 1 32
REMARK H PARENT
REMARK Flexibility Score: inf
ROOT
ATOM      1  C   UNL     1      31.481   6.770  12.265  1.00  0.00     0.000 C 
ENDROOT
BRANCH   1   2
ATOM      2  C   UNL     1      32.762   7.613  12.236  1.00  0.00     0.000 C 
BRANCH   2   3
ATOM      3  C   UNL     1      32.848   8.450  10.951  1.00  0.00     0.000 C 
BRANCH   3   4
ATOM      4  C   UNL     1      33.940   7.946   9.993  1.00  0.00     0.000 C 
BRANCH   4   5
ATOM      5  C   UNL     1      33.633   6.550   9.430  1.00  0.00     0.000 C 
BRANCH   5   6
ATOM      6  C   UNL     1      34.526   6.238   8.217  1.00  0.00     0.000 C 
BRANCH   6   7
ATOM      7  C   UNL     1      35.238   4.880   8.335  1.00  0.00     0.000 C 
BRANCH   7   8
ATOM      8  C   UNL     1      36.216   4.821   9.524  1.00  0.00     0.000 C 
BRANCH   8   9
ATOM      9  C   UNL     1      37.040   6.116   9.675  1.00  0.00     0.000 C 
BRANCH   9  10
ATOM     10  C   UNL     1      37.483   6.418  11.122  1.00  0.00     0.000 C 
BRANCH  10  11
ATOM     11  C   UNL     1      36.354   6.835  12.084  1.00  0.00     0.000 C 
BRANCH  11  12
ATOM     12  C   UNL     1      35.504   5.658  12.598  1.00  0.00     0.000 C 
BRANCH  12  13
ATOM     13  C   UNL     1      35.325   5.681  14.132  1.00  0.00     0.006 C 
BRANCH  13  14
ATOM     14  C   UNL     1      36.610   6.080  14.872  1.00  0.00     0.053 C 
BRANCH  14  15
ATOM     15  C   UNL     1      36.751   5.342  16.170  1.00  0.00     0.041 C 
ATOM     16  O   UNL     1      37.874   5.252  16.732  1.00  0.00    -0.550 OA
ATOM     17  O   UNL     1      35.642   4.733  16.745  1.00  0.00    -0.550 OA
ENDBRANCH  14  15
ENDBRANCH  13  14
ENDBRANCH  12  13
ENDBRANCH  11  12
ENDBRANCH  10  11
ENDBRANCH   9  10
ENDBRANCH   8   9
ENDBRANCH   7   8
ENDBRANCH   6   7
ENDBRANCH   5   6
ENDBRANCH   4   5
ENDBRANCH   3   4
ENDBRANCH   2   3
ENDBRANCH   1   2
BRANCH   1  18
ATOM     18  C   UNL     1      31.806   5.287  12.504  1.00  0.00     0.000 C 
BRANCH  18  19
ATOM     19  C   UNL     1      32.132   4.531  11.204  1.00  0.00     0.000 C 
BRANCH  19  20
ATOM     20  C   UNL     1      33.031   3.306  11.449  1.00  0.00     0.000 C 
BRANCH  20  21
ATOM     21  C   UNL     1      33.296   2.498  10.167  1.00  0.00     0.000 C 
BRANCH  21  22
ATOM     22  C   UNL     1      32.023   2.297   9.325  1.00  0.00     0.000 C 
BRANCH  22  23
ATOM     23  C   UNL     1      32.241   2.622   7.839  1.00  0.00     0.000 C 
BRANCH  23  24
ATOM     24  C   UNL     1      31.638   3.977   7.429  1.00  0.00    -0.000 C 
BRANCH  24  25
ATOM     25  C   UNL     1      32.183   4.480   6.081  1.00  0.00    -0.000 C 
BRANCH  25  26
ATOM     26  C   UNL     1      31.515   3.788   4.880  1.00  0.00    -0.000 C 
BRANCH  26  27
ATOM     27  C   UNL     1      31.008   4.796   3.826  1.00  0.00    -0.000 C 
BRANCH  27  28
ATOM     28  C   UNL     1      29.897   4.244   2.915  1.00  0.00    -0.000 C 
BRANCH  28  29
ATOM     29  C   UNL     1      29.065   3.142   3.582  1.00  0.00    -0.000 C 
BRANCH  29  30
ATOM     30  C   UNL     1      27.842   3.732   4.304  1.00  0.00    -0.000 C 
BRANCH  30  31
ATOM     31  C   UNL     1      27.961   3.648   5.834  1.00  0.00    -0.003 C 
ATOM     32  C   UNL     1      28.520   2.308   6.315  1.00  0.00     0.004 C 
ENDBRANCH  30  31
ENDBRANCH  29  30
ENDBRANCH  28  29
ENDBRANCH  27  28
ENDBRANCH  26  27
ENDBRANCH  25  26
ENDBRANCH  24  25
ENDBRANCH  23  24
ENDBRANCH  22  23
ENDBRANCH  21  22
ENDBRANCH  20  21
ENDBRANCH  19  20
ENDBRANCH  18  19
ENDBRANCH   1  18
TORSDOF 28
ENDMDL
