MODEL 1
REMARK VINA RESULT:    -4.856      0.000      0.000
REMARK INTER + INTRA:         -10.301
REMARK INTER:                  -8.830
REMARK INTRA:                  -1.471
REMARK UNBOUND:                -1.471
REMARK SMILES CCCCCCCCCCCCCCCC(=O)[O-]
REMARK SMILES IDX 9 1 10 2 11 3 12 4 13 5 14 6 15 7 16 8 17 9 18 10 8 11 7 12
REMARK SMILES IDX 6 13 5 14 4 15 3 16 2 17 1 18
REMARK H PARENT
REMARK Flexibility Score: inf
ROOT
ATOM      1  C   UNL     1     -15.952  36.290  16.224  1.00  0.00     0.000 C 
ENDROOT
BRANCH   1   2
ATOM      2  C   UNL     1     -16.685  37.479  16.866  1.00  0.00     0.000 C 
BRANCH   2   3
ATOM      3  C   UNL     1     -16.823  37.335  18.392  1.00  0.00     0.000 C 
BRANCH   3   4
ATOM      4  C   UNL     1     -17.507  38.546  19.051  1.00  0.00     0.000 C 
BRANCH   4   5
ATOM      5  C   UNL     1     -17.325  39.884  18.311  1.00  0.00     0.000 C 
BRANCH   5   6
ATOM      6  C   UNL     1     -18.248  40.995  18.844  1.00  0.00     0.006 C 
BRANCH   6   7
ATOM      7  C   UNL     1     -18.638  40.769  20.311  1.00  0.00     0.053 C 
BRANCH   7   8
ATOM      8  C   UNL     1     -17.689  41.449  21.249  1.00  0.00     0.041 C 
ATOM      9  O   UNL     1     -17.608  42.707  21.269  1.00  0.00    -0.550 OA
ATOM     10  O   UNL     1     -16.913  40.696  22.120  1.00  0.00    -0.550 OA
ENDBRANCH   7   8
ENDBRANCH   6   7
ENDBRANCH   5   6
ENDBRANCH   4   5
ENDBRANCH   3   4
ENDBRANCH   2   3
ENDBRANCH   1   2
BRANCH   1  11
ATOM     11  C   UNL     1     -15.096  36.708  15.015  1.00  0.00     0.000 C 
BRANCH  11  12
ATOM     12  C   UNL     1     -15.770  37.797  14.163  1.00  0.00    -0.000 C 
BRANCH  12  13
ATOM     13  C   UNL     1     -15.484  37.632  12.661  1.00  0.00    -0.000 C 
BRANCH  13  14
ATOM     14  C   UNL     1     -15.419  36.157  12.222  1.00  0.00    -0.000 C 
BRANCH  14  15
ATOM     15  C   UNL     1     -16.766  35.532  11.811  1.00  0.00    -0.000 C 
BRANCH  15  16
ATOM     16  C   UNL     1     -16.967  34.116  12.376  1.00  0.00    -0.000 C 
BRANCH  16  17
ATOM     17  C   UNL     1     -17.713  34.119  13.719  1.00  0.00    -0.003 C 
ATOM     18  C   UNL     1     -18.608  35.345  13.897  1.00  0.00     0.004 C 
ENDBRANCH  16  17
ENDBRANCH  15  16
ENDBRANCH  14  15
ENDBRANCH  13  14
ENDBRANCH  12  13
ENDBRANCH  11  12
ENDBRANCH   1  11
TORSDOF 14
ENDMDL
MODEL 2
REMARK VINA RESULT:    -4.839      3.517      8.518
REMARK INTER + INTRA:         -10.271
REMARK INTER:                  -9.451
REMARK INTRA:                  -0.820
REMARK UNBOUND:                -1.471
REMARK SMILES CCCCCCCCCCCCCCCC(=O)[O-]
REMARK SMILES IDX 9 1 10 2 11 3 12 4 13 5 14 6 15 7 16 8 17 9 18 10 8 11 7 12
REMARK SMILES IDX 6 13 5 14 4 15 3 16 2 17 1 18
REMARK H PARENT
REMARK Flexibility Score: inf
ROOT
ATOM      1  C   UNL     1     -16.914  37.656  18.222  1.00  0.00     0.000 C 
ENDROOT
BRANCH   1   2
ATOM      2  C   UNL     1     -16.594  37.350  16.750  1.00  0.00     0.000 C 
BRANCH   2   3
ATOM      3  C   UNL     1     -15.840  36.020  16.573  1.00  0.00     0.000 C 
BRANCH   3   4
ATOM      4  C   UNL     1     -15.813  35.536  15.112  1.00  0.00     0.000 C 
BRANCH   4   5
ATOM      5  C   UNL     1     -17.192  35.380  14.445  1.00  0.00     0.000 C 
BRANCH   5   6
ATOM      6  C   UNL     1     -17.293  36.113  13.096  1.00  0.00     0.006 C 
BRANCH   6   7
ATOM      7  C   UNL     1     -18.112  37.405  13.199  1.00  0.00     0.053 C 
BRANCH   7   8
ATOM      8  C   UNL     1     -17.296  38.610  12.848  1.00  0.00     0.041 C 
ATOM      9  O   UNL     1     -17.811  39.760  12.885  1.00  0.00    -0.550 OA
ATOM     10  O   UNL     1     -15.957  38.468  12.505  1.00  0.00    -0.550 OA
ENDBRANCH   7   8
ENDBRANCH   6   7
ENDBRANCH   5   6
ENDBRANCH   4   5
ENDBRANCH   3   4
ENDBRANCH   2   3
ENDBRANCH   1   2
BRANCH   1  11
ATOM     11  C   UNL     1     -17.026  39.166  18.499  1.00  0.00     0.000 C 
BRANCH  11  12
ATOM     12  C   UNL     1     -18.137  39.499  19.510  1.00  0.00    -0.000 C 
BRANCH  12  13
ATOM     13  C   UNL     1     -18.882  40.799  19.160  1.00  0.00    -0.000 C 
BRANCH  13  14
ATOM     14  C   UNL     1     -18.517  41.968  20.094  1.00  0.00    -0.000 C 
BRANCH  14  15
ATOM     15  C   UNL     1     -17.628  41.597  21.297  1.00  0.00    -0.000 C 
BRANCH  15  16
ATOM     16  C   UNL     1     -16.580  42.675  21.622  1.00  0.00    -0.000 C 
BRANCH  16  17
ATOM     17  C   UNL     1     -17.198  44.077  21.742  1.00  0.00    -0.003 C 
ATOM     18  C   UNL     1     -16.641  44.872  22.922  1.00  0.00     0.004 C 
ENDBRANCH  16  17
ENDBRANCH  15  16
ENDBRANCH  14  15
ENDBRANCH  13  14
ENDBRANCH  12  13
ENDBRANCH  11  12
ENDBRANCH   1  11
TORSDOF 14
ENDMDL
MODEL 3
REMARK VINA RESULT:    -4.791      5.326      6.778
REMARK INTER + INTRA:         -10.184
REMARK INTER:                  -8.264
REMARK INTRA:                  -1.919
REMARK UNBOUND:                -1.471
REMARK SMILES CCCCCCCCCCCCCCCC(=O)[O-]
REMARK SMILES IDX 9 1 10 2 11 3 12 4 13 5 14 6 15 7 16 8 17 9 18 10 8 11 7 12
REMARK SMILES IDX 6 13 5 14 4 15 3 16 2 17 1 18
REMARK H PARENT
REMARK Flexibility Score: inf
ROOT
ATOM      1  C   UNL     1     -13.934  37.098  13.236  1.00  0.00     0.000 C 
ENDROOT
BRANCH   1   2
ATOM      2  C   UNL     1     -13.777  38.587  13.584  1.00  0.00     0.000 C 
BRANCH   2   3
ATOM      3  C   UNL     1     -14.716  39.488  12.763  1.00  0.00     0.000 C 
BRANCH   3   4
ATOM      4  C   UNL     1     -16.005  38.770  12.324  1.00  0.00     0.000 C 
BRANCH   4   5
ATOM      5  C   UNL     1     -17.295  39.602  12.446  1.00  0.00     0.000 C 
BRANCH   5   6
ATOM      6  C   UNL     1     -17.214  40.947  11.705  1.00  0.00     0.006 C 
BRANCH   6   7
ATOM      7  C   UNL     1     -17.334  40.779  10.185  1.00  0.00     0.053 C 
BRANCH   7   8
ATOM      8  C   UNL     1     -16.028  41.022   9.494  1.00  0.00     0.041 C 
ATOM      9  O   UNL     1     -15.832  40.575   8.332  1.00  0.00    -0.550 OA
ATOM     10  O   UNL     1     -15.037  41.766  10.121  1.00  0.00    -0.550 OA
ENDBRANCH   7   8
ENDBRANCH   6   7
ENDBRANCH   5   6
ENDBRANCH   4   5
ENDBRANCH   3   4
ENDBRANCH   2   3
ENDBRANCH   1   2
BRANCH   1  11
ATOM     11  C   UNL     1     -13.682  36.180  14.446  1.00  0.00     0.000 C 
BRANCH  11  12
ATOM     12  C   UNL     1     -14.711  36.390  15.570  1.00  0.00    -0.000 C 
BRANCH  12  13
ATOM     13  C   UNL     1     -16.016  35.612  15.327  1.00  0.00    -0.000 C 
BRANCH  13  14
ATOM     14  C   UNL     1     -17.159  36.505  14.809  1.00  0.00    -0.000 C 
BRANCH  14  15
ATOM     15  C   UNL     1     -18.021  35.888  13.692  1.00  0.00    -0.000 C 
BRANCH  15  16
ATOM     16  C   UNL     1     -17.824  34.369  13.553  1.00  0.00    -0.000 C 
BRANCH  16  17
ATOM     17  C   UNL     1     -17.073  33.989  12.266  1.00  0.00    -0.003 C 
ATOM     18  C   UNL     1     -16.557  35.207  11.500  1.00  0.00     0.004 C 
ENDBRANCH  16  17
ENDBRANCH  15  16
ENDBRANCH  14  15
ENDBRANCH  13  14
ENDBRANCH  12  13
ENDBRANCH  11  12
ENDBRANCH   1  11
TORSDOF 14
ENDMDL
MODEL 4
REMARK VINA RESULT:    -4.685      4.416      9.989
REMARK INTER + INTRA:          -9.990
REMARK INTER:                  -9.404
REMARK INTRA:                  -0.586
REMARK UNBOUND:                -1.471
REMARK SMILES CCCCCCCCCCCCCCCC(=O)[O-]
REMARK SMILES IDX 9 1 10 2 11 3 12 4 13 5 14 6 15 7 16 8 17 9 18 10 8 11 7 12
REMARK SMILES IDX 6 13 5 14 4 15 3 16 2 17 1 18
REMARK H PARENT
REMARK Flexibility Score: inf
ROOT
ATOM      1  C   UNL     1     -17.381  40.522  19.325  1.00  0.00     0.000 C 
ENDROOT
BRANCH   1   2
ATOM      2  C   UNL     1     -17.582  39.000  19.252  1.00  0.00     0.000 C 
BRANCH   2   3
ATOM      3  C   UNL     1     -17.233  38.424  17.868  1.00  0.00     0.000 C 
BRANCH   3   4
ATOM      4  C   UNL     1     -16.569  37.037  17.946  1.00  0.00     0.000 C 
BRANCH   4   5
ATOM      5  C   UNL     1     -16.021  36.495  16.613  1.00  0.00     0.000 C 
BRANCH   5   6
ATOM      6  C   UNL     1     -16.454  37.337  15.400  1.00  0.00     0.006 C 
BRANCH   6   7
ATOM      7  C   UNL     1     -16.048  36.689  14.070  1.00  0.00     0.053 C 
BRANCH   7   8
ATOM      8  C   UNL     1     -17.205  36.010  13.406  1.00  0.00     0.041 C 
ATOM      9  O   UNL     1     -18.299  35.874  14.018  1.00  0.00    -0.550 OA
ATOM     10  O   UNL     1     -17.086  35.548  12.101  1.00  0.00    -0.550 OA
ENDBRANCH   7   8
ENDBRANCH   6   7
ENDBRANCH   5   6
ENDBRANCH   4   5
ENDBRANCH   3   4
ENDBRANCH   2   3
ENDBRANCH   1   2
BRANCH   1  11
ATOM     11  C   UNL     1     -18.355  41.200  20.306  1.00  0.00     0.000 C 
BRANCH  11  12
ATOM     12  C   UNL     1     -17.789  42.505  20.891  1.00  0.00    -0.000 C 
BRANCH  12  13
ATOM     13  C   UNL     1     -16.525  42.274  21.737  1.00  0.00    -0.000 C 
BRANCH  13  14
ATOM     14  C   UNL     1     -15.959  43.574  22.337  1.00  0.00    -0.000 C 
BRANCH  14  15
ATOM     15  C   UNL     1     -16.932  44.769  22.354  1.00  0.00    -0.000 C 
BRANCH  15  16
ATOM     16  C   UNL     1     -16.890  45.557  23.674  1.00  0.00    -0.000 C 
BRANCH  16  17
ATOM     17  C   UNL     1     -16.183  46.914  23.527  1.00  0.00    -0.003 C 
ATOM     18  C   UNL     1     -15.881  47.270  22.072  1.00  0.00     0.004 C 
ENDBRANCH  16  17
ENDBRANCH  15  16
ENDBRANCH  14  15
ENDBRANCH  13  14
ENDBRANCH  12  13
ENDBRANCH  11  12
ENDBRANCH   1  11
TORSDOF 14
ENDMDL
MODEL 5
REMARK VINA RESULT:    -4.640      5.780      8.330
REMARK INTER + INTRA:          -9.908
REMARK INTER:                  -8.447
REMARK INTRA:                  -1.461
REMARK UNBOUND:                -1.471
REMARK SMILES CCCCCCCCCCCCCCCC(=O)[O-]
REMARK SMILES IDX 9 1 10 2 11 3 12 4 13 5 14 6 15 7 16 8 17 9 18 10 8 11 7 12
REMARK SMILES IDX 6 13 5 14 4 15 3 16 2 17 1 18
REMARK H PARENT
REMARK Flexibility Score: inf
ROOT
ATOM      1  C   UNL     1     -16.809  40.540  10.460  1.00  0.00     0.000 C 
ENDROOT
BRANCH   1   2
ATOM      2  C   UNL     1     -15.974  40.440  11.747  1.00  0.00     0.000 C 
BRANCH   2   3
ATOM      3  C   UNL     1     -16.177  39.103  12.481  1.00  0.00     0.000 C 
BRANCH   3   4
ATOM      4  C   UNL     1     -17.647  38.843  12.860  1.00  0.00     0.000 C 
BRANCH   4   5
ATOM      5  C   UNL     1     -17.909  37.524  13.609  1.00  0.00     0.000 C 
BRANCH   5   6
ATOM      6  C   UNL     1     -17.393  36.289  12.848  1.00  0.00     0.006 C 
BRANCH   6   7
ATOM      7  C   UNL     1     -16.902  35.188  13.797  1.00  0.00     0.053 C 
BRANCH   7   8
ATOM      8  C   UNL     1     -15.909  35.711  14.788  1.00  0.00     0.041 C 
ATOM      9  O   UNL     1     -14.807  36.179  14.397  1.00  0.00    -0.550 OA
ATOM     10  O   UNL     1     -16.211  35.706  16.145  1.00  0.00    -0.550 OA
ENDBRANCH   7   8
ENDBRANCH   6   7
ENDBRANCH   5   6
ENDBRANCH   4   5
ENDBRANCH   3   4
ENDBRANCH   2   3
ENDBRANCH   1   2
BRANCH   1  11
ATOM     11  C   UNL     1     -17.765  41.747  10.470  1.00  0.00     0.000 C 
BRANCH  11  12
ATOM     12  C   UNL     1     -17.780  42.497   9.127  1.00  0.00    -0.000 C 
BRANCH  12  13
ATOM     13  C   UNL     1     -16.641  42.056   8.191  1.00  0.00    -0.000 C 
BRANCH  13  14
ATOM     14  C   UNL     1     -15.762  43.230   7.723  1.00  0.00    -0.000 C 
BRANCH  14  15
ATOM     15  C   UNL     1     -16.323  44.634   8.025  1.00  0.00    -0.000 C 
BRANCH  15  16
ATOM     16  C   UNL     1     -15.471  45.413   9.041  1.00  0.00    -0.000 C 
BRANCH  16  17
ATOM     17  C   UNL     1     -14.682  44.485   9.980  1.00  0.00    -0.003 C 
ATOM     18  C   UNL     1     -15.279  44.416  11.384  1.00  0.00     0.004 C 
ENDBRANCH  16  17
ENDBRANCH  15  16
ENDBRANCH  14  15
ENDBRANCH  13  14
ENDBRANCH  12  13
ENDBRANCH  11  12
ENDBRANCH   1  11
TORSDOF 14
ENDMDL
MODEL 6
REMARK VINA RESULT:    -4.628      6.593      9.187
REMARK INTER + INTRA:          -9.887
REMARK INTER:                  -8.008
REMARK INTRA:                  -1.879
REMARK UNBOUND:                -1.471
REMARK SMILES CCCCCCCCCCCCCCCC(=O)[O-]
REMARK SMILES IDX 9 1 10 2 11 3 12 4 13 5 14 6 15 7 16 8 17 9 18 10 8 11 7 12
REMARK SMILES IDX 6 13 5 14 4 15 3 16 2 17 1 18
REMARK H PARENT
REMARK Flexibility Score: inf
ROOT
ATOM      1  C   UNL     1     -16.241  40.389   9.198  1.00  0.00     0.000 C 
ENDROOT
BRANCH   1   2
ATOM      2  C   UNL     1     -17.290  41.301   9.855  1.00  0.00     0.000 C 
BRANCH   2   3
ATOM      3  C   UNL     1     -17.398  41.078  11.374  1.00  0.00     0.000 C 
BRANCH   3   4
ATOM      4  C   UNL     1     -16.189  40.324  11.957  1.00  0.00     0.000 C 
BRANCH   4   5
ATOM      5  C   UNL     1     -16.519  38.985  12.642  1.00  0.00     0.000 C 
BRANCH   5   6
ATOM      6  C   UNL     1     -15.266  38.232  13.121  1.00  0.00     0.006 C 
BRANCH   6   7
ATOM      7  C   UNL     1     -15.555  36.754  13.413  1.00  0.00     0.053 C 
BRANCH   7   8
ATOM      8  C   UNL     1     -16.167  36.063  12.233  1.00  0.00     0.041 C 
ATOM      9  O   UNL     1     -17.291  35.504  12.337  1.00  0.00    -0.550 OA
ATOM     10  O   UNL     1     -15.507  36.059  11.010  1.00  0.00    -0.550 OA
ENDBRANCH   7   8
ENDBRANCH   6   7
ENDBRANCH   5   6
ENDBRANCH   4   5
ENDBRANCH   3   4
ENDBRANCH   2   3
ENDBRANCH   1   2
BRANCH   1  11
ATOM     11  C   UNL     1     -15.505  41.079   8.035  1.00  0.00     0.000 C 
BRANCH  11  12
ATOM     12  C   UNL     1     -16.429  41.992   7.211  1.00  0.00    -0.000 C 
BRANCH  12  13
ATOM     13  C   UNL     1     -15.827  43.389   6.982  1.00  0.00    -0.000 C 
BRANCH  13  14
ATOM     14  C   UNL     1     -16.562  44.494   7.764  1.00  0.00    -0.000 C 
BRANCH  14  15
ATOM     15  C   UNL     1     -15.770  45.110   8.933  1.00  0.00    -0.000 C 
BRANCH  15  16
ATOM     16  C   UNL     1     -14.397  44.448   9.142  1.00  0.00    -0.000 C 
BRANCH  16  17
ATOM     17  C   UNL     1     -14.307  43.691  10.477  1.00  0.00    -0.003 C 
ATOM     18  C   UNL     1     -15.365  44.138  11.484  1.00  0.00     0.004 C 
ENDBRANCH  16  17
ENDBRANCH  15  16
ENDBRANCH  14  15
ENDBRANCH  13  14
ENDBRANCH  12  13
ENDBRANCH  11  12
ENDBRANCH   1  11
TORSDOF 14
ENDMDL
MODEL 7
REMARK VINA RESULT:    -4.616      5.909      8.483
REMARK INTER + INTRA:          -9.865
REMARK INTER:                  -8.100
REMARK INTRA:                  -1.765
REMARK UNBOUND:                -1.471
REMARK SMILES CCCCCCCCCCCCCCCC(=O)[O-]
REMARK SMILES IDX 9 1 10 2 11 3 12 4 13 5 14 6 15 7 16 8 17 9 18 10 8 11 7 12
REMARK SMILES IDX 6 13 5 14 4 15 3 16 2 17 1 18
REMARK H PARENT
REMARK Flexibility Score: inf
ROOT
ATOM      1  C   UNL     1     -17.310  41.213   9.565  1.00  0.00     0.000 C 
ENDROOT
BRANCH   1   2
ATOM      2  C   UNL     1     -17.417  41.108  11.095  1.00  0.00     0.000 C 
BRANCH   2   3
ATOM      3  C   UNL     1     -16.123  40.585  11.743  1.00  0.00     0.000 C 
BRANCH   3   4
ATOM      4  C   UNL     1     -16.312  39.232  12.454  1.00  0.00     0.000 C 
BRANCH   4   5
ATOM      5  C   UNL     1     -17.762  38.896  12.850  1.00  0.00     0.000 C 
BRANCH   5   6
ATOM      6  C   UNL     1     -17.900  37.507  13.496  1.00  0.00     0.006 C 
BRANCH   6   7
ATOM      7  C   UNL     1     -16.854  36.516  12.970  1.00  0.00     0.053 C 
BRANCH   7   8
ATOM      8  C   UNL     1     -16.078  35.884  14.083  1.00  0.00     0.041 C 
ATOM      9  O   UNL     1     -14.855  36.148  14.236  1.00  0.00    -0.550 OA
ATOM     10  O   UNL     1     -16.710  35.022  14.970  1.00  0.00    -0.550 OA
ENDBRANCH   7   8
ENDBRANCH   6   7
ENDBRANCH   5   6
ENDBRANCH   4   5
ENDBRANCH   3   4
ENDBRANCH   2   3
ENDBRANCH   1   2
BRANCH   1  11
ATOM     11  C   UNL     1     -16.034  40.550   9.016  1.00  0.00     0.000 C 
BRANCH  11  12
ATOM     12  C   UNL     1     -15.591  41.148   7.669  1.00  0.00    -0.000 C 
BRANCH  12  13
ATOM     13  C   UNL     1     -14.235  41.868   7.761  1.00  0.00    -0.000 C 
BRANCH  13  14
ATOM     14  C   UNL     1     -13.837  42.215   9.208  1.00  0.00    -0.000 C 
BRANCH  14  15
ATOM     15  C   UNL     1     -13.883  43.714   9.561  1.00  0.00    -0.000 C 
BRANCH  15  16
ATOM     16  C   UNL     1     -15.315  44.239   9.762  1.00  0.00    -0.000 C 
BRANCH  16  17
ATOM     17  C   UNL     1     -15.802  45.086   8.575  1.00  0.00    -0.003 C 
ATOM     18  C   UNL     1     -16.941  44.423   7.802  1.00  0.00     0.004 C 
ENDBRANCH  16  17
ENDBRANCH  15  16
ENDBRANCH  14  15
ENDBRANCH  13  14
ENDBRANCH  12  13
ENDBRANCH  11  12
ENDBRANCH   1  11
TORSDOF 14
ENDMDL
MODEL 8
REMARK VINA RESULT:    -4.606      4.831      6.058
REMARK INTER + INTRA:          -9.846
REMARK INTER:                  -8.367
REMARK INTRA:                  -1.479
REMARK UNBOUND:                -1.471
REMARK SMILES CCCCCCCCCCCCCCCC(=O)[O-]
REMARK SMILES IDX 9 1 10 2 11 3 12 4 13 5 14 6 15 7 16 8 17 9 18 10 8 11 7 12
REMARK SMILES IDX 6 13 5 14 4 15 3 16 2 17 1 18
REMARK H PARENT
REMARK Flexibility Score: inf
ROOT
ATOM      1  C   UNL     1     -17.375  36.361  14.763  1.00  0.00     0.000 C 
ENDROOT
BRANCH   1   2
ATOM      2  C   UNL     1     -16.133  35.565  15.193  1.00  0.00     0.000 C 
BRANCH   2   3
ATOM      3  C   UNL     1     -14.979  36.473  15.653  1.00  0.00     0.000 C 
BRANCH   3   4
ATOM      4  C   UNL     1     -13.809  36.511  14.654  1.00  0.00     0.000 C 
BRANCH   4   5
ATOM      5  C   UNL     1     -14.162  37.035  13.249  1.00  0.00     0.000 C 
BRANCH   5   6
ATOM      6  C   UNL     1     -14.687  38.481  13.262  1.00  0.00     0.006 C 
BRANCH   6   7
ATOM      7  C   UNL     1     -15.947  38.648  12.404  1.00  0.00     0.053 C 
BRANCH   7   8
ATOM      8  C   UNL     1     -16.204  40.084  12.067  1.00  0.00     0.041 C 
ATOM      9  O   UNL     1     -17.378  40.542  12.092  1.00  0.00    -0.550 OA
ATOM     10  O   UNL     1     -15.145  40.925  11.750  1.00  0.00    -0.550 OA
ENDBRANCH   7   8
ENDBRANCH   6   7
ENDBRANCH   5   6
ENDBRANCH   4   5
ENDBRANCH   3   4
ENDBRANCH   2   3
ENDBRANCH   1   2
BRANCH   1  11
ATOM     11  C   UNL     1     -18.074  35.748  13.536  1.00  0.00     0.000 C 
BRANCH  11  12
ATOM     12  C   UNL     1     -17.093  35.015  12.604  1.00  0.00    -0.000 C 
BRANCH  12  13
ATOM     13  C   UNL     1     -17.375  33.505  12.520  1.00  0.00    -0.000 C 
BRANCH  13  14
ATOM     14  C   UNL     1     -18.328  33.012  13.625  1.00  0.00    -0.000 C 
BRANCH  14  15
ATOM     15  C   UNL     1     -18.526  31.485  13.689  1.00  0.00    -0.000 C 
BRANCH  15  16
ATOM     16  C   UNL     1     -19.976  31.082  14.009  1.00  0.00    -0.000 C 
BRANCH  16  17
ATOM     17  C   UNL     1     -20.928  32.289  14.039  1.00  0.00    -0.003 C 
ATOM     18  C   UNL     1     -21.889  32.256  15.226  1.00  0.00     0.004 C 
ENDBRANCH  16  17
ENDBRANCH  15  16
ENDBRANCH  14  15
ENDBRANCH  13  14
ENDBRANCH  12  13
ENDBRANCH  11  12
ENDBRANCH   1  11
TORSDOF 14
ENDMDL
MODEL 9
REMARK VINA RESULT:    -4.594      1.747      3.226
REMARK INTER + INTRA:          -9.825
REMARK INTER:                  -9.091
REMARK INTRA:                  -0.734
REMARK UNBOUND:                -1.471
REMARK SMILES CCCCCCCCCCCCCCCC(=O)[O-]
REMARK SMILES IDX 9 1 10 2 11 3 12 4 13 5 14 6 15 7 16 8 17 9 18 10 8 11 7 12
REMARK SMILES IDX 6 13 5 14 4 15 3 16 2 17 1 18
REMARK H PARENT
REMARK Flexibility Score: inf
ROOT
ATOM      1  C   UNL     1     -17.259  38.659  18.066  1.00  0.00     0.000 C 
ENDROOT
BRANCH   1   2
ATOM      2  C   UNL     1     -17.920  39.306  19.294  1.00  0.00     0.000 C 
BRANCH   2   3
ATOM      3  C   UNL     1     -18.431  40.730  19.008  1.00  0.00     0.000 C 
BRANCH   3   4
ATOM      4  C   UNL     1     -18.658  41.554  20.288  1.00  0.00     0.000 C 
BRANCH   4   5
ATOM      5  C   UNL     1     -17.645  41.301  21.420  1.00  0.00     0.000 C 
BRANCH   5   6
ATOM      6  C   UNL     1     -16.662  42.468  21.618  1.00  0.00     0.006 C 
BRANCH   6   7
ATOM      7  C   UNL     1     -17.344  43.833  21.456  1.00  0.00     0.053 C 
BRANCH   7   8
ATOM      8  C   UNL     1     -16.570  44.923  22.131  1.00  0.00     0.041 C 
ATOM      9  O   UNL     1     -16.569  46.089  21.654  1.00  0.00    -0.550 OA
ATOM     10  O   UNL     1     -15.872  44.659  23.302  1.00  0.00    -0.550 OA
ENDBRANCH   7   8
ENDBRANCH   6   7
ENDBRANCH   5   6
ENDBRANCH   4   5
ENDBRANCH   3   4
ENDBRANCH   2   3
ENDBRANCH   1   2
BRANCH   1  11
ATOM     11  C   UNL     1     -16.654  37.279  18.381  1.00  0.00     0.000 C 
BRANCH  11  12
ATOM     12  C   UNL     1     -16.281  36.494  17.111  1.00  0.00    -0.000 C 
BRANCH  12  13
ATOM     13  C   UNL     1     -16.312  37.370  15.847  1.00  0.00    -0.000 C 
BRANCH  13  14
ATOM     14  C   UNL     1     -15.582  36.725  14.653  1.00  0.00    -0.000 C 
BRANCH  14  15
ATOM     15  C   UNL     1     -16.087  37.157  13.263  1.00  0.00    -0.000 C 
BRANCH  15  16
ATOM     16  C   UNL     1     -17.376  36.432  12.841  1.00  0.00    -0.000 C 
BRANCH  16  17
ATOM     17  C   UNL     1     -17.137  34.947  12.521  1.00  0.00    -0.003 C 
ATOM     18  C   UNL     1     -17.710  34.011  13.584  1.00  0.00     0.004 C 
ENDBRANCH  16  17
ENDBRANCH  15  16
ENDBRANCH  14  15
ENDBRANCH  13  14
ENDBRANCH  12  13
ENDBRANCH  11  12
ENDBRANCH   1  11
TORSDOF 14
ENDMDL
