MODEL 1
REMARK VINA RESULT:    -4.987      0.000      0.000
REMARK INTER + INTRA:         -14.803
REMARK INTER:                 -11.400
REMARK INTRA:                  -3.403
REMARK UNBOUND:                -3.403
REMARK SMILES CCCCCCCCCCCCCCCCCCCCCCCC(=O)[O-]
REMARK SMILES IDX 13 1 14 2 15 3 16 4 17 5 18 6 19 7 20 8 21 9 22 10 23 11
REMARK SMILES IDX 24 12 25 13 26 14 12 15 11 16 10 17 9 18 8 19 7 20 6 21 5 22
REMARK SMILES IDX 4 23 3 24 2 25 1 26
REMARK H PARENT
REMARK Flexibility Score: inf
ROOT
ATOM      1  C   UNL     1      -6.016 -25.556  31.233  1.00  0.00     0.000 C 
ENDROOT
BRANCH   1   2
ATOM      2  C   UNL     1      -6.890 -24.424  31.806  1.00  0.00     0.000 C 
BRANCH   2   3
ATOM      3  C   UNL     1      -6.679 -24.207  33.311  1.00  0.00     0.000 C 
BRANCH   3   4
ATOM      4  C   UNL     1      -7.507 -25.207  34.133  1.00  0.00     0.000 C 
BRANCH   4   5
ATOM      5  C   UNL     1      -6.716 -25.771  35.332  1.00  0.00     0.000 C 
BRANCH   5   6
ATOM      6  C   UNL     1      -5.195 -25.816  35.105  1.00  0.00     0.000 C 
BRANCH   6   7
ATOM      7  C   UNL     1      -4.693 -27.204  34.677  1.00  0.00     0.000 C 
BRANCH   7   8
ATOM      8  C   UNL     1      -4.027 -27.186  33.291  1.00  0.00     0.000 C 
BRANCH   8   9
ATOM      9  C   UNL     1      -3.562 -28.581  32.844  1.00  0.00     0.000 C 
BRANCH   9  10
ATOM     10  C   UNL     1      -3.840 -28.800  31.352  1.00  0.00     0.006 C 
BRANCH  10  11
ATOM     11  C   UNL     1      -2.625 -28.412  30.503  1.00  0.00     0.053 C 
BRANCH  11  12
ATOM     12  C   UNL     1      -3.012 -28.274  29.064  1.00  0.00     0.041 C 
ATOM     13  O   UNL     1      -2.136 -28.043  28.191  1.00  0.00    -0.550 OA
ATOM     14  O   UNL     1      -4.349 -28.361  28.694  1.00  0.00    -0.550 OA
ENDBRANCH  11  12
ENDBRANCH  10  11
ENDBRANCH   9  10
ENDBRANCH   8   9
ENDBRANCH   7   8
ENDBRANCH   6   7
ENDBRANCH   5   6
ENDBRANCH   4   5
ENDBRANCH   3   4
ENDBRANCH   2   3
ENDBRANCH   1   2
BRANCH   1  15
ATOM     15  C   UNL     1      -6.788 -26.667  30.497  1.00  0.00     0.000 C 
BRANCH  15  16
ATOM     16  C   UNL     1      -7.350 -27.736  31.449  1.00  0.00     0.000 C 
BRANCH  16  17
ATOM     17  C   UNL     1      -8.859 -27.968  31.258  1.00  0.00     0.000 C 
BRANCH  17  18
ATOM     18  C   UNL     1      -9.698 -26.732  31.629  1.00  0.00    -0.000 C 
BRANCH  18  19
ATOM     19  C   UNL     1     -10.593 -26.247  30.474  1.00  0.00    -0.000 C 
BRANCH  19  20
ATOM     20  C   UNL     1      -9.994 -25.124  29.608  1.00  0.00    -0.000 C 
BRANCH  20  21
ATOM     21  C   UNL     1      -9.548 -25.609  28.220  1.00  0.00    -0.000 C 
BRANCH  21  22
ATOM     22  C   UNL     1     -10.636 -26.463  27.559  1.00  0.00    -0.000 C 
BRANCH  22  23
ATOM     23  C   UNL     1     -11.070 -25.858  26.215  1.00  0.00    -0.000 C 
BRANCH  23  24
ATOM     24  C   UNL     1     -10.435 -24.483  25.945  1.00  0.00    -0.000 C 
BRANCH  24  25
ATOM     25  C   UNL     1     -11.467 -23.375  25.649  1.00  0.00    -0.003 C 
ATOM     26  C   UNL     1     -11.179 -22.090  26.428  1.00  0.00     0.004 C 
ENDBRANCH  24  25
ENDBRANCH  23  24
ENDBRANCH  22  23
ENDBRANCH  21  22
ENDBRANCH  20  21
ENDBRANCH  19  20
ENDBRANCH  18  19
ENDBRANCH  17  18
ENDBRANCH  16  17
ENDBRANCH  15  16
ENDBRANCH   1  15
TORSDOF 22
ENDMDL
MODEL 2
REMARK VINA RESULT:    -4.833      3.837      9.094
REMARK INTER + INTRA:         -14.451
REMARK INTER:                 -11.583
REMARK INTRA:                  -2.868
REMARK UNBOUND:                -3.403
REMARK SMILES CCCCCCCCCCCCCCCCCCCCCCCC(=O)[O-]
REMARK SMILES IDX 13 1 14 2 15 3 16 4 17 5 18 6 19 7 20 8 21 9 22 10 23 11
REMARK SMILES IDX 24 12 25 13 26 14 12 15 11 16 10 17 9 18 8 19 7 20 6 21 5 22
REMARK SMILES IDX 4 23 3 24 2 25 1 26
REMARK H PARENT
REMARK Flexibility Score: inf
ROOT
ATOM      1  C   UNL     1      -9.835 -27.491  28.270  1.00  0.00     0.000 C 
ENDROOT
BRANCH   1   2
ATOM      2  C   UNL     1     -10.855 -26.369  27.998  1.00  0.00     0.000 C 
BRANCH   2   3
ATOM      3  C   UNL     1     -10.206 -24.980  27.900  1.00  0.00     0.000 C 
BRANCH   3   4
ATOM      4  C   UNL     1     -10.449 -24.355  26.518  1.00  0.00     0.000 C 
BRANCH   4   5
ATOM      5  C   UNL     1     -10.867 -22.873  26.614  1.00  0.00     0.000 C 
BRANCH   5   6
ATOM      6  C   UNL     1     -12.120 -22.528  25.790  1.00  0.00     0.000 C 
BRANCH   6   7
ATOM      7  C   UNL     1     -12.481 -23.616  24.765  1.00  0.00     0.000 C 
BRANCH   7   8
ATOM      8  C   UNL     1     -13.998 -23.725  24.535  1.00  0.00     0.000 C 
BRANCH   8   9
ATOM      9  C   UNL     1     -14.419 -25.117  24.038  1.00  0.00     0.000 C 
BRANCH   9  10
ATOM     10  C   UNL     1     -13.316 -26.149  24.301  1.00  0.00     0.006 C 
BRANCH  10  11
ATOM     11  C   UNL     1     -13.654 -27.016  25.519  1.00  0.00     0.053 C 
BRANCH  11  12
ATOM     12  C   UNL     1     -14.753 -27.976  25.191  1.00  0.00     0.041 C 
ATOM     13  O   UNL     1     -15.679 -28.187  26.017  1.00  0.00    -0.550 OA
ATOM     14  O   UNL     1     -14.731 -28.671  23.988  1.00  0.00    -0.550 OA
ENDBRANCH  11  12
ENDBRANCH  10  11
ENDBRANCH   9  10
ENDBRANCH   8   9
ENDBRANCH   7   8
ENDBRANCH   6   7
ENDBRANCH   5   6
ENDBRANCH   4   5
ENDBRANCH   3   4
ENDBRANCH   2   3
ENDBRANCH   1   2
BRANCH   1  15
ATOM     15  C   UNL     1      -8.358 -27.087  28.095  1.00  0.00     0.000 C 
BRANCH  15  16
ATOM     16  C   UNL     1      -7.528 -27.289  29.374  1.00  0.00     0.000 C 
BRANCH  16  17
ATOM     17  C   UNL     1      -6.013 -27.226  29.114  1.00  0.00     0.000 C 
BRANCH  17  18
ATOM     18  C   UNL     1      -5.184 -27.514  30.378  1.00  0.00    -0.000 C 
BRANCH  18  19
ATOM     19  C   UNL     1      -6.018 -28.138  31.512  1.00  0.00    -0.000 C 
BRANCH  19  20
ATOM     20  C   UNL     1      -6.274 -27.218  32.720  1.00  0.00    -0.000 C 
BRANCH  20  21
ATOM     21  C   UNL     1      -5.076 -26.315  33.050  1.00  0.00    -0.000 C 
BRANCH  21  22
ATOM     22  C   UNL     1      -5.451 -24.833  32.923  1.00  0.00    -0.000 C 
BRANCH  22  23
ATOM     23  C   UNL     1      -6.973 -24.642  32.999  1.00  0.00    -0.000 C 
BRANCH  23  24
ATOM     24  C   UNL     1      -7.552 -23.952  31.752  1.00  0.00    -0.000 C 
BRANCH  24  25
ATOM     25  C   UNL     1      -8.861 -24.593  31.243  1.00  0.00    -0.003 C 
ATOM     26  C   UNL     1      -9.545 -25.445  32.313  1.00  0.00     0.004 C 
ENDBRANCH  24  25
ENDBRANCH  23  24
ENDBRANCH  22  23
ENDBRANCH  21  22
ENDBRANCH  20  21
ENDBRANCH  19  20
ENDBRANCH  18  19
ENDBRANCH  17  18
ENDBRANCH  16  17
ENDBRANCH  15  16
ENDBRANCH   1  15
TORSDOF 22
ENDMDL
MODEL 3
REMARK VINA RESULT:    -4.793      4.300      9.720
REMARK INTER + INTRA:         -14.361
REMARK INTER:                 -11.659
REMARK INTRA:                  -2.702
REMARK UNBOUND:                -3.403
REMARK SMILES CCCCCCCCCCCCCCCCCCCCCCCC(=O)[O-]
REMARK SMILES IDX 13 1 14 2 15 3 16 4 17 5 18 6 19 7 20 8 21 9 22 10 23 11
REMARK SMILES IDX 24 12 25 13 26 14 12 15 11 16 10 17 9 18 8 19 7 20 6 21 5 22
REMARK SMILES IDX 4 23 3 24 2 25 1 26
REMARK H PARENT
REMARK Flexibility Score: inf
ROOT
ATOM      1  C   UNL     1     -10.689 -25.746  28.286  1.00  0.00     0.000 C 
ENDROOT
BRANCH   1   2
ATOM      2  C   UNL     1      -9.997 -24.867  27.227  1.00  0.00     0.000 C 
BRANCH   2   3
ATOM      3  C   UNL     1     -10.732 -23.542  26.975  1.00  0.00     0.000 C 
BRANCH   3   4
ATOM      4  C   UNL     1     -11.483 -23.574  25.636  1.00  0.00     0.000 C 
BRANCH   4   5
ATOM      5  C   UNL     1     -11.469 -24.976  24.993  1.00  0.00     0.000 C 
BRANCH   5   6
ATOM      6  C   UNL     1     -12.859 -25.474  24.562  1.00  0.00     0.000 C 
BRANCH   6   7
ATOM      7  C   UNL     1     -13.860 -24.330  24.331  1.00  0.00     0.000 C 
BRANCH   7   8
ATOM      8  C   UNL     1     -15.271 -24.843  23.999  1.00  0.00     0.000 C 
BRANCH   8   9
ATOM      9  C   UNL     1     -15.401 -26.364  24.175  1.00  0.00     0.000 C 
BRANCH   9  10
ATOM     10  C   UNL     1     -16.242 -26.703  25.412  1.00  0.00     0.006 C 
BRANCH  10  11
ATOM     11  C   UNL     1     -15.481 -27.642  26.354  1.00  0.00     0.053 C 
BRANCH  11  12
ATOM     12  C   UNL     1     -16.312 -27.966  27.556  1.00  0.00     0.041 C 
ATOM     13  O   UNL     1     -17.545 -28.189  27.433  1.00  0.00    -0.550 OA
ATOM     14  O   UNL     1     -15.731 -27.980  28.818  1.00  0.00    -0.550 OA
ENDBRANCH  11  12
ENDBRANCH  10  11
ENDBRANCH   9  10
ENDBRANCH   8   9
ENDBRANCH   7   8
ENDBRANCH   6   7
ENDBRANCH   5   6
ENDBRANCH   4   5
ENDBRANCH   3   4
ENDBRANCH   2   3
ENDBRANCH   1   2
BRANCH   1  15
ATOM     15  C   UNL     1     -10.144 -27.183  28.398  1.00  0.00     0.000 C 
BRANCH  15  16
ATOM     16  C   UNL     1      -8.637 -27.276  28.102  1.00  0.00     0.000 C 
BRANCH  16  17
ATOM     17  C   UNL     1      -7.775 -27.190  29.374  1.00  0.00     0.000 C 
BRANCH  17  18
ATOM     18  C   UNL     1      -6.270 -27.294  29.075  1.00  0.00    -0.000 C 
BRANCH  18  19
ATOM     19  C   UNL     1      -5.436 -27.653  30.319  1.00  0.00    -0.000 C 
BRANCH  19  20
ATOM     20  C   UNL     1      -6.246 -27.876  31.609  1.00  0.00    -0.000 C 
BRANCH  20  21
ATOM     21  C   UNL     1      -5.632 -27.178  32.831  1.00  0.00    -0.000 C 
BRANCH  21  22
ATOM     22  C   UNL     1      -5.527 -25.664  32.607  1.00  0.00    -0.000 C 
BRANCH  22  23
ATOM     23  C   UNL     1      -6.892 -24.985  32.792  1.00  0.00    -0.000 C 
BRANCH  23  24
ATOM     24  C   UNL     1      -7.349 -24.211  31.544  1.00  0.00    -0.000 C 
BRANCH  24  25
ATOM     25  C   UNL     1      -8.860 -24.341  31.255  1.00  0.00    -0.003 C 
ATOM     26  C   UNL     1      -9.522 -25.428  32.103  1.00  0.00     0.004 C 
ENDBRANCH  24  25
ENDBRANCH  23  24
ENDBRANCH  22  23
ENDBRANCH  21  22
ENDBRANCH  20  21
ENDBRANCH  19  20
ENDBRANCH  18  19
ENDBRANCH  17  18
ENDBRANCH  16  17
ENDBRANCH  15  16
ENDBRANCH   1  15
TORSDOF 22
ENDMDL
MODEL 4
REMARK VINA RESULT:    -4.778      2.399      4.011
REMARK INTER + INTRA:         -14.326
REMARK INTER:                 -11.433
REMARK INTRA:                  -2.893
REMARK UNBOUND:                -3.403
REMARK SMILES CCCCCCCCCCCCCCCCCCCCCCCC(=O)[O-]
REMARK SMILES IDX 13 1 14 2 15 3 16 4 17 5 18 6 19 7 20 8 21 9 22 10 23 11
REMARK SMILES IDX 24 12 25 13 26 14 12 15 11 16 10 17 9 18 8 19 7 20 6 21 5 22
REMARK SMILES IDX 4 23 3 24 2 25 1 26
REMARK H PARENT
REMARK Flexibility Score: inf
ROOT
ATOM      1  C   UNL     1      -6.128 -26.937  30.315  1.00  0.00     0.000 C 
ENDROOT
BRANCH   1   2
ATOM      2  C   UNL     1      -6.044 -27.970  31.454  1.00  0.00     0.000 C 
BRANCH   2   3
ATOM      3  C   UNL     1      -4.795 -28.859  31.367  1.00  0.00     0.000 C 
BRANCH   3   4
ATOM      4  C   UNL     1      -3.531 -28.073  31.748  1.00  0.00     0.000 C 
BRANCH   4   5
ATOM      5  C   UNL     1      -3.716 -27.268  33.051  1.00  0.00     0.000 C 
BRANCH   5   6
ATOM      6  C   UNL     1      -3.808 -28.145  34.312  1.00  0.00     0.000 C 
BRANCH   6   7
ATOM      7  C   UNL     1      -4.532 -27.448  35.475  1.00  0.00     0.000 C 
BRANCH   7   8
ATOM      8  C   UNL     1      -4.684 -25.934  35.250  1.00  0.00     0.000 C 
BRANCH   8   9
ATOM      9  C   UNL     1      -6.074 -25.416  35.653  1.00  0.00     0.000 C 
BRANCH   9  10
ATOM     10  C   UNL     1      -6.515 -24.264  34.743  1.00  0.00     0.006 C 
BRANCH  10  11
ATOM     11  C   UNL     1      -6.368 -24.643  33.266  1.00  0.00     0.053 C 
BRANCH  11  12
ATOM     12  C   UNL     1      -7.711 -24.742  32.614  1.00  0.00     0.041 C 
ATOM     13  O   UNL     1      -8.495 -25.679  32.916  1.00  0.00    -0.550 OA
ATOM     14  O   UNL     1      -8.079 -23.821  31.641  1.00  0.00    -0.550 OA
ENDBRANCH  11  12
ENDBRANCH  10  11
ENDBRANCH   9  10
ENDBRANCH   8   9
ENDBRANCH   7   8
ENDBRANCH   6   7
ENDBRANCH   5   6
ENDBRANCH   4   5
ENDBRANCH   3   4
ENDBRANCH   2   3
ENDBRANCH   1   2
BRANCH   1  15
ATOM     15  C   UNL     1      -6.311 -27.532  28.906  1.00  0.00     0.000 C 
BRANCH  15  16
ATOM     16  C   UNL     1      -7.680 -27.197  28.289  1.00  0.00     0.000 C 
BRANCH  16  17
ATOM     17  C   UNL     1      -8.534 -26.293  29.194  1.00  0.00     0.000 C 
BRANCH  17  18
ATOM     18  C   UNL     1      -9.719 -27.041  29.829  1.00  0.00    -0.000 C 
BRANCH  18  19
ATOM     19  C   UNL     1     -11.073 -26.660  29.205  1.00  0.00    -0.000 C 
BRANCH  19  20
ATOM     20  C   UNL     1     -11.658 -27.694  28.225  1.00  0.00    -0.000 C 
BRANCH  20  21
ATOM     21  C   UNL     1     -11.946 -27.106  26.835  1.00  0.00    -0.000 C 
BRANCH  21  22
ATOM     22  C   UNL     1     -10.678 -26.506  26.217  1.00  0.00    -0.000 C 
BRANCH  22  23
ATOM     23  C   UNL     1     -10.936 -25.080  25.707  1.00  0.00    -0.000 C 
BRANCH  23  24
ATOM     24  C   UNL     1     -10.244 -24.005  26.561  1.00  0.00    -0.000 C 
BRANCH  24  25
ATOM     25  C   UNL     1     -10.986 -22.652  26.571  1.00  0.00    -0.003 C 
ATOM     26  C   UNL     1     -12.161 -22.626  25.593  1.00  0.00     0.004 C 
ENDBRANCH  24  25
ENDBRANCH  23  24
ENDBRANCH  22  23
ENDBRANCH  21  22
ENDBRANCH  20  21
ENDBRANCH  19  20
ENDBRANCH  18  19
ENDBRANCH  17  18
ENDBRANCH  16  17
ENDBRANCH  15  16
ENDBRANCH   1  15
TORSDOF 22
ENDMDL
MODEL 5
REMARK VINA RESULT:    -4.665      2.942      8.412
REMARK INTER + INTRA:         -14.068
REMARK INTER:                 -10.281
REMARK INTRA:                  -3.787
REMARK UNBOUND:                -3.403
REMARK SMILES CCCCCCCCCCCCCCCCCCCCCCCC(=O)[O-]
REMARK SMILES IDX 13 1 14 2 15 3 16 4 17 5 18 6 19 7 20 8 21 9 22 10 23 11
REMARK SMILES IDX 24 12 25 13 26 14 12 15 11 16 10 17 9 18 8 19 7 20 6 21 5 22
REMARK SMILES IDX 4 23 3 24 2 25 1 26
REMARK H PARENT
REMARK Flexibility Score: inf
ROOT
ATOM      1  C   UNL     1      -9.913 -25.193  30.729  1.00  0.00     0.000 C 
ENDROOT
BRANCH   1   2
ATOM      2  C   UNL     1     -10.185 -25.572  29.261  1.00  0.00     0.000 C 
BRANCH   2   3
ATOM      3  C   UNL     1      -8.935 -25.471  28.374  1.00  0.00     0.000 C 
BRANCH   3   4
ATOM      4  C   UNL     1      -8.504 -26.857  27.870  1.00  0.00     0.000 C 
BRANCH   4   5
ATOM      5  C   UNL     1      -9.561 -27.940  28.169  1.00  0.00     0.000 C 
BRANCH   5   6
ATOM      6  C   UNL     1     -10.237 -28.510  26.911  1.00  0.00     0.000 C 
BRANCH   6   7
ATOM      7  C   UNL     1     -11.770 -28.542  27.017  1.00  0.00     0.000 C 
BRANCH   7   8
ATOM      8  C   UNL     1     -12.398 -27.145  26.884  1.00  0.00     0.000 C 
BRANCH   8   9
ATOM      9  C   UNL     1     -13.153 -26.962  25.559  1.00  0.00     0.000 C 
BRANCH   9  10
ATOM     10  C   UNL     1     -12.693 -25.691  24.835  1.00  0.00     0.006 C 
BRANCH  10  11
ATOM     11  C   UNL     1     -11.373 -25.174  25.418  1.00  0.00     0.053 C 
BRANCH  11  12
ATOM     12  C   UNL     1     -11.460 -23.706  25.694  1.00  0.00     0.041 C 
ATOM     13  O   UNL     1     -12.403 -23.025  25.211  1.00  0.00    -0.550 OA
ATOM     14  O   UNL     1     -10.476 -23.082  26.450  1.00  0.00    -0.550 OA
ENDBRANCH  11  12
ENDBRANCH  10  11
ENDBRANCH   9  10
ENDBRANCH   8   9
ENDBRANCH   7   8
ENDBRANCH   6   7
ENDBRANCH   5   6
ENDBRANCH   4   5
ENDBRANCH   3   4
ENDBRANCH   2   3
ENDBRANCH   1   2
BRANCH   1  15
ATOM     15  C   UNL     1     -10.001 -26.360  31.731  1.00  0.00     0.000 C 
BRANCH  15  16
ATOM     16  C   UNL     1      -8.630 -26.758  32.307  1.00  0.00     0.000 C 
BRANCH  16  17
ATOM     17  C   UNL     1      -8.023 -27.983  31.602  1.00  0.00     0.000 C 
BRANCH  17  18
ATOM     18  C   UNL     1      -6.650 -27.685  30.976  1.00  0.00    -0.000 C 
BRANCH  18  19
ATOM     19  C   UNL     1      -6.348 -26.178  30.884  1.00  0.00    -0.000 C 
BRANCH  19  20
ATOM     20  C   UNL     1      -5.146 -25.698  31.720  1.00  0.00    -0.000 C 
BRANCH  20  21
ATOM     21  C   UNL     1      -4.388 -26.850  32.395  1.00  0.00    -0.000 C 
BRANCH  21  22
ATOM     22  C   UNL     1      -3.892 -26.443  33.788  1.00  0.00    -0.000 C 
BRANCH  22  23
ATOM     23  C   UNL     1      -4.870 -26.905  34.878  1.00  0.00    -0.000 C 
BRANCH  23  24
ATOM     24  C   UNL     1      -5.478 -25.736  35.671  1.00  0.00    -0.000 C 
BRANCH  24  25
ATOM     25  C   UNL     1      -6.767 -25.167  35.041  1.00  0.00    -0.003 C 
ATOM     26  C   UNL     1      -6.582 -23.736  34.534  1.00  0.00     0.004 C 
ENDBRANCH  24  25
ENDBRANCH  23  24
ENDBRANCH  22  23
ENDBRANCH  21  22
ENDBRANCH  20  21
ENDBRANCH  19  20
ENDBRANCH  18  19
ENDBRANCH  17  18
ENDBRANCH  16  17
ENDBRANCH  15  16
ENDBRANCH   1  15
TORSDOF 22
ENDMDL
MODEL 6
REMARK VINA RESULT:    -4.611      3.249      8.029
REMARK INTER + INTRA:         -13.943
REMARK INTER:                 -10.731
REMARK INTRA:                  -3.212
REMARK UNBOUND:                -3.403
REMARK SMILES CCCCCCCCCCCCCCCCCCCCCCCC(=O)[O-]
REMARK SMILES IDX 13 1 14 2 15 3 16 4 17 5 18 6 19 7 20 8 21 9 22 10 23 11
REMARK SMILES IDX 24 12 25 13 26 14 12 15 11 16 10 17 9 18 8 19 7 20 6 21 5 22
REMARK SMILES IDX 4 23 3 24 2 25 1 26
REMARK H PARENT
REMARK Flexibility Score: inf
ROOT
ATOM      1  C   UNL     1     -10.473 -26.076  30.682  1.00  0.00     0.000 C 
ENDROOT
BRANCH   1   2
ATOM      2  C   UNL     1      -9.643 -24.945  30.045  1.00  0.00     0.000 C 
BRANCH   2   3
ATOM      3  C   UNL     1      -8.777 -25.425  28.871  1.00  0.00     0.000 C 
BRANCH   3   4
ATOM      4  C   UNL     1      -8.033 -26.721  29.229  1.00  0.00     0.000 C 
BRANCH   4   5
ATOM      5  C   UNL     1      -7.798 -27.618  27.996  1.00  0.00     0.000 C 
BRANCH   5   6
ATOM      6  C   UNL     1      -9.035 -27.765  27.093  1.00  0.00     0.000 C 
BRANCH   6   7
ATOM      7  C   UNL     1     -10.256 -28.330  27.836  1.00  0.00     0.000 C 
BRANCH   7   8
ATOM      8  C   UNL     1     -11.555 -27.587  27.482  1.00  0.00     0.000 C 
BRANCH   8   9
ATOM      9  C   UNL     1     -11.383 -26.642  26.282  1.00  0.00     0.000 C 
BRANCH   9  10
ATOM     10  C   UNL     1     -11.186 -25.194  26.748  1.00  0.00     0.006 C 
BRANCH  10  11
ATOM     11  C   UNL     1     -10.841 -24.279  25.568  1.00  0.00     0.053 C 
BRANCH  11  12
ATOM     12  C   UNL     1     -11.870 -23.204  25.419  1.00  0.00     0.041 C 
ATOM     13  O   UNL     1     -12.955 -23.442  24.826  1.00  0.00    -0.550 OA
ATOM     14  O   UNL     1     -11.614 -21.926  25.900  1.00  0.00    -0.550 OA
ENDBRANCH  11  12
ENDBRANCH  10  11
ENDBRANCH   9  10
ENDBRANCH   8   9
ENDBRANCH   7   8
ENDBRANCH   6   7
ENDBRANCH   5   6
ENDBRANCH   4   5
ENDBRANCH   3   4
ENDBRANCH   2   3
ENDBRANCH   1   2
BRANCH   1  15
ATOM     15  C   UNL     1     -10.285 -26.246  32.202  1.00  0.00     0.000 C 
BRANCH  15  16
ATOM     16  C   UNL     1      -8.852 -26.654  32.585  1.00  0.00     0.000 C 
BRANCH  16  17
ATOM     17  C   UNL     1      -8.151 -25.603  33.463  1.00  0.00     0.000 C 
BRANCH  17  18
ATOM     18  C   UNL     1      -7.314 -24.608  32.640  1.00  0.00    -0.000 C 
BRANCH  18  19
ATOM     19  C   UNL     1      -5.966 -25.194  32.182  1.00  0.00    -0.000 C 
BRANCH  19  20
ATOM     20  C   UNL     1      -4.781 -24.934  33.132  1.00  0.00    -0.000 C 
BRANCH  20  21
ATOM     21  C   UNL     1      -4.328 -26.194  33.884  1.00  0.00    -0.000 C 
BRANCH  21  22
ATOM     22  C   UNL     1      -4.902 -27.459  33.236  1.00  0.00    -0.000 C 
BRANCH  22  23
ATOM     23  C   UNL     1      -3.789 -28.471  32.924  1.00  0.00    -0.000 C 
BRANCH  23  24
ATOM     24  C   UNL     1      -3.785 -28.921  31.453  1.00  0.00    -0.000 C 
BRANCH  24  25
ATOM     25  C   UNL     1      -4.907 -28.282  30.608  1.00  0.00    -0.003 C 
ATOM     26  C   UNL     1      -4.360 -27.359  29.519  1.00  0.00     0.004 C 
ENDBRANCH  24  25
ENDBRANCH  23  24
ENDBRANCH  22  23
ENDBRANCH  21  22
ENDBRANCH  20  21
ENDBRANCH  19  20
ENDBRANCH  18  19
ENDBRANCH  17  18
ENDBRANCH  16  17
ENDBRANCH  15  16
ENDBRANCH   1  15
TORSDOF 22
ENDMDL
MODEL 7
REMARK VINA RESULT:    -4.590      3.030      8.242
REMARK INTER + INTRA:         -13.897
REMARK INTER:                 -10.793
REMARK INTRA:                  -3.104
REMARK UNBOUND:                -3.403
REMARK SMILES CCCCCCCCCCCCCCCCCCCCCCCC(=O)[O-]
REMARK SMILES IDX 13 1 14 2 15 3 16 4 17 5 18 6 19 7 20 8 21 9 22 10 23 11
REMARK SMILES IDX 24 12 25 13 26 14 12 15 11 16 10 17 9 18 8 19 7 20 6 21 5 22
REMARK SMILES IDX 4 23 3 24 2 25 1 26
REMARK H PARENT
REMARK Flexibility Score: inf
ROOT
ATOM      1  C   UNL     1      -6.643 -26.585  30.252  1.00  0.00     0.000 C 
ENDROOT
BRANCH   1   2
ATOM      2  C   UNL     1      -7.326 -27.462  31.318  1.00  0.00     0.000 C 
BRANCH   2   3
ATOM      3  C   UNL     1      -8.702 -26.928  31.742  1.00  0.00     0.000 C 
BRANCH   3   4
ATOM      4  C   UNL     1      -8.840 -25.434  31.411  1.00  0.00     0.000 C 
BRANCH   4   5
ATOM      5  C   UNL     1      -9.922 -25.171  30.344  1.00  0.00     0.000 C 
BRANCH   5   6
ATOM      6  C   UNL     1     -10.997 -26.269  30.268  1.00  0.00     0.000 C 
BRANCH   6   7
ATOM      7  C   UNL     1     -11.012 -27.000  28.916  1.00  0.00     0.000 C 
BRANCH   7   8
ATOM      8  C   UNL     1      -9.974 -26.435  27.931  1.00  0.00     0.000 C 
BRANCH   8   9
ATOM      9  C   UNL     1     -10.378 -26.649  26.464  1.00  0.00     0.000 C 
BRANCH   9  10
ATOM     10  C   UNL     1     -10.994 -25.374  25.874  1.00  0.00     0.006 C 
BRANCH  10  11
ATOM     11  C   UNL     1     -10.355 -24.122  26.484  1.00  0.00     0.053 C 
BRANCH  11  12
ATOM     12  C   UNL     1     -11.118 -22.898  26.087  1.00  0.00     0.041 C 
ATOM     13  O   UNL     1     -10.830 -21.780  26.589  1.00  0.00    -0.550 OA
ATOM     14  O   UNL     1     -12.176 -22.999  25.191  1.00  0.00    -0.550 OA
ENDBRANCH  11  12
ENDBRANCH  10  11
ENDBRANCH   9  10
ENDBRANCH   8   9
ENDBRANCH   7   8
ENDBRANCH   6   7
ENDBRANCH   5   6
ENDBRANCH   4   5
ENDBRANCH   3   4
ENDBRANCH   2   3
ENDBRANCH   1   2
BRANCH   1  15
ATOM     15  C   UNL     1      -5.600 -27.310  29.381  1.00  0.00     0.000 C 
BRANCH  15  16
ATOM     16  C   UNL     1      -4.223 -27.412  30.058  1.00  0.00     0.000 C 
BRANCH  16  17
ATOM     17  C   UNL     1      -4.014 -28.753  30.781  1.00  0.00     0.000 C 
BRANCH  17  18
ATOM     18  C   UNL     1      -3.847 -28.586  32.301  1.00  0.00    -0.000 C 
BRANCH  18  19
ATOM     19  C   UNL     1      -2.375 -28.632  32.751  1.00  0.00    -0.000 C 
BRANCH  19  20
ATOM     20  C   UNL     1      -2.144 -28.426  34.260  1.00  0.00    -0.000 C 
BRANCH  20  21
ATOM     21  C   UNL     1      -2.539 -27.022  34.741  1.00  0.00    -0.000 C 
BRANCH  21  22
ATOM     22  C   UNL     1      -3.434 -27.097  35.984  1.00  0.00    -0.000 C 
BRANCH  22  23
ATOM     23  C   UNL     1      -4.568 -26.065  35.909  1.00  0.00    -0.000 C 
BRANCH  23  24
ATOM     24  C   UNL     1      -5.605 -26.393  34.821  1.00  0.00    -0.000 C 
BRANCH  24  25
ATOM     25  C   UNL     1      -5.979 -25.184  33.938  1.00  0.00    -0.003 C 
ATOM     26  C   UNL     1      -4.935 -24.911  32.855  1.00  0.00     0.004 C 
ENDBRANCH  24  25
ENDBRANCH  23  24
ENDBRANCH  22  23
ENDBRANCH  21  22
ENDBRANCH  20  21
ENDBRANCH  19  20
ENDBRANCH  18  19
ENDBRANCH  17  18
ENDBRANCH  16  17
ENDBRANCH  15  16
ENDBRANCH   1  15
TORSDOF 22
ENDMDL
MODEL 8
REMARK VINA RESULT:    -4.587      3.938      9.222
REMARK INTER + INTRA:         -13.890
REMARK INTER:                 -11.009
REMARK INTRA:                  -2.881
REMARK UNBOUND:                -3.403
REMARK SMILES CCCCCCCCCCCCCCCCCCCCCCCC(=O)[O-]
REMARK SMILES IDX 13 1 14 2 15 3 16 4 17 5 18 6 19 7 20 8 21 9 22 10 23 11
REMARK SMILES IDX 24 12 25 13 26 14 12 15 11 16 10 17 9 18 8 19 7 20 6 21 5 22
REMARK SMILES IDX 4 23 3 24 2 25 1 26
REMARK H PARENT
REMARK Flexibility Score: inf
ROOT
ATOM      1  C   UNL     1      -9.741 -26.910  32.093  1.00  0.00     0.000 C 
ENDROOT
BRANCH   1   2
ATOM      2  C   UNL     1     -10.613 -25.882  31.347  1.00  0.00     0.000 C 
BRANCH   2   3
ATOM      3  C   UNL     1     -10.651 -26.116  29.829  1.00  0.00     0.000 C 
BRANCH   3   4
ATOM      4  C   UNL     1      -9.924 -24.989  29.080  1.00  0.00     0.000 C 
BRANCH   4   5
ATOM      5  C   UNL     1      -9.439 -25.435  27.685  1.00  0.00     0.000 C 
BRANCH   5   6
ATOM      6  C   UNL     1     -10.323 -24.931  26.531  1.00  0.00     0.000 C 
BRANCH   6   7
ATOM      7  C   UNL     1     -10.895 -23.527  26.784  1.00  0.00     0.000 C 
BRANCH   7   8
ATOM      8  C   UNL     1     -11.799 -23.047  25.636  1.00  0.00     0.000 C 
BRANCH   8   9
ATOM      9  C   UNL     1     -12.436 -24.211  24.861  1.00  0.00     0.000 C 
BRANCH   9  10
ATOM     10  C   UNL     1     -13.855 -23.854  24.404  1.00  0.00     0.006 C 
BRANCH  10  11
ATOM     11  C   UNL     1     -14.436 -24.951  23.505  1.00  0.00     0.053 C 
BRANCH  11  12
ATOM     12  C   UNL     1     -15.700 -25.495  24.091  1.00  0.00     0.041 C 
ATOM     13  O   UNL     1     -16.815 -25.185  23.595  1.00  0.00    -0.550 OA
ATOM     14  O   UNL     1     -15.649 -26.313  25.213  1.00  0.00    -0.550 OA
ENDBRANCH  11  12
ENDBRANCH  10  11
ENDBRANCH   9  10
ENDBRANCH   8   9
ENDBRANCH   7   8
ENDBRANCH   6   7
ENDBRANCH   5   6
ENDBRANCH   4   5
ENDBRANCH   3   4
ENDBRANCH   2   3
ENDBRANCH   1   2
BRANCH   1  15
ATOM     15  C   UNL     1      -9.099 -27.989  31.202  1.00  0.00     0.000 C 
BRANCH  15  16
ATOM     16  C   UNL     1      -7.562 -27.983  31.268  1.00  0.00     0.000 C 
BRANCH  16  17
ATOM     17  C   UNL     1      -6.920 -27.200  30.109  1.00  0.00     0.000 C 
BRANCH  17  18
ATOM     18  C   UNL     1      -5.391 -27.361  30.062  1.00  0.00    -0.000 C 
BRANCH  18  19
ATOM     19  C   UNL     1      -4.859 -28.345  31.120  1.00  0.00    -0.000 C 
BRANCH  19  20
ATOM     20  C   UNL     1      -3.764 -27.784  32.046  1.00  0.00    -0.000 C 
BRANCH  20  21
ATOM     21  C   UNL     1      -4.006 -28.112  33.527  1.00  0.00    -0.000 C 
BRANCH  21  22
ATOM     22  C   UNL     1      -4.676 -26.937  34.249  1.00  0.00    -0.000 C 
BRANCH  22  23
ATOM     23  C   UNL     1      -4.386 -25.611  33.531  1.00  0.00    -0.000 C 
BRANCH  23  24
ATOM     24  C   UNL     1      -5.514 -24.579  33.699  1.00  0.00    -0.000 C 
BRANCH  24  25
ATOM     25  C   UNL     1      -6.854 -25.023  33.073  1.00  0.00    -0.003 C 
ATOM     26  C   UNL     1      -7.371 -24.021  32.039  1.00  0.00     0.004 C 
ENDBRANCH  24  25
ENDBRANCH  23  24
ENDBRANCH  22  23
ENDBRANCH  21  22
ENDBRANCH  20  21
ENDBRANCH  19  20
ENDBRANCH  18  19
ENDBRANCH  17  18
ENDBRANCH  16  17
ENDBRANCH  15  16
ENDBRANCH   1  15
TORSDOF 22
ENDMDL
MODEL 9
REMARK VINA RESULT:    -4.553      3.808      6.115
REMARK INTER + INTRA:         -13.812
REMARK INTER:                 -11.165
REMARK INTRA:                  -2.647
REMARK UNBOUND:                -3.403
REMARK SMILES CCCCCCCCCCCCCCCCCCCCCCCC(=O)[O-]
REMARK SMILES IDX 13 1 14 2 15 3 16 4 17 5 18 6 19 7 20 8 21 9 22 10 23 11
REMARK SMILES IDX 24 12 25 13 26 14 12 15 11 16 10 17 9 18 8 19 7 20 6 21 5 22
REMARK SMILES IDX 4 23 3 24 2 25 1 26
REMARK H PARENT
REMARK Flexibility Score: inf
ROOT
ATOM      1  C   UNL     1      -7.390 -25.144  33.426  1.00  0.00     0.000 C 
ENDROOT
BRANCH   1   2
ATOM      2  C   UNL     1      -6.071 -24.592  33.997  1.00  0.00     0.000 C 
BRANCH   2   3
ATOM      3  C   UNL     1      -4.851 -24.940  33.131  1.00  0.00     0.000 C 
BRANCH   3   4
ATOM      4  C   UNL     1      -4.333 -26.350  33.449  1.00  0.00     0.000 C 
BRANCH   4   5
ATOM      5  C   UNL     1      -4.378 -27.279  32.218  1.00  0.00     0.000 C 
BRANCH   5   6
ATOM      6  C   UNL     1      -4.917 -26.598  30.948  1.00  0.00     0.000 C 
BRANCH   6   7
ATOM      7  C   UNL     1      -5.557 -27.589  29.962  1.00  0.00     0.000 C 
BRANCH   7   8
ATOM      8  C   UNL     1      -7.093 -27.513  29.967  1.00  0.00     0.000 C 
BRANCH   8   9
ATOM      9  C   UNL     1      -7.646 -26.729  28.766  1.00  0.00     0.000 C 
BRANCH   9  10
ATOM     10  C   UNL     1      -9.147 -26.989  28.587  1.00  0.00     0.006 C 
BRANCH  10  11
ATOM     11  C   UNL     1      -9.859 -25.745  28.044  1.00  0.00     0.053 C 
BRANCH  11  12
ATOM     12  C   UNL     1     -10.798 -26.119  26.941  1.00  0.00     0.041 C 
ATOM     13  O   UNL     1     -11.570 -27.105  27.072  1.00  0.00    -0.550 OA
ATOM     14  O   UNL     1     -10.792 -25.401  25.751  1.00  0.00    -0.550 OA
ENDBRANCH  11  12
ENDBRANCH  10  11
ENDBRANCH   9  10
ENDBRANCH   8   9
ENDBRANCH   7   8
ENDBRANCH   6   7
ENDBRANCH   5   6
ENDBRANCH   4   5
ENDBRANCH   3   4
ENDBRANCH   2   3
ENDBRANCH   1   2
BRANCH   1  15
ATOM     15  C   UNL     1      -7.789 -24.586  32.046  1.00  0.00     0.000 C 
BRANCH  15  16
ATOM     16  C   UNL     1      -9.253 -24.884  31.680  1.00  0.00     0.000 C 
BRANCH  16  17
ATOM     17  C   UNL     1      -9.731 -26.247  32.209  1.00  0.00     0.000 C 
BRANCH  17  18
ATOM     18  C   UNL     1     -11.137 -26.180  32.831  1.00  0.00    -0.000 C 
BRANCH  18  19
ATOM     19  C   UNL     1     -11.111 -25.855  34.336  1.00  0.00    -0.000 C 
BRANCH  19  20
ATOM     20  C   UNL     1     -12.490 -25.812  35.021  1.00  0.00    -0.000 C 
BRANCH  20  21
ATOM     21  C   UNL     1     -13.656 -25.828  34.022  1.00  0.00    -0.000 C 
BRANCH  21  22
ATOM     22  C   UNL     1     -14.985 -25.511  34.719  1.00  0.00    -0.000 C 
BRANCH  22  23
ATOM     23  C   UNL     1     -16.177 -25.863  33.818  1.00  0.00    -0.000 C 
BRANCH  23  24
ATOM     24  C   UNL     1     -15.874 -25.672  32.322  1.00  0.00    -0.000 C 
BRANCH  24  25
ATOM     25  C   UNL     1     -16.652 -26.640  31.406  1.00  0.00    -0.003 C 
ATOM     26  C   UNL     1     -15.834 -27.881  31.043  1.00  0.00     0.004 C 
ENDBRANCH  24  25
ENDBRANCH  23  24
ENDBRANCH  22  23
ENDBRANCH  21  22
ENDBRANCH  20  21
ENDBRANCH  19  20
ENDBRANCH  18  19
ENDBRANCH  17  18
ENDBRANCH  16  17
ENDBRANCH  15  16
ENDBRANCH   1  15
TORSDOF 22
ENDMDL
