MODEL 1
REMARK VINA RESULT:    -6.717      0.000      0.000
REMARK INTER + INTRA:          -8.387
REMARK INTER:                  -8.092
REMARK INTRA:                  -0.295
REMARK UNBOUND:                -0.295
REMARK SMILES O=c1c(O)c(-c2ccc(O)c(O)c2)oc2cc(O)cc(O)c12
REMARK SMILES IDX 5 1 3 2 2 3 1 4 22 5 20 6 19 7 17 8 16 9 15 10 14 11 6 12
REMARK SMILES IDX 7 13 8 14 9 15 13 16 11 17 10 18 12 20 4 22 21 24 18 26
REMARK H PARENT 10 19 12 21 4 23 21 25 18 27
REMARK Flexibility Score: inf
ROOT
ATOM      1  C   UNL     1       4.842 -60.703 189.747  1.00  0.00     0.180 A 
ATOM      2  C   UNL     1       3.494 -60.997 189.479  1.00  0.00     0.208 A 
ATOM      3  C   UNL     1       3.185 -62.133 188.714  1.00  0.00     0.238 A 
ATOM      4  O   UNL     1       1.975 -62.422 188.523  1.00  0.00    -0.285 OA
ATOM      5  C   UNL     1       4.226 -62.951 188.214  1.00  0.00     0.111 A 
ATOM      6  C   UNL     1       4.030 -64.104 187.395  1.00  0.00     0.134 A 
ATOM      7  C   UNL     1       5.124 -64.912 187.067  1.00  0.00     0.093 A 
ATOM      8  C   UNL     1       6.417 -64.574 187.474  1.00  0.00     0.123 A 
ATOM      9  C   UNL     1       6.627 -63.419 188.222  1.00  0.00     0.094 A 
ATOM     10  C   UNL     1       5.550 -62.611 188.597  1.00  0.00     0.146 A 
ATOM     11  O   UNL     1       5.792 -61.525 189.321  1.00  0.00    -0.452 OA
ENDROOT
BRANCH   1  12
ATOM     12  C   UNL     1       5.248 -59.510 190.525  1.00  0.00     0.025 A 
ATOM     13  C   UNL     1       5.551 -59.597 191.895  1.00  0.00     0.016 A 
ATOM     14  C   UNL     1       5.908 -58.453 192.614  1.00  0.00     0.051 A 
ATOM     15  C   UNL     1       5.955 -57.205 191.980  1.00  0.00     0.157 A 
ATOM     16  C   UNL     1       5.276 -58.253 189.899  1.00  0.00     0.062 A 
ATOM     17  C   UNL     1       5.634 -57.105 190.616  1.00  0.00     0.158 A 
BRANCH  15  18
ATOM     18  O   UNL     1       6.313 -56.066 192.700  1.00  0.00    -0.504 OA
ATOM     19  H   UNL     1       5.620 -55.490 193.161  1.00  0.00     0.293 HD
ENDBRANCH  15  18
BRANCH  17  20
ATOM     20  O   UNL     1       5.664 -55.876 189.956  1.00  0.00    -0.504 OA
ATOM     21  H   UNL     1       4.980 -55.151 190.141  1.00  0.00     0.293 HD
ENDBRANCH  17  20
ENDBRANCH   1  12
BRANCH   2  22
ATOM     22  O   UNL     1       2.481 -60.188 190.000  1.00  0.00    -0.502 OA
ATOM     23  H   UNL     1       2.674 -59.322 190.491  1.00  0.00     0.293 HD
ENDBRANCH   2  22
BRANCH   6  24
ATOM     24  O   UNL     1       2.794 -64.479 186.860  1.00  0.00    -0.507 OA
ATOM     25  H   UNL     1       2.462 -65.428 186.788  1.00  0.00     0.293 HD
ENDBRANCH   6  24
BRANCH   8  26
ATOM     26  O   UNL     1       7.504 -65.376 187.129  1.00  0.00    -0.508 OA
ATOM     27  H   UNL     1       7.463 -66.014 186.343  1.00  0.00     0.293 HD
ENDBRANCH   8  26
TORSDOF 6
ENDMDL
MODEL 2
REMARK VINA RESULT:    -6.646      0.811      1.532
REMARK INTER + INTRA:          -8.301
REMARK INTER:                  -7.998
REMARK INTRA:                  -0.303
REMARK UNBOUND:                -0.295
REMARK SMILES O=c1c(O)c(-c2ccc(O)c(O)c2)oc2cc(O)cc(O)c12
REMARK SMILES IDX 5 1 3 2 2 3 1 4 22 5 20 6 19 7 17 8 16 9 15 10 14 11 6 12
REMARK SMILES IDX 7 13 8 14 9 15 13 16 11 17 10 18 12 20 4 22 21 24 18 26
REMARK H PARENT 10 19 12 21 4 23 21 25 18 27
REMARK Flexibility Score: inf
ROOT
ATOM      1  C   UNL     1       4.784 -60.245 189.979  1.00  0.00     0.180 A 
ATOM      2  C   UNL     1       3.440 -60.584 189.751  1.00  0.00     0.208 A 
ATOM      3  C   UNL     1       3.145 -61.747 189.022  1.00  0.00     0.238 A 
ATOM      4  O   UNL     1       1.939 -62.074 188.867  1.00  0.00    -0.285 OA
ATOM      5  C   UNL     1       4.197 -62.548 188.517  1.00  0.00     0.111 A 
ATOM      6  C   UNL     1       4.015 -63.725 187.731  1.00  0.00     0.134 A 
ATOM      7  C   UNL     1       5.124 -64.511 187.397  1.00  0.00     0.093 A 
ATOM      8  C   UNL     1       6.416 -64.126 187.763  1.00  0.00     0.123 A 
ATOM      9  C   UNL     1       6.610 -62.947 188.478  1.00  0.00     0.094 A 
ATOM     10  C   UNL     1       5.519 -62.161 188.859  1.00  0.00     0.146 A 
ATOM     11  O   UNL     1       5.747 -61.050 189.550  1.00  0.00    -0.452 OA
ENDROOT
BRANCH   1  12
ATOM     12  C   UNL     1       5.173 -59.022 190.717  1.00  0.00     0.025 A 
ATOM     13  C   UNL     1       5.148 -57.757 190.103  1.00  0.00     0.016 A 
ATOM     14  C   UNL     1       5.543 -56.620 190.812  1.00  0.00     0.051 A 
ATOM     15  C   UNL     1       5.982 -56.729 192.138  1.00  0.00     0.157 A 
ATOM     16  C   UNL     1       5.634 -59.129 192.040  1.00  0.00     0.062 A 
ATOM     17  C   UNL     1       6.029 -57.991 192.753  1.00  0.00     0.158 A 
BRANCH  15  18
ATOM     18  O   UNL     1       6.374 -55.591 192.843  1.00  0.00    -0.504 OA
ATOM     19  H   UNL     1       6.898 -55.657 193.707  1.00  0.00     0.293 HD
ENDBRANCH  15  18
BRANCH  17  20
ATOM     20  O   UNL     1       6.468 -58.136 194.069  1.00  0.00    -0.504 OA
ATOM     21  H   UNL     1       7.368 -57.785 194.377  1.00  0.00     0.293 HD
ENDBRANCH  17  20
ENDBRANCH   1  12
BRANCH   2  22
ATOM     22  O   UNL     1       2.416 -59.791 190.277  1.00  0.00    -0.502 OA
ATOM     23  H   UNL     1       2.597 -59.000 190.884  1.00  0.00     0.293 HD
ENDBRANCH   2  22
BRANCH   6  24
ATOM     24  O   UNL     1       2.778 -64.149 187.236  1.00  0.00    -0.507 OA
ATOM     25  H   UNL     1       2.577 -64.322 186.264  1.00  0.00     0.293 HD
ENDBRANCH   6  24
BRANCH   8  26
ATOM     26  O   UNL     1       7.517 -64.906 187.412  1.00  0.00    -0.508 OA
ATOM     27  H   UNL     1       7.613 -65.862 187.732  1.00  0.00     0.293 HD
ENDBRANCH   8  26
TORSDOF 6
ENDMDL
MODEL 3
REMARK VINA RESULT:    -6.295      1.019      1.215
REMARK INTER + INTRA:          -7.879
REMARK INTER:                  -7.556
REMARK INTRA:                  -0.323
REMARK UNBOUND:                -0.295
REMARK SMILES O=c1c(O)c(-c2ccc(O)c(O)c2)oc2cc(O)cc(O)c12
REMARK SMILES IDX 5 1 3 2 2 3 1 4 22 5 20 6 19 7 17 8 16 9 15 10 14 11 6 12
REMARK SMILES IDX 7 13 8 14 9 15 13 16 11 17 10 18 12 20 4 22 21 24 18 26
REMARK H PARENT 10 19 12 21 4 23 21 25 18 27
REMARK Flexibility Score: inf
ROOT
ATOM      1  C   UNL     1       5.185 -59.939 190.581  1.00  0.00     0.180 A 
ATOM      2  C   UNL     1       3.850 -60.240 190.261  1.00  0.00     0.208 A 
ATOM      3  C   UNL     1       3.581 -61.333 189.422  1.00  0.00     0.238 A 
ATOM      4  O   UNL     1       2.382 -61.630 189.182  1.00  0.00    -0.285 OA
ATOM      5  C   UNL     1       4.649 -62.101 188.901  1.00  0.00     0.111 A 
ATOM      6  C   UNL     1       4.495 -63.205 188.009  1.00  0.00     0.134 A 
ATOM      7  C   UNL     1       5.613 -63.973 187.662  1.00  0.00     0.093 A 
ATOM      8  C   UNL     1       6.889 -63.638 188.121  1.00  0.00     0.123 A 
ATOM      9  C   UNL     1       7.058 -62.527 188.943  1.00  0.00     0.094 A 
ATOM     10  C   UNL     1       5.957 -61.762 189.337  1.00  0.00     0.146 A 
ATOM     11  O   UNL     1       6.161 -60.717 190.131  1.00  0.00    -0.452 OA
ENDROOT
BRANCH   1  12
ATOM     12  C   UNL     1       5.549 -58.788 191.439  1.00  0.00     0.025 A 
ATOM     13  C   UNL     1       5.665 -58.923 192.834  1.00  0.00     0.016 A 
ATOM     14  C   UNL     1       5.986 -57.817 193.626  1.00  0.00     0.051 A 
ATOM     15  C   UNL     1       6.182 -56.560 193.040  1.00  0.00     0.157 A 
ATOM     16  C   UNL     1       5.725 -57.522 190.859  1.00  0.00     0.062 A 
ATOM     17  C   UNL     1       6.048 -56.412 191.650  1.00  0.00     0.158 A 
BRANCH  15  18
ATOM     18  O   UNL     1       6.503 -55.459 193.834  1.00  0.00    -0.504 OA
ATOM     19  H   UNL     1       6.793 -55.567 194.798  1.00  0.00     0.293 HD
ENDBRANCH  15  18
BRANCH  17  20
ATOM     20  O   UNL     1       6.229 -55.173 191.036  1.00  0.00    -0.504 OA
ATOM     21  H   UNL     1       5.448 -54.619 190.704  1.00  0.00     0.293 HD
ENDBRANCH  17  20
ENDBRANCH   1  12
BRANCH   2  22
ATOM     22  O   UNL     1       2.809 -59.482 190.804  1.00  0.00    -0.502 OA
ATOM     23  H   UNL     1       2.972 -58.630 191.328  1.00  0.00     0.293 HD
ENDBRANCH   2  22
BRANCH   6  24
ATOM     24  O   UNL     1       3.280 -63.569 187.421  1.00  0.00    -0.507 OA
ATOM     25  H   UNL     1       2.397 -63.608 187.905  1.00  0.00     0.293 HD
ENDBRANCH   6  24
BRANCH   8  26
ATOM     26  O   UNL     1       7.999 -64.399 187.757  1.00  0.00    -0.508 OA
ATOM     27  H   UNL     1       8.575 -64.861 188.450  1.00  0.00     0.293 HD
ENDBRANCH   8  26
TORSDOF 6
ENDMDL
MODEL 4
REMARK VINA RESULT:    -6.210      1.433      2.970
REMARK INTER + INTRA:          -7.776
REMARK INTER:                  -7.808
REMARK INTRA:                   0.032
REMARK UNBOUND:                -0.295
REMARK SMILES O=c1c(O)c(-c2ccc(O)c(O)c2)oc2cc(O)cc(O)c12
REMARK SMILES IDX 5 1 3 2 2 3 1 4 22 5 20 6 19 7 17 8 16 9 15 10 14 11 6 12
REMARK SMILES IDX 7 13 8 14 9 15 13 16 11 17 10 18 12 20 4 22 21 24 18 26
REMARK H PARENT 10 19 12 21 4 23 21 25 18 27
REMARK Flexibility Score: inf
ROOT
ATOM      1  C   UNL     1       5.733 -61.311 189.795  1.00  0.00     0.180 A 
ATOM      2  C   UNL     1       7.008 -61.876 189.625  1.00  0.00     0.208 A 
ATOM      3  C   UNL     1       7.145 -63.015 188.816  1.00  0.00     0.238 A 
ATOM      4  O   UNL     1       8.297 -63.485 188.624  1.00  0.00    -0.285 OA
ATOM      5  C   UNL     1       6.005 -63.584 188.200  1.00  0.00     0.111 A 
ATOM      6  C   UNL     1       6.021 -64.761 187.393  1.00  0.00     0.134 A 
ATOM      7  C   UNL     1       4.855 -65.158 186.728  1.00  0.00     0.093 A 
ATOM      8  C   UNL     1       3.657 -64.458 186.893  1.00  0.00     0.123 A 
ATOM      9  C   UNL     1       3.617 -63.344 187.727  1.00  0.00     0.094 A 
ATOM     10  C   UNL     1       4.773 -62.901 188.375  1.00  0.00     0.146 A 
ATOM     11  O   UNL     1       4.693 -61.827 189.152  1.00  0.00    -0.452 OA
ENDROOT
BRANCH   1  12
ATOM     12  C   UNL     1       5.505 -60.125 190.653  1.00  0.00     0.025 A 
ATOM     13  C   UNL     1       6.069 -60.031 191.937  1.00  0.00     0.016 A 
ATOM     14  C   UNL     1       5.820 -58.913 192.738  1.00  0.00     0.051 A 
ATOM     15  C   UNL     1       4.995 -57.880 192.275  1.00  0.00     0.157 A 
ATOM     16  C   UNL     1       4.661 -59.097 190.201  1.00  0.00     0.062 A 
ATOM     17  C   UNL     1       4.411 -57.975 191.001  1.00  0.00     0.158 A 
BRANCH  15  18
ATOM     18  O   UNL     1       4.750 -56.766 193.076  1.00  0.00    -0.504 OA
ATOM     19  H   UNL     1       3.921 -56.198 192.956  1.00  0.00     0.293 HD
ENDBRANCH  15  18
BRANCH  17  20
ATOM     20  O   UNL     1       3.579 -56.968 190.513  1.00  0.00    -0.504 OA
ATOM     21  H   UNL     1       2.857 -56.543 191.084  1.00  0.00     0.293 HD
ENDBRANCH  17  20
ENDBRANCH   1  12
BRANCH   2  22
ATOM     22  O   UNL     1       8.124 -61.286 190.225  1.00  0.00    -0.502 OA
ATOM     23  H   UNL     1       8.209 -61.177 191.229  1.00  0.00     0.293 HD
ENDBRANCH   2  22
BRANCH   6  24
ATOM     24  O   UNL     1       7.141 -65.582 187.235  1.00  0.00    -0.507 OA
ATOM     25  H   UNL     1       8.064 -65.367 187.577  1.00  0.00     0.293 HD
ENDBRANCH   6  24
BRANCH   8  26
ATOM     26  O   UNL     1       2.497 -64.870 186.240  1.00  0.00    -0.508 OA
ATOM     27  H   UNL     1       1.810 -65.457 186.699  1.00  0.00     0.293 HD
ENDBRANCH   8  26
TORSDOF 6
ENDMDL
MODEL 5
REMARK VINA RESULT:    -6.178      2.440      7.069
REMARK INTER + INTRA:          -7.737
REMARK INTER:                  -7.550
REMARK INTRA:                  -0.187
REMARK UNBOUND:                -0.295
REMARK SMILES O=c1c(O)c(-c2ccc(O)c(O)c2)oc2cc(O)cc(O)c12
REMARK SMILES IDX 5 1 3 2 2 3 1 4 22 5 20 6 19 7 17 8 16 9 15 10 14 11 6 12
REMARK SMILES IDX 7 13 8 14 9 15 13 16 11 17 10 18 12 20 4 22 21 24 18 26
REMARK H PARENT 10 19 12 21 4 23 21 25 18 27
REMARK Flexibility Score: inf
ROOT
ATOM      1  C   UNL     1       5.247 -59.488 190.856  1.00  0.00     0.180 A 
ATOM      2  C   UNL     1       3.859 -59.586 191.050  1.00  0.00     0.208 A 
ATOM      3  C   UNL     1       3.165 -58.483 191.572  1.00  0.00     0.238 A 
ATOM      4  O   UNL     1       1.915 -58.558 191.694  1.00  0.00    -0.285 OA
ATOM      5  C   UNL     1       3.869 -57.302 191.907  1.00  0.00     0.111 A 
ATOM      6  C   UNL     1       3.274 -56.137 192.479  1.00  0.00     0.134 A 
ATOM      7  C   UNL     1       4.044 -54.980 192.648  1.00  0.00     0.093 A 
ATOM      8  C   UNL     1       5.403 -54.966 192.326  1.00  0.00     0.123 A 
ATOM      9  C   UNL     1       6.007 -56.115 191.823  1.00  0.00     0.094 A 
ATOM     10  C   UNL     1       5.256 -57.275 191.609  1.00  0.00     0.146 A 
ATOM     11  O   UNL     1       5.869 -58.345 191.117  1.00  0.00    -0.452 OA
ENDROOT
BRANCH   1  12
ATOM     12  C   UNL     1       6.051 -60.617 190.334  1.00  0.00     0.025 A 
ATOM     13  C   UNL     1       5.894 -61.080 189.015  1.00  0.00     0.016 A 
ATOM     14  C   UNL     1       6.646 -62.163 188.552  1.00  0.00     0.051 A 
ATOM     15  C   UNL     1       7.555 -62.807 189.400  1.00  0.00     0.157 A 
ATOM     16  C   UNL     1       6.949 -61.280 191.187  1.00  0.00     0.062 A 
ATOM     17  C   UNL     1       7.705 -62.364 190.725  1.00  0.00     0.158 A 
BRANCH  15  18
ATOM     18  O   UNL     1       8.306 -63.886 188.934  1.00  0.00    -0.504 OA
ATOM     19  H   UNL     1       8.448 -64.716 189.498  1.00  0.00     0.293 HD
ENDBRANCH  15  18
BRANCH  17  20
ATOM     20  O   UNL     1       8.596 -62.988 191.598  1.00  0.00    -0.504 OA
ATOM     21  H   UNL     1       9.099 -62.473 192.311  1.00  0.00     0.293 HD
ENDBRANCH  17  20
ENDBRANCH   1  12
BRANCH   2  22
ATOM     22  O   UNL     1       3.180 -60.754 190.693  1.00  0.00    -0.502 OA
ATOM     23  H   UNL     1       2.759 -61.371 191.379  1.00  0.00     0.293 HD
ENDBRANCH   2  22
BRANCH   6  24
ATOM     24  O   UNL     1       1.949 -56.076 192.920  1.00  0.00    -0.507 OA
ATOM     25  H   UNL     1       1.584 -55.378 193.549  1.00  0.00     0.293 HD
ENDBRANCH   6  24
BRANCH   8  26
ATOM     26  O   UNL     1       6.166 -53.814 192.512  1.00  0.00    -0.508 OA
ATOM     27  H   UNL     1       7.137 -53.862 192.797  1.00  0.00     0.293 HD
ENDBRANCH   8  26
TORSDOF 6
ENDMDL
MODEL 6
REMARK VINA RESULT:    -6.162      2.071      2.807
REMARK INTER + INTRA:          -7.718
REMARK INTER:                  -7.401
REMARK INTRA:                  -0.317
REMARK UNBOUND:                -0.295
REMARK SMILES O=c1c(O)c(-c2ccc(O)c(O)c2)oc2cc(O)cc(O)c12
REMARK SMILES IDX 5 1 3 2 2 3 1 4 22 5 20 6 19 7 17 8 16 9 15 10 14 11 6 12
REMARK SMILES IDX 7 13 8 14 9 15 13 16 11 17 10 18 12 20 4 22 21 24 18 26
REMARK H PARENT 10 19 12 21 4 23 21 25 18 27
REMARK Flexibility Score: inf
ROOT
ATOM      1  C   UNL     1       5.053 -59.173 191.501  1.00  0.00     0.180 A 
ATOM      2  C   UNL     1       4.021 -59.525 190.615  1.00  0.00     0.208 A 
ATOM      3  C   UNL     1       4.227 -60.584 189.716  1.00  0.00     0.238 A 
ATOM      4  O   UNL     1       3.280 -60.930 188.962  1.00  0.00    -0.285 OA
ATOM      5  C   UNL     1       5.466 -61.267 189.704  1.00  0.00     0.111 A 
ATOM      6  C   UNL     1       5.799 -62.328 188.809  1.00  0.00     0.134 A 
ATOM      7  C   UNL     1       7.006 -63.018 188.973  1.00  0.00     0.093 A 
ATOM      8  C   UNL     1       7.922 -62.642 189.959  1.00  0.00     0.123 A 
ATOM      9  C   UNL     1       7.633 -61.569 190.798  1.00  0.00     0.094 A 
ATOM     10  C   UNL     1       6.420 -60.885 190.682  1.00  0.00     0.146 A 
ATOM     11  O   UNL     1       6.180 -59.875 191.510  1.00  0.00    -0.452 OA
ENDROOT
BRANCH   1  12
ATOM     12  C   UNL     1       4.920 -58.053 192.459  1.00  0.00     0.025 A 
ATOM     13  C   UNL     1       4.317 -58.232 193.717  1.00  0.00     0.016 A 
ATOM     14  C   UNL     1       4.180 -57.155 194.595  1.00  0.00     0.051 A 
ATOM     15  C   UNL     1       4.631 -55.881 194.228  1.00  0.00     0.157 A 
ATOM     16  C   UNL     1       5.352 -56.769 192.087  1.00  0.00     0.062 A 
ATOM     17  C   UNL     1       5.217 -55.687 192.966  1.00  0.00     0.158 A 
BRANCH  15  18
ATOM     18  O   UNL     1       4.495 -54.808 195.108  1.00  0.00    -0.504 OA
ATOM     19  H   UNL     1       3.773 -54.793 195.818  1.00  0.00     0.293 HD
ENDBRANCH  15  18
BRANCH  17  20
ATOM     20  O   UNL     1       5.670 -54.430 192.566  1.00  0.00    -0.504 OA
ATOM     21  H   UNL     1       5.482 -53.594 193.107  1.00  0.00     0.293 HD
ENDBRANCH  17  20
ENDBRANCH   1  12
BRANCH   2  22
ATOM     22  O   UNL     1       2.797 -58.852 190.658  1.00  0.00    -0.502 OA
ATOM     23  H   UNL     1       1.917 -59.332 190.810  1.00  0.00     0.293 HD
ENDBRANCH   2  22
BRANCH   6  24
ATOM     24  O   UNL     1       4.996 -62.722 187.734  1.00  0.00    -0.507 OA
ATOM     25  H   UNL     1       3.992 -62.802 187.766  1.00  0.00     0.293 HD
ENDBRANCH   6  24
BRANCH   8  26
ATOM     26  O   UNL     1       9.129 -63.324 190.105  1.00  0.00    -0.508 OA
ATOM     27  H   UNL     1       9.932 -63.110 189.527  1.00  0.00     0.293 HD
ENDBRANCH   8  26
TORSDOF 6
ENDMDL
MODEL 7
REMARK VINA RESULT:    -6.160      2.048      6.875
REMARK INTER + INTRA:          -7.716
REMARK INTER:                  -8.058
REMARK INTRA:                   0.342
REMARK UNBOUND:                -0.295
REMARK SMILES O=c1c(O)c(-c2ccc(O)c(O)c2)oc2cc(O)cc(O)c12
REMARK SMILES IDX 5 1 3 2 2 3 1 4 22 5 20 6 19 7 17 8 16 9 15 10 14 11 6 12
REMARK SMILES IDX 7 13 8 14 9 15 13 16 11 17 10 18 12 20 4 22 21 24 18 26
REMARK H PARENT 10 19 12 21 4 23 21 25 18 27
REMARK Flexibility Score: inf
ROOT
ATOM      1  C   UNL     1       5.254 -60.275 190.673  1.00  0.00     0.180 A 
ATOM      2  C   UNL     1       3.852 -60.196 190.715  1.00  0.00     0.208 A 
ATOM      3  C   UNL     1       3.249 -59.183 191.479  1.00  0.00     0.238 A 
ATOM      4  O   UNL     1       1.995 -59.084 191.469  1.00  0.00    -0.285 OA
ATOM      5  C   UNL     1       4.056 -58.274 192.204  1.00  0.00     0.111 A 
ATOM      6  C   UNL     1       3.553 -57.234 193.043  1.00  0.00     0.134 A 
ATOM      7  C   UNL     1       4.441 -56.312 193.608  1.00  0.00     0.093 A 
ATOM      8  C   UNL     1       5.820 -56.430 193.418  1.00  0.00     0.123 A 
ATOM      9  C   UNL     1       6.325 -57.477 192.651  1.00  0.00     0.094 A 
ATOM     10  C   UNL     1       5.461 -58.392 192.043  1.00  0.00     0.146 A 
ATOM     11  O   UNL     1       5.984 -59.368 191.310  1.00  0.00    -0.452 OA
ENDROOT
BRANCH   1  12
ATOM     12  C   UNL     1       5.961 -61.330 189.911  1.00  0.00     0.025 A 
ATOM     13  C   UNL     1       5.358 -61.968 188.813  1.00  0.00     0.016 A 
ATOM     14  C   UNL     1       6.034 -62.977 188.123  1.00  0.00     0.051 A 
ATOM     15  C   UNL     1       7.316 -63.373 188.526  1.00  0.00     0.157 A 
ATOM     16  C   UNL     1       7.237 -61.744 190.324  1.00  0.00     0.062 A 
ATOM     17  C   UNL     1       7.919 -62.755 189.634  1.00  0.00     0.158 A 
BRANCH  15  18
ATOM     18  O   UNL     1       7.989 -64.379 187.834  1.00  0.00    -0.504 OA
ATOM     19  H   UNL     1       8.953 -64.270 187.545  1.00  0.00     0.293 HD
ENDBRANCH  15  18
BRANCH  17  20
ATOM     20  O   UNL     1       9.190 -63.130 190.067  1.00  0.00    -0.504 OA
ATOM     21  H   UNL     1       9.790 -62.499 190.585  1.00  0.00     0.293 HD
ENDBRANCH  17  20
ENDBRANCH   1  12
BRANCH   2  22
ATOM     22  O   UNL     1       3.074 -61.091 189.974  1.00  0.00    -0.502 OA
ATOM     23  H   UNL     1       3.402 -62.015 189.721  1.00  0.00     0.293 HD
ENDBRANCH   2  22
BRANCH   6  24
ATOM     24  O   UNL     1       2.202 -57.082 193.371  1.00  0.00    -0.507 OA
ATOM     25  H   UNL     1       1.692 -57.682 193.999  1.00  0.00     0.293 HD
ENDBRANCH   6  24
BRANCH   8  26
ATOM     26  O   UNL     1       6.699 -55.517 193.998  1.00  0.00    -0.508 OA
ATOM     27  H   UNL     1       6.389 -54.856 194.700  1.00  0.00     0.293 HD
ENDBRANCH   8  26
TORSDOF 6
ENDMDL
MODEL 8
REMARK VINA RESULT:    -6.138      1.614      6.709
REMARK INTER + INTRA:          -7.690
REMARK INTER:                  -7.971
REMARK INTRA:                   0.282
REMARK UNBOUND:                -0.295
REMARK SMILES O=c1c(O)c(-c2ccc(O)c(O)c2)oc2cc(O)cc(O)c12
REMARK SMILES IDX 5 1 3 2 2 3 1 4 22 5 20 6 19 7 17 8 16 9 15 10 14 11 6 12
REMARK SMILES IDX 7 13 8 14 9 15 13 16 11 17 10 18 12 20 4 22 21 24 18 26
REMARK H PARENT 10 19 12 21 4 23 21 25 18 27
REMARK Flexibility Score: inf
ROOT
ATOM      1  C   UNL     1       5.114 -61.030 189.722  1.00  0.00     0.180 A 
ATOM      2  C   UNL     1       3.931 -60.417 189.276  1.00  0.00     0.208 A 
ATOM      3  C   UNL     1       3.414 -59.328 189.995  1.00  0.00     0.238 A 
ATOM      4  O   UNL     1       2.385 -58.749 189.560  1.00  0.00    -0.285 OA
ATOM      5  C   UNL     1       4.078 -58.875 191.160  1.00  0.00     0.111 A 
ATOM      6  C   UNL     1       3.623 -57.806 191.990  1.00  0.00     0.134 A 
ATOM      7  C   UNL     1       4.428 -57.359 193.044  1.00  0.00     0.093 A 
ATOM      8  C   UNL     1       5.642 -57.985 193.339  1.00  0.00     0.123 A 
ATOM      9  C   UNL     1       6.066 -59.067 192.573  1.00  0.00     0.094 A 
ATOM     10  C   UNL     1       5.302 -59.513 191.492  1.00  0.00     0.146 A 
ATOM     11  O   UNL     1       5.749 -60.542 190.780  1.00  0.00    -0.452 OA
ENDROOT
BRANCH   1  12
ATOM     12  C   UNL     1       5.705 -62.198 189.031  1.00  0.00     0.025 A 
ATOM     13  C   UNL     1       7.098 -62.379 188.958  1.00  0.00     0.016 A 
ATOM     14  C   UNL     1       7.634 -63.476 188.279  1.00  0.00     0.051 A 
ATOM     15  C   UNL     1       6.790 -64.402 187.653  1.00  0.00     0.157 A 
ATOM     16  C   UNL     1       4.864 -63.118 188.383  1.00  0.00     0.062 A 
ATOM     17  C   UNL     1       5.397 -64.219 187.703  1.00  0.00     0.158 A 
BRANCH  15  18
ATOM     18  O   UNL     1       7.328 -65.496 186.977  1.00  0.00    -0.504 OA
ATOM     19  H   UNL     1       7.865 -66.206 187.461  1.00  0.00     0.293 HD
ENDBRANCH  15  18
BRANCH  17  20
ATOM     20  O   UNL     1       4.529 -65.117 187.083  1.00  0.00    -0.504 OA
ATOM     21  H   UNL     1       4.620 -65.364 186.104  1.00  0.00     0.293 HD
ENDBRANCH  17  20
ENDBRANCH   1  12
BRANCH   2  22
ATOM     22  O   UNL     1       3.303 -60.866 188.110  1.00  0.00    -0.502 OA
ATOM     23  H   UNL     1       3.823 -61.157 187.290  1.00  0.00     0.293 HD
ENDBRANCH   2  22
BRANCH   6  24
ATOM     24  O   UNL     1       2.385 -57.174 191.837  1.00  0.00    -0.507 OA
ATOM     25  H   UNL     1       1.571 -57.360 192.402  1.00  0.00     0.293 HD
ENDBRANCH   6  24
BRANCH   8  26
ATOM     26  O   UNL     1       6.429 -57.543 194.401  1.00  0.00    -0.508 OA
ATOM     27  H   UNL     1       6.705 -56.572 194.488  1.00  0.00     0.293 HD
ENDBRANCH   8  26
TORSDOF 6
ENDMDL
MODEL 9
REMARK VINA RESULT:    -6.075      2.262      3.219
REMARK INTER + INTRA:          -7.614
REMARK INTER:                  -7.284
REMARK INTRA:                  -0.330
REMARK UNBOUND:                -0.295
REMARK SMILES O=c1c(O)c(-c2ccc(O)c(O)c2)oc2cc(O)cc(O)c12
REMARK SMILES IDX 5 1 3 2 2 3 1 4 22 5 20 6 19 7 17 8 16 9 15 10 14 11 6 12
REMARK SMILES IDX 7 13 8 14 9 15 13 16 11 17 10 18 12 20 4 22 21 24 18 26
REMARK H PARENT 10 19 12 21 4 23 21 25 18 27
REMARK Flexibility Score: inf
ROOT
ATOM      1  C   UNL     1       4.958 -59.236 191.505  1.00  0.00     0.180 A 
ATOM      2  C   UNL     1       3.943 -59.590 190.600  1.00  0.00     0.208 A 
ATOM      3  C   UNL     1       4.176 -60.634 189.690  1.00  0.00     0.238 A 
ATOM      4  O   UNL     1       3.244 -60.984 188.920  1.00  0.00    -0.285 OA
ATOM      5  C   UNL     1       5.425 -61.299 189.686  1.00  0.00     0.111 A 
ATOM      6  C   UNL     1       5.785 -62.344 188.782  1.00  0.00     0.134 A 
ATOM      7  C   UNL     1       6.999 -63.018 188.954  1.00  0.00     0.093 A 
ATOM      8  C   UNL     1       7.896 -62.642 189.957  1.00  0.00     0.123 A 
ATOM      9  C   UNL     1       7.581 -61.585 190.806  1.00  0.00     0.094 A 
ATOM     10  C   UNL     1       6.360 -60.916 190.682  1.00  0.00     0.146 A 
ATOM     11  O   UNL     1       6.094 -59.921 191.520  1.00  0.00    -0.452 OA
ENDROOT
BRANCH   1  12
ATOM     12  C   UNL     1       4.796 -58.130 192.476  1.00  0.00     0.025 A 
ATOM     13  C   UNL     1       5.073 -56.798 192.123  1.00  0.00     0.016 A 
ATOM     14  C   UNL     1       4.936 -55.774 193.063  1.00  0.00     0.051 A 
ATOM     15  C   UNL     1       4.534 -56.065 194.373  1.00  0.00     0.157 A 
ATOM     16  C   UNL     1       4.413 -58.419 193.796  1.00  0.00     0.062 A 
ATOM     17  C   UNL     1       4.274 -57.395 194.741  1.00  0.00     0.158 A 
BRANCH  15  18
ATOM     18  O   UNL     1       4.397 -55.040 195.308  1.00  0.00    -0.504 OA
ATOM     19  H   UNL     1       4.610 -55.185 196.288  1.00  0.00     0.293 HD
ENDBRANCH  15  18
BRANCH  17  20
ATOM     20  O   UNL     1       3.879 -57.721 196.038  1.00  0.00    -0.504 OA
ATOM     21  H   UNL     1       2.936 -57.556 196.370  1.00  0.00     0.293 HD
ENDBRANCH  17  20
ENDBRANCH   1  12
BRANCH   2  22
ATOM     22  O   UNL     1       2.708 -58.935 190.636  1.00  0.00    -0.502 OA
ATOM     23  H   UNL     1       2.413 -58.374 191.427  1.00  0.00     0.293 HD
ENDBRANCH   2  22
BRANCH   6  24
ATOM     24  O   UNL     1       5.002 -62.735 187.691  1.00  0.00    -0.507 OA
ATOM     25  H   UNL     1       5.261 -63.442 187.022  1.00  0.00     0.293 HD
ENDBRANCH   6  24
BRANCH   8  26
ATOM     26  O   UNL     1       9.111 -63.308 190.110  1.00  0.00    -0.508 OA
ATOM     27  H   UNL     1       9.944 -63.014 189.615  1.00  0.00     0.293 HD
ENDBRANCH   8  26
TORSDOF 6
ENDMDL
