MODEL 1
REMARK VINA RESULT:    -5.788      0.000      0.000
REMARK INTER + INTRA:          -7.194
REMARK INTER:                  -6.973
REMARK INTRA:                  -0.222
REMARK UNBOUND:                -0.222
REMARK SMILES O=c1c(O)c(-c2ccc(O)c(O)c2)oc2cc(O)cc(O)c12
REMARK SMILES IDX 5 1 3 2 2 3 1 4 22 5 20 6 19 7 17 8 16 9 15 10 14 11 6 12
REMARK SMILES IDX 7 13 8 14 9 15 13 16 11 17 10 18 12 20 4 22 21 24 18 26
REMARK H PARENT 10 19 12 21 4 23 21 25 18 27
REMARK Flexibility Score: inf
ROOT
ATOM      1  C   UNL     1      36.647 182.858 171.937  1.00  0.00     0.180 A 
ATOM      2  C   UNL     1      36.497 184.078 172.619  1.00  0.00     0.208 A 
ATOM      3  C   UNL     1      37.644 184.755 173.064  1.00  0.00     0.238 A 
ATOM      4  O   UNL     1      37.505 185.882 173.608  1.00  0.00    -0.285 OA
ATOM      5  C   UNL     1      38.923 184.177 172.873  1.00  0.00     0.111 A 
ATOM      6  C   UNL     1      40.149 184.753 173.323  1.00  0.00     0.134 A 
ATOM      7  C   UNL     1      41.364 184.144 172.982  1.00  0.00     0.093 A 
ATOM      8  C   UNL     1      41.393 182.946 172.264  1.00  0.00     0.123 A 
ATOM      9  C   UNL     1      40.200 182.348 171.869  1.00  0.00     0.094 A 
ATOM     10  C   UNL     1      38.973 182.951 172.160  1.00  0.00     0.146 A 
ATOM     11  O   UNL     1      37.861 182.357 171.743  1.00  0.00    -0.452 OA
ENDROOT
BRANCH   1  12
ATOM     12  C   UNL     1      35.488 182.093 171.425  1.00  0.00     0.025 A 
ATOM     13  C   UNL     1      35.199 180.832 171.967  1.00  0.00     0.016 A 
ATOM     14  C   UNL     1      34.122 180.084 171.484  1.00  0.00     0.051 A 
ATOM     15  C   UNL     1      33.328 180.576 170.444  1.00  0.00     0.157 A 
ATOM     16  C   UNL     1      34.701 182.578 170.363  1.00  0.00     0.062 A 
ATOM     17  C   UNL     1      33.622 181.827 169.876  1.00  0.00     0.158 A 
BRANCH  15  18
ATOM     18  O   UNL     1      32.259 179.808 169.985  1.00  0.00    -0.504 OA
ATOM     19  H   UNL     1      32.337 178.808 169.844  1.00  0.00     0.293 HD
ENDBRANCH  15  18
BRANCH  17  20
ATOM     20  O   UNL     1      32.843 182.317 168.829  1.00  0.00    -0.504 OA
ATOM     21  H   UNL     1      32.451 183.251 168.851  1.00  0.00     0.293 HD
ENDBRANCH  17  20
ENDBRANCH   1  12
BRANCH   2  22
ATOM     22  O   UNL     1      35.222 184.594 172.866  1.00  0.00    -0.502 OA
ATOM     23  H   UNL     1      34.513 184.075 173.370  1.00  0.00     0.293 HD
ENDBRANCH   2  22
BRANCH   6  24
ATOM     24  O   UNL     1      40.231 185.898 174.121  1.00  0.00    -0.507 OA
ATOM     25  H   UNL     1      41.088 186.331 174.425  1.00  0.00     0.293 HD
ENDBRANCH   6  24
BRANCH   8  26
ATOM     26  O   UNL     1      42.605 182.338 171.945  1.00  0.00    -0.508 OA
ATOM     27  H   UNL     1      42.897 182.209 170.983  1.00  0.00     0.293 HD
ENDBRANCH   8  26
TORSDOF 6
ENDMDL
MODEL 2
REMARK VINA RESULT:    -5.688      0.873      1.525
REMARK INTER + INTRA:          -7.073
REMARK INTER:                  -6.750
REMARK INTRA:                  -0.323
REMARK UNBOUND:                -0.222
REMARK SMILES O=c1c(O)c(-c2ccc(O)c(O)c2)oc2cc(O)cc(O)c12
REMARK SMILES IDX 5 1 3 2 2 3 1 4 22 5 20 6 19 7 17 8 16 9 15 10 14 11 6 12
REMARK SMILES IDX 7 13 8 14 9 15 13 16 11 17 10 18 12 20 4 22 21 24 18 26
REMARK H PARENT 10 19 12 21 4 23 21 25 18 27
REMARK Flexibility Score: inf
ROOT
ATOM      1  C   UNL     1      36.266 183.081 171.688  1.00  0.00     0.180 A 
ATOM      2  C   UNL     1      36.131 184.358 172.258  1.00  0.00     0.208 A 
ATOM      3  C   UNL     1      37.288 185.075 172.602  1.00  0.00     0.238 A 
ATOM      4  O   UNL     1      37.161 186.248 173.043  1.00  0.00    -0.285 OA
ATOM      5  C   UNL     1      38.563 184.486 172.424  1.00  0.00     0.111 A 
ATOM      6  C   UNL     1      39.800 185.104 172.780  1.00  0.00     0.134 A 
ATOM      7  C   UNL     1      41.007 184.468 172.460  1.00  0.00     0.093 A 
ATOM      8  C   UNL     1      41.019 183.209 171.855  1.00  0.00     0.123 A 
ATOM      9  C   UNL     1      39.817 182.574 171.554  1.00  0.00     0.094 A 
ATOM     10  C   UNL     1      38.597 183.199 171.827  1.00  0.00     0.146 A 
ATOM     11  O   UNL     1      37.476 182.567 171.503  1.00  0.00    -0.452 OA
ENDROOT
BRANCH   1  12
ATOM     12  C   UNL     1      35.095 182.269 171.285  1.00  0.00     0.025 A 
ATOM     13  C   UNL     1      34.572 182.407 169.990  1.00  0.00     0.016 A 
ATOM     14  C   UNL     1      33.456 181.667 169.595  1.00  0.00     0.051 A 
ATOM     15  C   UNL     1      32.835 180.789 170.490  1.00  0.00     0.157 A 
ATOM     16  C   UNL     1      34.458 181.402 172.192  1.00  0.00     0.062 A 
ATOM     17  C   UNL     1      33.335 180.660 171.797  1.00  0.00     0.158 A 
BRANCH  15  18
ATOM     18  O   UNL     1      31.724 180.062 170.066  1.00  0.00    -0.504 OA
ATOM     19  H   UNL     1      30.990 179.781 170.705  1.00  0.00     0.293 HD
ENDBRANCH  15  18
BRANCH  17  20
ATOM     20  O   UNL     1      32.713 179.798 172.699  1.00  0.00    -0.504 OA
ATOM     21  H   UNL     1      33.078 178.872 172.887  1.00  0.00     0.293 HD
ENDBRANCH  17  20
ENDBRANCH   1  12
BRANCH   2  22
ATOM     22  O   UNL     1      34.862 184.891 172.496  1.00  0.00    -0.502 OA
ATOM     23  H   UNL     1      34.110 184.347 172.902  1.00  0.00     0.293 HD
ENDBRANCH   2  22
BRANCH   6  24
ATOM     24  O   UNL     1      39.900 186.318 173.467  1.00  0.00    -0.507 OA
ATOM     25  H   UNL     1      40.704 186.619 173.994  1.00  0.00     0.293 HD
ENDBRANCH   6  24
BRANCH   8  26
ATOM     26  O   UNL     1      42.224 182.576 171.556  1.00  0.00    -0.508 OA
ATOM     27  H   UNL     1      43.116 183.010 171.764  1.00  0.00     0.293 HD
ENDBRANCH   8  26
TORSDOF 6
ENDMDL
MODEL 3
REMARK VINA RESULT:    -5.613      1.648      6.982
REMARK INTER + INTRA:          -6.983
REMARK INTER:                  -6.670
REMARK INTRA:                  -0.314
REMARK UNBOUND:                -0.222
REMARK SMILES O=c1c(O)c(-c2ccc(O)c(O)c2)oc2cc(O)cc(O)c12
REMARK SMILES IDX 5 1 3 2 2 3 1 4 22 5 20 6 19 7 17 8 16 9 15 10 14 11 6 12
REMARK SMILES IDX 7 13 8 14 9 15 13 16 11 17 10 18 12 20 4 22 21 24 18 26
REMARK H PARENT 10 19 12 21 4 23 21 25 18 27
REMARK Flexibility Score: inf
ROOT
ATOM      1  C   UNL     1      36.439 182.618 171.541  1.00  0.00     0.180 A 
ATOM      2  C   UNL     1      35.662 182.911 170.408  1.00  0.00     0.208 A 
ATOM      3  C   UNL     1      34.496 182.165 170.170  1.00  0.00     0.238 A 
ATOM      4  O   UNL     1      33.767 182.483 169.194  1.00  0.00    -0.285 OA
ATOM      5  C   UNL     1      34.152 181.099 171.036  1.00  0.00     0.111 A 
ATOM      6  C   UNL     1      33.018 180.249 170.865  1.00  0.00     0.134 A 
ATOM      7  C   UNL     1      32.718 179.293 171.845  1.00  0.00     0.093 A 
ATOM      8  C   UNL     1      33.546 179.116 172.956  1.00  0.00     0.123 A 
ATOM      9  C   UNL     1      34.684 179.904 173.103  1.00  0.00     0.094 A 
ATOM     10  C   UNL     1      34.990 180.891 172.162  1.00  0.00     0.146 A 
ATOM     11  O   UNL     1      36.073 181.634 172.354  1.00  0.00    -0.452 OA
ENDROOT
BRANCH   1  12
ATOM     12  C   UNL     1      37.672 183.369 171.868  1.00  0.00     0.025 A 
ATOM     13  C   UNL     1      37.600 184.472 172.733  1.00  0.00     0.016 A 
ATOM     14  C   UNL     1      38.747 185.208 173.039  1.00  0.00     0.051 A 
ATOM     15  C   UNL     1      39.980 184.864 172.475  1.00  0.00     0.157 A 
ATOM     16  C   UNL     1      38.909 183.037 171.284  1.00  0.00     0.062 A 
ATOM     17  C   UNL     1      40.061 183.777 171.589  1.00  0.00     0.158 A 
BRANCH  15  18
ATOM     18  O   UNL     1      41.108 185.615 172.801  1.00  0.00    -0.504 OA
ATOM     19  H   UNL     1      41.042 186.576 173.114  1.00  0.00     0.293 HD
ENDBRANCH  15  18
BRANCH  17  20
ATOM     20  O   UNL     1      41.284 183.438 171.011  1.00  0.00    -0.504 OA
ATOM     21  H   UNL     1      41.352 183.146 170.043  1.00  0.00     0.293 HD
ENDBRANCH  17  20
ENDBRANCH   1  12
BRANCH   2  22
ATOM     22  O   UNL     1      36.060 183.917 169.523  1.00  0.00    -0.502 OA
ATOM     23  H   UNL     1      36.893 183.841 168.952  1.00  0.00     0.293 HD
ENDBRANCH   2  22
BRANCH   6  24
ATOM     24  O   UNL     1      32.175 180.281 169.749  1.00  0.00    -0.507 OA
ATOM     25  H   UNL     1      32.476 180.166 168.794  1.00  0.00     0.293 HD
ENDBRANCH   6  24
BRANCH   8  26
ATOM     26  O   UNL     1      33.249 178.151 173.917  1.00  0.00    -0.508 OA
ATOM     27  H   UNL     1      32.332 178.094 174.344  1.00  0.00     0.293 HD
ENDBRANCH   8  26
TORSDOF 6
ENDMDL
MODEL 4
REMARK VINA RESULT:    -5.037      2.029      6.951
REMARK INTER + INTRA:          -6.289
REMARK INTER:                  -5.995
REMARK INTRA:                  -0.294
REMARK UNBOUND:                -0.222
REMARK SMILES O=c1c(O)c(-c2ccc(O)c(O)c2)oc2cc(O)cc(O)c12
REMARK SMILES IDX 5 1 3 2 2 3 1 4 22 5 20 6 19 7 17 8 16 9 15 10 14 11 6 12
REMARK SMILES IDX 7 13 8 14 9 15 13 16 11 17 10 18 12 20 4 22 21 24 18 26
REMARK H PARENT 10 19 12 21 4 23 21 25 18 27
REMARK Flexibility Score: inf
ROOT
ATOM      1  C   UNL     1      35.886 182.316 172.096  1.00  0.00     0.180 A 
ATOM      2  C   UNL     1      35.099 183.001 173.039  1.00  0.00     0.208 A 
ATOM      3  C   UNL     1      33.765 182.606 173.227  1.00  0.00     0.238 A 
ATOM      4  O   UNL     1      33.090 183.175 174.125  1.00  0.00    -0.285 OA
ATOM      5  C   UNL     1      33.217 181.571 172.433  1.00  0.00     0.111 A 
ATOM      6  C   UNL     1      31.864 181.120 172.507  1.00  0.00     0.134 A 
ATOM      7  C   UNL     1      31.462 180.015 171.746  1.00  0.00     0.093 A 
ATOM      8  C   UNL     1      32.346 179.385 170.866  1.00  0.00     0.123 A 
ATOM      9  C   UNL     1      33.651 179.853 170.746  1.00  0.00     0.094 A 
ATOM     10  C   UNL     1      34.094 180.929 171.520  1.00  0.00     0.146 A 
ATOM     11  O   UNL     1      35.354 181.326 171.389  1.00  0.00    -0.452 OA
ENDROOT
BRANCH   1  12
ATOM     12  C   UNL     1      37.304 182.663 171.852  1.00  0.00     0.025 A 
ATOM     13  C   UNL     1      37.653 183.357 170.683  1.00  0.00     0.016 A 
ATOM     14  C   UNL     1      38.987 183.676 170.421  1.00  0.00     0.051 A 
ATOM     15  C   UNL     1      39.995 183.296 171.313  1.00  0.00     0.157 A 
ATOM     16  C   UNL     1      38.320 182.262 172.738  1.00  0.00     0.062 A 
ATOM     17  C   UNL     1      39.661 182.580 172.475  1.00  0.00     0.158 A 
BRANCH  15  18
ATOM     18  O   UNL     1      41.317 183.631 171.026  1.00  0.00    -0.504 OA
ATOM     19  H   UNL     1      41.916 184.085 171.705  1.00  0.00     0.293 HD
ENDBRANCH  15  18
BRANCH  17  20
ATOM     20  O   UNL     1      40.661 182.185 173.362  1.00  0.00    -0.504 OA
ATOM     21  H   UNL     1      41.135 182.852 173.960  1.00  0.00     0.293 HD
ENDBRANCH  17  20
ENDBRANCH   1  12
BRANCH   2  22
ATOM     22  O   UNL     1      35.637 184.071 173.758  1.00  0.00    -0.502 OA
ATOM     23  H   UNL     1      35.454 185.037 173.515  1.00  0.00     0.293 HD
ENDBRANCH   2  22
BRANCH   6  24
ATOM     24  O   UNL     1      30.876 181.731 173.285  1.00  0.00    -0.507 OA
ATOM     25  H   UNL     1      29.969 182.014 172.950  1.00  0.00     0.293 HD
ENDBRANCH   6  24
BRANCH   8  26
ATOM     26  O   UNL     1      31.932 178.298 170.100  1.00  0.00    -0.508 OA
ATOM     27  H   UNL     1      31.787 178.378 169.100  1.00  0.00     0.293 HD
ENDBRANCH   8  26
TORSDOF 6
ENDMDL
MODEL 5
REMARK VINA RESULT:    -5.020      1.326      1.683
REMARK INTER + INTRA:          -6.269
REMARK INTER:                  -6.036
REMARK INTRA:                  -0.233
REMARK UNBOUND:                -0.222
REMARK SMILES O=c1c(O)c(-c2ccc(O)c(O)c2)oc2cc(O)cc(O)c12
REMARK SMILES IDX 5 1 3 2 2 3 1 4 22 5 20 6 19 7 17 8 16 9 15 10 14 11 6 12
REMARK SMILES IDX 7 13 8 14 9 15 13 16 11 17 10 18 12 20 4 22 21 24 18 26
REMARK H PARENT 10 19 12 21 4 23 21 25 18 27
REMARK Flexibility Score: inf
ROOT
ATOM      1  C   UNL     1      35.962 182.261 172.074  1.00  0.00     0.180 A 
ATOM      2  C   UNL     1      35.556 183.605 172.025  1.00  0.00     0.208 A 
ATOM      3  C   UNL     1      36.531 184.614 172.081  1.00  0.00     0.238 A 
ATOM      4  O   UNL     1      36.165 185.813 171.962  1.00  0.00    -0.285 OA
ATOM      5  C   UNL     1      37.895 184.268 172.240  1.00  0.00     0.111 A 
ATOM      6  C   UNL     1      38.963 185.209 172.353  1.00  0.00     0.134 A 
ATOM      7  C   UNL     1      40.286 184.749 172.401  1.00  0.00     0.093 A 
ATOM      8  C   UNL     1      40.574 183.382 172.403  1.00  0.00     0.123 A 
ATOM      9  C   UNL     1      39.536 182.456 172.349  1.00  0.00     0.094 A 
ATOM     10  C   UNL     1      38.208 182.884 172.263  1.00  0.00     0.146 A 
ATOM     11  O   UNL     1      37.252 181.966 172.190  1.00  0.00    -0.452 OA
ENDROOT
BRANCH   1  12
ATOM     12  C   UNL     1      34.995 181.142 172.006  1.00  0.00     0.025 A 
ATOM     13  C   UNL     1      34.814 180.317 173.126  1.00  0.00     0.016 A 
ATOM     14  C   UNL     1      33.922 179.243 173.078  1.00  0.00     0.051 A 
ATOM     15  C   UNL     1      33.210 178.966 171.907  1.00  0.00     0.157 A 
ATOM     16  C   UNL     1      34.294 180.850 170.821  1.00  0.00     0.062 A 
ATOM     17  C   UNL     1      33.400 179.770 170.771  1.00  0.00     0.158 A 
BRANCH  15  18
ATOM     18  O   UNL     1      32.326 177.889 171.890  1.00  0.00    -0.504 OA
ATOM     19  H   UNL     1      31.753 177.650 172.690  1.00  0.00     0.293 HD
ENDBRANCH  15  18
BRANCH  17  20
ATOM     20  O   UNL     1      32.705 179.492 169.595  1.00  0.00    -0.504 OA
ATOM     21  H   UNL     1      32.050 178.721 169.535  1.00  0.00     0.293 HD
ENDBRANCH  17  20
ENDBRANCH   1  12
BRANCH   2  22
ATOM     22  O   UNL     1      34.198 183.927 171.945  1.00  0.00    -0.502 OA
ATOM     23  H   UNL     1      33.535 183.673 172.667  1.00  0.00     0.293 HD
ENDBRANCH   2  22
BRANCH   6  24
ATOM     24  O   UNL     1      38.782 186.592 172.449  1.00  0.00    -0.507 OA
ATOM     25  H   UNL     1      38.818 187.122 173.305  1.00  0.00     0.293 HD
ENDBRANCH   6  24
BRANCH   8  26
ATOM     26  O   UNL     1      41.892 182.934 172.469  1.00  0.00    -0.508 OA
ATOM     27  H   UNL     1      42.135 182.068 172.936  1.00  0.00     0.293 HD
ENDBRANCH   8  26
TORSDOF 6
ENDMDL
MODEL 6
REMARK VINA RESULT:    -4.772      3.226      5.054
REMARK INTER + INTRA:          -5.970
REMARK INTER:                  -5.642
REMARK INTRA:                  -0.329
REMARK UNBOUND:                -0.222
REMARK SMILES O=c1c(O)c(-c2ccc(O)c(O)c2)oc2cc(O)cc(O)c12
REMARK SMILES IDX 5 1 3 2 2 3 1 4 22 5 20 6 19 7 17 8 16 9 15 10 14 11 6 12
REMARK SMILES IDX 7 13 8 14 9 15 13 16 11 17 10 18 12 20 4 22 21 24 18 26
REMARK H PARENT 10 19 12 21 4 23 21 25 18 27
REMARK Flexibility Score: inf
ROOT
ATOM      1  C   UNL     1      33.263 180.233 172.048  1.00  0.00     0.180 A 
ATOM      2  C   UNL     1      32.499 180.930 172.999  1.00  0.00     0.208 A 
ATOM      3  C   UNL     1      32.858 182.247 173.328  1.00  0.00     0.238 A 
ATOM      4  O   UNL     1      32.125 182.890 174.125  1.00  0.00    -0.285 OA
ATOM      5  C   UNL     1      34.008 182.832 172.744  1.00  0.00     0.111 A 
ATOM      6  C   UNL     1      34.490 184.143 173.038  1.00  0.00     0.134 A 
ATOM      7  C   UNL     1      35.578 184.655 172.319  1.00  0.00     0.093 A 
ATOM      8  C   UNL     1      36.240 183.880 171.364  1.00  0.00     0.123 A 
ATOM      9  C   UNL     1      35.811 182.581 171.110  1.00  0.00     0.094 A 
ATOM     10  C   UNL     1      34.705 182.054 171.783  1.00  0.00     0.146 A 
ATOM     11  O   UNL     1      34.317 180.819 171.493  1.00  0.00    -0.452 OA
ENDROOT
BRANCH   1  12
ATOM     12  C   UNL     1      32.939 178.848 171.638  1.00  0.00     0.025 A 
ATOM     13  C   UNL     1      33.618 177.774 172.236  1.00  0.00     0.016 A 
ATOM     14  C   UNL     1      33.343 176.461 171.850  1.00  0.00     0.051 A 
ATOM     15  C   UNL     1      32.399 176.198 170.853  1.00  0.00     0.157 A 
ATOM     16  C   UNL     1      32.004 178.584 170.620  1.00  0.00     0.062 A 
ATOM     17  C   UNL     1      31.730 177.265 170.230  1.00  0.00     0.158 A 
BRANCH  15  18
ATOM     18  O   UNL     1      32.145 174.876 170.491  1.00  0.00    -0.504 OA
ATOM     19  H   UNL     1      32.890 174.213 170.318  1.00  0.00     0.293 HD
ENDBRANCH  15  18
BRANCH  17  20
ATOM     20  O   UNL     1      30.798 177.012 169.225  1.00  0.00    -0.504 OA
ATOM     21  H   UNL     1      31.080 176.866 168.263  1.00  0.00     0.293 HD
ENDBRANCH  17  20
ENDBRANCH   1  12
BRANCH   2  22
ATOM     22  O   UNL     1      31.412 180.309 173.622  1.00  0.00    -0.502 OA
ATOM     23  H   UNL     1      31.000 179.454 173.270  1.00  0.00     0.293 HD
ENDBRANCH   2  22
BRANCH   6  24
ATOM     24  O   UNL     1      33.960 184.968 174.035  1.00  0.00    -0.507 OA
ATOM     25  H   UNL     1      33.698 185.933 173.908  1.00  0.00     0.293 HD
ENDBRANCH   6  24
BRANCH   8  26
ATOM     26  O   UNL     1      37.332 184.392 170.666  1.00  0.00    -0.508 OA
ATOM     27  H   UNL     1      38.207 184.603 171.133  1.00  0.00     0.293 HD
ENDBRANCH   8  26
TORSDOF 6
ENDMDL
MODEL 7
REMARK VINA RESULT:    -4.772      2.486      4.143
REMARK INTER + INTRA:          -5.970
REMARK INTER:                  -5.705
REMARK INTRA:                  -0.265
REMARK UNBOUND:                -0.222
REMARK SMILES O=c1c(O)c(-c2ccc(O)c(O)c2)oc2cc(O)cc(O)c12
REMARK SMILES IDX 5 1 3 2 2 3 1 4 22 5 20 6 19 7 17 8 16 9 15 10 14 11 6 12
REMARK SMILES IDX 7 13 8 14 9 15 13 16 11 17 10 18 12 20 4 22 21 24 18 26
REMARK H PARENT 10 19 12 21 4 23 21 25 18 27
REMARK Flexibility Score: inf
ROOT
ATOM      1  C   UNL     1      34.095 180.947 171.663  1.00  0.00     0.180 A 
ATOM      2  C   UNL     1      34.895 180.770 172.804  1.00  0.00     0.208 A 
ATOM      3  C   UNL     1      36.059 181.541 172.946  1.00  0.00     0.238 A 
ATOM      4  O   UNL     1      36.730 181.430 174.006  1.00  0.00    -0.285 OA
ATOM      5  C   UNL     1      36.439 182.440 171.920  1.00  0.00     0.111 A 
ATOM      6  C   UNL     1      37.623 183.239 171.938  1.00  0.00     0.134 A 
ATOM      7  C   UNL     1      37.841 184.171 170.915  1.00  0.00     0.093 A 
ATOM      8  C   UNL     1      36.952 184.288 169.844  1.00  0.00     0.123 A 
ATOM      9  C   UNL     1      35.824 183.474 169.790  1.00  0.00     0.094 A 
ATOM     10  C   UNL     1      35.558 182.561 170.814  1.00  0.00     0.146 A 
ATOM     11  O   UNL     1      34.459 181.822 170.733  1.00  0.00    -0.452 OA
ENDROOT
BRANCH   1  12
ATOM     12  C   UNL     1      32.845 180.182 171.449  1.00  0.00     0.025 A 
ATOM     13  C   UNL     1      31.696 180.518 172.182  1.00  0.00     0.016 A 
ATOM     14  C   UNL     1      30.512 179.797 172.012  1.00  0.00     0.051 A 
ATOM     15  C   UNL     1      30.461 178.721 171.119  1.00  0.00     0.157 A 
ATOM     16  C   UNL     1      32.798 179.087 170.567  1.00  0.00     0.062 A 
ATOM     17  C   UNL     1      31.610 178.361 170.397  1.00  0.00     0.158 A 
BRANCH  15  18
ATOM     18  O   UNL     1      29.264 178.022 170.969  1.00  0.00    -0.504 OA
ATOM     19  H   UNL     1      29.114 177.370 170.208  1.00  0.00     0.293 HD
ENDBRANCH  15  18
BRANCH  17  20
ATOM     20  O   UNL     1      31.570 177.281 169.516  1.00  0.00    -0.504 OA
ATOM     21  H   UNL     1      32.359 177.048 168.924  1.00  0.00     0.293 HD
ENDBRANCH  17  20
ENDBRANCH   1  12
BRANCH   2  22
ATOM     22  O   UNL     1      34.543 179.822 173.770  1.00  0.00    -0.502 OA
ATOM     23  H   UNL     1      34.132 178.928 173.531  1.00  0.00     0.293 HD
ENDBRANCH   2  22
BRANCH   6  24
ATOM     24  O   UNL     1      38.620 183.140 172.912  1.00  0.00    -0.507 OA
ATOM     25  H   UNL     1      38.454 183.046 173.902  1.00  0.00     0.293 HD
ENDBRANCH   6  24
BRANCH   8  26
ATOM     26  O   UNL     1      37.187 185.206 168.823  1.00  0.00    -0.508 OA
ATOM     27  H   UNL     1      37.550 184.915 167.922  1.00  0.00     0.293 HD
ENDBRANCH   8  26
TORSDOF 6
ENDMDL
MODEL 8
REMARK VINA RESULT:    -4.769      4.895      8.992
REMARK INTER + INTRA:          -5.967
REMARK INTER:                  -5.682
REMARK INTRA:                  -0.285
REMARK UNBOUND:                -0.222
REMARK SMILES O=c1c(O)c(-c2ccc(O)c(O)c2)oc2cc(O)cc(O)c12
REMARK SMILES IDX 5 1 3 2 2 3 1 4 22 5 20 6 19 7 17 8 16 9 15 10 14 11 6 12
REMARK SMILES IDX 7 13 8 14 9 15 13 16 11 17 10 18 12 20 4 22 21 24 18 26
REMARK H PARENT 10 19 12 21 4 23 21 25 18 27
REMARK Flexibility Score: inf
ROOT
ATOM      1  C   UNL     1      32.705 178.103 171.176  1.00  0.00     0.180 A 
ATOM      2  C   UNL     1      31.557 177.655 170.502  1.00  0.00     0.208 A 
ATOM      3  C   UNL     1      31.324 176.274 170.398  1.00  0.00     0.238 A 
ATOM      4  O   UNL     1      30.256 175.883 169.857  1.00  0.00    -0.285 OA
ATOM      5  C   UNL     1      32.269 175.358 170.919  1.00  0.00     0.111 A 
ATOM      6  C   UNL     1      32.156 173.938 170.830  1.00  0.00     0.134 A 
ATOM      7  C   UNL     1      33.101 173.129 171.477  1.00  0.00     0.093 A 
ATOM      8  C   UNL     1      34.186 173.689 172.155  1.00  0.00     0.123 A 
ATOM      9  C   UNL     1      34.333 175.073 172.200  1.00  0.00     0.094 A 
ATOM     10  C   UNL     1      33.388 175.907 171.597  1.00  0.00     0.146 A 
ATOM     11  O   UNL     1      33.556 177.221 171.685  1.00  0.00    -0.452 OA
ENDROOT
BRANCH   1  12
ATOM     12  C   UNL     1      33.012 179.542 171.341  1.00  0.00     0.025 A 
ATOM     13  C   UNL     1      32.714 180.178 172.556  1.00  0.00     0.016 A 
ATOM     14  C   UNL     1      32.976 181.539 172.726  1.00  0.00     0.051 A 
ATOM     15  C   UNL     1      33.524 182.290 171.682  1.00  0.00     0.157 A 
ATOM     16  C   UNL     1      33.544 180.304 170.283  1.00  0.00     0.062 A 
ATOM     17  C   UNL     1      33.805 181.672 170.452  1.00  0.00     0.158 A 
BRANCH  15  18
ATOM     18  O   UNL     1      33.777 183.646 171.882  1.00  0.00    -0.504 OA
ATOM     19  H   UNL     1      34.696 184.049 171.742  1.00  0.00     0.293 HD
ENDBRANCH  15  18
BRANCH  17  20
ATOM     20  O   UNL     1      34.338 182.417 169.402  1.00  0.00    -0.504 OA
ATOM     21  H   UNL     1      35.305 182.317 169.116  1.00  0.00     0.293 HD
ENDBRANCH  17  20
ENDBRANCH   1  12
BRANCH   2  22
ATOM     22  O   UNL     1      30.675 178.574 169.926  1.00  0.00    -0.502 OA
ATOM     23  H   UNL     1      30.269 178.439 169.008  1.00  0.00     0.293 HD
ENDBRANCH   2  22
BRANCH   6  24
ATOM     24  O   UNL     1      31.163 173.274 170.105  1.00  0.00    -0.507 OA
ATOM     25  H   UNL     1      30.935 172.297 170.197  1.00  0.00     0.293 HD
ENDBRANCH   6  24
BRANCH   8  26
ATOM     26  O   UNL     1      35.129 172.877 172.781  1.00  0.00    -0.508 OA
ATOM     27  H   UNL     1      35.622 173.181 173.613  1.00  0.00     0.293 HD
ENDBRANCH   8  26
TORSDOF 6
ENDMDL
MODEL 9
REMARK VINA RESULT:    -4.721      7.530     10.866
REMARK INTER + INTRA:          -5.909
REMARK INTER:                  -5.586
REMARK INTRA:                  -0.323
REMARK UNBOUND:                -0.222
REMARK SMILES O=c1c(O)c(-c2ccc(O)c(O)c2)oc2cc(O)cc(O)c12
REMARK SMILES IDX 5 1 3 2 2 3 1 4 22 5 20 6 19 7 17 8 16 9 15 10 14 11 6 12
REMARK SMILES IDX 7 13 8 14 9 15 13 16 11 17 10 18 12 20 4 22 21 24 18 26
REMARK H PARENT 10 19 12 21 4 23 21 25 18 27
REMARK Flexibility Score: inf
ROOT
ATOM      1  C   UNL     1      33.475 174.097 171.590  1.00  0.00     0.180 A 
ATOM      2  C   UNL     1      32.933 173.321 172.628  1.00  0.00     0.208 A 
ATOM      3  C   UNL     1      33.480 172.054 172.888  1.00  0.00     0.238 A 
ATOM      4  O   UNL     1      33.038 171.397 173.866  1.00  0.00    -0.285 OA
ATOM      5  C   UNL     1      34.524 171.556 172.072  1.00  0.00     0.111 A 
ATOM      6  C   UNL     1      35.123 170.268 172.216  1.00  0.00     0.134 A 
ATOM      7  C   UNL     1      36.222 169.924 171.418  1.00  0.00     0.093 A 
ATOM      8  C   UNL     1      36.702 170.797 170.438  1.00  0.00     0.123 A 
ATOM      9  C   UNL     1      36.089 172.033 170.253  1.00  0.00     0.094 A 
ATOM     10  C   UNL     1      35.015 172.420 171.059  1.00  0.00     0.146 A 
ATOM     11  O   UNL     1      34.476 173.617 170.863  1.00  0.00    -0.452 OA
ENDROOT
BRANCH   1  12
ATOM     12  C   UNL     1      32.963 175.448 171.265  1.00  0.00     0.025 A 
ATOM     13  C   UNL     1      33.485 176.565 171.935  1.00  0.00     0.016 A 
ATOM     14  C   UNL     1      33.003 177.846 171.660  1.00  0.00     0.051 A 
ATOM     15  C   UNL     1      31.981 178.031 170.723  1.00  0.00     0.157 A 
ATOM     16  C   UNL     1      31.920 175.633 170.338  1.00  0.00     0.062 A 
ATOM     17  C   UNL     1      31.433 176.919 170.062  1.00  0.00     0.158 A 
BRANCH  15  18
ATOM     18  O   UNL     1      31.522 179.322 170.467  1.00  0.00    -0.504 OA
ATOM     19  H   UNL     1      31.706 180.093 171.097  1.00  0.00     0.293 HD
ENDBRANCH  15  18
BRANCH  17  20
ATOM     20  O   UNL     1      30.405 177.095 169.137  1.00  0.00    -0.504 OA
ATOM     21  H   UNL     1      29.432 176.981 169.396  1.00  0.00     0.293 HD
ENDBRANCH  17  20
ENDBRANCH   1  12
BRANCH   2  22
ATOM     22  O   UNL     1      31.851 173.799 173.373  1.00  0.00    -0.502 OA
ATOM     23  H   UNL     1      30.992 173.274 173.484  1.00  0.00     0.293 HD
ENDBRANCH   2  22
BRANCH   6  24
ATOM     24  O   UNL     1      34.666 169.286 173.101  1.00  0.00    -0.507 OA
ATOM     25  H   UNL     1      35.074 168.371 173.210  1.00  0.00     0.293 HD
ENDBRANCH   6  24
BRANCH   8  26
ATOM     26  O   UNL     1      37.785 170.439 169.638  1.00  0.00    -0.508 OA
ATOM     27  H   UNL     1      37.677 169.806 168.853  1.00  0.00     0.293 HD
ENDBRANCH   8  26
TORSDOF 6
ENDMDL
