MODEL 1
REMARK VINA RESULT:    -4.866      0.000      0.000
REMARK INTER + INTRA:          -5.726
REMARK INTER:                  -5.577
REMARK INTRA:                  -0.149
REMARK UNBOUND:                -0.149
REMARK SMILES O=C([O-])C=Cc1ccc(O)cc1
REMARK SMILES IDX 6 1 7 2 12 3 8 4 11 5 9 6 5 7 4 8 2 9 1 10 3 11 10 12
REMARK H PARENT 10 13
REMARK Flexibility Score: inf
ROOT
ATOM      1  C   UNL     1      -8.128  66.414  31.760  1.00  0.00    -0.025 A 
ATOM      2  C   UNL     1      -7.451  65.666  30.781  1.00  0.00     0.012 A 
ATOM      3  C   UNL     1      -9.471  66.779  31.526  1.00  0.00     0.012 A 
ATOM      4  C   UNL     1      -8.087  65.311  29.588  1.00  0.00     0.047 A 
ATOM      5  C   UNL     1     -10.104  66.421  30.332  1.00  0.00     0.047 A 
ATOM      6  C   UNL     1      -9.416  65.690  29.360  1.00  0.00     0.115 A 
ENDROOT
BRANCH   1   7
ATOM      7  C   UNL     1      -7.412  66.757  33.013  1.00  0.00     0.010 C 
ATOM      8  C   UNL     1      -6.081  66.877  33.101  1.00  0.00     0.025 C 
BRANCH   8   9
ATOM      9  C   UNL     1      -5.412  67.208  34.369  1.00  0.00     0.064 C 
ATOM     10  O   UNL     1      -4.270  66.736  34.611  1.00  0.00    -0.545 OA
ATOM     11  O   UNL     1      -6.019  68.038  35.305  1.00  0.00    -0.545 OA
ENDBRANCH   8   9
ENDBRANCH   1   7
BRANCH   6  12
ATOM     12  O   UNL     1     -10.060  65.343  28.175  1.00  0.00    -0.508 OA
ATOM     13  H   UNL     1      -9.540  65.146  27.328  1.00  0.00     0.293 HD
ENDBRANCH   6  12
TORSDOF 3
ENDMDL
MODEL 2
REMARK VINA RESULT:    -4.844      0.096      1.400
REMARK INTER + INTRA:          -5.701
REMARK INTER:                  -5.558
REMARK INTRA:                  -0.142
REMARK UNBOUND:                -0.149
REMARK SMILES O=C([O-])C=Cc1ccc(O)cc1
REMARK SMILES IDX 6 1 7 2 12 3 8 4 11 5 9 6 5 7 4 8 2 9 1 10 3 11 10 12
REMARK H PARENT 10 13
REMARK Flexibility Score: inf
ROOT
ATOM      1  C   UNL     1      -8.106  66.431  31.690  1.00  0.00    -0.025 A 
ATOM      2  C   UNL     1      -9.445  66.822  31.517  1.00  0.00     0.012 A 
ATOM      3  C   UNL     1      -7.474  65.705  30.659  1.00  0.00     0.012 A 
ATOM      4  C   UNL     1     -10.145  66.479  30.357  1.00  0.00     0.047 A 
ATOM      5  C   UNL     1      -8.176  65.365  29.499  1.00  0.00     0.047 A 
ATOM      6  C   UNL     1      -9.511  65.746  29.345  1.00  0.00     0.115 A 
ENDROOT
BRANCH   1   7
ATOM      7  C   UNL     1      -7.405  66.829  32.935  1.00  0.00     0.010 C 
ATOM      8  C   UNL     1      -6.074  66.791  33.084  1.00  0.00     0.025 C 
BRANCH   8   9
ATOM      9  C   UNL     1      -5.421  67.185  34.343  1.00  0.00     0.064 C 
ATOM     10  O   UNL     1      -4.269  66.750  34.608  1.00  0.00    -0.545 OA
ATOM     11  O   UNL     1      -6.054  68.032  35.245  1.00  0.00    -0.545 OA
ENDBRANCH   8   9
ENDBRANCH   1   7
BRANCH   6  12
ATOM     12  O   UNL     1     -10.198  65.397  28.185  1.00  0.00    -0.508 OA
ATOM     13  H   UNL     1     -11.158  65.072  28.214  1.00  0.00     0.293 HD
ENDBRANCH   6  12
TORSDOF 3
ENDMDL
MODEL 3
REMARK VINA RESULT:    -4.667      2.017      5.750
REMARK INTER + INTRA:          -5.498
REMARK INTER:                  -5.347
REMARK INTRA:                  -0.151
REMARK UNBOUND:                -0.149
REMARK SMILES O=C([O-])C=Cc1ccc(O)cc1
REMARK SMILES IDX 6 1 7 2 12 3 8 4 11 5 9 6 5 7 4 8 2 9 1 10 3 11 10 12
REMARK H PARENT 10 13
REMARK Flexibility Score: inf
ROOT
ATOM      1  C   UNL     1      -7.140  67.606  32.153  1.00  0.00    -0.025 A 
ATOM      2  C   UNL     1      -7.403  66.604  33.103  1.00  0.00     0.012 A 
ATOM      3  C   UNL     1      -5.877  68.235  32.163  1.00  0.00     0.012 A 
ATOM      4  C   UNL     1      -6.442  66.253  34.055  1.00  0.00     0.047 A 
ATOM      5  C   UNL     1      -4.918  67.880  33.116  1.00  0.00     0.047 A 
ATOM      6  C   UNL     1      -5.196  66.893  34.065  1.00  0.00     0.115 A 
ENDROOT
BRANCH   1   7
ATOM      7  C   UNL     1      -8.190  67.935  31.158  1.00  0.00     0.010 C 
ATOM      8  C   UNL     1      -9.501  67.769  31.377  1.00  0.00     0.025 C 
BRANCH   8   9
ATOM      9  C   UNL     1     -10.508  68.098  30.355  1.00  0.00     0.064 C 
ATOM     10  O   UNL     1     -10.248  68.969  29.484  1.00  0.00    -0.545 OA
ATOM     11  O   UNL     1     -11.743  67.461  30.334  1.00  0.00    -0.545 OA
ENDBRANCH   8   9
ENDBRANCH   1   7
BRANCH   6  12
ATOM     12  O   UNL     1      -4.230  66.552  35.009  1.00  0.00    -0.508 OA
ATOM     13  H   UNL     1      -3.246  66.733  34.849  1.00  0.00     0.293 HD
ENDBRANCH   6  12
TORSDOF 3
ENDMDL
MODEL 4
REMARK VINA RESULT:    -4.621      3.530      4.575
REMARK INTER + INTRA:          -5.445
REMARK INTER:                  -5.309
REMARK INTRA:                  -0.136
REMARK UNBOUND:                -0.149
REMARK SMILES O=C([O-])C=Cc1ccc(O)cc1
REMARK SMILES IDX 6 1 7 2 12 3 8 4 11 5 9 6 5 7 4 8 2 9 1 10 3 11 10 12
REMARK H PARENT 10 13
REMARK Flexibility Score: inf
ROOT
ATOM      1  C   UNL     1      -4.600  66.769  31.215  1.00  0.00    -0.025 A 
ATOM      2  C   UNL     1      -3.292  67.263  31.075  1.00  0.00     0.012 A 
ATOM      3  C   UNL     1      -5.032  65.737  30.356  1.00  0.00     0.012 A 
ATOM      4  C   UNL     1      -2.442  66.758  30.087  1.00  0.00     0.047 A 
ATOM      5  C   UNL     1      -4.178  65.233  29.371  1.00  0.00     0.047 A 
ATOM      6  C   UNL     1      -2.884  65.742  29.230  1.00  0.00     0.115 A 
ENDROOT
BRANCH   1   7
ATOM      7  C   UNL     1      -5.460  67.332  32.285  1.00  0.00     0.010 C 
ATOM      8  C   UNL     1      -5.416  66.931  33.563  1.00  0.00     0.025 C 
BRANCH   8   9
ATOM      9  C   UNL     1      -6.297  67.510  34.590  1.00  0.00     0.064 C 
ATOM     10  O   UNL     1      -7.544  67.374  34.487  1.00  0.00    -0.545 OA
ATOM     11  O   UNL     1      -5.774  68.203  35.676  1.00  0.00    -0.545 OA
ENDBRANCH   8   9
ENDBRANCH   1   7
BRANCH   6  12
ATOM     12  O   UNL     1      -2.046  65.231  28.242  1.00  0.00    -0.508 OA
ATOM     13  H   UNL     1      -1.102  64.929  28.452  1.00  0.00     0.293 HD
ENDBRANCH   6  12
TORSDOF 3
ENDMDL
MODEL 5
REMARK VINA RESULT:    -4.604      8.913      9.927
REMARK INTER + INTRA:          -5.425
REMARK INTER:                  -5.292
REMARK INTRA:                  -0.133
REMARK UNBOUND:                -0.149
REMARK SMILES O=C([O-])C=Cc1ccc(O)cc1
REMARK SMILES IDX 6 1 7 2 12 3 8 4 11 5 9 6 5 7 4 8 2 9 1 10 3 11 10 12
REMARK H PARENT 10 13
REMARK Flexibility Score: inf
ROOT
ATOM      1  C   UNL     1      -0.038  62.844  27.525  1.00  0.00    -0.025 A 
ATOM      2  C   UNL     1       1.334  62.724  27.808  1.00  0.00     0.012 A 
ATOM      3  C   UNL     1      -0.553  62.201  26.381  1.00  0.00     0.012 A 
ATOM      4  C   UNL     1       2.176  62.002  26.959  1.00  0.00     0.047 A 
ATOM      5  C   UNL     1       0.292  61.477  25.535  1.00  0.00     0.047 A 
ATOM      6  C   UNL     1       1.657  61.377  25.817  1.00  0.00     0.115 A 
ENDROOT
BRANCH   1   7
ATOM      7  C   UNL     1      -0.891  63.614  28.464  1.00  0.00     0.010 C 
ATOM      8  C   UNL     1      -1.443  64.799  28.167  1.00  0.00     0.025 C 
BRANCH   8   9
ATOM      9  C   UNL     1      -2.274  65.533  29.134  1.00  0.00     0.064 C 
ATOM     10  O   UNL     1      -1.810  66.556  29.702  1.00  0.00    -0.545 OA
ATOM     11  O   UNL     1      -3.568  65.117  29.429  1.00  0.00    -0.545 OA
ENDBRANCH   8   9
ENDBRANCH   1   7
BRANCH   6  12
ATOM     12  O   UNL     1       2.486  60.655  24.963  1.00  0.00    -0.508 OA
ATOM     13  H   UNL     1       2.696  59.677  25.129  1.00  0.00     0.293 HD
ENDBRANCH   6  12
TORSDOF 3
ENDMDL
MODEL 6
REMARK VINA RESULT:    -4.586      1.981      5.694
REMARK INTER + INTRA:          -5.405
REMARK INTER:                  -5.263
REMARK INTRA:                  -0.142
REMARK UNBOUND:                -0.149
REMARK SMILES O=C([O-])C=Cc1ccc(O)cc1
REMARK SMILES IDX 6 1 7 2 12 3 8 4 11 5 9 6 5 7 4 8 2 9 1 10 3 11 10 12
REMARK H PARENT 10 13
REMARK Flexibility Score: inf
ROOT
ATOM      1  C   UNL     1      -7.240  67.484  32.141  1.00  0.00    -0.025 A 
ATOM      2  C   UNL     1      -5.959  68.051  32.032  1.00  0.00     0.012 A 
ATOM      3  C   UNL     1      -7.510  66.619  33.221  1.00  0.00     0.012 A 
ATOM      4  C   UNL     1      -4.962  67.745  32.963  1.00  0.00     0.047 A 
ATOM      5  C   UNL     1      -6.511  66.317  34.152  1.00  0.00     0.047 A 
ATOM      6  C   UNL     1      -5.236  66.874  34.026  1.00  0.00     0.115 A 
ENDROOT
BRANCH   1   7
ATOM      7  C   UNL     1      -8.266  67.849  31.132  1.00  0.00     0.010 C 
ATOM      8  C   UNL     1      -9.585  67.740  31.339  1.00  0.00     0.025 C 
BRANCH   8   9
ATOM      9  C   UNL     1     -10.567  68.103  30.305  1.00  0.00     0.064 C 
ATOM     10  O   UNL     1     -11.662  67.485  30.244  1.00  0.00    -0.545 OA
ATOM     11  O   UNL     1     -10.307  69.120  29.394  1.00  0.00    -0.545 OA
ENDBRANCH   8   9
ENDBRANCH   1   7
BRANCH   6  12
ATOM     12  O   UNL     1      -4.251  66.562  34.959  1.00  0.00    -0.508 OA
ATOM     13  H   UNL     1      -3.347  66.203  34.676  1.00  0.00     0.293 HD
ENDBRANCH   6  12
TORSDOF 3
ENDMDL
MODEL 7
REMARK VINA RESULT:    -4.573      3.538      5.555
REMARK INTER + INTRA:          -5.390
REMARK INTER:                  -5.248
REMARK INTRA:                  -0.142
REMARK UNBOUND:                -0.149
REMARK SMILES O=C([O-])C=Cc1ccc(O)cc1
REMARK SMILES IDX 6 1 7 2 12 3 8 4 11 5 9 6 5 7 4 8 2 9 1 10 3 11 10 12
REMARK H PARENT 10 13
REMARK Flexibility Score: inf
ROOT
ATOM      1  C   UNL     1      -5.400  66.653  31.680  1.00  0.00    -0.025 A 
ATOM      2  C   UNL     1      -6.673  66.135  31.976  1.00  0.00     0.012 A 
ATOM      3  C   UNL     1      -4.727  67.404  32.666  1.00  0.00     0.012 A 
ATOM      4  C   UNL     1      -7.272  66.380  33.214  1.00  0.00     0.047 A 
ATOM      5  C   UNL     1      -5.329  67.645  33.904  1.00  0.00     0.047 A 
ATOM      6  C   UNL     1      -6.601  67.138  34.182  1.00  0.00     0.115 A 
ENDROOT
BRANCH   1   7
ATOM      7  C   UNL     1      -4.804  66.356  30.354  1.00  0.00     0.010 C 
ATOM      8  C   UNL     1      -3.484  66.303  30.126  1.00  0.00     0.025 C 
BRANCH   8   9
ATOM      9  C   UNL     1      -2.937  66.017  28.791  1.00  0.00     0.064 C 
ATOM     10  O   UNL     1      -3.333  66.684  27.800  1.00  0.00    -0.545 OA
ATOM     11  O   UNL     1      -1.984  65.021  28.604  1.00  0.00    -0.545 OA
ENDBRANCH   8   9
ENDBRANCH   1   7
BRANCH   6  12
ATOM     12  O   UNL     1      -7.188  67.389  35.420  1.00  0.00    -0.508 OA
ATOM     13  H   UNL     1      -8.118  67.055  35.643  1.00  0.00     0.293 HD
ENDBRANCH   6  12
TORSDOF 3
ENDMDL
MODEL 8
REMARK VINA RESULT:    -4.559      1.881      2.407
REMARK INTER + INTRA:          -5.374
REMARK INTER:                  -5.229
REMARK INTRA:                  -0.145
REMARK UNBOUND:                -0.149
REMARK SMILES O=C([O-])C=Cc1ccc(O)cc1
REMARK SMILES IDX 6 1 7 2 12 3 8 4 11 5 9 6 5 7 4 8 2 9 1 10 3 11 10 12
REMARK H PARENT 10 13
REMARK Flexibility Score: inf
ROOT
ATOM      1  C   UNL     1      -8.520  67.722  31.545  1.00  0.00    -0.025 A 
ATOM      2  C   UNL     1      -9.191  66.487  31.522  1.00  0.00     0.012 A 
ATOM      3  C   UNL     1      -9.244  68.894  31.240  1.00  0.00     0.012 A 
ATOM      4  C   UNL     1     -10.544  66.417  31.180  1.00  0.00     0.047 A 
ATOM      5  C   UNL     1     -10.598  68.820  30.900  1.00  0.00     0.047 A 
ATOM      6  C   UNL     1     -11.251  67.585  30.866  1.00  0.00     0.115 A 
ENDROOT
BRANCH   1   7
ATOM      7  C   UNL     1      -7.085  67.745  31.924  1.00  0.00     0.010 C 
ATOM      8  C   UNL     1      -6.579  67.067  32.963  1.00  0.00     0.025 C 
BRANCH   8   9
ATOM      9  C   UNL     1      -5.150  67.127  33.309  1.00  0.00     0.064 C 
ATOM     10  O   UNL     1      -4.791  66.946  34.502  1.00  0.00    -0.545 OA
ATOM     11  O   UNL     1      -4.187  67.379  32.338  1.00  0.00    -0.545 OA
ENDBRANCH   8   9
ENDBRANCH   1   7
BRANCH   6  12
ATOM     12  O   UNL     1     -12.600  67.528  30.524  1.00  0.00    -0.508 OA
ATOM     13  H   UNL     1     -13.328  67.602  31.224  1.00  0.00     0.293 HD
ENDBRANCH   6  12
TORSDOF 3
ENDMDL
MODEL 9
REMARK VINA RESULT:    -4.491      3.616      5.797
REMARK INTER + INTRA:          -5.296
REMARK INTER:                  -5.154
REMARK INTRA:                  -0.141
REMARK UNBOUND:                -0.149
REMARK SMILES O=C([O-])C=Cc1ccc(O)cc1
REMARK SMILES IDX 6 1 7 2 12 3 8 4 11 5 9 6 5 7 4 8 2 9 1 10 3 11 10 12
REMARK H PARENT 10 13
REMARK Flexibility Score: inf
ROOT
ATOM      1  C   UNL     1      -6.128  66.023  29.278  1.00  0.00    -0.025 A 
ATOM      2  C   UNL     1      -5.143  65.125  29.724  1.00  0.00     0.012 A 
ATOM      3  C   UNL     1      -5.755  67.056  28.393  1.00  0.00     0.012 A 
ATOM      4  C   UNL     1      -3.813  65.268  29.318  1.00  0.00     0.047 A 
ATOM      5  C   UNL     1      -4.425  67.194  27.988  1.00  0.00     0.047 A 
ATOM      6  C   UNL     1      -3.450  66.305  28.449  1.00  0.00     0.115 A 
ENDROOT
BRANCH   1   7
ATOM      7  C   UNL     1      -7.527  65.823  29.731  1.00  0.00     0.010 C 
ATOM      8  C   UNL     1      -8.596  66.297  29.077  1.00  0.00     0.025 C 
BRANCH   8   9
ATOM      9  C   UNL     1      -9.966  66.085  29.569  1.00  0.00     0.064 C 
ATOM     10  O   UNL     1     -10.382  66.746  30.557  1.00  0.00    -0.545 OA
ATOM     11  O   UNL     1     -10.813  65.166  28.960  1.00  0.00    -0.545 OA
ENDBRANCH   8   9
ENDBRANCH   1   7
BRANCH   6  12
ATOM     12  O   UNL     1      -2.129  66.457  28.037  1.00  0.00    -0.508 OA
ATOM     13  H   UNL     1      -1.366  66.488  28.704  1.00  0.00     0.293 HD
ENDBRANCH   6  12
TORSDOF 3
ENDMDL
