MODEL 1
REMARK VINA RESULT:    -6.240      0.000      0.000
REMARK INTER + INTRA:          -7.846
REMARK INTER:                  -7.516
REMARK INTRA:                  -0.330
REMARK UNBOUND:                -0.330
REMARK SMILES O=c1c(O)c(-c2ccc(O)c(O)c2)oc2cc(O)cc(O)c12
REMARK SMILES IDX 5 1 3 2 2 3 1 4 22 5 20 6 19 7 17 8 16 9 15 10 14 11 6 12
REMARK SMILES IDX 7 13 8 14 9 15 13 16 11 17 10 18 12 20 4 22 21 24 18 26
REMARK H PARENT 10 19 12 21 4 23 21 25 18 27
REMARK Flexibility Score: inf
ROOT
ATOM      1  C   UNL     1     137.174 142.878 123.390  1.00  0.00     0.180 A 
ATOM      2  C   UNL     1     137.881 142.559 124.566  1.00  0.00     0.208 A 
ATOM      3  C   UNL     1     139.225 142.168 124.465  1.00  0.00     0.238 A 
ATOM      4  O   UNL     1     139.865 141.870 125.509  1.00  0.00    -0.285 OA
ATOM      5  C   UNL     1     139.844 142.121 123.198  1.00  0.00     0.111 A 
ATOM      6  C   UNL     1     141.195 141.742 123.011  1.00  0.00     0.134 A 
ATOM      7  C   UNL     1     141.741 141.730 121.719  1.00  0.00     0.093 A 
ATOM      8  C   UNL     1     140.966 142.090 120.613  1.00  0.00     0.123 A 
ATOM      9  C   UNL     1     139.630 142.465 120.793  1.00  0.00     0.094 A 
ATOM     10  C   UNL     1     139.067 142.482 122.072  1.00  0.00     0.146 A 
ATOM     11  O   UNL     1     137.795 142.837 122.214  1.00  0.00    -0.452 OA
ENDROOT
BRANCH   1  12
ATOM     12  C   UNL     1     135.750 143.281 123.413  1.00  0.00     0.025 A 
ATOM     13  C   UNL     1     135.418 144.641 123.524  1.00  0.00     0.016 A 
ATOM     14  C   UNL     1     134.081 145.045 123.526  1.00  0.00     0.051 A 
ATOM     15  C   UNL     1     133.057 144.098 123.401  1.00  0.00     0.157 A 
ATOM     16  C   UNL     1     134.719 142.335 123.267  1.00  0.00     0.062 A 
ATOM     17  C   UNL     1     133.376 142.741 123.268  1.00  0.00     0.158 A 
BRANCH  15  18
ATOM     18  O   UNL     1     131.721 144.498 123.406  1.00  0.00    -0.504 OA
ATOM     19  H   UNL     1     131.190 144.565 124.266  1.00  0.00     0.293 HD
ENDBRANCH  15  18
BRANCH  17  20
ATOM     20  O   UNL     1     132.355 141.802 123.130  1.00  0.00    -0.504 OA
ATOM     21  H   UNL     1     131.384 142.081 123.051  1.00  0.00     0.293 HD
ENDBRANCH  17  20
ENDBRANCH   1  12
BRANCH   2  22
ATOM     22  O   UNL     1     137.259 142.661 125.813  1.00  0.00    -0.502 OA
ATOM     23  H   UNL     1     137.432 142.001 126.561  1.00  0.00     0.293 HD
ENDBRANCH   2  22
BRANCH   6  24
ATOM     24  O   UNL     1     141.996 141.378 124.093  1.00  0.00    -0.507 OA
ATOM     25  H   UNL     1     142.904 141.800 124.251  1.00  0.00     0.293 HD
ENDBRANCH   6  24
BRANCH   8  26
ATOM     26  O   UNL     1     141.532 142.070 119.342  1.00  0.00    -0.508 OA
ATOM     27  H   UNL     1     141.009 142.363 118.524  1.00  0.00     0.293 HD
ENDBRANCH   8  26
TORSDOF 6
ENDMDL
MODEL 2
REMARK VINA RESULT:    -6.030      9.717     12.464
REMARK INTER + INTRA:          -7.593
REMARK INTER:                  -7.268
REMARK INTRA:                  -0.325
REMARK UNBOUND:                -0.330
REMARK SMILES O=c1c(O)c(-c2ccc(O)c(O)c2)oc2cc(O)cc(O)c12
REMARK SMILES IDX 5 1 3 2 2 3 1 4 22 5 20 6 19 7 17 8 16 9 15 10 14 11 6 12
REMARK SMILES IDX 7 13 8 14 9 15 13 16 11 17 10 18 12 20 4 22 21 24 18 26
REMARK H PARENT 10 19 12 21 4 23 21 25 18 27
REMARK Flexibility Score: inf
ROOT
ATOM      1  C   UNL     1     131.731 134.738 126.917  1.00  0.00     0.180 A 
ATOM      2  C   UNL     1     131.522 133.586 126.133  1.00  0.00     0.208 A 
ATOM      3  C   UNL     1     131.042 132.423 126.754  1.00  0.00     0.238 A 
ATOM      4  O   UNL     1     130.861 131.382 126.065  1.00  0.00    -0.285 OA
ATOM      5  C   UNL     1     130.763 132.434 128.136  1.00  0.00     0.111 A 
ATOM      6  C   UNL     1     130.274 131.305 128.836  1.00  0.00     0.134 A 
ATOM      7  C   UNL     1     130.011 131.399 130.211  1.00  0.00     0.093 A 
ATOM      8  C   UNL     1     130.225 132.597 130.898  1.00  0.00     0.123 A 
ATOM      9  C   UNL     1     130.709 133.715 130.210  1.00  0.00     0.094 A 
ATOM     10  C   UNL     1     130.979 133.642 128.841  1.00  0.00     0.146 A 
ATOM     11  O   UNL     1     131.442 134.717 128.214  1.00  0.00    -0.452 OA
ENDROOT
BRANCH   1  12
ATOM     12  C   UNL     1     132.252 135.998 126.339  1.00  0.00     0.025 A 
ATOM     13  C   UNL     1     133.639 136.203 126.266  1.00  0.00     0.016 A 
ATOM     14  C   UNL     1     134.153 137.375 125.706  1.00  0.00     0.051 A 
ATOM     15  C   UNL     1     133.288 138.352 125.195  1.00  0.00     0.157 A 
ATOM     16  C   UNL     1     131.387 136.972 125.807  1.00  0.00     0.062 A 
ATOM     17  C   UNL     1     131.903 138.148 125.242  1.00  0.00     0.158 A 
BRANCH  15  18
ATOM     18  O   UNL     1     133.797 139.524 124.637  1.00  0.00    -0.504 OA
ATOM     19  H   UNL     1     134.792 139.661 124.508  1.00  0.00     0.293 HD
ENDBRANCH  15  18
BRANCH  17  20
ATOM     20  O   UNL     1     131.045 139.115 124.721  1.00  0.00    -0.504 OA
ATOM     21  H   UNL     1     130.899 140.002 125.189  1.00  0.00     0.293 HD
ENDBRANCH  17  20
ENDBRANCH   1  12
BRANCH   2  22
ATOM     22  O   UNL     1     131.759 133.616 124.757  1.00  0.00    -0.502 OA
ATOM     23  H   UNL     1     131.070 133.949 124.094  1.00  0.00     0.293 HD
ENDBRANCH   2  22
BRANCH   6  24
ATOM     24  O   UNL     1     130.047 130.094 128.180  1.00  0.00    -0.507 OA
ATOM     25  H   UNL     1     129.920 129.227 128.688  1.00  0.00     0.293 HD
ENDBRANCH   6  24
BRANCH   8  26
ATOM     26  O   UNL     1     129.956 132.663 132.262  1.00  0.00    -0.508 OA
ATOM     27  H   UNL     1     130.568 132.231 132.945  1.00  0.00     0.293 HD
ENDBRANCH   8  26
TORSDOF 6
ENDMDL
MODEL 3
REMARK VINA RESULT:    -6.011      9.555     11.329
REMARK INTER + INTRA:          -7.570
REMARK INTER:                  -7.511
REMARK INTRA:                  -0.060
REMARK UNBOUND:                -0.330
REMARK SMILES O=c1c(O)c(-c2ccc(O)c(O)c2)oc2cc(O)cc(O)c12
REMARK SMILES IDX 5 1 3 2 2 3 1 4 22 5 20 6 19 7 17 8 16 9 15 10 14 11 6 12
REMARK SMILES IDX 7 13 8 14 9 15 13 16 11 17 10 18 12 20 4 22 21 24 18 26
REMARK H PARENT 10 19 12 21 4 23 21 25 18 27
REMARK Flexibility Score: inf
ROOT
ATOM      1  C   UNL     1     131.766 134.452 126.599  1.00  0.00     0.180 A 
ATOM      2  C   UNL     1     130.948 133.520 127.266  1.00  0.00     0.208 A 
ATOM      3  C   UNL     1     131.194 132.150 127.087  1.00  0.00     0.238 A 
ATOM      4  O   UNL     1     130.462 131.306 127.671  1.00  0.00    -0.285 OA
ATOM      5  C   UNL     1     132.262 131.736 126.264  1.00  0.00     0.111 A 
ATOM      6  C   UNL     1     132.580 130.376 126.035  1.00  0.00     0.134 A 
ATOM      7  C   UNL     1     133.665 130.045 125.209  1.00  0.00     0.093 A 
ATOM      8  C   UNL     1     134.437 131.044 124.611  1.00  0.00     0.123 A 
ATOM      9  C   UNL     1     134.127 132.389 124.834  1.00  0.00     0.094 A 
ATOM     10  C   UNL     1     133.049 132.740 125.652  1.00  0.00     0.146 A 
ATOM     11  O   UNL     1     132.773 134.025 125.843  1.00  0.00    -0.452 OA
ENDROOT
BRANCH   1  12
ATOM     12  C   UNL     1     131.557 135.912 126.723  1.00  0.00     0.025 A 
ATOM     13  C   UNL     1     131.599 136.511 127.993  1.00  0.00     0.016 A 
ATOM     14  C   UNL     1     131.425 137.890 128.131  1.00  0.00     0.051 A 
ATOM     15  C   UNL     1     131.224 138.693 127.001  1.00  0.00     0.157 A 
ATOM     16  C   UNL     1     131.374 136.725 125.589  1.00  0.00     0.062 A 
ATOM     17  C   UNL     1     131.203 138.110 125.728  1.00  0.00     0.158 A 
BRANCH  15  18
ATOM     18  O   UNL     1     131.048 140.070 127.135  1.00  0.00    -0.504 OA
ATOM     19  H   UNL     1     131.803 140.674 127.438  1.00  0.00     0.293 HD
ENDBRANCH  15  18
BRANCH  17  20
ATOM     20  O   UNL     1     131.015 138.914 124.604  1.00  0.00    -0.504 OA
ATOM     21  H   UNL     1     131.031 139.925 124.666  1.00  0.00     0.293 HD
ENDBRANCH  17  20
ENDBRANCH   1  12
BRANCH   2  22
ATOM     22  O   UNL     1     129.928 133.956 128.116  1.00  0.00    -0.502 OA
ATOM     23  H   UNL     1     129.376 133.317 128.675  1.00  0.00     0.293 HD
ENDBRANCH   2  22
BRANCH   6  24
ATOM     24  O   UNL     1     131.830 129.354 126.618  1.00  0.00    -0.507 OA
ATOM     25  H   UNL     1     131.354 128.655 126.059  1.00  0.00     0.293 HD
ENDBRANCH   6  24
BRANCH   8  26
ATOM     26  O   UNL     1     135.509 130.688 123.797  1.00  0.00    -0.508 OA
ATOM     27  H   UNL     1     136.145 129.941 124.054  1.00  0.00     0.293 HD
ENDBRANCH   8  26
TORSDOF 6
ENDMDL
MODEL 4
REMARK VINA RESULT:    -5.991     10.233     11.559
REMARK INTER + INTRA:          -7.547
REMARK INTER:                  -7.224
REMARK INTRA:                  -0.323
REMARK UNBOUND:                -0.330
REMARK SMILES O=c1c(O)c(-c2ccc(O)c(O)c2)oc2cc(O)cc(O)c12
REMARK SMILES IDX 5 1 3 2 2 3 1 4 22 5 20 6 19 7 17 8 16 9 15 10 14 11 6 12
REMARK SMILES IDX 7 13 8 14 9 15 13 16 11 17 10 18 12 20 4 22 21 24 18 26
REMARK H PARENT 10 19 12 21 4 23 21 25 18 27
REMARK Flexibility Score: inf
ROOT
ATOM      1  C   UNL     1     135.388 134.000 128.526  1.00  0.00     0.180 A 
ATOM      2  C   UNL     1     136.773 134.108 128.761  1.00  0.00     0.208 A 
ATOM      3  C   UNL     1     137.236 135.093 129.647  1.00  0.00     0.238 A 
ATOM      4  O   UNL     1     138.474 135.206 129.857  1.00  0.00    -0.285 OA
ATOM      5  C   UNL     1     136.312 135.938 130.295  1.00  0.00     0.111 A 
ATOM      6  C   UNL     1     136.696 136.953 131.204  1.00  0.00     0.134 A 
ATOM      7  C   UNL     1     135.714 137.747 131.816  1.00  0.00     0.093 A 
ATOM      8  C   UNL     1     134.359 137.546 131.539  1.00  0.00     0.123 A 
ATOM      9  C   UNL     1     133.975 136.544 130.641  1.00  0.00     0.094 A 
ATOM     10  C   UNL     1     134.937 135.744 130.019  1.00  0.00     0.146 A 
ATOM     11  O   UNL     1     134.545 134.804 129.167  1.00  0.00    -0.452 OA
ENDROOT
BRANCH   1  12
ATOM     12  C   UNL     1     134.824 132.999 127.593  1.00  0.00     0.025 A 
ATOM     13  C   UNL     1     134.512 131.714 128.064  1.00  0.00     0.016 A 
ATOM     14  C   UNL     1     133.960 130.760 127.206  1.00  0.00     0.051 A 
ATOM     15  C   UNL     1     133.696 131.082 125.869  1.00  0.00     0.157 A 
ATOM     16  C   UNL     1     134.539 133.325 126.254  1.00  0.00     0.062 A 
ATOM     17  C   UNL     1     133.982 132.367 125.393  1.00  0.00     0.158 A 
BRANCH  15  18
ATOM     18  O   UNL     1     133.147 130.132 125.009  1.00  0.00    -0.504 OA
ATOM     19  H   UNL     1     132.408 129.507 125.310  1.00  0.00     0.293 HD
ENDBRANCH  15  18
BRANCH  17  20
ATOM     20  O   UNL     1     133.707 132.689 124.065  1.00  0.00    -0.504 OA
ATOM     21  H   UNL     1     134.437 132.716 123.363  1.00  0.00     0.293 HD
ENDBRANCH  17  20
ENDBRANCH   1  12
BRANCH   2  22
ATOM     22  O   UNL     1     137.664 133.226 128.145  1.00  0.00    -0.502 OA
ATOM     23  H   UNL     1     137.437 132.254 127.977  1.00  0.00     0.293 HD
ENDBRANCH   2  22
BRANCH   6  24
ATOM     24  O   UNL     1     138.040 137.178 131.504  1.00  0.00    -0.507 OA
ATOM     25  H   UNL     1     138.344 138.009 131.999  1.00  0.00     0.293 HD
ENDBRANCH   6  24
BRANCH   8  26
ATOM     26  O   UNL     1     133.405 138.347 132.161  1.00  0.00    -0.508 OA
ATOM     27  H   UNL     1     133.666 139.188 132.664  1.00  0.00     0.293 HD
ENDBRANCH   8  26
TORSDOF 6
ENDMDL
MODEL 5
REMARK VINA RESULT:    -5.974      8.428      9.835
REMARK INTER + INTRA:          -7.526
REMARK INTER:                  -7.204
REMARK INTRA:                  -0.323
REMARK UNBOUND:                -0.330
REMARK SMILES O=c1c(O)c(-c2ccc(O)c(O)c2)oc2cc(O)cc(O)c12
REMARK SMILES IDX 5 1 3 2 2 3 1 4 22 5 20 6 19 7 17 8 16 9 15 10 14 11 6 12
REMARK SMILES IDX 7 13 8 14 9 15 13 16 11 17 10 18 12 20 4 22 21 24 18 26
REMARK H PARENT 10 19 12 21 4 23 21 25 18 27
REMARK Flexibility Score: inf
ROOT
ATOM      1  C   UNL     1     133.209 135.693 126.356  1.00  0.00     0.180 A 
ATOM      2  C   UNL     1     133.544 135.436 127.700  1.00  0.00     0.208 A 
ATOM      3  C   UNL     1     133.945 134.141 128.063  1.00  0.00     0.238 A 
ATOM      4  O   UNL     1     134.238 133.896 129.264  1.00  0.00    -0.285 OA
ATOM      5  C   UNL     1     134.024 133.134 127.078  1.00  0.00     0.111 A 
ATOM      6  C   UNL     1     134.423 131.806 127.361  1.00  0.00     0.134 A 
ATOM      7  C   UNL     1     134.484 130.863 126.324  1.00  0.00     0.093 A 
ATOM      8  C   UNL     1     134.157 131.221 125.013  1.00  0.00     0.123 A 
ATOM      9  C   UNL     1     133.761 132.533 124.730  1.00  0.00     0.094 A 
ATOM     10  C   UNL     1     133.692 133.487 125.749  1.00  0.00     0.146 A 
ATOM     11  O   UNL     1     133.309 134.723 125.453  1.00  0.00    -0.452 OA
ENDROOT
BRANCH   1  12
ATOM     12  C   UNL     1     132.759 137.028 125.900  1.00  0.00     0.025 A 
ATOM     13  C   UNL     1     131.389 137.334 125.903  1.00  0.00     0.016 A 
ATOM     14  C   UNL     1     130.944 138.594 125.497  1.00  0.00     0.051 A 
ATOM     15  C   UNL     1     131.863 139.572 125.096  1.00  0.00     0.157 A 
ATOM     16  C   UNL     1     133.680 138.019 125.515  1.00  0.00     0.062 A 
ATOM     17  C   UNL     1     133.234 139.286 125.109  1.00  0.00     0.158 A 
BRANCH  15  18
ATOM     18  O   UNL     1     131.423 140.830 124.687  1.00  0.00    -0.504 OA
ATOM     19  H   UNL     1     131.800 141.282 123.863  1.00  0.00     0.293 HD
ENDBRANCH  15  18
BRANCH  17  20
ATOM     20  O   UNL     1     134.148 140.265 124.722  1.00  0.00    -0.504 OA
ATOM     21  H   UNL     1     134.770 140.704 125.390  1.00  0.00     0.293 HD
ENDBRANCH  17  20
ENDBRANCH   1  12
BRANCH   2  22
ATOM     22  O   UNL     1     133.507 136.463 128.646  1.00  0.00    -0.502 OA
ATOM     23  H   UNL     1     133.942 137.364 128.488  1.00  0.00     0.293 HD
ENDBRANCH   2  22
BRANCH   6  24
ATOM     24  O   UNL     1     134.757 131.415 128.658  1.00  0.00    -0.507 OA
ATOM     25  H   UNL     1     135.609 130.904 128.858  1.00  0.00     0.293 HD
ENDBRANCH   6  24
BRANCH   8  26
ATOM     26  O   UNL     1     134.227 130.266 124.002  1.00  0.00    -0.508 OA
ATOM     27  H   UNL     1     135.094 130.075 123.513  1.00  0.00     0.293 HD
ENDBRANCH   8  26
TORSDOF 6
ENDMDL
MODEL 6
REMARK VINA RESULT:    -5.945      9.931     12.266
REMARK INTER + INTRA:          -7.491
REMARK INTER:                  -7.161
REMARK INTRA:                  -0.330
REMARK UNBOUND:                -0.330
REMARK SMILES O=c1c(O)c(-c2ccc(O)c(O)c2)oc2cc(O)cc(O)c12
REMARK SMILES IDX 5 1 3 2 2 3 1 4 22 5 20 6 19 7 17 8 16 9 15 10 14 11 6 12
REMARK SMILES IDX 7 13 8 14 9 15 13 16 11 17 10 18 12 20 4 22 21 24 18 26
REMARK H PARENT 10 19 12 21 4 23 21 25 18 27
REMARK Flexibility Score: inf
ROOT
ATOM      1  C   UNL     1     132.428 133.416 126.988  1.00  0.00     0.180 A 
ATOM      2  C   UNL     1     132.664 133.779 128.329  1.00  0.00     0.208 A 
ATOM      3  C   UNL     1     132.513 135.122 128.704  1.00  0.00     0.238 A 
ATOM      4  O   UNL     1     132.732 135.461 129.899  1.00  0.00    -0.285 OA
ATOM      5  C   UNL     1     132.110 136.074 127.744  1.00  0.00     0.111 A 
ATOM      6  C   UNL     1     131.930 137.445 128.042  1.00  0.00     0.134 A 
ATOM      7  C   UNL     1     131.518 138.328 127.032  1.00  0.00     0.093 A 
ATOM      8  C   UNL     1     131.281 137.867 125.734  1.00  0.00     0.123 A 
ATOM      9  C   UNL     1     131.458 136.512 125.435  1.00  0.00     0.094 A 
ATOM     10  C   UNL     1     131.869 135.617 126.426  1.00  0.00     0.146 A 
ATOM     11  O   UNL     1     132.035 134.337 126.114  1.00  0.00    -0.452 OA
ENDROOT
BRANCH   1  12
ATOM     12  C   UNL     1     132.585 132.023 126.512  1.00  0.00     0.025 A 
ATOM     13  C   UNL     1     131.460 131.184 126.446  1.00  0.00     0.016 A 
ATOM     14  C   UNL     1     131.581 129.873 125.979  1.00  0.00     0.051 A 
ATOM     15  C   UNL     1     132.825 129.386 125.556  1.00  0.00     0.157 A 
ATOM     16  C   UNL     1     133.828 131.536 126.067  1.00  0.00     0.062 A 
ATOM     17  C   UNL     1     133.949 130.220 125.596  1.00  0.00     0.158 A 
BRANCH  15  18
ATOM     18  O   UNL     1     132.949 128.078 125.092  1.00  0.00    -0.504 OA
ATOM     19  H   UNL     1     133.385 127.355 125.653  1.00  0.00     0.293 HD
ENDBRANCH  15  18
BRANCH  17  20
ATOM     20  O   UNL     1     135.183 129.737 125.163  1.00  0.00    -0.504 OA
ATOM     21  H   UNL     1     135.483 128.792 125.366  1.00  0.00     0.293 HD
ENDBRANCH  17  20
ENDBRANCH   1  12
BRANCH   2  22
ATOM     22  O   UNL     1     133.014 132.809 129.272  1.00  0.00    -0.502 OA
ATOM     23  H   UNL     1     132.404 132.036 129.507  1.00  0.00     0.293 HD
ENDBRANCH   2  22
BRANCH   6  24
ATOM     24  O   UNL     1     132.157 137.938 129.327  1.00  0.00    -0.507 OA
ATOM     25  H   UNL     1     133.033 137.782 129.812  1.00  0.00     0.293 HD
ENDBRANCH   6  24
BRANCH   8  26
ATOM     26  O   UNL     1     130.872 138.764 124.751  1.00  0.00    -0.508 OA
ATOM     27  H   UNL     1     131.139 139.742 124.781  1.00  0.00     0.293 HD
ENDBRANCH   8  26
TORSDOF 6
ENDMDL
MODEL 7
REMARK VINA RESULT:    -5.857      8.875     11.235
REMARK INTER + INTRA:          -7.385
REMARK INTER:                  -7.237
REMARK INTRA:                  -0.148
REMARK UNBOUND:                -0.330
REMARK SMILES O=c1c(O)c(-c2ccc(O)c(O)c2)oc2cc(O)cc(O)c12
REMARK SMILES IDX 5 1 3 2 2 3 1 4 22 5 20 6 19 7 17 8 16 9 15 10 14 11 6 12
REMARK SMILES IDX 7 13 8 14 9 15 13 16 11 17 10 18 12 20 4 22 21 24 18 26
REMARK H PARENT 10 19 12 21 4 23 21 25 18 27
REMARK Flexibility Score: inf
ROOT
ATOM      1  C   UNL     1     133.098 134.309 126.512  1.00  0.00     0.180 A 
ATOM      2  C   UNL     1     131.842 134.610 127.074  1.00  0.00     0.208 A 
ATOM      3  C   UNL     1     131.488 135.955 127.262  1.00  0.00     0.238 A 
ATOM      4  O   UNL     1     130.370 136.236 127.774  1.00  0.00    -0.285 OA
ATOM      5  C   UNL     1     132.381 136.973 126.869  1.00  0.00     0.111 A 
ATOM      6  C   UNL     1     132.098 138.351 127.021  1.00  0.00     0.134 A 
ATOM      7  C   UNL     1     133.036 139.305 126.597  1.00  0.00     0.093 A 
ATOM      8  C   UNL     1     134.248 138.908 126.024  1.00  0.00     0.123 A 
ATOM      9  C   UNL     1     134.532 137.546 125.872  1.00  0.00     0.094 A 
ATOM     10  C   UNL     1     133.611 136.581 126.290  1.00  0.00     0.146 A 
ATOM     11  O   UNL     1     133.909 135.295 126.139  1.00  0.00    -0.452 OA
ENDROOT
BRANCH   1  12
ATOM     12  C   UNL     1     133.551 132.916 126.299  1.00  0.00     0.025 A 
ATOM     13  C   UNL     1     133.719 132.067 127.405  1.00  0.00     0.016 A 
ATOM     14  C   UNL     1     134.125 130.743 127.225  1.00  0.00     0.051 A 
ATOM     15  C   UNL     1     134.354 130.243 125.937  1.00  0.00     0.157 A 
ATOM     16  C   UNL     1     133.763 132.404 125.005  1.00  0.00     0.062 A 
ATOM     17  C   UNL     1     134.169 131.074 124.825  1.00  0.00     0.158 A 
BRANCH  15  18
ATOM     18  O   UNL     1     134.762 128.922 125.755  1.00  0.00    -0.504 OA
ATOM     19  H   UNL     1     134.346 128.331 125.045  1.00  0.00     0.293 HD
ENDBRANCH  15  18
BRANCH  17  20
ATOM     20  O   UNL     1     134.385 130.570 123.543  1.00  0.00    -0.504 OA
ATOM     21  H   UNL     1     133.740 130.755 122.785  1.00  0.00     0.293 HD
ENDBRANCH  17  20
ENDBRANCH   1  12
BRANCH   2  22
ATOM     22  O   UNL     1     130.954 133.584 127.408  1.00  0.00    -0.502 OA
ATOM     23  H   UNL     1     129.961 133.742 127.526  1.00  0.00     0.293 HD
ENDBRANCH   2  22
BRANCH   6  24
ATOM     24  O   UNL     1     130.898 138.781 127.588  1.00  0.00    -0.507 OA
ATOM     25  H   UNL     1     130.681 138.620 128.565  1.00  0.00     0.293 HD
ENDBRANCH   6  24
BRANCH   8  26
ATOM     26  O   UNL     1     135.161 139.874 125.610  1.00  0.00    -0.508 OA
ATOM     27  H   UNL     1     134.915 140.574 124.919  1.00  0.00     0.293 HD
ENDBRANCH   8  26
TORSDOF 6
ENDMDL
MODEL 8
REMARK VINA RESULT:    -5.847      7.066     10.391
REMARK INTER + INTRA:          -7.373
REMARK INTER:                  -7.438
REMARK INTRA:                   0.064
REMARK UNBOUND:                -0.330
REMARK SMILES O=c1c(O)c(-c2ccc(O)c(O)c2)oc2cc(O)cc(O)c12
REMARK SMILES IDX 5 1 3 2 2 3 1 4 22 5 20 6 19 7 17 8 16 9 15 10 14 11 6 12
REMARK SMILES IDX 7 13 8 14 9 15 13 16 11 17 10 18 12 20 4 22 21 24 18 26
REMARK H PARENT 10 19 12 21 4 23 21 25 18 27
REMARK Flexibility Score: inf
ROOT
ATOM      1  C   UNL     1     131.270 138.034 126.114  1.00  0.00     0.180 A 
ATOM      2  C   UNL     1     132.181 138.763 125.326  1.00  0.00     0.208 A 
ATOM      3  C   UNL     1     131.980 140.141 125.156  1.00  0.00     0.238 A 
ATOM      4  O   UNL     1     132.783 140.803 124.443  1.00  0.00    -0.285 OA
ATOM      5  C   UNL     1     130.888 140.770 125.790  1.00  0.00     0.111 A 
ATOM      6  C   UNL     1     130.617 142.154 125.674  1.00  0.00     0.134 A 
ATOM      7  C   UNL     1     129.516 142.707 126.344  1.00  0.00     0.093 A 
ATOM      8  C   UNL     1     128.682 141.905 127.128  1.00  0.00     0.123 A 
ATOM      9  C   UNL     1     128.945 140.536 127.246  1.00  0.00     0.094 A 
ATOM     10  C   UNL     1     130.037 139.966 126.585  1.00  0.00     0.146 A 
ATOM     11  O   UNL     1     130.260 138.663 126.710  1.00  0.00    -0.452 OA
ENDROOT
BRANCH   1  12
ATOM     12  C   UNL     1     131.404 136.575 126.325  1.00  0.00     0.025 A 
ATOM     13  C   UNL     1     131.162 136.036 127.599  1.00  0.00     0.016 A 
ATOM     14  C   UNL     1     131.263 134.659 127.816  1.00  0.00     0.051 A 
ATOM     15  C   UNL     1     131.590 133.800 126.759  1.00  0.00     0.157 A 
ATOM     16  C   UNL     1     131.713 135.706 125.262  1.00  0.00     0.062 A 
ATOM     17  C   UNL     1     131.811 134.324 125.480  1.00  0.00     0.158 A 
BRANCH  15  18
ATOM     18  O   UNL     1     131.693 132.426 126.973  1.00  0.00    -0.504 OA
ATOM     19  H   UNL     1     131.964 132.048 127.873  1.00  0.00     0.293 HD
ENDBRANCH  15  18
BRANCH  17  20
ATOM     20  O   UNL     1     132.124 133.465 124.427  1.00  0.00    -0.504 OA
ATOM     21  H   UNL     1     131.785 133.632 123.487  1.00  0.00     0.293 HD
ENDBRANCH  17  20
ENDBRANCH   1  12
BRANCH   2  22
ATOM     22  O   UNL     1     133.283 138.126 124.749  1.00  0.00    -0.502 OA
ATOM     23  H   UNL     1     133.911 137.539 125.283  1.00  0.00     0.293 HD
ENDBRANCH   2  22
BRANCH   6  24
ATOM     24  O   UNL     1     131.431 142.983 124.900  1.00  0.00    -0.507 OA
ATOM     25  H   UNL     1     131.116 143.366 124.016  1.00  0.00     0.293 HD
ENDBRANCH   6  24
BRANCH   8  26
ATOM     26  O   UNL     1     127.596 142.478 127.783  1.00  0.00    -0.508 OA
ATOM     27  H   UNL     1     126.851 142.939 127.272  1.00  0.00     0.293 HD
ENDBRANCH   8  26
TORSDOF 6
ENDMDL
MODEL 9
REMARK VINA RESULT:    -5.841     11.210     12.856
REMARK INTER + INTRA:          -7.366
REMARK INTER:                  -7.041
REMARK INTRA:                  -0.324
REMARK UNBOUND:                -0.330
REMARK SMILES O=c1c(O)c(-c2ccc(O)c(O)c2)oc2cc(O)cc(O)c12
REMARK SMILES IDX 5 1 3 2 2 3 1 4 22 5 20 6 19 7 17 8 16 9 15 10 14 11 6 12
REMARK SMILES IDX 7 13 8 14 9 15 13 16 11 17 10 18 12 20 4 22 21 24 18 26
REMARK H PARENT 10 19 12 21 4 23 21 25 18 27
REMARK Flexibility Score: inf
ROOT
ATOM      1  C   UNL     1     134.573 132.418 128.192  1.00  0.00     0.180 A 
ATOM      2  C   UNL     1     134.027 133.707 128.349  1.00  0.00     0.208 A 
ATOM      3  C   UNL     1     134.509 134.527 129.380  1.00  0.00     0.238 A 
ATOM      4  O   UNL     1     134.021 135.679 129.538  1.00  0.00    -0.285 OA
ATOM      5  C   UNL     1     135.539 134.056 130.222  1.00  0.00     0.111 A 
ATOM      6  C   UNL     1     136.083 134.821 131.281  1.00  0.00     0.134 A 
ATOM      7  C   UNL     1     137.113 134.285 132.069  1.00  0.00     0.093 A 
ATOM      8  C   UNL     1     137.609 133.003 131.818  1.00  0.00     0.123 A 
ATOM      9  C   UNL     1     137.074 132.243 130.772  1.00  0.00     0.094 A 
ATOM     10  C   UNL     1     136.046 132.758 129.977  1.00  0.00     0.146 A 
ATOM     11  O   UNL     1     135.553 132.013 128.995  1.00  0.00    -0.452 OA
ENDROOT
BRANCH   1  12
ATOM     12  C   UNL     1     134.104 131.488 127.140  1.00  0.00     0.025 A 
ATOM     13  C   UNL     1     133.007 130.649 127.398  1.00  0.00     0.016 A 
ATOM     14  C   UNL     1     132.535 129.779 126.413  1.00  0.00     0.051 A 
ATOM     15  C   UNL     1     133.141 129.746 125.151  1.00  0.00     0.157 A 
ATOM     16  C   UNL     1     134.697 131.466 125.865  1.00  0.00     0.062 A 
ATOM     17  C   UNL     1     134.220 130.594 124.875  1.00  0.00     0.158 A 
BRANCH  15  18
ATOM     18  O   UNL     1     132.673 128.877 124.166  1.00  0.00    -0.504 OA
ATOM     19  H   UNL     1     133.009 128.926 123.211  1.00  0.00     0.293 HD
ENDBRANCH  15  18
BRANCH  17  20
ATOM     20  O   UNL     1     134.814 130.568 123.613  1.00  0.00    -0.504 OA
ATOM     21  H   UNL     1     134.286 130.323 122.784  1.00  0.00     0.293 HD
ENDBRANCH  17  20
ENDBRANCH   1  12
BRANCH   2  22
ATOM     22  O   UNL     1     133.043 134.169 127.471  1.00  0.00    -0.502 OA
ATOM     23  H   UNL     1     132.054 134.093 127.675  1.00  0.00     0.293 HD
ENDBRANCH   2  22
BRANCH   6  24
ATOM     24  O   UNL     1     135.611 136.105 131.558  1.00  0.00    -0.507 OA
ATOM     25  H   UNL     1     134.948 136.281 132.303  1.00  0.00     0.293 HD
ENDBRANCH   6  24
BRANCH   8  26
ATOM     26  O   UNL     1     138.632 132.495 132.614  1.00  0.00    -0.508 OA
ATOM     27  H   UNL     1     139.479 133.023 132.789  1.00  0.00     0.293 HD
ENDBRANCH   8  26
TORSDOF 6
ENDMDL
