MODEL 1
REMARK VINA RESULT:    -4.433      0.000      0.000
REMARK INTER + INTRA:          -5.476
REMARK INTER:                  -5.210
REMARK INTRA:                  -0.266
REMARK UNBOUND:                -0.266
REMARK SMILES O=c1cc(-c2ccc(O)c(O)c2)oc2cc(O)cc(O)c12
REMARK SMILES IDX 4 1 3 2 2 3 1 4 21 5 19 6 18 7 16 8 15 9 14 10 13 11 5 12
REMARK SMILES IDX 6 13 7 14 8 15 12 16 10 17 9 18 11 20 20 22 17 24
REMARK H PARENT 9 19 11 21 20 23 17 25
REMARK Flexibility Score: inf
ROOT
ATOM      1  C   UNL     1       7.304   6.634  35.122  1.00  0.00     0.138 A 
ATOM      2  C   UNL     1       6.357   5.849  35.793  1.00  0.00     0.100 A 
ATOM      3  C   UNL     1       6.730   4.607  36.308  1.00  0.00     0.197 A 
ATOM      4  O   UNL     1       5.875   3.952  36.960  1.00  0.00    -0.289 OA
ATOM      5  C   UNL     1       8.052   4.136  36.121  1.00  0.00     0.107 A 
ATOM      6  C   UNL     1       8.533   2.868  36.567  1.00  0.00     0.134 A 
ATOM      7  C   UNL     1       9.891   2.558  36.427  1.00  0.00     0.093 A 
ATOM      8  C   UNL     1      10.773   3.446  35.805  1.00  0.00     0.123 A 
ATOM      9  C   UNL     1      10.302   4.663  35.319  1.00  0.00     0.094 A 
ATOM     10  C   UNL     1       8.958   5.015  35.473  1.00  0.00     0.146 A 
ATOM     11  O   UNL     1       8.553   6.192  35.007  1.00  0.00    -0.456 OA
ENDROOT
BRANCH   1  12
ATOM     12  C   UNL     1       6.962   7.962  34.554  1.00  0.00     0.021 A 
ATOM     13  C   UNL     1       7.040   8.217  33.171  1.00  0.00     0.016 A 
ATOM     14  C   UNL     1       6.721   9.479  32.665  1.00  0.00     0.051 A 
ATOM     15  C   UNL     1       6.327  10.510  33.528  1.00  0.00     0.157 A 
ATOM     16  C   UNL     1       6.580   9.006  35.415  1.00  0.00     0.062 A 
ATOM     17  C   UNL     1       6.258  10.271  34.909  1.00  0.00     0.158 A 
BRANCH  15  18
ATOM     18  O   UNL     1       6.010  11.768  33.019  1.00  0.00    -0.504 OA
ATOM     19  H   UNL     1       5.083  11.979  32.666  1.00  0.00     0.293 HD
ENDBRANCH  15  18
BRANCH  17  20
ATOM     20  O   UNL     1       5.875  11.277  35.795  1.00  0.00    -0.504 OA
ATOM     21  H   UNL     1       6.031  11.204  36.794  1.00  0.00     0.293 HD
ENDBRANCH  17  20
ENDBRANCH   1  12
BRANCH   6  22
ATOM     22  O   UNL     1       7.721   1.876  37.124  1.00  0.00    -0.507 OA
ATOM     23  H   UNL     1       7.450   1.023  36.658  1.00  0.00     0.293 HD
ENDBRANCH   6  22
BRANCH   8  24
ATOM     24  O   UNL     1      12.120   3.123  35.657  1.00  0.00    -0.508 OA
ATOM     25  H   UNL     1      12.844   3.626  36.157  1.00  0.00     0.293 HD
ENDBRANCH   8  24
TORSDOF 5
ENDMDL
MODEL 2
REMARK VINA RESULT:    -3.747     24.054     25.738
REMARK INTER + INTRA:          -4.669
REMARK INTER:                  -4.384
REMARK INTRA:                  -0.286
REMARK UNBOUND:                -0.266
REMARK SMILES O=c1cc(-c2ccc(O)c(O)c2)oc2cc(O)cc(O)c12
REMARK SMILES IDX 4 1 3 2 2 3 1 4 21 5 19 6 18 7 16 8 15 9 14 10 13 11 5 12
REMARK SMILES IDX 6 13 7 14 8 15 12 16 10 17 9 18 11 20 20 22 17 24
REMARK H PARENT 9 19 11 21 20 23 17 25
REMARK Flexibility Score: inf
ROOT
ATOM      1  C   UNL     1      20.074  20.854  18.735  1.00  0.00     0.138 A 
ATOM      2  C   UNL     1      20.423  21.491  19.933  1.00  0.00     0.100 A 
ATOM      3  C   UNL     1      21.755  21.492  20.351  1.00  0.00     0.197 A 
ATOM      4  O   UNL     1      22.049  22.125  21.399  1.00  0.00    -0.289 OA
ATOM      5  C   UNL     1      22.736  20.826  19.578  1.00  0.00     0.107 A 
ATOM      6  C   UNL     1      24.116  20.727  19.927  1.00  0.00     0.134 A 
ATOM      7  C   UNL     1      25.015  20.141  19.027  1.00  0.00     0.093 A 
ATOM      8  C   UNL     1      24.573  19.598  17.817  1.00  0.00     0.123 A 
ATOM      9  C   UNL     1      23.219  19.642  17.493  1.00  0.00     0.094 A 
ATOM     10  C   UNL     1      22.302  20.249  18.355  1.00  0.00     0.146 A 
ATOM     11  O   UNL     1      21.022  20.282  18.000  1.00  0.00    -0.456 OA
ENDROOT
BRANCH   1  12
ATOM     12  C   UNL     1      18.673  20.822  18.244  1.00  0.00     0.021 A 
ATOM     13  C   UNL     1      17.896  21.992  18.147  1.00  0.00     0.016 A 
ATOM     14  C   UNL     1      16.577  21.931  17.691  1.00  0.00     0.051 A 
ATOM     15  C   UNL     1      16.008  20.702  17.332  1.00  0.00     0.157 A 
ATOM     16  C   UNL     1      18.089  19.591  17.896  1.00  0.00     0.062 A 
ATOM     17  C   UNL     1      16.768  19.527  17.437  1.00  0.00     0.158 A 
BRANCH  15  18
ATOM     18  O   UNL     1      14.692  20.645  16.877  1.00  0.00    -0.504 OA
ATOM     19  H   UNL     1      14.370  21.225  16.110  1.00  0.00     0.293 HD
ENDBRANCH  15  18
BRANCH  17  20
ATOM     20  O   UNL     1      16.230  18.288  17.093  1.00  0.00    -0.504 OA
ATOM     21  H   UNL     1      16.812  17.498  16.841  1.00  0.00     0.293 HD
ENDBRANCH  17  20
ENDBRANCH   1  12
BRANCH   6  22
ATOM     22  O   UNL     1      24.648  21.161  21.145  1.00  0.00    -0.507 OA
ATOM     23  H   UNL     1      24.156  21.728  21.820  1.00  0.00     0.293 HD
ENDBRANCH   6  22
BRANCH   8  24
ATOM     24  O   UNL     1      25.472  19.004  16.935  1.00  0.00    -0.508 OA
ATOM     25  H   UNL     1      25.447  19.200  15.940  1.00  0.00     0.293 HD
ENDBRANCH   8  24
TORSDOF 5
ENDMDL
MODEL 3
REMARK VINA RESULT:    -3.554      3.861      6.876
REMARK INTER + INTRA:          -4.443
REMARK INTER:                  -4.148
REMARK INTRA:                  -0.295
REMARK UNBOUND:                -0.266
REMARK SMILES O=c1cc(-c2ccc(O)c(O)c2)oc2cc(O)cc(O)c12
REMARK SMILES IDX 4 1 3 2 2 3 1 4 21 5 19 6 18 7 16 8 15 9 14 10 13 11 5 12
REMARK SMILES IDX 6 13 7 14 8 15 12 16 10 17 9 18 11 20 20 22 17 24
REMARK H PARENT 9 19 11 21 20 23 17 25
REMARK Flexibility Score: inf
ROOT
ATOM      1  C   UNL     1       6.126  12.702  34.740  1.00  0.00     0.138 A 
ATOM      2  C   UNL     1       6.210  12.373  33.381  1.00  0.00     0.100 A 
ATOM      3  C   UNL     1       6.262  11.032  32.998  1.00  0.00     0.197 A 
ATOM      4  O   UNL     1       6.274  10.765  31.768  1.00  0.00    -0.289 OA
ATOM      5  C   UNL     1       6.260  10.017  33.985  1.00  0.00     0.107 A 
ATOM      6  C   UNL     1       6.351   8.619  33.713  1.00  0.00     0.134 A 
ATOM      7  C   UNL     1       6.223   7.702  34.764  1.00  0.00     0.093 A 
ATOM      8  C   UNL     1       6.069   8.135  36.084  1.00  0.00     0.123 A 
ATOM      9  C   UNL     1       6.034   9.499  36.365  1.00  0.00     0.094 A 
ATOM     10  C   UNL     1       6.124  10.438  35.334  1.00  0.00     0.146 A 
ATOM     11  O   UNL     1       6.072  11.729  35.645  1.00  0.00    -0.456 OA
ENDROOT
BRANCH   1  12
ATOM     12  C   UNL     1       6.069  14.111  35.204  1.00  0.00     0.021 A 
ATOM     13  C   UNL     1       5.955  14.436  36.569  1.00  0.00     0.016 A 
ATOM     14  C   UNL     1       5.893  15.771  36.977  1.00  0.00     0.051 A 
ATOM     15  C   UNL     1       5.936  16.803  36.030  1.00  0.00     0.157 A 
ATOM     16  C   UNL     1       6.097  15.153  34.260  1.00  0.00     0.062 A 
ATOM     17  C   UNL     1       6.037  16.491  34.666  1.00  0.00     0.158 A 
BRANCH  15  18
ATOM     18  O   UNL     1       5.875  18.134  36.441  1.00  0.00    -0.504 OA
ATOM     19  H   UNL     1       6.055  18.401  37.402  1.00  0.00     0.293 HD
ENDBRANCH  15  18
BRANCH  17  20
ATOM     20  O   UNL     1       6.078  17.495  33.699  1.00  0.00    -0.504 OA
ATOM     21  H   UNL     1       5.766  18.440  33.889  1.00  0.00     0.293 HD
ENDBRANCH  17  20
ENDBRANCH   1  12
BRANCH   6  22
ATOM     22  O   UNL     1       6.589   8.083  32.444  1.00  0.00    -0.507 OA
ATOM     23  H   UNL     1       7.461   7.672  32.146  1.00  0.00     0.293 HD
ENDBRANCH   6  22
BRANCH   8  24
ATOM     24  O   UNL     1       5.958   7.216  37.124  1.00  0.00    -0.508 OA
ATOM     25  H   UNL     1       6.743   6.644  37.413  1.00  0.00     0.293 HD
ENDBRANCH   8  24
TORSDOF 5
ENDMDL
MODEL 4
REMARK VINA RESULT:    -3.102     24.041     25.902
REMARK INTER + INTRA:          -3.911
REMARK INTER:                  -3.639
REMARK INTRA:                  -0.273
REMARK UNBOUND:                -0.266
REMARK SMILES O=c1cc(-c2ccc(O)c(O)c2)oc2cc(O)cc(O)c12
REMARK SMILES IDX 4 1 3 2 2 3 1 4 21 5 19 6 18 7 16 8 15 9 14 10 13 11 5 12
REMARK SMILES IDX 6 13 7 14 8 15 12 16 10 17 9 18 11 20 20 22 17 24
REMARK H PARENT 9 19 11 21 20 23 17 25
REMARK Flexibility Score: inf
ROOT
ATOM      1  C   UNL     1      20.564  20.353  18.146  1.00  0.00     0.138 A 
ATOM      2  C   UNL     1      21.355  19.538  17.324  1.00  0.00     0.100 A 
ATOM      3  C   UNL     1      22.717  19.404  17.592  1.00  0.00     0.197 A 
ATOM      4  O   UNL     1      23.390  18.617  16.875  1.00  0.00    -0.289 OA
ATOM      5  C   UNL     1      23.296  20.113  18.672  1.00  0.00     0.107 A 
ATOM      6  C   UNL     1      24.681  20.084  19.014  1.00  0.00     0.134 A 
ATOM      7  C   UNL     1      25.119  20.735  20.173  1.00  0.00     0.093 A 
ATOM      8  C   UNL     1      24.231  21.465  20.970  1.00  0.00     0.123 A 
ATOM      9  C   UNL     1      22.887  21.543  20.614  1.00  0.00     0.094 A 
ATOM     10  C   UNL     1      22.413  20.876  19.481  1.00  0.00     0.146 A 
ATOM     11  O   UNL     1      21.121  20.966  19.185  1.00  0.00    -0.456 OA
ENDROOT
BRANCH   1  12
ATOM     12  C   UNL     1      19.110  20.533  17.906  1.00  0.00     0.021 A 
ATOM     13  C   UNL     1      18.513  21.809  17.903  1.00  0.00     0.016 A 
ATOM     14  C   UNL     1      17.141  21.948  17.685  1.00  0.00     0.051 A 
ATOM     15  C   UNL     1      16.339  20.819  17.473  1.00  0.00     0.157 A 
ATOM     16  C   UNL     1      18.295  19.404  17.707  1.00  0.00     0.062 A 
ATOM     17  C   UNL     1      16.920  19.541  17.486  1.00  0.00     0.158 A 
BRANCH  15  18
ATOM     18  O   UNL     1      14.970  20.963  17.255  1.00  0.00    -0.504 OA
ATOM     19  H   UNL     1      14.560  21.862  17.030  1.00  0.00     0.293 HD
ENDBRANCH  15  18
BRANCH  17  20
ATOM     20  O   UNL     1      16.149  18.398  17.283  1.00  0.00    -0.504 OA
ATOM     21  H   UNL     1      15.481  18.069  17.971  1.00  0.00     0.293 HD
ENDBRANCH  17  20
ENDBRANCH   1  12
BRANCH   6  22
ATOM     22  O   UNL     1      25.664  19.457  18.242  1.00  0.00    -0.507 OA
ATOM     23  H   UNL     1      25.630  19.353  17.239  1.00  0.00     0.293 HD
ENDBRANCH   6  22
BRANCH   8  24
ATOM     24  O   UNL     1      24.679  22.122  22.113  1.00  0.00    -0.508 OA
ATOM     25  H   UNL     1      24.240  21.975  23.015  1.00  0.00     0.293 HD
ENDBRANCH   8  24
TORSDOF 5
ENDMDL
MODEL 5
REMARK VINA RESULT:    -3.040     23.465     25.863
REMARK INTER + INTRA:          -3.838
REMARK INTER:                  -3.572
REMARK INTRA:                  -0.267
REMARK UNBOUND:                -0.266
REMARK SMILES O=c1cc(-c2ccc(O)c(O)c2)oc2cc(O)cc(O)c12
REMARK SMILES IDX 4 1 3 2 2 3 1 4 21 5 19 6 18 7 16 8 15 9 14 10 13 11 5 12
REMARK SMILES IDX 6 13 7 14 8 15 12 16 10 17 9 18 11 20 20 22 17 24
REMARK H PARENT 9 19 11 21 20 23 17 25
REMARK Flexibility Score: inf
ROOT
ATOM      1  C   UNL     1      20.652  20.747  18.268  1.00  0.00     0.138 A 
ATOM      2  C   UNL     1      19.611  21.682  18.338  1.00  0.00     0.100 A 
ATOM      3  C   UNL     1      18.303  21.279  18.066  1.00  0.00     0.197 A 
ATOM      4  O   UNL     1      17.380  22.125  18.198  1.00  0.00    -0.289 OA
ATOM      5  C   UNL     1      18.043  19.939  17.691  1.00  0.00     0.107 A 
ATOM      6  C   UNL     1      16.755  19.425  17.351  1.00  0.00     0.134 A 
ATOM      7  C   UNL     1      16.601  18.055  17.107  1.00  0.00     0.093 A 
ATOM      8  C   UNL     1      17.699  17.190  17.133  1.00  0.00     0.123 A 
ATOM      9  C   UNL     1      18.968  17.691  17.411  1.00  0.00     0.094 A 
ATOM     10  C   UNL     1      19.149  19.048  17.691  1.00  0.00     0.146 A 
ATOM     11  O   UNL     1      20.375  19.483  17.966  1.00  0.00    -0.456 OA
ENDROOT
BRANCH   1  12
ATOM     12  C   UNL     1      22.062  21.121  18.546  1.00  0.00     0.021 A 
ATOM     13  C   UNL     1      22.890  21.676  17.552  1.00  0.00     0.016 A 
ATOM     14  C   UNL     1      24.216  22.009  17.839  1.00  0.00     0.051 A 
ATOM     15  C   UNL     1      24.740  21.789  19.119  1.00  0.00     0.157 A 
ATOM     16  C   UNL     1      22.600  20.890  19.825  1.00  0.00     0.062 A 
ATOM     17  C   UNL     1      23.928  21.224  20.115  1.00  0.00     0.158 A 
BRANCH  15  18
ATOM     18  O   UNL     1      26.063  22.124  19.402  1.00  0.00    -0.504 OA
ATOM     19  H   UNL     1      26.779  22.111  18.684  1.00  0.00     0.293 HD
ENDBRANCH  15  18
BRANCH  17  20
ATOM     20  O   UNL     1      24.421  20.987  21.398  1.00  0.00    -0.504 OA
ATOM     21  H   UNL     1      25.307  20.522  21.557  1.00  0.00     0.293 HD
ENDBRANCH  17  20
ENDBRANCH   1  12
BRANCH   6  22
ATOM     22  O   UNL     1      15.610  20.215  17.214  1.00  0.00    -0.507 OA
ATOM     23  H   UNL     1      15.152  20.704  17.969  1.00  0.00     0.293 HD
ENDBRANCH   6  22
BRANCH   8  24
ATOM     24  O   UNL     1      17.538  15.831  16.875  1.00  0.00    -0.508 OA
ATOM     25  H   UNL     1      18.072  15.130  17.375  1.00  0.00     0.293 HD
ENDBRANCH   8  24
TORSDOF 5
ENDMDL
MODEL 6
REMARK VINA RESULT:    -2.618     23.943     26.005
REMARK INTER + INTRA:          -3.342
REMARK INTER:                  -3.078
REMARK INTRA:                  -0.264
REMARK UNBOUND:                -0.266
REMARK SMILES O=c1cc(-c2ccc(O)c(O)c2)oc2cc(O)cc(O)c12
REMARK SMILES IDX 4 1 3 2 2 3 1 4 21 5 19 6 18 7 16 8 15 9 14 10 13 11 5 12
REMARK SMILES IDX 6 13 7 14 8 15 12 16 10 17 9 18 11 20 20 22 17 24
REMARK H PARENT 9 19 11 21 20 23 17 25
REMARK Flexibility Score: inf
ROOT
ATOM      1  C   UNL     1      20.828  20.104  18.051  1.00  0.00     0.138 A 
ATOM      2  C   UNL     1      20.641  18.779  17.634  1.00  0.00     0.100 A 
ATOM      3  C   UNL     1      19.360  18.332  17.306  1.00  0.00     0.197 A 
ATOM      4  O   UNL     1      19.232  17.157  16.875  1.00  0.00    -0.289 OA
ATOM      5  C   UNL     1      18.257  19.211  17.427  1.00  0.00     0.107 A 
ATOM      6  C   UNL     1      16.901  18.854  17.159  1.00  0.00     0.134 A 
ATOM      7  C   UNL     1      15.907  19.839  17.202  1.00  0.00     0.093 A 
ATOM      8  C   UNL     1      16.211  21.155  17.561  1.00  0.00     0.123 A 
ATOM      9  C   UNL     1      17.523  21.501  17.876  1.00  0.00     0.094 A 
ATOM     10  C   UNL     1      18.543  20.548  17.810  1.00  0.00     0.146 A 
ATOM     11  O   UNL     1      19.783  20.924  18.104  1.00  0.00    -0.456 OA
ENDROOT
BRANCH   1  12
ATOM     12  C   UNL     1      22.168  20.631  18.413  1.00  0.00     0.021 A 
ATOM     13  C   UNL     1      23.043  21.155  17.441  1.00  0.00     0.016 A 
ATOM     14  C   UNL     1      24.302  21.635  17.808  1.00  0.00     0.051 A 
ATOM     15  C   UNL     1      24.714  21.593  19.147  1.00  0.00     0.157 A 
ATOM     16  C   UNL     1      22.595  20.579  19.751  1.00  0.00     0.062 A 
ATOM     17  C   UNL     1      23.856  21.060  20.122  1.00  0.00     0.158 A 
BRANCH  15  18
ATOM     18  O   UNL     1      25.971  22.074  19.509  1.00  0.00    -0.504 OA
ATOM     19  H   UNL     1      26.374  22.892  19.066  1.00  0.00     0.293 HD
ENDBRANCH  15  18
BRANCH  17  20
ATOM     20  O   UNL     1      24.238  21.000  21.461  1.00  0.00    -0.504 OA
ATOM     21  H   UNL     1      25.130  21.355  21.784  1.00  0.00     0.293 HD
ENDBRANCH  17  20
ENDBRANCH   1  12
BRANCH   6  22
ATOM     22  O   UNL     1      16.477  17.552  16.875  1.00  0.00    -0.507 OA
ATOM     23  H   UNL     1      17.058  16.830  16.476  1.00  0.00     0.293 HD
ENDBRANCH   6  22
BRANCH   8  24
ATOM     24  O   UNL     1      15.213  22.125  17.615  1.00  0.00    -0.508 OA
ATOM     25  H   UNL     1      14.291  21.959  17.229  1.00  0.00     0.293 HD
ENDBRANCH   8  24
TORSDOF 5
ENDMDL
MODEL 7
REMARK VINA RESULT:    -1.937      1.810      7.487
REMARK INTER + INTRA:          -2.542
REMARK INTER:                  -2.279
REMARK INTRA:                  -0.263
REMARK UNBOUND:                -0.266
REMARK SMILES O=c1cc(-c2ccc(O)c(O)c2)oc2cc(O)cc(O)c12
REMARK SMILES IDX 4 1 3 2 2 3 1 4 21 5 19 6 18 7 16 8 15 9 14 10 13 11 5 12
REMARK SMILES IDX 6 13 7 14 8 15 12 16 10 17 9 18 11 20 20 22 17 24
REMARK H PARENT 9 19 11 21 20 23 17 25
REMARK Flexibility Score: inf
ROOT
ATOM      1  C   UNL     1       6.694   8.367  35.134  1.00  0.00     0.138 A 
ATOM      2  C   UNL     1       6.525   9.182  36.262  1.00  0.00     0.100 A 
ATOM      3  C   UNL     1       6.279  10.546  36.097  1.00  0.00     0.197 A 
ATOM      4  O   UNL     1       6.070  11.241  37.125  1.00  0.00    -0.289 OA
ATOM      5  C   UNL     1       6.234  11.101  34.795  1.00  0.00     0.107 A 
ATOM      6  C   UNL     1       6.031  12.484  34.508  1.00  0.00     0.134 A 
ATOM      7  C   UNL     1       5.890  12.899  33.178  1.00  0.00     0.093 A 
ATOM      8  C   UNL     1       6.003  11.989  32.123  1.00  0.00     0.123 A 
ATOM      9  C   UNL     1       6.254  10.646  32.391  1.00  0.00     0.094 A 
ATOM     10  C   UNL     1       6.367  10.195  33.709  1.00  0.00     0.146 A 
ATOM     11  O   UNL     1       6.592   8.903  33.922  1.00  0.00    -0.456 OA
ENDROOT
BRANCH   1  12
ATOM     12  C   UNL     1       6.958   6.911  35.251  1.00  0.00     0.021 A 
ATOM     13  C   UNL     1       6.028   5.953  34.803  1.00  0.00     0.016 A 
ATOM     14  C   UNL     1       6.298   4.589  34.935  1.00  0.00     0.051 A 
ATOM     15  C   UNL     1       7.494   4.157  35.523  1.00  0.00     0.157 A 
ATOM     16  C   UNL     1       8.149   6.469  35.853  1.00  0.00     0.062 A 
ATOM     17  C   UNL     1       8.423   5.102  35.985  1.00  0.00     0.158 A 
BRANCH  15  18
ATOM     18  O   UNL     1       7.760   2.795  35.652  1.00  0.00    -0.504 OA
ATOM     19  H   UNL     1       8.636   2.392  35.336  1.00  0.00     0.293 HD
ENDBRANCH  15  18
BRANCH  17  20
ATOM     20  O   UNL     1       9.620   4.705  36.579  1.00  0.00    -0.504 OA
ATOM     21  H   UNL     1      10.465   5.260  36.510  1.00  0.00     0.293 HD
ENDBRANCH  17  20
ENDBRANCH   1  12
BRANCH   6  22
ATOM     22  O   UNL     1       5.988  13.486  35.482  1.00  0.00    -0.507 OA
ATOM     23  H   UNL     1       5.813  13.330  36.463  1.00  0.00     0.293 HD
ENDBRANCH   6  22
BRANCH   8  24
ATOM     24  O   UNL     1       5.875  12.414  30.803  1.00  0.00    -0.508 OA
ATOM     25  H   UNL     1       5.439  11.830  30.098  1.00  0.00     0.293 HD
ENDBRANCH   8  24
TORSDOF 5
ENDMDL
