MODEL 1
REMARK VINA RESULT:    -6.812      0.000      0.000
REMARK INTER + INTRA:         -11.674
REMARK INTER:                  -9.798
REMARK INTRA:                  -1.876
REMARK UNBOUND:                -1.876
REMARK SMILES O=c1c(O[C@@H]2O[C@H](CO)[C@@H](O)[C@@H](O)[C@@H]2O)c(-c2ccc(O)cc2)oc2cc(O)cc(O)c12
REMARK SMILES IDX 4 1 3 2 16 3 24 4 2 5 25 6 1 7 32 8 26 9 30 10 27 11 29 12
REMARK SMILES IDX 17 13 18 14 19 15 20 16 23 17 22 18 21 19 31 21 28 23 5 25
REMARK SMILES IDX 14 26 6 27 12 28 7 29 10 30 15 31 13 33 8 35 9 36 11 38
REMARK H PARENT 21 20 31 22 28 24 15 32 13 34 9 37 11 39
REMARK Flexibility Score: inf
ROOT
ATOM      1  O   UNL     1     -37.916   5.681  81.944  1.00  0.00    -0.454 OA
ENDROOT
BRANCH   1   2
ATOM      2  C   UNL     1     -38.537   5.040  80.859  1.00  0.00     0.214 A 
ATOM      3  C   UNL     1     -37.934   4.923  79.585  1.00  0.00     0.180 A 
ATOM      4  O   UNL     1     -38.623   4.399  78.576  1.00  0.00    -0.452 OA
ATOM      5  C   UNL     1     -39.809   4.484  81.050  1.00  0.00     0.239 A 
ATOM      6  C   UNL     1     -39.853   3.916  78.703  1.00  0.00     0.146 A 
ATOM      7  O   UNL     1     -40.323   4.513  82.203  1.00  0.00    -0.285 OA
ATOM      8  C   UNL     1     -40.500   3.920  79.961  1.00  0.00     0.111 A 
ATOM      9  C   UNL     1     -40.498   3.387  77.582  1.00  0.00     0.094 A 
ATOM     10  C   UNL     1     -41.801   3.374  80.069  1.00  0.00     0.134 A 
ATOM     11  C   UNL     1     -41.786   2.853  77.694  1.00  0.00     0.123 A 
ATOM     12  C   UNL     1     -42.431   2.846  78.933  1.00  0.00     0.093 A 
BRANCH   3  13
ATOM     13  C   UNL     1     -36.535   5.321  79.326  1.00  0.00     0.021 A 
ATOM     14  C   UNL     1     -35.464   4.527  79.772  1.00  0.00     0.016 A 
ATOM     15  C   UNL     1     -34.146   4.916  79.520  1.00  0.00     0.047 A 
ATOM     16  C   UNL     1     -33.884   6.094  78.805  1.00  0.00     0.115 A 
ATOM     17  C   UNL     1     -36.268   6.485  78.588  1.00  0.00     0.016 A 
ATOM     18  C   UNL     1     -34.947   6.872  78.336  1.00  0.00     0.047 A 
BRANCH  16  19
ATOM     19  O   UNL     1     -32.575   6.497  78.557  1.00  0.00    -0.508 OA
ATOM     20  H   UNL     1     -31.783   5.953  78.880  1.00  0.00     0.293 HD
ENDBRANCH  16  19
ENDBRANCH   3  13
BRANCH  10  21
ATOM     21  O   UNL     1     -42.472   3.357  81.294  1.00  0.00    -0.507 OA
ATOM     22  H   UNL     1     -43.483   3.302  81.346  1.00  0.00     0.293 HD
ENDBRANCH  10  21
BRANCH  11  23
ATOM     23  O   UNL     1     -42.436   2.324  76.580  1.00  0.00    -0.508 OA
ATOM     24  H   UNL     1     -43.133   2.855  76.073  1.00  0.00     0.293 HD
ENDBRANCH  11  23
ENDBRANCH   1   2
BRANCH   1  25
ATOM     25  C   UNL     1     -38.026   7.081  82.237  1.00  0.00     0.339 C 
ATOM     26  C   UNL     1     -38.699   7.368  83.614  1.00  0.00     0.214 C 
ATOM     27  O   UNL     1     -36.760   7.707  82.061  1.00  0.00    -0.332 OA
ATOM     28  C   UNL     1     -37.997   8.540  84.337  1.00  0.00     0.180 C 
ATOM     29  C   UNL     1     -35.893   7.592  83.182  1.00  0.00     0.179 C 
ATOM     30  C   UNL     1     -36.482   8.263  84.463  1.00  0.00     0.177 C 
BRANCH  26  31
ATOM     31  O   UNL     1     -38.792   6.200  84.400  1.00  0.00    -0.384 OA
ATOM     32  H   UNL     1     -38.217   6.277  85.202  1.00  0.00     0.211 HD
ENDBRANCH  26  31
BRANCH  28  33
ATOM     33  O   UNL     1     -38.210   9.728  83.617  1.00  0.00    -0.387 OA
ATOM     34  H   UNL     1     -38.417  10.436  84.284  1.00  0.00     0.211 HD
ENDBRANCH  28  33
BRANCH  29  35
ATOM     35  C   UNL     1     -35.423   6.142  83.413  1.00  0.00     0.191 C 
BRANCH  35  36
ATOM     36  O   UNL     1     -35.967   5.649  84.607  1.00  0.00    -0.394 OA
ATOM     37  H   UNL     1     -35.739   6.311  85.310  1.00  0.00     0.210 HD
ENDBRANCH  35  36
ENDBRANCH  29  35
BRANCH  30  38
ATOM     38  O   UNL     1     -35.788   9.442  84.794  1.00  0.00    -0.387 OA
ATOM     39  H   UNL     1     -34.874   9.380  84.412  1.00  0.00     0.211 HD
ENDBRANCH  30  38
ENDBRANCH   1  25
TORSDOF 11
ENDMDL
MODEL 2
REMARK VINA RESULT:    -6.177      2.356      6.227
REMARK INTER + INTRA:         -10.762
REMARK INTER:                  -8.907
REMARK INTRA:                  -1.855
REMARK UNBOUND:                -1.876
REMARK SMILES O=c1c(O[C@@H]2O[C@H](CO)[C@@H](O)[C@@H](O)[C@@H]2O)c(-c2ccc(O)cc2)oc2cc(O)cc(O)c12
REMARK SMILES IDX 4 1 3 2 16 3 24 4 2 5 25 6 1 7 32 8 26 9 30 10 27 11 29 12
REMARK SMILES IDX 17 13 18 14 19 15 20 16 23 17 22 18 21 19 31 21 28 23 5 25
REMARK SMILES IDX 14 26 6 27 12 28 7 29 10 30 15 31 13 33 8 35 9 36 11 38
REMARK H PARENT 21 20 31 22 28 24 15 32 13 34 9 37 11 39
REMARK Flexibility Score: inf
ROOT
ATOM      1  O   UNL     1     -37.608   5.727  81.646  1.00  0.00    -0.454 OA
ENDROOT
BRANCH   1   2
ATOM      2  C   UNL     1     -37.059   6.374  80.527  1.00  0.00     0.214 A 
ATOM      3  C   UNL     1     -37.321   5.969  79.197  1.00  0.00     0.180 A 
ATOM      4  O   UNL     1     -36.683   6.560  78.191  1.00  0.00    -0.452 OA
ATOM      5  C   UNL     1     -36.221   7.477  80.737  1.00  0.00     0.239 A 
ATOM      6  C   UNL     1     -35.835   7.568  78.354  1.00  0.00     0.146 A 
ATOM      7  O   UNL     1     -36.044   7.896  81.914  1.00  0.00    -0.285 OA
ATOM      8  C   UNL     1     -35.578   8.089  79.644  1.00  0.00     0.111 A 
ATOM      9  C   UNL     1     -35.211   8.123  77.234  1.00  0.00     0.094 A 
ATOM     10  C   UNL     1     -34.689   9.182  79.782  1.00  0.00     0.134 A 
ATOM     11  C   UNL     1     -34.329   9.200  77.377  1.00  0.00     0.123 A 
ATOM     12  C   UNL     1     -34.074   9.726  78.646  1.00  0.00     0.093 A 
BRANCH   3  13
ATOM     13  C   UNL     1     -38.319   4.933  78.862  1.00  0.00     0.021 A 
ATOM     14  C   UNL     1     -37.941   3.588  78.709  1.00  0.00     0.016 A 
ATOM     15  C   UNL     1     -38.897   2.618  78.392  1.00  0.00     0.047 A 
ATOM     16  C   UNL     1     -40.243   2.981  78.240  1.00  0.00     0.115 A 
ATOM     17  C   UNL     1     -39.673   5.285  78.736  1.00  0.00     0.016 A 
ATOM     18  C   UNL     1     -40.627   4.314  78.419  1.00  0.00     0.047 A 
BRANCH  16  19
ATOM     19  O   UNL     1     -41.203   2.026  77.915  1.00  0.00    -0.508 OA
ATOM     20  H   UNL     1     -40.944   1.073  77.685  1.00  0.00     0.293 HD
ENDBRANCH  16  19
ENDBRANCH   3  13
BRANCH  10  21
ATOM     21  O   UNL     1     -34.411   9.726  81.037  1.00  0.00    -0.507 OA
ATOM     22  H   UNL     1     -33.460   9.862  81.360  1.00  0.00     0.293 HD
ENDBRANCH  10  21
BRANCH  11  23
ATOM     23  O   UNL     1     -33.703   9.758  76.264  1.00  0.00    -0.508 OA
ATOM     24  H   UNL     1     -32.754  10.110  76.312  1.00  0.00     0.293 HD
ENDBRANCH  11  23
ENDBRANCH   1   2
BRANCH   1  25
ATOM     25  C   UNL     1     -37.013   4.605  82.314  1.00  0.00     0.339 C 
ATOM     26  C   UNL     1     -36.622   4.909  83.793  1.00  0.00     0.214 C 
ATOM     27  O   UNL     1     -37.838   3.458  82.150  1.00  0.00    -0.332 OA
ATOM     28  C   UNL     1     -36.937   3.703  84.705  1.00  0.00     0.180 C 
ATOM     29  C   UNL     1     -38.912   3.376  83.077  1.00  0.00     0.179 C 
ATOM     30  C   UNL     1     -38.419   3.288  84.555  1.00  0.00     0.177 C 
BRANCH  26  31
ATOM     31  O   UNL     1     -37.196   6.117  84.244  1.00  0.00    -0.384 OA
ATOM     32  H   UNL     1     -37.859   5.939  84.957  1.00  0.00     0.211 HD
ENDBRANCH  26  31
BRANCH  28  33
ATOM     33  O   UNL     1     -36.101   2.626  84.363  1.00  0.00    -0.387 OA
ATOM     34  H   UNL     1     -36.384   1.853  84.919  1.00  0.00     0.211 HD
ENDBRANCH  28  33
BRANCH  29  35
ATOM     35  C   UNL     1     -39.969   4.476  82.850  1.00  0.00     0.191 C 
BRANCH  35  36
ATOM     36  O   UNL     1     -40.121   5.238  84.016  1.00  0.00    -0.394 OA
ATOM     37  H   UNL     1     -39.281   5.754  84.121  1.00  0.00     0.210 HD
ENDBRANCH  35  36
ENDBRANCH  29  35
BRANCH  30  38
ATOM     38  O   UNL     1     -38.633   2.006  85.097  1.00  0.00    -0.387 OA
ATOM     39  H   UNL     1     -38.054   1.909  85.897  1.00  0.00     0.211 HD
ENDBRANCH  30  38
ENDBRANCH   1  25
TORSDOF 11
ENDMDL
MODEL 3
REMARK VINA RESULT:    -6.078      3.019      4.878
REMARK INTER + INTRA:         -10.619
REMARK INTER:                  -8.768
REMARK INTRA:                  -1.851
REMARK UNBOUND:                -1.876
REMARK SMILES O=c1c(O[C@@H]2O[C@H](CO)[C@@H](O)[C@@H](O)[C@@H]2O)c(-c2ccc(O)cc2)oc2cc(O)cc(O)c12
REMARK SMILES IDX 4 1 3 2 16 3 24 4 2 5 25 6 1 7 32 8 26 9 30 10 27 11 29 12
REMARK SMILES IDX 17 13 18 14 19 15 20 16 23 17 22 18 21 19 31 21 28 23 5 25
REMARK SMILES IDX 14 26 6 27 12 28 7 29 10 30 15 31 13 33 8 35 9 36 11 38
REMARK H PARENT 21 20 31 22 28 24 15 32 13 34 9 37 11 39
REMARK Flexibility Score: inf
ROOT
ATOM      1  O   UNL     1     -38.359   6.891  79.678  1.00  0.00    -0.454 OA
ENDROOT
BRANCH   1   2
ATOM      2  C   UNL     1     -38.331   5.755  80.505  1.00  0.00     0.214 A 
ATOM      3  C   UNL     1     -37.134   5.092  80.861  1.00  0.00     0.180 A 
ATOM      4  O   UNL     1     -37.191   3.961  81.558  1.00  0.00    -0.452 OA
ATOM      5  C   UNL     1     -39.543   5.263  81.005  1.00  0.00     0.239 A 
ATOM      6  C   UNL     1     -38.325   3.430  82.000  1.00  0.00     0.146 A 
ATOM      7  O   UNL     1     -40.609   5.893  80.758  1.00  0.00    -0.285 OA
ATOM      8  C   UNL     1     -39.561   4.072  81.757  1.00  0.00     0.111 A 
ATOM      9  C   UNL     1     -38.283   2.236  82.723  1.00  0.00     0.094 A 
ATOM     10  C   UNL     1     -40.750   3.495  82.263  1.00  0.00     0.134 A 
ATOM     11  C   UNL     1     -39.462   1.666  83.217  1.00  0.00     0.123 A 
ATOM     12  C   UNL     1     -40.687   2.296  82.989  1.00  0.00     0.093 A 
BRANCH   3  13
ATOM     13  C   UNL     1     -35.798   5.626  80.529  1.00  0.00     0.021 A 
ATOM     14  C   UNL     1     -35.277   6.741  81.208  1.00  0.00     0.016 A 
ATOM     15  C   UNL     1     -34.011   7.236  80.883  1.00  0.00     0.047 A 
ATOM     16  C   UNL     1     -33.245   6.611  79.888  1.00  0.00     0.115 A 
ATOM     17  C   UNL     1     -35.015   4.988  79.553  1.00  0.00     0.016 A 
ATOM     18  C   UNL     1     -33.749   5.485  79.230  1.00  0.00     0.047 A 
BRANCH  16  19
ATOM     19  O   UNL     1     -31.986   7.100  79.549  1.00  0.00    -0.508 OA
ATOM     20  H   UNL     1     -31.648   7.985  79.910  1.00  0.00     0.293 HD
ENDBRANCH  16  19
ENDBRANCH   3  13
BRANCH  10  21
ATOM     21  O   UNL     1     -41.990   4.100  82.047  1.00  0.00    -0.507 OA
ATOM     22  H   UNL     1     -42.263   4.445  81.134  1.00  0.00     0.293 HD
ENDBRANCH  10  21
BRANCH  11  23
ATOM     23  O   UNL     1     -39.427   0.475  83.939  1.00  0.00    -0.508 OA
ATOM     24  H   UNL     1     -39.444  -0.425  83.475  1.00  0.00     0.293 HD
ENDBRANCH  11  23
ENDBRANCH   1   2
BRANCH   1  25
ATOM     25  C   UNL     1     -38.490   6.858  78.250  1.00  0.00     0.339 C 
ATOM     26  C   UNL     1     -39.755   7.609  77.733  1.00  0.00     0.214 C 
ATOM     27  O   UNL     1     -37.272   7.279  77.648  1.00  0.00    -0.332 OA
ATOM     28  C   UNL     1     -39.438   8.399  76.442  1.00  0.00     0.180 C 
ATOM     29  C   UNL     1     -37.126   8.689  77.551  1.00  0.00     0.179 C 
ATOM     30  C   UNL     1     -38.238   9.345  76.673  1.00  0.00     0.177 C 
BRANCH  26  31
ATOM     31  O   UNL     1     -40.339   8.401  78.744  1.00  0.00    -0.384 OA
ATOM     32  H   UNL     1     -40.867   7.838  79.362  1.00  0.00     0.211 HD
ENDBRANCH  26  31
BRANCH  28  33
ATOM     33  O   UNL     1     -39.147   7.499  75.403  1.00  0.00    -0.387 OA
ATOM     34  H   UNL     1     -38.404   7.896  74.876  1.00  0.00     0.211 HD
ENDBRANCH  28  33
BRANCH  29  35
ATOM     35  C   UNL     1     -36.966   9.358  78.932  1.00  0.00     0.191 C 
BRANCH  35  36
ATOM     36  O   UNL     1     -38.102  10.125  79.225  1.00  0.00    -0.394 OA
ATOM     37  H   UNL     1     -37.770  10.977  79.610  1.00  0.00     0.210 HD
ENDBRANCH  35  36
ENDBRANCH  29  35
BRANCH  30  38
ATOM     38  O   UNL     1     -37.723   9.801  75.444  1.00  0.00    -0.387 OA
ATOM     39  H   UNL     1     -36.735   9.707  75.469  1.00  0.00     0.211 HD
ENDBRANCH  30  38
ENDBRANCH   1  25
TORSDOF 11
ENDMDL
MODEL 4
REMARK VINA RESULT:    -6.062      2.507      7.835
REMARK INTER + INTRA:         -10.596
REMARK INTER:                  -9.869
REMARK INTRA:                  -0.727
REMARK UNBOUND:                -1.876
REMARK SMILES O=c1c(O[C@@H]2O[C@H](CO)[C@@H](O)[C@@H](O)[C@@H]2O)c(-c2ccc(O)cc2)oc2cc(O)cc(O)c12
REMARK SMILES IDX 4 1 3 2 16 3 24 4 2 5 25 6 1 7 32 8 26 9 30 10 27 11 29 12
REMARK SMILES IDX 17 13 18 14 19 15 20 16 23 17 22 18 21 19 31 21 28 23 5 25
REMARK SMILES IDX 14 26 6 27 12 28 7 29 10 30 15 31 13 33 8 35 9 36 11 38
REMARK H PARENT 21 20 31 22 28 24 15 32 13 34 9 37 11 39
REMARK Flexibility Score: inf
ROOT
ATOM      1  O   UNL     1     -36.806   4.330  79.722  1.00  0.00    -0.454 OA
ENDROOT
BRANCH   1   2
ATOM      2  C   UNL     1     -35.891   5.127  80.431  1.00  0.00     0.214 A 
ATOM      3  C   UNL     1     -35.995   5.367  81.821  1.00  0.00     0.180 A 
ATOM      4  O   UNL     1     -35.156   6.218  82.406  1.00  0.00    -0.452 OA
ATOM      5  C   UNL     1     -34.824   5.702  79.730  1.00  0.00     0.239 A 
ATOM      6  C   UNL     1     -34.169   6.830  81.763  1.00  0.00     0.146 A 
ATOM      7  O   UNL     1     -34.677   5.431  78.506  1.00  0.00    -0.285 OA
ATOM      8  C   UNL     1     -33.944   6.583  80.388  1.00  0.00     0.111 A 
ATOM      9  C   UNL     1     -33.340   7.710  82.464  1.00  0.00     0.094 A 
ATOM     10  C   UNL     1     -32.867   7.231  79.738  1.00  0.00     0.134 A 
ATOM     11  C   UNL     1     -32.279   8.351  81.815  1.00  0.00     0.123 A 
ATOM     12  C   UNL     1     -32.045   8.109  80.459  1.00  0.00     0.093 A 
BRANCH   3  13
ATOM     13  C   UNL     1     -36.977   4.674  82.678  1.00  0.00     0.021 A 
ATOM     14  C   UNL     1     -38.154   5.319  83.095  1.00  0.00     0.016 A 
ATOM     15  C   UNL     1     -39.075   4.651  83.907  1.00  0.00     0.047 A 
ATOM     16  C   UNL     1     -38.836   3.325  84.297  1.00  0.00     0.115 A 
ATOM     17  C   UNL     1     -36.756   3.338  83.050  1.00  0.00     0.016 A 
ATOM     18  C   UNL     1     -37.679   2.671  83.862  1.00  0.00     0.047 A 
BRANCH  16  19
ATOM     19  O   UNL     1     -39.741   2.652  85.114  1.00  0.00    -0.508 OA
ATOM     20  H   UNL     1     -39.505   1.766  85.547  1.00  0.00     0.293 HD
ENDBRANCH  16  19
ENDBRANCH   3  13
BRANCH  10  21
ATOM     21  O   UNL     1     -32.611   7.012  78.383  1.00  0.00    -0.507 OA
ATOM     22  H   UNL     1     -31.747   6.586  78.066  1.00  0.00     0.293 HD
ENDBRANCH  10  21
BRANCH  11  23
ATOM     23  O   UNL     1     -31.449   9.230  82.508  1.00  0.00    -0.508 OA
ATOM     24  H   UNL     1     -31.802   9.809  83.261  1.00  0.00     0.293 HD
ENDBRANCH  11  23
ENDBRANCH   1   2
BRANCH   1  25
ATOM     25  C   UNL     1     -38.231   4.387  79.878  1.00  0.00     0.339 C 
ATOM     26  C   UNL     1     -38.928   5.283  78.809  1.00  0.00     0.214 C 
ATOM     27  O   UNL     1     -38.755   3.068  79.970  1.00  0.00    -0.332 OA
ATOM     28  C   UNL     1     -40.252   4.643  78.333  1.00  0.00     0.180 C 
ATOM     29  C   UNL     1     -38.969   2.437  78.715  1.00  0.00     0.179 C 
ATOM     30  C   UNL     1     -40.002   3.203  77.830  1.00  0.00     0.177 C 
BRANCH  26  31
ATOM     31  O   UNL     1     -38.053   5.609  77.752  1.00  0.00    -0.384 OA
ATOM     32  H   UNL     1     -38.194   4.999  76.986  1.00  0.00     0.211 HD
ENDBRANCH  26  31
BRANCH  28  33
ATOM     33  O   UNL     1     -41.173   4.627  79.395  1.00  0.00    -0.387 OA
ATOM     34  H   UNL     1     -42.052   4.897  79.019  1.00  0.00     0.211 HD
ENDBRANCH  28  33
BRANCH  29  35
ATOM     35  C   UNL     1     -37.647   2.128  77.981  1.00  0.00     0.191 C 
BRANCH  35  36
ATOM     36  O   UNL     1     -37.666   0.812  77.500  1.00  0.00    -0.394 OA
ATOM     37  H   UNL     1     -38.324   0.322  78.059  1.00  0.00     0.210 HD
ENDBRANCH  35  36
ENDBRANCH  29  35
BRANCH  30  38
ATOM     38  O   UNL     1     -41.216   2.497  77.724  1.00  0.00    -0.387 OA
ATOM     39  H   UNL     1     -41.125   1.835  76.990  1.00  0.00     0.211 HD
ENDBRANCH  30  38
ENDBRANCH   1  25
TORSDOF 11
ENDMDL
MODEL 5
REMARK VINA RESULT:    -5.878      1.259      2.284
REMARK INTER + INTRA:         -10.331
REMARK INTER:                 -10.097
REMARK INTRA:                  -0.235
REMARK UNBOUND:                -1.876
REMARK SMILES O=c1c(O[C@@H]2O[C@H](CO)[C@@H](O)[C@@H](O)[C@@H]2O)c(-c2ccc(O)cc2)oc2cc(O)cc(O)c12
REMARK SMILES IDX 4 1 3 2 16 3 24 4 2 5 25 6 1 7 32 8 26 9 30 10 27 11 29 12
REMARK SMILES IDX 17 13 18 14 19 15 20 16 23 17 22 18 21 19 31 21 28 23 5 25
REMARK SMILES IDX 14 26 6 27 12 28 7 29 10 30 15 31 13 33 8 35 9 36 11 38
REMARK H PARENT 21 20 31 22 28 24 15 32 13 34 9 37 11 39
REMARK Flexibility Score: inf
ROOT
ATOM      1  O   UNL     1     -37.974   5.983  81.806  1.00  0.00    -0.454 OA
ENDROOT
BRANCH   1   2
ATOM      2  C   UNL     1     -38.600   5.289  80.757  1.00  0.00     0.214 A 
ATOM      3  C   UNL     1     -38.043   5.187  79.460  1.00  0.00     0.180 A 
ATOM      4  O   UNL     1     -38.741   4.607  78.488  1.00  0.00    -0.452 OA
ATOM      5  C   UNL     1     -39.828   4.664  81.008  1.00  0.00     0.239 A 
ATOM      6  C   UNL     1     -39.934   4.056  78.673  1.00  0.00     0.146 A 
ATOM      7  O   UNL     1     -40.296   4.682  82.181  1.00  0.00    -0.285 OA
ATOM      8  C   UNL     1     -40.528   4.043  79.956  1.00  0.00     0.111 A 
ATOM      9  C   UNL     1     -40.591   3.472  77.588  1.00  0.00     0.094 A 
ATOM     10  C   UNL     1     -41.790   3.424  80.127  1.00  0.00     0.134 A 
ATOM     11  C   UNL     1     -41.841   2.866  77.760  1.00  0.00     0.123 A 
ATOM     12  C   UNL     1     -42.433   2.842  79.025  1.00  0.00     0.093 A 
BRANCH   3  13
ATOM     13  C   UNL     1     -36.682   5.661  79.139  1.00  0.00     0.021 A 
ATOM     14  C   UNL     1     -36.424   7.026  78.921  1.00  0.00     0.016 A 
ATOM     15  C   UNL     1     -35.131   7.460  78.617  1.00  0.00     0.047 A 
ATOM     16  C   UNL     1     -34.078   6.536  78.544  1.00  0.00     0.115 A 
ATOM     17  C   UNL     1     -35.618   4.745  79.091  1.00  0.00     0.016 A 
ATOM     18  C   UNL     1     -34.325   5.181  78.787  1.00  0.00     0.047 A 
BRANCH  16  19
ATOM     19  O   UNL     1     -32.787   6.955  78.233  1.00  0.00    -0.508 OA
ATOM     20  H   UNL     1     -32.050   6.289  78.029  1.00  0.00     0.293 HD
ENDBRANCH  16  19
ENDBRANCH   3  13
BRANCH  10  21
ATOM     21  O   UNL     1     -42.408   3.388  81.377  1.00  0.00    -0.507 OA
ATOM     22  H   UNL     1     -41.891   3.555  82.233  1.00  0.00     0.293 HD
ENDBRANCH  10  21
BRANCH  11  23
ATOM     23  O   UNL     1     -42.502   2.282  76.681  1.00  0.00    -0.508 OA
ATOM     24  H   UNL     1     -43.455   2.534  76.446  1.00  0.00     0.293 HD
ENDBRANCH  11  23
ENDBRANCH   1   2
BRANCH   1  25
ATOM     25  C   UNL     1     -36.564   5.960  82.073  1.00  0.00     0.339 C 
ATOM     26  C   UNL     1     -36.147   6.904  83.242  1.00  0.00     0.214 C 
ATOM     27  O   UNL     1     -36.128   4.614  82.223  1.00  0.00    -0.332 OA
ATOM     28  C   UNL     1     -35.066   6.243  84.126  1.00  0.00     0.180 C 
ATOM     29  C   UNL     1     -36.332   4.077  83.523  1.00  0.00     0.179 C 
ATOM     30  C   UNL     1     -35.550   4.861  84.623  1.00  0.00     0.177 C 
BRANCH  26  31
ATOM     31  O   UNL     1     -37.267   7.355  83.972  1.00  0.00    -0.384 OA
ATOM     32  H   UNL     1     -38.036   7.507  83.367  1.00  0.00     0.211 HD
ENDBRANCH  26  31
BRANCH  28  33
ATOM     33  O   UNL     1     -33.880   6.099  83.386  1.00  0.00    -0.387 OA
ATOM     34  H   UNL     1     -33.258   5.557  83.940  1.00  0.00     0.211 HD
ENDBRANCH  28  33
BRANCH  29  35
ATOM     35  C   UNL     1     -37.827   3.891  83.853  1.00  0.00     0.191 C 
BRANCH  35  36
ATOM     36  O   UNL     1     -38.233   4.855  84.785  1.00  0.00    -0.394 OA
ATOM     37  H   UNL     1     -38.027   5.736  84.380  1.00  0.00     0.210 HD
ENDBRANCH  35  36
ENDBRANCH  29  35
BRANCH  30  38
ATOM     38  O   UNL     1     -34.471   4.109  85.125  1.00  0.00    -0.387 OA
ATOM     39  H   UNL     1     -33.953   4.688  85.744  1.00  0.00     0.211 HD
ENDBRANCH  30  38
ENDBRANCH   1  25
TORSDOF 11
ENDMDL
MODEL 6
REMARK VINA RESULT:    -5.856      2.566      6.895
REMARK INTER + INTRA:         -10.300
REMARK INTER:                  -8.830
REMARK INTRA:                  -1.469
REMARK UNBOUND:                -1.876
REMARK SMILES O=c1c(O[C@@H]2O[C@H](CO)[C@@H](O)[C@@H](O)[C@@H]2O)c(-c2ccc(O)cc2)oc2cc(O)cc(O)c12
REMARK SMILES IDX 4 1 3 2 16 3 24 4 2 5 25 6 1 7 32 8 26 9 30 10 27 11 29 12
REMARK SMILES IDX 17 13 18 14 19 15 20 16 23 17 22 18 21 19 31 21 28 23 5 25
REMARK SMILES IDX 14 26 6 27 12 28 7 29 10 30 15 31 13 33 8 35 9 36 11 38
REMARK H PARENT 21 20 31 22 28 24 15 32 13 34 9 37 11 39
REMARK Flexibility Score: inf
ROOT
ATOM      1  O   UNL     1     -37.909   4.641  82.778  1.00  0.00    -0.454 OA
ENDROOT
BRANCH   1   2
ATOM      2  C   UNL     1     -36.911   5.377  82.119  1.00  0.00     0.214 A 
ATOM      3  C   UNL     1     -36.784   5.415  80.711  1.00  0.00     0.180 A 
ATOM      4  O   UNL     1     -35.751   6.045  80.160  1.00  0.00    -0.452 OA
ATOM      5  C   UNL     1     -36.004   6.114  82.892  1.00  0.00     0.239 A 
ATOM      6  C   UNL     1     -34.837   6.704  80.861  1.00  0.00     0.146 A 
ATOM      7  O   UNL     1     -36.156   6.152  84.145  1.00  0.00    -0.285 OA
ATOM      8  C   UNL     1     -34.934   6.786  82.270  1.00  0.00     0.111 A 
ATOM      9  C   UNL     1     -33.786   7.334  80.191  1.00  0.00     0.094 A 
ATOM     10  C   UNL     1     -33.959   7.518  82.988  1.00  0.00     0.134 A 
ATOM     11  C   UNL     1     -32.821   8.053  80.906  1.00  0.00     0.123 A 
ATOM     12  C   UNL     1     -32.911   8.145  82.297  1.00  0.00     0.093 A 
BRANCH   3  13
ATOM     13  C   UNL     1     -37.785   4.816  79.805  1.00  0.00     0.021 A 
ATOM     14  C   UNL     1     -38.887   5.561  79.351  1.00  0.00     0.016 A 
ATOM     15  C   UNL     1     -39.826   4.981  78.494  1.00  0.00     0.047 A 
ATOM     16  C   UNL     1     -39.664   3.654  78.069  1.00  0.00     0.115 A 
ATOM     17  C   UNL     1     -37.614   3.497  79.354  1.00  0.00     0.016 A 
ATOM     18  C   UNL     1     -38.555   2.918  78.496  1.00  0.00     0.047 A 
BRANCH  16  19
ATOM     19  O   UNL     1     -40.598   3.062  77.222  1.00  0.00    -0.508 OA
ATOM     20  H   UNL     1     -40.428   2.973  76.227  1.00  0.00     0.293 HD
ENDBRANCH  16  19
ENDBRANCH   3  13
BRANCH  10  21
ATOM     21  O   UNL     1     -34.020   7.624  84.378  1.00  0.00    -0.507 OA
ATOM     22  H   UNL     1     -33.269   8.044  84.915  1.00  0.00     0.293 HD
ENDBRANCH  10  21
BRANCH  11  23
ATOM     23  O   UNL     1     -31.769   8.683  80.244  1.00  0.00    -0.508 OA
ATOM     24  H   UNL     1     -31.515   9.642  80.446  1.00  0.00     0.293 HD
ENDBRANCH  11  23
ENDBRANCH   1   2
BRANCH   1  25
ATOM     25  C   UNL     1     -37.746   3.305  83.275  1.00  0.00     0.339 C 
ATOM     26  C   UNL     1     -38.368   3.096  84.689  1.00  0.00     0.214 C 
ATOM     27  O   UNL     1     -38.190   2.374  82.295  1.00  0.00    -0.332 OA
ATOM     28  C   UNL     1     -39.062   1.719  84.787  1.00  0.00     0.180 C 
ATOM     29  C   UNL     1     -39.594   2.149  82.299  1.00  0.00     0.179 C 
ATOM     30  C   UNL     1     -40.099   1.557  83.652  1.00  0.00     0.177 C 
BRANCH  26  31
ATOM     31  O   UNL     1     -39.205   4.171  85.053  1.00  0.00    -0.384 OA
ATOM     32  H   UNL     1     -39.394   4.149  86.024  1.00  0.00     0.211 HD
ENDBRANCH  26  31
BRANCH  28  33
ATOM     33  O   UNL     1     -38.097   0.701  84.703  1.00  0.00    -0.387 OA
ATOM     34  H   UNL     1     -37.978   0.339  85.621  1.00  0.00     0.211 HD
ENDBRANCH  28  33
BRANCH  29  35
ATOM     35  C   UNL     1     -40.388   3.389  81.840  1.00  0.00     0.191 C 
BRANCH  35  36
ATOM     36  O   UNL     1     -41.535   2.989  81.142  1.00  0.00    -0.394 OA
ATOM     37  H   UNL     1     -41.950   3.819  80.792  1.00  0.00     0.210 HD
ENDBRANCH  35  36
ENDBRANCH  29  35
BRANCH  30  38
ATOM     38  O   UNL     1     -40.480   0.209  83.517  1.00  0.00    -0.387 OA
ATOM     39  H   UNL     1     -40.505  -0.198  84.422  1.00  0.00     0.211 HD
ENDBRANCH  30  38
ENDBRANCH   1  25
TORSDOF 11
ENDMDL
MODEL 7
REMARK VINA RESULT:    -5.766      2.535      6.824
REMARK INTER + INTRA:         -10.170
REMARK INTER:                  -9.366
REMARK INTRA:                  -0.804
REMARK UNBOUND:                -1.876
REMARK SMILES O=c1c(O[C@@H]2O[C@H](CO)[C@@H](O)[C@@H](O)[C@@H]2O)c(-c2ccc(O)cc2)oc2cc(O)cc(O)c12
REMARK SMILES IDX 4 1 3 2 16 3 24 4 2 5 25 6 1 7 32 8 26 9 30 10 27 11 29 12
REMARK SMILES IDX 17 13 18 14 19 15 20 16 23 17 22 18 21 19 31 21 28 23 5 25
REMARK SMILES IDX 14 26 6 27 12 28 7 29 10 30 15 31 13 33 8 35 9 36 11 38
REMARK H PARENT 21 20 31 22 28 24 15 32 13 34 9 37 11 39
REMARK Flexibility Score: inf
ROOT
ATOM      1  O   UNL     1     -37.344   4.205  80.653  1.00  0.00    -0.454 OA
ENDROOT
BRANCH   1   2
ATOM      2  C   UNL     1     -36.364   5.089  81.134  1.00  0.00     0.214 A 
ATOM      3  C   UNL     1     -36.012   6.285  80.467  1.00  0.00     0.180 A 
ATOM      4  O   UNL     1     -35.001   7.020  80.922  1.00  0.00    -0.452 OA
ATOM      5  C   UNL     1     -35.712   4.776  82.334  1.00  0.00     0.239 A 
ATOM      6  C   UNL     1     -34.319   6.724  82.022  1.00  0.00     0.146 A 
ATOM      7  O   UNL     1     -36.074   3.752  82.978  1.00  0.00    -0.285 OA
ATOM      8  C   UNL     1     -34.659   5.589  82.795  1.00  0.00     0.111 A 
ATOM      9  C   UNL     1     -33.271   7.557  82.420  1.00  0.00     0.094 A 
ATOM     10  C   UNL     1     -33.931   5.315  83.976  1.00  0.00     0.134 A 
ATOM     11  C   UNL     1     -32.550   7.279  83.587  1.00  0.00     0.123 A 
ATOM     12  C   UNL     1     -32.882   6.164  84.360  1.00  0.00     0.093 A 
BRANCH   3  13
ATOM     13  C   UNL     1     -36.753   6.791  79.294  1.00  0.00     0.021 A 
ATOM     14  C   UNL     1     -37.733   7.789  79.434  1.00  0.00     0.016 A 
ATOM     15  C   UNL     1     -38.427   8.258  78.314  1.00  0.00     0.047 A 
ATOM     16  C   UNL     1     -38.135   7.746  77.041  1.00  0.00     0.115 A 
ATOM     17  C   UNL     1     -36.447   6.303  78.013  1.00  0.00     0.016 A 
ATOM     18  C   UNL     1     -37.142   6.774  76.895  1.00  0.00     0.047 A 
BRANCH  16  19
ATOM     19  O   UNL     1     -38.826   8.199  75.920  1.00  0.00    -0.508 OA
ATOM     20  H   UNL     1     -39.796   7.951  75.761  1.00  0.00     0.293 HD
ENDBRANCH  16  19
ENDBRANCH   3  13
BRANCH  10  21
ATOM     21  O   UNL     1     -34.237   4.206  84.767  1.00  0.00    -0.507 OA
ATOM     22  H   UNL     1     -35.160   4.074  85.166  1.00  0.00     0.293 HD
ENDBRANCH  10  21
BRANCH  11  23
ATOM     23  O   UNL     1     -31.502   8.105  83.989  1.00  0.00    -0.508 OA
ATOM     24  H   UNL     1     -30.650   7.725  84.383  1.00  0.00     0.293 HD
ENDBRANCH  11  23
ENDBRANCH   1   2
BRANCH   1  25
ATOM     25  C   UNL     1     -38.606   4.606  80.101  1.00  0.00     0.339 C 
ATOM     26  C   UNL     1     -39.255   3.513  79.199  1.00  0.00     0.214 C 
ATOM     27  O   UNL     1     -39.451   5.087  81.140  1.00  0.00    -0.332 OA
ATOM     28  C   UNL     1     -40.783   3.447  79.425  1.00  0.00     0.180 C 
ATOM     29  C   UNL     1     -40.143   4.066  81.847  1.00  0.00     0.179 C 
ATOM     30  C   UNL     1     -41.094   3.241  80.925  1.00  0.00     0.177 C 
BRANCH  26  31
ATOM     31  O   UNL     1     -38.613   2.266  79.348  1.00  0.00    -0.384 OA
ATOM     32  H   UNL     1     -38.582   1.787  78.483  1.00  0.00     0.211 HD
ENDBRANCH  26  31
BRANCH  28  33
ATOM     33  O   UNL     1     -41.375   4.638  78.971  1.00  0.00    -0.387 OA
ATOM     34  H   UNL     1     -42.359   4.503  79.009  1.00  0.00     0.211 HD
ENDBRANCH  28  33
BRANCH  29  35
ATOM     35  C   UNL     1     -39.193   3.187  82.687  1.00  0.00     0.191 C 
BRANCH  35  36
ATOM     36  O   UNL     1     -39.129   1.898  82.141  1.00  0.00    -0.394 OA
ATOM     37  H   UNL     1     -39.545   1.294  82.808  1.00  0.00     0.210 HD
ENDBRANCH  35  36
ENDBRANCH  29  35
BRANCH  30  38
ATOM     38  O   UNL     1     -42.447   3.523  81.194  1.00  0.00    -0.387 OA
ATOM     39  H   UNL     1     -42.619   3.327  82.152  1.00  0.00     0.211 HD
ENDBRANCH  30  38
ENDBRANCH   1  25
TORSDOF 11
ENDMDL
MODEL 8
REMARK VINA RESULT:    -5.754      2.971      7.506
REMARK INTER + INTRA:         -10.152
REMARK INTER:                  -8.364
REMARK INTRA:                  -1.788
REMARK UNBOUND:                -1.876
REMARK SMILES O=c1c(O[C@@H]2O[C@H](CO)[C@@H](O)[C@@H](O)[C@@H]2O)c(-c2ccc(O)cc2)oc2cc(O)cc(O)c12
REMARK SMILES IDX 4 1 3 2 16 3 24 4 2 5 25 6 1 7 32 8 26 9 30 10 27 11 29 12
REMARK SMILES IDX 17 13 18 14 19 15 20 16 23 17 22 18 21 19 31 21 28 23 5 25
REMARK SMILES IDX 14 26 6 27 12 28 7 29 10 30 15 31 13 33 8 35 9 36 11 38
REMARK H PARENT 21 20 31 22 28 24 15 32 13 34 9 37 11 39
REMARK Flexibility Score: inf
ROOT
ATOM      1  O   UNL     1     -37.669   5.992  79.892  1.00  0.00    -0.454 OA
ENDROOT
BRANCH   1   2
ATOM      2  C   UNL     1     -36.600   6.904  79.909  1.00  0.00     0.214 A 
ATOM      3  C   UNL     1     -36.510   8.002  79.022  1.00  0.00     0.180 A 
ATOM      4  O   UNL     1     -35.418   8.761  79.023  1.00  0.00    -0.452 OA
ATOM      5  C   UNL     1     -35.581   6.722  80.853  1.00  0.00     0.239 A 
ATOM      6  C   UNL     1     -34.405   8.584  79.862  1.00  0.00     0.146 A 
ATOM      7  O   UNL     1     -35.690   5.792  81.701  1.00  0.00    -0.285 OA
ATOM      8  C   UNL     1     -34.449   7.559  80.836  1.00  0.00     0.111 A 
ATOM      9  C   UNL     1     -33.298   9.433  79.784  1.00  0.00     0.094 A 
ATOM     10  C   UNL     1     -33.364   7.411  81.732  1.00  0.00     0.134 A 
ATOM     11  C   UNL     1     -32.226   9.280  80.671  1.00  0.00     0.123 A 
ATOM     12  C   UNL     1     -32.263   8.275  81.640  1.00  0.00     0.093 A 
BRANCH   3  13
ATOM     13  C   UNL     1     -37.607   8.380  78.109  1.00  0.00     0.021 A 
ATOM     14  C   UNL     1     -38.672   9.184  78.553  1.00  0.00     0.016 A 
ATOM     15  C   UNL     1     -39.704   9.534  77.677  1.00  0.00     0.047 A 
ATOM     16  C   UNL     1     -39.673   9.098  76.345  1.00  0.00     0.115 A 
ATOM     17  C   UNL     1     -37.569   7.970  76.766  1.00  0.00     0.016 A 
ATOM     18  C   UNL     1     -38.602   8.322  75.892  1.00  0.00     0.047 A 
BRANCH  16  19
ATOM     19  O   UNL     1     -40.700   9.433  75.466  1.00  0.00    -0.508 OA
ATOM     20  H   UNL     1     -41.642   9.081  75.595  1.00  0.00     0.293 HD
ENDBRANCH  16  19
ENDBRANCH   3  13
BRANCH  10  21
ATOM     21  O   UNL     1     -33.371   6.414  82.709  1.00  0.00    -0.507 OA
ATOM     22  H   UNL     1     -33.367   6.637  83.698  1.00  0.00     0.293 HD
ENDBRANCH  10  21
BRANCH  11  23
ATOM     23  O   UNL     1     -31.119  10.123  80.598  1.00  0.00    -0.508 OA
ATOM     24  H   UNL     1     -30.883  10.753  81.355  1.00  0.00     0.293 HD
ENDBRANCH  11  23
ENDBRANCH   1   2
BRANCH   1  25
ATOM     25  C   UNL     1     -37.709   4.796  79.101  1.00  0.00     0.339 C 
ATOM     26  C   UNL     1     -38.109   3.532  79.921  1.00  0.00     0.214 C 
ATOM     27  O   UNL     1     -38.502   5.017  77.940  1.00  0.00    -0.332 OA
ATOM     28  C   UNL     1     -39.052   2.620  79.103  1.00  0.00     0.180 C 
ATOM     29  C   UNL     1     -39.899   4.864  78.152  1.00  0.00     0.179 C 
ATOM     30  C   UNL     1     -40.279   3.421  78.610  1.00  0.00     0.177 C 
BRANCH  26  31
ATOM     31  O   UNL     1     -38.624   3.876  81.188  1.00  0.00    -0.384 OA
ATOM     32  H   UNL     1     -38.650   4.859  81.296  1.00  0.00     0.211 HD
ENDBRANCH  26  31
BRANCH  28  33
ATOM     33  O   UNL     1     -38.353   2.088  78.006  1.00  0.00    -0.387 OA
ATOM     34  H   UNL     1     -38.558   1.116  77.977  1.00  0.00     0.211 HD
ENDBRANCH  28  33
BRANCH  29  35
ATOM     35  C   UNL     1     -40.479   5.966  79.063  1.00  0.00     0.191 C 
BRANCH  35  36
ATOM     36  O   UNL     1     -40.875   5.412  80.288  1.00  0.00    -0.394 OA
ATOM     37  H   UNL     1     -41.568   4.735  80.075  1.00  0.00     0.210 HD
ENDBRANCH  35  36
ENDBRANCH  29  35
BRANCH  30  38
ATOM     38  O   UNL     1     -40.954   2.717  77.595  1.00  0.00    -0.387 OA
ATOM     39  H   UNL     1     -40.983   1.758  77.850  1.00  0.00     0.211 HD
ENDBRANCH  30  38
ENDBRANCH   1  25
TORSDOF 11
ENDMDL
MODEL 9
REMARK VINA RESULT:    -5.672      2.865      4.681
REMARK INTER + INTRA:         -10.035
REMARK INTER:                  -8.143
REMARK INTRA:                  -1.893
REMARK UNBOUND:                -1.876
REMARK SMILES O=c1c(O[C@@H]2O[C@H](CO)[C@@H](O)[C@@H](O)[C@@H]2O)c(-c2ccc(O)cc2)oc2cc(O)cc(O)c12
REMARK SMILES IDX 4 1 3 2 16 3 24 4 2 5 25 6 1 7 32 8 26 9 30 10 27 11 29 12
REMARK SMILES IDX 17 13 18 14 19 15 20 16 23 17 22 18 21 19 31 21 28 23 5 25
REMARK SMILES IDX 14 26 6 27 12 28 7 29 10 30 15 31 13 33 8 35 9 36 11 38
REMARK H PARENT 21 20 31 22 28 24 15 32 13 34 9 37 11 39
REMARK Flexibility Score: inf
ROOT
ATOM      1  O   UNL     1     -35.882   6.353  80.275  1.00  0.00    -0.454 OA
ENDROOT
BRANCH   1   2
ATOM      2  C   UNL     1     -37.051   5.654  80.620  1.00  0.00     0.214 A 
ATOM      3  C   UNL     1     -38.307   5.910  80.022  1.00  0.00     0.180 A 
ATOM      4  O   UNL     1     -39.390   5.285  80.474  1.00  0.00    -0.452 OA
ATOM      5  C   UNL     1     -36.966   4.651  81.594  1.00  0.00     0.239 A 
ATOM      6  C   UNL     1     -39.360   4.372  81.437  1.00  0.00     0.146 A 
ATOM      7  O   UNL     1     -35.836   4.360  82.077  1.00  0.00    -0.285 OA
ATOM      8  C   UNL     1     -38.133   3.997  82.033  1.00  0.00     0.111 A 
ATOM      9  C   UNL     1     -40.553   3.770  81.846  1.00  0.00     0.094 A 
ATOM     10  C   UNL     1     -38.130   3.002  83.039  1.00  0.00     0.134 A 
ATOM     11  C   UNL     1     -40.545   2.790  82.844  1.00  0.00     0.123 A 
ATOM     12  C   UNL     1     -39.338   2.408  83.435  1.00  0.00     0.093 A 
BRANCH   3  13
ATOM     13  C   UNL     1     -38.471   6.821  78.872  1.00  0.00     0.021 A 
ATOM     14  C   UNL     1     -38.258   6.370  77.557  1.00  0.00     0.016 A 
ATOM     15  C   UNL     1     -38.416   7.244  76.478  1.00  0.00     0.047 A 
ATOM     16  C   UNL     1     -38.806   8.573  76.700  1.00  0.00     0.115 A 
ATOM     17  C   UNL     1     -38.887   8.145  79.086  1.00  0.00     0.016 A 
ATOM     18  C   UNL     1     -39.045   9.017  78.004  1.00  0.00     0.047 A 
BRANCH  16  19
ATOM     19  O   UNL     1     -38.957   9.455  75.634  1.00  0.00    -0.508 OA
ATOM     20  H   UNL     1     -38.333  10.243  75.506  1.00  0.00     0.293 HD
ENDBRANCH  16  19
ENDBRANCH   3  13
BRANCH  10  21
ATOM     21  O   UNL     1     -36.940   2.602  83.650  1.00  0.00    -0.507 OA
ATOM     22  H   UNL     1     -36.444   1.768  83.356  1.00  0.00     0.293 HD
ENDBRANCH  10  21
BRANCH  11  23
ATOM     23  O   UNL     1     -41.732   2.187  83.257  1.00  0.00    -0.508 OA
ATOM     24  H   UNL     1     -42.205   1.502  82.681  1.00  0.00     0.293 HD
ENDBRANCH  11  23
ENDBRANCH   1   2
BRANCH   1  25
ATOM     25  C   UNL     1     -35.532   7.653  80.771  1.00  0.00     0.339 C 
ATOM     26  C   UNL     1     -34.387   7.617  81.828  1.00  0.00     0.214 C 
ATOM     27  O   UNL     1     -35.294   8.533  79.679  1.00  0.00    -0.332 OA
ATOM     28  C   UNL     1     -33.411   8.798  81.625  1.00  0.00     0.180 C 
ATOM     29  C   UNL     1     -33.984   8.444  79.134  1.00  0.00     0.179 C 
ATOM     30  C   UNL     1     -32.879   8.811  80.174  1.00  0.00     0.177 C 
BRANCH  26  31
ATOM     31  O   UNL     1     -33.746   6.361  81.859  1.00  0.00    -0.384 OA
ATOM     32  H   UNL     1     -34.324   5.689  82.298  1.00  0.00     0.211 HD
ENDBRANCH  26  31
BRANCH  28  33
ATOM     33  O   UNL     1     -34.074  10.006  81.903  1.00  0.00    -0.387 OA
ATOM     34  H   UNL     1     -34.240  10.025  82.883  1.00  0.00     0.211 HD
ENDBRANCH  28  33
BRANCH  29  35
ATOM     35  C   UNL     1     -33.734   7.097  78.426  1.00  0.00     0.191 C 
BRANCH  35  36
ATOM     36  O   UNL     1     -32.753   6.372  79.115  1.00  0.00    -0.394 OA
ATOM     37  H   UNL     1     -33.232   5.843  79.804  1.00  0.00     0.210 HD
ENDBRANCH  35  36
ENDBRANCH  29  35
BRANCH  30  38
ATOM     38  O   UNL     1     -32.280  10.049  79.876  1.00  0.00    -0.387 OA
ATOM     39  H   UNL     1     -32.832  10.502  79.186  1.00  0.00     0.211 HD
ENDBRANCH  30  38
ENDBRANCH   1  25
TORSDOF 11
ENDMDL
