MODEL 1
REMARK VINA RESULT:    -5.019      0.000      0.000
REMARK INTER + INTRA:         -10.101
REMARK INTER:                  -8.541
REMARK INTRA:                  -1.560
REMARK UNBOUND:                -1.560
REMARK SMILES CCCCCCCCCCCCCC(=O)[O-]
REMARK SMILES IDX 8 1 9 2 10 3 11 4 12 5 13 6 14 7 15 8 16 9 7 10 6 11 5 12
REMARK SMILES IDX 4 13 3 14 2 15 1 16
REMARK H PARENT
REMARK Flexibility Score: inf
ROOT
ATOM      1  C   UNL     1       3.727  42.579  11.692  1.00  0.00     0.000 C 
ENDROOT
BRANCH   1   2
ATOM      2  C   UNL     1       3.703  44.023  12.228  1.00  0.00     0.000 C 
BRANCH   2   3
ATOM      3  C   UNL     1       4.775  44.918  11.586  1.00  0.00     0.000 C 
BRANCH   3   4
ATOM      4  C   UNL     1       4.158  46.108  10.818  1.00  0.00     0.000 C 
BRANCH   4   5
ATOM      5  C   UNL     1       4.705  46.264   9.387  1.00  0.00     0.006 C 
BRANCH   5   6
ATOM      6  C   UNL     1       4.836  47.722   8.923  1.00  0.00     0.053 C 
BRANCH   6   7
ATOM      7  C   UNL     1       6.227  48.244   9.114  1.00  0.00     0.041 C 
ATOM      8  O   UNL     1       6.472  49.470   8.963  1.00  0.00    -0.550 OA
ATOM      9  O   UNL     1       7.251  47.378   9.477  1.00  0.00    -0.550 OA
ENDBRANCH   6   7
ENDBRANCH   5   6
ENDBRANCH   4   5
ENDBRANCH   3   4
ENDBRANCH   2   3
ENDBRANCH   1   2
BRANCH   1  10
ATOM     10  C   UNL     1       2.631  42.250  10.662  1.00  0.00     0.000 C 
BRANCH  10  11
ATOM     11  C   UNL     1       2.807  43.009   9.338  1.00  0.00    -0.000 C 
BRANCH  11  12
ATOM     12  C   UNL     1       1.534  43.792   8.981  1.00  0.00    -0.000 C 
BRANCH  12  13
ATOM     13  C   UNL     1       0.962  44.586  10.169  1.00  0.00    -0.000 C 
BRANCH  13  14
ATOM     14  C   UNL     1       0.195  45.864   9.786  1.00  0.00    -0.000 C 
BRANCH  14  15
ATOM     15  C   UNL     1       1.087  46.920   9.117  1.00  0.00    -0.003 C 
ATOM     16  C   UNL     1       0.739  47.077   7.640  1.00  0.00     0.004 C 
ENDBRANCH  14  15
ENDBRANCH  13  14
ENDBRANCH  12  13
ENDBRANCH  11  12
ENDBRANCH  10  11
ENDBRANCH   1  10
TORSDOF 12
ENDMDL
MODEL 2
REMARK VINA RESULT:    -4.892      2.357      5.410
REMARK INTER + INTRA:          -9.883
REMARK INTER:                  -8.538
REMARK INTRA:                  -1.344
REMARK UNBOUND:                -1.560
REMARK SMILES CCCCCCCCCCCCCC(=O)[O-]
REMARK SMILES IDX 8 1 9 2 10 3 11 4 12 5 13 6 14 7 15 8 16 9 7 10 6 11 5 12
REMARK SMILES IDX 4 13 3 14 2 15 1 16
REMARK H PARENT
REMARK Flexibility Score: inf
ROOT
ATOM      1  C   UNL     1       0.367  46.583   7.954  1.00  0.00     0.000 C 
ENDROOT
BRANCH   1   2
ATOM      2  C   UNL     1       0.376  45.200   8.631  1.00  0.00     0.000 C 
BRANCH   2   3
ATOM      3  C   UNL     1       0.628  45.275  10.145  1.00  0.00     0.000 C 
BRANCH   3   4
ATOM      4  C   UNL     1       1.470  44.085  10.657  1.00  0.00     0.000 C 
BRANCH   4   5
ATOM      5  C   UNL     1       2.281  43.386   9.551  1.00  0.00     0.006 C 
BRANCH   5   6
ATOM      6  C   UNL     1       3.783  43.279   9.850  1.00  0.00     0.053 C 
BRANCH   6   7
ATOM      7  C   UNL     1       4.047  43.085  11.311  1.00  0.00     0.041 C 
ATOM      8  O   UNL     1       3.940  41.943  11.831  1.00  0.00    -0.550 OA
ATOM      9  O   UNL     1       4.428  44.164  12.099  1.00  0.00    -0.550 OA
ENDBRANCH   6   7
ENDBRANCH   5   6
ENDBRANCH   4   5
ENDBRANCH   3   4
ENDBRANCH   2   3
ENDBRANCH   1   2
BRANCH   1  10
ATOM     10  C   UNL     1       1.171  47.671   8.689  1.00  0.00     0.000 C 
BRANCH  10  11
ATOM     11  C   UNL     1       2.184  48.383   7.780  1.00  0.00    -0.000 C 
BRANCH  11  12
ATOM     12  C   UNL     1       3.581  47.763   7.924  1.00  0.00    -0.000 C 
BRANCH  12  13
ATOM     13  C   UNL     1       3.715  46.861   9.165  1.00  0.00    -0.000 C 
BRANCH  13  14
ATOM     14  C   UNL     1       5.100  46.883   9.837  1.00  0.00    -0.000 C 
BRANCH  14  15
ATOM     15  C   UNL     1       6.072  47.869   9.172  1.00  0.00    -0.003 C 
ATOM     16  C   UNL     1       7.521  47.505   9.483  1.00  0.00     0.004 C 
ENDBRANCH  14  15
ENDBRANCH  13  14
ENDBRANCH  12  13
ENDBRANCH  11  12
ENDBRANCH  10  11
ENDBRANCH   1  10
TORSDOF 12
ENDMDL
MODEL 3
REMARK VINA RESULT:    -4.830      1.369      4.335
REMARK INTER + INTRA:          -9.778
REMARK INTER:                  -8.634
REMARK INTRA:                  -1.143
REMARK UNBOUND:                -1.560
REMARK SMILES CCCCCCCCCCCCCC(=O)[O-]
REMARK SMILES IDX 8 1 9 2 10 3 11 4 12 5 13 6 14 7 15 8 16 9 7 10 6 11 5 12
REMARK SMILES IDX 4 13 3 14 2 15 1 16
REMARK H PARENT
REMARK Flexibility Score: inf
ROOT
ATOM      1  C   UNL     1       1.272  44.626  10.186  1.00  0.00     0.000 C 
ENDROOT
BRANCH   1   2
ATOM      2  C   UNL     1       0.484  45.875   9.747  1.00  0.00     0.000 C 
BRANCH   2   3
ATOM      3  C   UNL     1       1.376  46.957   9.118  1.00  0.00     0.000 C 
BRANCH   3   4
ATOM      4  C   UNL     1       2.731  47.093   9.847  1.00  0.00     0.000 C 
BRANCH   4   5
ATOM      5  C   UNL     1       3.946  46.987   8.907  1.00  0.00     0.006 C 
BRANCH   5   6
ATOM      6  C   UNL     1       5.264  46.662   9.624  1.00  0.00     0.053 C 
BRANCH   6   7
ATOM      7  C   UNL     1       6.317  47.691   9.349  1.00  0.00     0.041 C 
ATOM      8  O   UNL     1       7.528  47.443   9.592  1.00  0.00    -0.550 OA
ATOM      9  O   UNL     1       5.963  48.920   8.806  1.00  0.00    -0.550 OA
ENDBRANCH   6   7
ENDBRANCH   5   6
ENDBRANCH   4   5
ENDBRANCH   3   4
ENDBRANCH   2   3
ENDBRANCH   1   2
BRANCH   1  10
ATOM     10  C   UNL     1       1.658  43.668   9.045  1.00  0.00     0.000 C 
BRANCH  10  11
ATOM     11  C   UNL     1       2.765  42.679   9.443  1.00  0.00    -0.000 C 
BRANCH  11  12
ATOM     12  C   UNL     1       3.830  43.367  10.309  1.00  0.00    -0.000 C 
BRANCH  12  13
ATOM     13  C   UNL     1       3.887  42.813  11.745  1.00  0.00    -0.000 C 
BRANCH  13  14
ATOM     14  C   UNL     1       3.426  41.352  11.896  1.00  0.00    -0.000 C 
BRANCH  14  15
ATOM     15  C   UNL     1       4.422  40.489  12.685  1.00  0.00    -0.003 C 
ATOM     16  C   UNL     1       3.902  39.065  12.852  1.00  0.00     0.004 C 
ENDBRANCH  14  15
ENDBRANCH  13  14
ENDBRANCH  12  13
ENDBRANCH  11  12
ENDBRANCH  10  11
ENDBRANCH   1  10
TORSDOF 12
ENDMDL
MODEL 4
REMARK VINA RESULT:    -4.811      3.573      5.947
REMARK INTER + INTRA:          -9.745
REMARK INTER:                  -8.483
REMARK INTRA:                  -1.263
REMARK UNBOUND:                -1.560
REMARK SMILES CCCCCCCCCCCCCC(=O)[O-]
REMARK SMILES IDX 8 1 9 2 10 3 11 4 12 5 13 6 14 7 15 8 16 9 7 10 6 11 5 12
REMARK SMILES IDX 4 13 3 14 2 15 1 16
REMARK H PARENT
REMARK Flexibility Score: inf
ROOT
ATOM      1  C   UNL     1       1.171  44.375  10.353  1.00  0.00     0.000 C 
ENDROOT
BRANCH   1   2
ATOM      2  C   UNL     1       1.813  43.674   9.141  1.00  0.00     0.000 C 
BRANCH   2   3
ATOM      3  C   UNL     1       3.080  42.884   9.506  1.00  0.00     0.000 C 
BRANCH   3   4
ATOM      4  C   UNL     1       3.721  43.382  10.820  1.00  0.00     0.000 C 
BRANCH   4   5
ATOM      5  C   UNL     1       4.069  42.247  11.801  1.00  0.00     0.006 C 
BRANCH   5   6
ATOM      6  C   UNL     1       2.963  41.194  11.956  1.00  0.00     0.053 C 
BRANCH   6   7
ATOM      7  C   UNL     1       3.466  39.953  12.626  1.00  0.00     0.041 C 
ATOM      8  O   UNL     1       4.572  39.958  13.227  1.00  0.00    -0.550 OA
ATOM      9  O   UNL     1       2.703  38.792  12.603  1.00  0.00    -0.550 OA
ENDBRANCH   6   7
ENDBRANCH   5   6
ENDBRANCH   4   5
ENDBRANCH   3   4
ENDBRANCH   2   3
ENDBRANCH   1   2
BRANCH   1  10
ATOM     10  C   UNL     1       0.699  45.817  10.095  1.00  0.00     0.000 C 
BRANCH  10  11
ATOM     11  C   UNL     1       1.210  46.384   8.762  1.00  0.00    -0.000 C 
BRANCH  11  12
ATOM     12  C   UNL     1       2.140  47.584   8.997  1.00  0.00    -0.000 C 
BRANCH  12  13
ATOM     13  C   UNL     1       3.597  47.305   8.585  1.00  0.00    -0.000 C 
BRANCH  13  14
ATOM     14  C   UNL     1       4.482  46.711   9.696  1.00  0.00    -0.000 C 
BRANCH  14  15
ATOM     15  C   UNL     1       5.968  47.060   9.528  1.00  0.00    -0.003 C 
ATOM     16  C   UNL     1       6.147  48.526   9.141  1.00  0.00     0.004 C 
ENDBRANCH  14  15
ENDBRANCH  13  14
ENDBRANCH  12  13
ENDBRANCH  11  12
ENDBRANCH  10  11
ENDBRANCH   1  10
TORSDOF 12
ENDMDL
MODEL 5
REMARK VINA RESULT:    -4.778      0.798      3.947
REMARK INTER + INTRA:          -9.690
REMARK INTER:                  -8.244
REMARK INTRA:                  -1.446
REMARK UNBOUND:                -1.560
REMARK SMILES CCCCCCCCCCCCCC(=O)[O-]
REMARK SMILES IDX 8 1 9 2 10 3 11 4 12 5 13 6 14 7 15 8 16 9 7 10 6 11 5 12
REMARK SMILES IDX 4 13 3 14 2 15 1 16
REMARK H PARENT
REMARK Flexibility Score: inf
ROOT
ATOM      1  C   UNL     1       0.495  46.092   8.183  1.00  0.00     0.000 C 
ENDROOT
BRANCH   1   2
ATOM      2  C   UNL     1       0.809  47.585   7.974  1.00  0.00     0.000 C 
BRANCH   2   3
ATOM      3  C   UNL     1       2.034  48.057   8.774  1.00  0.00     0.000 C 
BRANCH   3   4
ATOM      4  C   UNL     1       3.364  47.635   8.112  1.00  0.00     0.000 C 
BRANCH   4   5
ATOM      5  C   UNL     1       4.163  46.611   8.939  1.00  0.00     0.006 C 
BRANCH   5   6
ATOM      6  C   UNL     1       5.070  47.242  10.005  1.00  0.00     0.053 C 
BRANCH   6   7
ATOM      7  C   UNL     1       6.285  47.875   9.399  1.00  0.00     0.041 C 
ATOM      8  O   UNL     1       7.366  47.233   9.323  1.00  0.00    -0.550 OA
ATOM      9  O   UNL     1       6.219  49.170   8.900  1.00  0.00    -0.550 OA
ENDBRANCH   6   7
ENDBRANCH   5   6
ENDBRANCH   4   5
ENDBRANCH   3   4
ENDBRANCH   2   3
ENDBRANCH   1   2
BRANCH   1  10
ATOM     10  C   UNL     1       0.187  45.690   9.637  1.00  0.00     0.000 C 
BRANCH  10  11
ATOM     11  C   UNL     1       1.184  44.666  10.199  1.00  0.00    -0.000 C 
BRANCH  11  12
ATOM     12  C   UNL     1       1.735  43.766   9.083  1.00  0.00    -0.000 C 
BRANCH  12  13
ATOM     13  C   UNL     1       2.863  42.834   9.563  1.00  0.00    -0.000 C 
BRANCH  13  14
ATOM     14  C   UNL     1       2.764  42.403  11.038  1.00  0.00    -0.000 C 
BRANCH  14  15
ATOM     15  C   UNL     1       4.047  42.690  11.832  1.00  0.00    -0.003 C 
ATOM     16  C   UNL     1       4.195  44.183  12.113  1.00  0.00     0.004 C 
ENDBRANCH  14  15
ENDBRANCH  13  14
ENDBRANCH  12  13
ENDBRANCH  11  12
ENDBRANCH  10  11
ENDBRANCH   1  10
TORSDOF 12
ENDMDL
MODEL 6
REMARK VINA RESULT:    -4.686      2.649      4.784
REMARK INTER + INTRA:          -9.533
REMARK INTER:                  -8.188
REMARK INTRA:                  -1.345
REMARK UNBOUND:                -1.560
REMARK SMILES CCCCCCCCCCCCCC(=O)[O-]
REMARK SMILES IDX 8 1 9 2 10 3 11 4 12 5 13 6 14 7 15 8 16 9 7 10 6 11 5 12
REMARK SMILES IDX 4 13 3 14 2 15 1 16
REMARK H PARENT
REMARK Flexibility Score: inf
ROOT
ATOM      1  C   UNL     1       3.922  42.753  11.695  1.00  0.00     0.000 C 
ENDROOT
BRANCH   1   2
ATOM      2  C   UNL     1       2.531  42.846  11.039  1.00  0.00     0.000 C 
BRANCH   2   3
ATOM      3  C   UNL     1       2.590  42.823   9.503  1.00  0.00     0.000 C 
BRANCH   3   4
ATOM      4  C   UNL     1       1.577  43.800   8.865  1.00  0.00     0.000 C 
BRANCH   4   5
ATOM      5  C   UNL     1       0.761  44.598   9.897  1.00  0.00     0.006 C 
BRANCH   5   6
ATOM      6  C   UNL     1       0.752  46.114   9.650  1.00  0.00     0.053 C 
BRANCH   6   7
ATOM      7  C   UNL     1       0.293  46.449   8.265  1.00  0.00     0.041 C 
ATOM      8  O   UNL     1       0.996  47.182   7.521  1.00  0.00    -0.550 OA
ATOM      9  O   UNL     1      -0.908  45.938   7.787  1.00  0.00    -0.550 OA
ENDBRANCH   6   7
ENDBRANCH   5   6
ENDBRANCH   4   5
ENDBRANCH   3   4
ENDBRANCH   2   3
ENDBRANCH   1   2
BRANCH   1  10
ATOM     10  C   UNL     1       4.474  44.083  12.238  1.00  0.00     0.000 C 
BRANCH  10  11
ATOM     11  C   UNL     1       3.894  45.311  11.520  1.00  0.00    -0.000 C 
BRANCH  11  12
ATOM     12  C   UNL     1       4.814  45.764  10.377  1.00  0.00    -0.000 C 
BRANCH  12  13
ATOM     13  C   UNL     1       4.060  46.494   9.251  1.00  0.00    -0.000 C 
BRANCH  13  14
ATOM     14  C   UNL     1       4.796  47.711   8.660  1.00  0.00    -0.000 C 
BRANCH  14  15
ATOM     15  C   UNL     1       6.193  47.917   9.265  1.00  0.00    -0.003 C 
ATOM     16  C   UNL     1       6.590  49.390   9.239  1.00  0.00     0.004 C 
ENDBRANCH  14  15
ENDBRANCH  13  14
ENDBRANCH  12  13
ENDBRANCH  11  12
ENDBRANCH  10  11
ENDBRANCH   1  10
TORSDOF 12
ENDMDL
MODEL 7
REMARK VINA RESULT:    -4.527      0.884      3.616
REMARK INTER + INTRA:          -9.263
REMARK INTER:                  -8.220
REMARK INTRA:                  -1.043
REMARK UNBOUND:                -1.560
REMARK SMILES CCCCCCCCCCCCCC(=O)[O-]
REMARK SMILES IDX 8 1 9 2 10 3 11 4 12 5 13 6 14 7 15 8 16 9 7 10 6 11 5 12
REMARK SMILES IDX 4 13 3 14 2 15 1 16
REMARK H PARENT
REMARK Flexibility Score: inf
ROOT
ATOM      1  C   UNL     1       0.392  45.281   8.767  1.00  0.00     0.000 C 
ENDROOT
BRANCH   1   2
ATOM      2  C   UNL     1       0.422  46.783   9.107  1.00  0.00     0.000 C 
BRANCH   2   3
ATOM      3  C   UNL     1       1.847  47.355   9.173  1.00  0.00     0.000 C 
BRANCH   3   4
ATOM      4  C   UNL     1       2.249  48.075   7.866  1.00  0.00     0.000 C 
BRANCH   4   5
ATOM      5  C   UNL     1       3.770  48.118   7.633  1.00  0.00     0.006 C 
BRANCH   5   6
ATOM      6  C   UNL     1       4.592  47.459   8.751  1.00  0.00     0.053 C 
BRANCH   6   7
ATOM      7  C   UNL     1       5.909  48.144   8.951  1.00  0.00     0.041 C 
ATOM      8  O   UNL     1       6.050  49.356   8.640  1.00  0.00    -0.550 OA
ATOM      9  O   UNL     1       6.979  47.447   9.499  1.00  0.00    -0.550 OA
ENDBRANCH   6   7
ENDBRANCH   5   6
ENDBRANCH   4   5
ENDBRANCH   3   4
ENDBRANCH   2   3
ENDBRANCH   1   2
BRANCH   1  10
ATOM     10  C   UNL     1       1.193  44.382   9.726  1.00  0.00     0.000 C 
BRANCH  10  11
ATOM     11  C   UNL     1       2.380  43.687   9.044  1.00  0.00    -0.000 C 
BRANCH  11  12
ATOM     12  C   UNL     1       2.743  42.382   9.770  1.00  0.00    -0.000 C 
BRANCH  12  13
ATOM     13  C   UNL     1       2.705  42.516  11.303  1.00  0.00    -0.000 C 
BRANCH  13  14
ATOM     14  C   UNL     1       4.067  42.790  11.965  1.00  0.00    -0.000 C 
BRANCH  14  15
ATOM     15  C   UNL     1       4.230  44.249  12.416  1.00  0.00    -0.003 C 
ATOM     16  C   UNL     1       4.588  45.151  11.238  1.00  0.00     0.004 C 
ENDBRANCH  14  15
ENDBRANCH  13  14
ENDBRANCH  12  13
ENDBRANCH  11  12
ENDBRANCH  10  11
ENDBRANCH   1  10
TORSDOF 12
ENDMDL
MODEL 8
REMARK VINA RESULT:    -4.488      3.460      5.555
REMARK INTER + INTRA:          -9.197
REMARK INTER:                  -7.891
REMARK INTRA:                  -1.306
REMARK UNBOUND:                -1.560
REMARK SMILES CCCCCCCCCCCCCC(=O)[O-]
REMARK SMILES IDX 8 1 9 2 10 3 11 4 12 5 13 6 14 7 15 8 16 9 7 10 6 11 5 12
REMARK SMILES IDX 4 13 3 14 2 15 1 16
REMARK H PARENT
REMARK Flexibility Score: inf
ROOT
ATOM      1  C   UNL     1       4.204  46.241   9.123  1.00  0.00     0.000 C 
ENDROOT
BRANCH   1   2
ATOM      2  C   UNL     1       4.503  46.254  10.634  1.00  0.00     0.000 C 
BRANCH   2   3
ATOM      3  C   UNL     1       3.754  45.154  11.403  1.00  0.00     0.000 C 
BRANCH   3   4
ATOM      4  C   UNL     1       3.928  43.763  10.752  1.00  0.00     0.000 C 
BRANCH   4   5
ATOM      5  C   UNL     1       4.156  42.633  11.772  1.00  0.00     0.006 C 
BRANCH   5   6
ATOM      6  C   UNL     1       3.090  41.528  11.728  1.00  0.00     0.053 C 
BRANCH   6   7
ATOM      7  C   UNL     1       3.536  40.295  12.451  1.00  0.00     0.041 C 
ATOM      8  O   UNL     1       4.706  40.214  12.909  1.00  0.00    -0.550 OA
ATOM      9  O   UNL     1       2.653  39.238  12.634  1.00  0.00    -0.550 OA
ENDBRANCH   6   7
ENDBRANCH   5   6
ENDBRANCH   4   5
ENDBRANCH   3   4
ENDBRANCH   2   3
ENDBRANCH   1   2
BRANCH   1  10
ATOM     10  C   UNL     1       4.348  47.603   8.421  1.00  0.00     0.000 C 
BRANCH  10  11
ATOM     11  C   UNL     1       3.085  48.015   7.650  1.00  0.00    -0.000 C 
BRANCH  11  12
ATOM     12  C   UNL     1       1.853  48.003   8.567  1.00  0.00    -0.000 C 
BRANCH  12  13
ATOM     13  C   UNL     1       0.752  47.041   8.084  1.00  0.00    -0.000 C 
BRANCH  13  14
ATOM     14  C   UNL     1      -0.116  46.435   9.202  1.00  0.00    -0.000 C 
BRANCH  14  15
ATOM     15  C   UNL     1       0.489  45.159   9.804  1.00  0.00    -0.003 C 
ATOM     16  C   UNL     1       1.074  44.262   8.717  1.00  0.00     0.004 C 
ENDBRANCH  14  15
ENDBRANCH  13  14
ENDBRANCH  12  13
ENDBRANCH  11  12
ENDBRANCH  10  11
ENDBRANCH   1  10
TORSDOF 12
ENDMDL
MODEL 9
REMARK VINA RESULT:    -4.376      3.028      5.228
REMARK INTER + INTRA:          -9.005
REMARK INTER:                  -7.970
REMARK INTRA:                  -1.035
REMARK UNBOUND:                -1.560
REMARK SMILES CCCCCCCCCCCCCC(=O)[O-]
REMARK SMILES IDX 8 1 9 2 10 3 11 4 12 5 13 6 14 7 15 8 16 9 7 10 6 11 5 12
REMARK SMILES IDX 4 13 3 14 2 15 1 16
REMARK H PARENT
REMARK Flexibility Score: inf
ROOT
ATOM      1  C   UNL     1       4.209  44.823  10.795  1.00  0.00     0.000 C 
ENDROOT
BRANCH   1   2
ATOM      2  C   UNL     1       4.113  46.332  10.502  1.00  0.00     0.000 C 
BRANCH   2   3
ATOM      3  C   UNL     1       4.474  46.686   9.050  1.00  0.00     0.000 C 
BRANCH   3   4
ATOM      4  C   UNL     1       3.413  47.593   8.388  1.00  0.00     0.000 C 
BRANCH   4   5
ATOM      5  C   UNL     1       2.061  47.594   9.126  1.00  0.00     0.006 C 
BRANCH   5   6
ATOM      6  C   UNL     1       1.059  46.559   8.594  1.00  0.00     0.053 C 
BRANCH   6   7
ATOM      7  C   UNL     1      -0.021  47.199   7.776  1.00  0.00     0.041 C 
ATOM      8  O   UNL     1      -0.599  46.549   6.866  1.00  0.00    -0.550 OA
ATOM      9  O   UNL     1      -0.400  48.511   8.030  1.00  0.00    -0.550 OA
ENDBRANCH   6   7
ENDBRANCH   5   6
ENDBRANCH   4   5
ENDBRANCH   3   4
ENDBRANCH   2   3
ENDBRANCH   1   2
BRANCH   1  10
ATOM     10  C   UNL     1       3.758  43.908   9.642  1.00  0.00     0.000 C 
BRANCH  10  11
ATOM     11  C   UNL     1       2.333  43.368   9.829  1.00  0.00    -0.000 C 
BRANCH  11  12
ATOM     12  C   UNL     1       1.835  43.615  11.261  1.00  0.00    -0.000 C 
BRANCH  12  13
ATOM     13  C   UNL     1       1.924  42.363  12.153  1.00  0.00    -0.000 C 
BRANCH  13  14
ATOM     14  C   UNL     1       3.025  41.362  11.759  1.00  0.00    -0.000 C 
BRANCH  14  15
ATOM     15  C   UNL     1       2.959  40.053  12.559  1.00  0.00    -0.003 C 
ATOM     16  C   UNL     1       4.337  39.659  13.082  1.00  0.00     0.004 C 
ENDBRANCH  14  15
ENDBRANCH  13  14
ENDBRANCH  12  13
ENDBRANCH  11  12
ENDBRANCH  10  11
ENDBRANCH   1  10
TORSDOF 12
ENDMDL
