MODEL 1
REMARK VINA RESULT:    -6.055      0.000      0.000
REMARK INTER + INTRA:         -14.380
REMARK INTER:                 -13.135
REMARK INTRA:                  -1.246
REMARK UNBOUND:                -1.246
REMARK SMILES CCCCCCCCCCCCCCCCCCCCCC(=O)[O-]
REMARK SMILES IDX 12 1 11 2 10 3 9 4 8 5 7 6 6 7 5 8 4 9 3 10 2 11 1 12 13 13
REMARK SMILES IDX 14 14 15 15 16 16 17 17 18 18 19 19 20 20 21 21 22 22 23 23
REMARK SMILES IDX 24 24
REMARK H PARENT
REMARK Flexibility Score: inf
ROOT
ATOM      1  C   UNL     1      89.279 325.089 199.414  1.00  0.00     0.000 C 
ENDROOT
BRANCH   1   2
ATOM      2  C   UNL     1      89.388 326.498 200.024  1.00  0.00     0.000 C 
BRANCH   2   3
ATOM      3  C   UNL     1      89.467 326.477 201.560  1.00  0.00     0.000 C 
BRANCH   3   4
ATOM      4  C   UNL     1      90.856 326.873 202.095  1.00  0.00    -0.000 C 
BRANCH   4   5
ATOM      5  C   UNL     1      90.897 327.263 203.586  1.00  0.00    -0.000 C 
BRANCH   5   6
ATOM      6  C   UNL     1      89.547 327.175 204.325  1.00  0.00    -0.000 C 
BRANCH   6   7
ATOM      7  C   UNL     1      89.643 327.184 205.861  1.00  0.00    -0.000 C 
BRANCH   7   8
ATOM      8  C   UNL     1      88.874 326.021 206.512  1.00  0.00    -0.000 C 
BRANCH   8   9
ATOM      9  C   UNL     1      87.649 325.591 205.690  1.00  0.00    -0.000 C 
BRANCH   9  10
ATOM     10  C   UNL     1      87.303 324.102 205.878  1.00  0.00    -0.000 C 
BRANCH  10  11
ATOM     11  C   UNL     1      86.831 323.439 204.575  1.00  0.00    -0.003 C 
ATOM     12  C   UNL     1      87.627 323.902 203.356  1.00  0.00     0.004 C 
ENDBRANCH  10  11
ENDBRANCH   9  10
ENDBRANCH   8   9
ENDBRANCH   7   8
ENDBRANCH   6   7
ENDBRANCH   5   6
ENDBRANCH   4   5
ENDBRANCH   3   4
ENDBRANCH   2   3
ENDBRANCH   1   2
BRANCH   1  13
ATOM     13  C   UNL     1      88.995 325.048 197.898  1.00  0.00     0.000 C 
BRANCH  13  14
ATOM     14  C   UNL     1      88.597 326.396 197.270  1.00  0.00     0.000 C 
BRANCH  14  15
ATOM     15  C   UNL     1      88.327 326.292 195.761  1.00  0.00     0.000 C 
BRANCH  15  16
ATOM     16  C   UNL     1      86.821 326.197 195.473  1.00  0.00     0.000 C 
BRANCH  16  17
ATOM     17  C   UNL     1      86.509 326.022 193.974  1.00  0.00     0.000 C 
BRANCH  17  18
ATOM     18  C   UNL     1      87.720 325.657 193.097  1.00  0.00     0.000 C 
BRANCH  18  19
ATOM     19  C   UNL     1      87.678 324.204 192.592  1.00  0.00     0.000 C 
BRANCH  19  20
ATOM     20  C   UNL     1      88.354 324.035 191.222  1.00  0.00     0.006 C 
BRANCH  20  21
ATOM     21  C   UNL     1      87.611 323.050 190.309  1.00  0.00     0.053 C 
BRANCH  21  22
ATOM     22  C   UNL     1      88.395 322.801 189.059  1.00  0.00     0.041 C 
ATOM     23  O   UNL     1      88.092 321.842 188.302  1.00  0.00    -0.550 OA
ATOM     24  O   UNL     1      89.435 323.653 188.708  1.00  0.00    -0.550 OA
ENDBRANCH  21  22
ENDBRANCH  20  21
ENDBRANCH  19  20
ENDBRANCH  18  19
ENDBRANCH  17  18
ENDBRANCH  16  17
ENDBRANCH  15  16
ENDBRANCH  14  15
ENDBRANCH  13  14
ENDBRANCH   1  13
TORSDOF 20
ENDMDL
MODEL 2
REMARK VINA RESULT:    -6.040      4.241     11.158
REMARK INTER + INTRA:         -14.348
REMARK INTER:                 -12.803
REMARK INTRA:                  -1.545
REMARK UNBOUND:                -1.246
REMARK SMILES CCCCCCCCCCCCCCCCCCCCCC(=O)[O-]
REMARK SMILES IDX 12 1 11 2 10 3 9 4 8 5 7 6 6 7 5 8 4 9 3 10 2 11 1 12 13 13
REMARK SMILES IDX 14 14 15 15 16 16 17 17 18 18 19 19 20 20 21 21 22 22 23 23
REMARK SMILES IDX 24 24
REMARK H PARENT
REMARK Flexibility Score: inf
ROOT
ATOM      1  C   UNL     1      88.916 326.161 200.280  1.00  0.00     0.000 C 
ENDROOT
BRANCH   1   2
ATOM      2  C   UNL     1      89.285 325.782 198.834  1.00  0.00     0.000 C 
BRANCH   2   3
ATOM      3  C   UNL     1      88.674 326.738 197.795  1.00  0.00     0.000 C 
BRANCH   3   4
ATOM      4  C   UNL     1      88.106 326.004 196.566  1.00  0.00    -0.000 C 
BRANCH   4   5
ATOM      5  C   UNL     1      88.670 326.467 195.208  1.00  0.00    -0.000 C 
BRANCH   5   6
ATOM      6  C   UNL     1      87.613 326.879 194.164  1.00  0.00    -0.000 C 
BRANCH   6   7
ATOM      7  C   UNL     1      86.271 326.133 194.266  1.00  0.00    -0.000 C 
BRANCH   7   8
ATOM      8  C   UNL     1      86.143 324.994 193.239  1.00  0.00    -0.000 C 
BRANCH   8   9
ATOM      9  C   UNL     1      86.931 323.739 193.649  1.00  0.00    -0.000 C 
BRANCH   9  10
ATOM     10  C   UNL     1      88.195 323.530 192.796  1.00  0.00    -0.000 C 
BRANCH  10  11
ATOM     11  C   UNL     1      88.158 324.329 191.484  1.00  0.00    -0.003 C 
ATOM     12  C   UNL     1      88.627 323.512 190.282  1.00  0.00     0.004 C 
ENDBRANCH  10  11
ENDBRANCH   9  10
ENDBRANCH   8   9
ENDBRANCH   7   8
ENDBRANCH   6   7
ENDBRANCH   5   6
ENDBRANCH   4   5
ENDBRANCH   3   4
ENDBRANCH   2   3
ENDBRANCH   1   2
BRANCH   1  13
ATOM     13  C   UNL     1      90.089 326.149 201.283  1.00  0.00     0.000 C 
BRANCH  13  14
ATOM     14  C   UNL     1      89.789 326.791 202.649  1.00  0.00     0.000 C 
BRANCH  14  15
ATOM     15  C   UNL     1      91.062 327.109 203.449  1.00  0.00     0.000 C 
BRANCH  15  16
ATOM     16  C   UNL     1      90.748 327.283 204.943  1.00  0.00     0.000 C 
BRANCH  16  17
ATOM     17  C   UNL     1      89.237 327.266 205.243  1.00  0.00     0.000 C 
BRANCH  17  18
ATOM     18  C   UNL     1      88.839 326.517 206.528  1.00  0.00     0.000 C 
BRANCH  18  19
ATOM     19  C   UNL     1      87.706 325.501 206.302  1.00  0.00     0.000 C 
BRANCH  19  20
ATOM     20  C   UNL     1      87.917 324.652 205.039  1.00  0.00     0.006 C 
BRANCH  20  21
ATOM     21  C   UNL     1      86.666 323.858 204.638  1.00  0.00     0.053 C 
BRANCH  21  22
ATOM     22  C   UNL     1      86.920 323.074 203.389  1.00  0.00     0.041 C 
ATOM     23  O   UNL     1      86.823 321.820 203.398  1.00  0.00    -0.550 OA
ATOM     24  O   UNL     1      87.226 323.733 202.204  1.00  0.00    -0.550 OA
ENDBRANCH  21  22
ENDBRANCH  20  21
ENDBRANCH  19  20
ENDBRANCH  18  19
ENDBRANCH  17  18
ENDBRANCH  16  17
ENDBRANCH  15  16
ENDBRANCH  14  15
ENDBRANCH  13  14
ENDBRANCH   1  13
TORSDOF 20
ENDMDL
MODEL 3
REMARK VINA RESULT:    -6.038      4.756     12.150
REMARK INTER + INTRA:         -14.342
REMARK INTER:                 -12.985
REMARK INTRA:                  -1.357
REMARK UNBOUND:                -1.246
REMARK SMILES CCCCCCCCCCCCCCCCCCCCCC(=O)[O-]
REMARK SMILES IDX 12 1 11 2 10 3 9 4 8 5 7 6 6 7 5 8 4 9 3 10 2 11 1 12 13 13
REMARK SMILES IDX 14 14 15 15 16 16 17 17 18 18 19 19 20 20 21 21 22 22 23 23
REMARK SMILES IDX 24 24
REMARK H PARENT
REMARK Flexibility Score: inf
ROOT
ATOM      1  C   UNL     1      88.842 326.337 196.606  1.00  0.00     0.000 C 
ENDROOT
BRANCH   1   2
ATOM      2  C   UNL     1      87.687 325.406 196.198  1.00  0.00     0.000 C 
BRANCH   2   3
ATOM      3  C   UNL     1      86.464 326.172 195.665  1.00  0.00     0.000 C 
BRANCH   3   4
ATOM      4  C   UNL     1      86.570 326.503 194.164  1.00  0.00    -0.000 C 
BRANCH   4   5
ATOM      5  C   UNL     1      86.462 325.291 193.217  1.00  0.00    -0.000 C 
BRANCH   5   6
ATOM      6  C   UNL     1      87.750 324.943 192.446  1.00  0.00    -0.000 C 
BRANCH   6   7
ATOM      7  C   UNL     1      88.375 323.582 192.800  1.00  0.00    -0.000 C 
BRANCH   7   8
ATOM      8  C   UNL     1      88.433 322.622 191.600  1.00  0.00    -0.000 C 
BRANCH   8   9
ATOM      9  C   UNL     1      87.546 323.083 190.432  1.00  0.00    -0.000 C 
BRANCH   9  10
ATOM     10  C   UNL     1      88.274 323.026 189.077  1.00  0.00    -0.000 C 
BRANCH  10  11
ATOM     11  C   UNL     1      89.634 323.742 189.109  1.00  0.00    -0.003 C 
ATOM     12  C   UNL     1      90.771 322.872 188.577  1.00  0.00     0.004 C 
ENDBRANCH  10  11
ENDBRANCH   9  10
ENDBRANCH   8   9
ENDBRANCH   7   8
ENDBRANCH   6   7
ENDBRANCH   5   6
ENDBRANCH   4   5
ENDBRANCH   3   4
ENDBRANCH   2   3
ENDBRANCH   1   2
BRANCH   1  13
ATOM     13  C   UNL     1      88.781 326.864 198.055  1.00  0.00     0.000 C 
BRANCH  13  14
ATOM     14  C   UNL     1      89.191 325.850 199.139  1.00  0.00     0.000 C 
BRANCH  14  15
ATOM     15  C   UNL     1      89.114 326.432 200.557  1.00  0.00     0.000 C 
BRANCH  15  16
ATOM     16  C   UNL     1      90.487 326.395 201.247  1.00  0.00     0.000 C 
BRANCH  16  17
ATOM     17  C   UNL     1      90.388 326.162 202.767  1.00  0.00     0.000 C 
BRANCH  17  18
ATOM     18  C   UNL     1      90.192 327.437 203.608  1.00  0.00     0.000 C 
BRANCH  18  19
ATOM     19  C   UNL     1      89.152 327.261 204.728  1.00  0.00     0.000 C 
BRANCH  19  20
ATOM     20  C   UNL     1      89.168 325.848 205.332  1.00  0.00     0.006 C 
BRANCH  20  21
ATOM     21  C   UNL     1      87.803 325.423 205.891  1.00  0.00     0.053 C 
BRANCH  21  22
ATOM     22  C   UNL     1      87.191 324.364 205.029  1.00  0.00     0.041 C 
ATOM     23  O   UNL     1      86.298 323.608 205.492  1.00  0.00    -0.550 OA
ATOM     24  O   UNL     1      87.579 324.237 203.700  1.00  0.00    -0.550 OA
ENDBRANCH  21  22
ENDBRANCH  20  21
ENDBRANCH  19  20
ENDBRANCH  18  19
ENDBRANCH  17  18
ENDBRANCH  16  17
ENDBRANCH  15  16
ENDBRANCH  14  15
ENDBRANCH  13  14
ENDBRANCH   1  13
TORSDOF 20
ENDMDL
MODEL 4
REMARK VINA RESULT:    -6.033     19.797     22.644
REMARK INTER + INTRA:         -14.332
REMARK INTER:                 -11.780
REMARK INTRA:                  -2.552
REMARK UNBOUND:                -1.246
REMARK SMILES CCCCCCCCCCCCCCCCCCCCCC(=O)[O-]
REMARK SMILES IDX 12 1 11 2 10 3 9 4 8 5 7 6 6 7 5 8 4 9 3 10 2 11 1 12 13 13
REMARK SMILES IDX 14 14 15 15 16 16 17 17 18 18 19 19 20 20 21 21 22 22 23 23
REMARK SMILES IDX 24 24
REMARK H PARENT
REMARK Flexibility Score: inf
ROOT
ATOM      1  C   UNL     1     104.299 311.773 192.833  1.00  0.00     0.000 C 
ENDROOT
BRANCH   1   2
ATOM      2  C   UNL     1     104.230 312.986 191.888  1.00  0.00     0.000 C 
BRANCH   2   3
ATOM      3  C   UNL     1     105.619 313.464 191.434  1.00  0.00     0.000 C 
BRANCH   3   4
ATOM      4  C   UNL     1     105.554 314.524 190.317  1.00  0.00    -0.000 C 
BRANCH   4   5
ATOM      5  C   UNL     1     104.134 314.993 189.941  1.00  0.00    -0.000 C 
BRANCH   5   6
ATOM      6  C   UNL     1     103.735 316.378 190.486  1.00  0.00    -0.000 C 
BRANCH   6   7
ATOM      7  C   UNL     1     104.831 317.105 191.286  1.00  0.00    -0.000 C 
BRANCH   7   8
ATOM      8  C   UNL     1     104.564 317.104 192.801  1.00  0.00    -0.000 C 
BRANCH   8   9
ATOM      9  C   UNL     1     105.586 316.259 193.580  1.00  0.00    -0.000 C 
BRANCH   9  10
ATOM     10  C   UNL     1     104.955 315.518 194.772  1.00  0.00    -0.000 C 
BRANCH  10  11
ATOM     11  C   UNL     1     103.437 315.333 194.613  1.00  0.00    -0.003 C 
ATOM     12  C   UNL     1     102.707 315.274 195.953  1.00  0.00     0.004 C 
ENDBRANCH  10  11
ENDBRANCH   9  10
ENDBRANCH   8   9
ENDBRANCH   7   8
ENDBRANCH   6   7
ENDBRANCH   5   6
ENDBRANCH   4   5
ENDBRANCH   3   4
ENDBRANCH   2   3
ENDBRANCH   1   2
BRANCH   1  13
ATOM     13  C   UNL     1     105.642 311.588 193.570  1.00  0.00     0.000 C 
BRANCH  13  14
ATOM     14  C   UNL     1     105.559 311.637 195.106  1.00  0.00     0.000 C 
BRANCH  14  15
ATOM     15  C   UNL     1     104.138 311.922 195.616  1.00  0.00     0.000 C 
BRANCH  15  16
ATOM     16  C   UNL     1     103.862 311.178 196.932  1.00  0.00     0.000 C 
BRANCH  16  17
ATOM     17  C   UNL     1     103.767 312.123 198.145  1.00  0.00     0.000 C 
BRANCH  17  18
ATOM     18  C   UNL     1     103.250 311.469 199.439  1.00  0.00     0.000 C 
BRANCH  18  19
ATOM     19  C   UNL     1     104.177 311.710 200.643  1.00  0.00     0.000 C 
BRANCH  19  20
ATOM     20  C   UNL     1     103.422 311.695 201.982  1.00  0.00     0.006 C 
BRANCH  20  21
ATOM     21  C   UNL     1     103.990 310.672 202.975  1.00  0.00     0.053 C 
BRANCH  21  22
ATOM     22  C   UNL     1     104.203 311.304 204.314  1.00  0.00     0.041 C 
ATOM     23  O   UNL     1     103.574 310.884 205.320  1.00  0.00    -0.550 OA
ATOM     24  O   UNL     1     105.128 312.331 204.460  1.00  0.00    -0.550 OA
ENDBRANCH  21  22
ENDBRANCH  20  21
ENDBRANCH  19  20
ENDBRANCH  18  19
ENDBRANCH  17  18
ENDBRANCH  16  17
ENDBRANCH  15  16
ENDBRANCH  14  15
ENDBRANCH  13  14
ENDBRANCH   1  13
TORSDOF 20
ENDMDL
MODEL 5
REMARK VINA RESULT:    -6.023      1.381      2.905
REMARK INTER + INTRA:         -14.310
REMARK INTER:                 -12.491
REMARK INTRA:                  -1.819
REMARK UNBOUND:                -1.246
REMARK SMILES CCCCCCCCCCCCCCCCCCCCCC(=O)[O-]
REMARK SMILES IDX 12 1 11 2 10 3 9 4 8 5 7 6 6 7 5 8 4 9 3 10 2 11 1 12 13 13
REMARK SMILES IDX 14 14 15 15 16 16 17 17 18 18 19 19 20 20 21 21 22 22 23 23
REMARK SMILES IDX 24 24
REMARK H PARENT
REMARK Flexibility Score: inf
ROOT
ATOM      1  C   UNL     1      90.816 326.221 201.139  1.00  0.00     0.000 C 
ENDROOT
BRANCH   1   2
ATOM      2  C   UNL     1      91.070 326.890 202.502  1.00  0.00     0.000 C 
BRANCH   2   3
ATOM      3  C   UNL     1      90.296 326.217 203.648  1.00  0.00     0.000 C 
BRANCH   3   4
ATOM      4  C   UNL     1      89.285 327.160 204.326  1.00  0.00    -0.000 C 
BRANCH   4   5
ATOM      5  C   UNL     1      89.252 327.089 205.866  1.00  0.00    -0.000 C 
BRANCH   5   6
ATOM      6  C   UNL     1      88.709 325.771 206.451  1.00  0.00    -0.000 C 
BRANCH   6   7
ATOM      7  C   UNL     1      87.280 325.404 206.014  1.00  0.00    -0.000 C 
BRANCH   7   8
ATOM      8  C   UNL     1      87.148 323.933 205.582  1.00  0.00    -0.000 C 
BRANCH   8   9
ATOM      9  C   UNL     1      86.635 323.785 204.140  1.00  0.00    -0.000 C 
BRANCH   9  10
ATOM     10  C   UNL     1      87.727 324.067 203.092  1.00  0.00    -0.000 C 
BRANCH  10  11
ATOM     11  C   UNL     1      87.347 323.552 201.695  1.00  0.00    -0.003 C 
ATOM     12  C   UNL     1      86.202 322.541 201.730  1.00  0.00     0.004 C 
ENDBRANCH  10  11
ENDBRANCH   9  10
ENDBRANCH   8   9
ENDBRANCH   7   8
ENDBRANCH   6   7
ENDBRANCH   5   6
ENDBRANCH   4   5
ENDBRANCH   3   4
ENDBRANCH   2   3
ENDBRANCH   1   2
BRANCH   1  13
ATOM     13  C   UNL     1      89.386 326.385 200.582  1.00  0.00     0.000 C 
BRANCH  13  14
ATOM     14  C   UNL     1      89.189 325.904 199.133  1.00  0.00     0.000 C 
BRANCH  14  15
ATOM     15  C   UNL     1      88.836 327.048 198.170  1.00  0.00     0.000 C 
BRANCH  15  16
ATOM     16  C   UNL     1      88.450 326.507 196.784  1.00  0.00     0.000 C 
BRANCH  16  17
ATOM     17  C   UNL     1      88.605 324.978 196.675  1.00  0.00     0.000 C 
BRANCH  17  18
ATOM     18  C   UNL     1      87.627 324.294 195.701  1.00  0.00     0.000 C 
BRANCH  18  19
ATOM     19  C   UNL     1      86.574 325.261 195.133  1.00  0.00     0.000 C 
BRANCH  19  20
ATOM     20  C   UNL     1      86.524 325.242 193.597  1.00  0.00     0.006 C 
BRANCH  20  21
ATOM     21  C   UNL     1      87.869 324.863 192.961  1.00  0.00     0.053 C 
BRANCH  21  22
ATOM     22  C   UNL     1      87.653 324.193 191.641  1.00  0.00     0.041 C 
ATOM     23  O   UNL     1      88.576 324.168 190.785  1.00  0.00    -0.550 OA
ATOM     24  O   UNL     1      86.446 323.561 191.369  1.00  0.00    -0.550 OA
ENDBRANCH  21  22
ENDBRANCH  20  21
ENDBRANCH  19  20
ENDBRANCH  18  19
ENDBRANCH  17  18
ENDBRANCH  16  17
ENDBRANCH  15  16
ENDBRANCH  14  15
ENDBRANCH  13  14
ENDBRANCH   1  13
TORSDOF 20
ENDMDL
MODEL 6
REMARK VINA RESULT:    -6.020      4.413     11.064
REMARK INTER + INTRA:         -14.303
REMARK INTER:                 -12.657
REMARK INTRA:                  -1.646
REMARK UNBOUND:                -1.246
REMARK SMILES CCCCCCCCCCCCCCCCCCCCCC(=O)[O-]
REMARK SMILES IDX 12 1 11 2 10 3 9 4 8 5 7 6 6 7 5 8 4 9 3 10 2 11 1 12 13 13
REMARK SMILES IDX 14 14 15 15 16 16 17 17 18 18 19 19 20 20 21 21 22 22 23 23
REMARK SMILES IDX 24 24
REMARK H PARENT
REMARK Flexibility Score: inf
ROOT
ATOM      1  C   UNL     1      88.481 324.591 201.578  1.00  0.00     0.000 C 
ENDROOT
BRANCH   1   2
ATOM      2  C   UNL     1      88.659 326.040 201.088  1.00  0.00     0.000 C 
BRANCH   2   3
ATOM      3  C   UNL     1      89.604 326.147 199.879  1.00  0.00     0.000 C 
BRANCH   3   4
ATOM      4  C   UNL     1      88.924 326.757 198.639  1.00  0.00    -0.000 C 
BRANCH   4   5
ATOM      5  C   UNL     1      88.621 325.760 197.501  1.00  0.00    -0.000 C 
BRANCH   5   6
ATOM      6  C   UNL     1      88.252 326.400 196.149  1.00  0.00    -0.000 C 
BRANCH   6   7
ATOM      7  C   UNL     1      86.762 326.315 195.773  1.00  0.00    -0.000 C 
BRANCH   7   8
ATOM      8  C   UNL     1      86.540 326.069 194.270  1.00  0.00    -0.000 C 
BRANCH   8   9
ATOM      9  C   UNL     1      87.859 325.932 193.493  1.00  0.00    -0.000 C 
BRANCH   9  10
ATOM     10  C   UNL     1      88.120 324.490 193.021  1.00  0.00    -0.000 C 
BRANCH  10  11
ATOM     11  C   UNL     1      87.591 324.231 191.602  1.00  0.00    -0.003 C 
ATOM     12  C   UNL     1      88.624 323.558 190.701  1.00  0.00     0.004 C 
ENDBRANCH  10  11
ENDBRANCH   9  10
ENDBRANCH   8   9
ENDBRANCH   7   8
ENDBRANCH   6   7
ENDBRANCH   5   6
ENDBRANCH   4   5
ENDBRANCH   3   4
ENDBRANCH   2   3
ENDBRANCH   1   2
BRANCH   1  13
ATOM     13  C   UNL     1      87.116 324.279 202.225  1.00  0.00     0.000 C 
BRANCH  13  14
ATOM     14  C   UNL     1      87.120 323.120 203.238  1.00  0.00     0.000 C 
BRANCH  14  15
ATOM     15  C   UNL     1      86.540 323.520 204.602  1.00  0.00     0.000 C 
BRANCH  15  16
ATOM     16  C   UNL     1      87.653 323.929 205.579  1.00  0.00     0.000 C 
BRANCH  16  17
ATOM     17  C   UNL     1      87.544 325.399 206.030  1.00  0.00     0.000 C 
BRANCH  17  18
ATOM     18  C   UNL     1      88.819 325.978 206.670  1.00  0.00     0.000 C 
BRANCH  18  19
ATOM     19  C   UNL     1      89.309 327.260 205.974  1.00  0.00     0.000 C 
BRANCH  19  20
ATOM     20  C   UNL     1      89.385 327.110 204.447  1.00  0.00     0.006 C 
BRANCH  20  21
ATOM     21  C   UNL     1      90.727 327.580 203.869  1.00  0.00     0.053 C 
BRANCH  21  22
ATOM     22  C   UNL     1      91.519 326.413 203.369  1.00  0.00     0.041 C 
ATOM     23  O   UNL     1      91.207 325.242 203.711  1.00  0.00    -0.550 OA
ATOM     24  O   UNL     1      92.579 326.614 202.492  1.00  0.00    -0.550 OA
ENDBRANCH  21  22
ENDBRANCH  20  21
ENDBRANCH  19  20
ENDBRANCH  18  19
ENDBRANCH  17  18
ENDBRANCH  16  17
ENDBRANCH  15  16
ENDBRANCH  14  15
ENDBRANCH  13  14
ENDBRANCH   1  13
TORSDOF 20
ENDMDL
MODEL 7
REMARK VINA RESULT:    -6.012      5.015     12.038
REMARK INTER + INTRA:         -14.287
REMARK INTER:                 -13.024
REMARK INTRA:                  -1.262
REMARK UNBOUND:                -1.246
REMARK SMILES CCCCCCCCCCCCCCCCCCCCCC(=O)[O-]
REMARK SMILES IDX 12 1 11 2 10 3 9 4 8 5 7 6 6 7 5 8 4 9 3 10 2 11 1 12 13 13
REMARK SMILES IDX 14 14 15 15 16 16 17 17 18 18 19 19 20 20 21 21 22 22 23 23
REMARK SMILES IDX 24 24
REMARK H PARENT
REMARK Flexibility Score: inf
ROOT
ATOM      1  C   UNL     1      89.293 324.848 198.837  1.00  0.00     0.000 C 
ENDROOT
BRANCH   1   2
ATOM      2  C   UNL     1      88.799 324.946 197.383  1.00  0.00     0.000 C 
BRANCH   2   3
ATOM      3  C   UNL     1      88.603 326.399 196.918  1.00  0.00     0.000 C 
BRANCH   3   4
ATOM      4  C   UNL     1      88.238 326.508 195.426  1.00  0.00    -0.000 C 
BRANCH   4   5
ATOM      5  C   UNL     1      86.752 326.265 195.095  1.00  0.00    -0.000 C 
BRANCH   5   6
ATOM      6  C   UNL     1      86.490 325.401 193.845  1.00  0.00    -0.000 C 
BRANCH   6   7
ATOM      7  C   UNL     1      87.751 324.975 193.073  1.00  0.00    -0.000 C 
BRANCH   7   8
ATOM      8  C   UNL     1      88.222 323.556 193.436  1.00  0.00    -0.000 C 
BRANCH   8   9
ATOM      9  C   UNL     1      88.513 322.695 192.196  1.00  0.00    -0.000 C 
BRANCH   9  10
ATOM     10  C   UNL     1      88.464 323.506 190.888  1.00  0.00    -0.000 C 
BRANCH  10  11
ATOM     11  C   UNL     1      89.184 322.798 189.730  1.00  0.00    -0.003 C 
ATOM     12  C   UNL     1      89.771 323.776 188.714  1.00  0.00     0.004 C 
ENDBRANCH  10  11
ENDBRANCH   9  10
ENDBRANCH   8   9
ENDBRANCH   7   8
ENDBRANCH   6   7
ENDBRANCH   5   6
ENDBRANCH   4   5
ENDBRANCH   3   4
ENDBRANCH   2   3
ENDBRANCH   1   2
BRANCH   1  13
ATOM     13  C   UNL     1      89.261 326.169 199.634  1.00  0.00     0.000 C 
BRANCH  13  14
ATOM     14  C   UNL     1      89.022 326.016 201.147  1.00  0.00     0.000 C 
BRANCH  14  15
ATOM     15  C   UNL     1      88.026 324.896 201.481  1.00  0.00     0.000 C 
BRANCH  15  16
ATOM     16  C   UNL     1      88.109 324.505 202.965  1.00  0.00     0.000 C 
BRANCH  16  17
ATOM     17  C   UNL     1      86.861 323.746 203.455  1.00  0.00     0.000 C 
BRANCH  17  18
ATOM     18  C   UNL     1      86.472 324.013 204.920  1.00  0.00     0.000 C 
BRANCH  18  19
ATOM     19  C   UNL     1      87.677 324.385 205.801  1.00  0.00     0.000 C 
BRANCH  19  20
ATOM     20  C   UNL     1      87.621 325.840 206.295  1.00  0.00     0.006 C 
BRANCH  20  21
ATOM     21  C   UNL     1      88.966 326.336 206.841  1.00  0.00     0.053 C 
BRANCH  21  22
ATOM     22  C   UNL     1      89.675 327.163 205.816  1.00  0.00     0.041 C 
ATOM     23  O   UNL     1      90.843 327.579 206.035  1.00  0.00    -0.550 OA
ATOM     24  O   UNL     1      89.062 327.442 204.601  1.00  0.00    -0.550 OA
ENDBRANCH  21  22
ENDBRANCH  20  21
ENDBRANCH  19  20
ENDBRANCH  18  19
ENDBRANCH  17  18
ENDBRANCH  16  17
ENDBRANCH  15  16
ENDBRANCH  14  15
ENDBRANCH  13  14
ENDBRANCH   1  13
TORSDOF 20
ENDMDL
MODEL 8
REMARK VINA RESULT:    -5.980     19.612     22.802
REMARK INTER + INTRA:         -14.217
REMARK INTER:                 -12.284
REMARK INTRA:                  -1.933
REMARK UNBOUND:                -1.246
REMARK SMILES CCCCCCCCCCCCCCCCCCCCCC(=O)[O-]
REMARK SMILES IDX 12 1 11 2 10 3 9 4 8 5 7 6 6 7 5 8 4 9 3 10 2 11 1 12 13 13
REMARK SMILES IDX 14 14 15 15 16 16 17 17 18 18 19 19 20 20 21 21 22 22 23 23
REMARK SMILES IDX 24 24
REMARK H PARENT
REMARK Flexibility Score: inf
ROOT
ATOM      1  C   UNL     1     104.338 311.879 200.533  1.00  0.00     0.000 C 
ENDROOT
BRANCH   1   2
ATOM      2  C   UNL     1     103.278 311.550 199.466  1.00  0.00     0.000 C 
BRANCH   2   3
ATOM      3  C   UNL     1     103.523 312.284 198.137  1.00  0.00     0.000 C 
BRANCH   3   4
ATOM      4  C   UNL     1     103.881 311.331 196.981  1.00  0.00    -0.000 C 
BRANCH   4   5
ATOM      5  C   UNL     1     103.879 311.973 195.579  1.00  0.00    -0.000 C 
BRANCH   5   6
ATOM      6  C   UNL     1     105.270 312.157 194.940  1.00  0.00    -0.000 C 
BRANCH   6   7
ATOM      7  C   UNL     1     105.443 311.503 193.557  1.00  0.00    -0.000 C 
BRANCH   7   8
ATOM      8  C   UNL     1     105.545 312.533 192.419  1.00  0.00    -0.000 C 
BRANCH   8   9
ATOM      9  C   UNL     1     104.186 312.823 191.762  1.00  0.00    -0.000 C 
BRANCH   9  10
ATOM     10  C   UNL     1     104.132 314.213 191.102  1.00  0.00    -0.000 C 
BRANCH  10  11
ATOM     11  C   UNL     1     103.107 314.282 189.960  1.00  0.00    -0.003 C 
ATOM     12  C   UNL     1     103.639 315.023 188.734  1.00  0.00     0.004 C 
ENDBRANCH  10  11
ENDBRANCH   9  10
ENDBRANCH   8   9
ENDBRANCH   7   8
ENDBRANCH   6   7
ENDBRANCH   5   6
ENDBRANCH   4   5
ENDBRANCH   3   4
ENDBRANCH   2   3
ENDBRANCH   1   2
BRANCH   1  13
ATOM     13  C   UNL     1     104.538 313.382 200.819  1.00  0.00     0.000 C 
BRANCH  13  14
ATOM     14  C   UNL     1     105.424 313.705 202.036  1.00  0.00     0.000 C 
BRANCH  14  15
ATOM     15  C   UNL     1     104.774 314.714 202.993  1.00  0.00     0.000 C 
BRANCH  15  16
ATOM     16  C   UNL     1     104.897 314.252 204.454  1.00  0.00     0.000 C 
BRANCH  16  17
ATOM     17  C   UNL     1     105.602 312.889 204.592  1.00  0.00     0.000 C 
BRANCH  17  18
ATOM     18  C   UNL     1     104.719 311.754 205.145  1.00  0.00     0.000 C 
BRANCH  18  19
ATOM     19  C   UNL     1     104.291 310.747 204.063  1.00  0.00     0.000 C 
BRANCH  19  20
ATOM     20  C   UNL     1     102.765 310.669 203.900  1.00  0.00     0.006 C 
BRANCH  20  21
ATOM     21  C   UNL     1     102.140 312.009 203.487  1.00  0.00     0.053 C 
BRANCH  21  22
ATOM     22  C   UNL     1     100.939 311.783 202.624  1.00  0.00     0.041 C 
ATOM     23  O   UNL     1     100.882 310.778 201.868  1.00  0.00    -0.550 OA
ATOM     24  O   UNL     1      99.864 312.661 202.684  1.00  0.00    -0.550 OA
ENDBRANCH  21  22
ENDBRANCH  20  21
ENDBRANCH  19  20
ENDBRANCH  18  19
ENDBRANCH  17  18
ENDBRANCH  16  17
ENDBRANCH  15  16
ENDBRANCH  14  15
ENDBRANCH  13  14
ENDBRANCH   1  13
TORSDOF 20
ENDMDL
MODEL 9
REMARK VINA RESULT:    -5.966     19.781     23.335
REMARK INTER + INTRA:         -14.186
REMARK INTER:                 -12.700
REMARK INTRA:                  -1.486
REMARK UNBOUND:                -1.246
REMARK SMILES CCCCCCCCCCCCCCCCCCCCCC(=O)[O-]
REMARK SMILES IDX 12 1 11 2 10 3 9 4 8 5 7 6 6 7 5 8 4 9 3 10 2 11 1 12 13 13
REMARK SMILES IDX 14 14 15 15 16 16 17 17 18 18 19 19 20 20 21 21 22 22 23 23
REMARK SMILES IDX 24 24
REMARK H PARENT
REMARK Flexibility Score: inf
ROOT
ATOM      1  C   UNL     1     103.474 312.224 198.152  1.00  0.00     0.000 C 
ENDROOT
BRANCH   1   2
ATOM      2  C   UNL     1     103.864 311.155 197.116  1.00  0.00     0.000 C 
BRANCH   2   3
ATOM      3  C   UNL     1     103.549 311.581 195.672  1.00  0.00     0.000 C 
BRANCH   3   4
ATOM      4  C   UNL     1     104.811 311.916 194.855  1.00  0.00    -0.000 C 
BRANCH   4   5
ATOM      5  C   UNL     1     104.665 311.753 193.329  1.00  0.00    -0.000 C 
BRANCH   5   6
ATOM      6  C   UNL     1     105.839 312.303 192.495  1.00  0.00    -0.000 C 
BRANCH   6   7
ATOM      7  C   UNL     1     105.493 313.501 191.593  1.00  0.00    -0.000 C 
BRANCH   7   8
ATOM      8  C   UNL     1     103.982 313.635 191.334  1.00  0.00    -0.000 C 
BRANCH   8   9
ATOM      9  C   UNL     1     103.462 315.058 191.596  1.00  0.00    -0.000 C 
BRANCH   9  10
ATOM     10  C   UNL     1     102.944 315.743 190.319  1.00  0.00    -0.000 C 
BRANCH  10  11
ATOM     11  C   UNL     1     102.955 314.805 189.103  1.00  0.00    -0.003 C 
ATOM     12  C   UNL     1     103.872 315.298 187.985  1.00  0.00     0.004 C 
ENDBRANCH  10  11
ENDBRANCH   9  10
ENDBRANCH   8   9
ENDBRANCH   7   8
ENDBRANCH   6   7
ENDBRANCH   5   6
ENDBRANCH   4   5
ENDBRANCH   3   4
ENDBRANCH   2   3
ENDBRANCH   1   2
BRANCH   1  13
ATOM     13  C   UNL     1     103.127 311.685 199.555  1.00  0.00     0.000 C 
BRANCH  13  14
ATOM     14  C   UNL     1     104.151 312.017 200.656  1.00  0.00     0.000 C 
BRANCH  14  15
ATOM     15  C   UNL     1     104.079 311.050 201.846  1.00  0.00     0.000 C 
BRANCH  15  16
ATOM     16  C   UNL     1     102.705 311.117 202.532  1.00  0.00     0.000 C 
BRANCH  16  17
ATOM     17  C   UNL     1     102.806 311.190 204.068  1.00  0.00     0.000 C 
BRANCH  17  18
ATOM     18  C   UNL     1     104.183 310.815 204.647  1.00  0.00     0.000 C 
BRANCH  18  19
ATOM     19  C   UNL     1     104.502 311.553 205.958  1.00  0.00     0.000 C 
BRANCH  19  20
ATOM     20  C   UNL     1     104.762 313.052 205.744  1.00  0.00     0.006 C 
BRANCH  20  21
ATOM     21  C   UNL     1     105.905 313.324 204.756  1.00  0.00     0.053 C 
BRANCH  21  22
ATOM     22  C   UNL     1     105.400 314.069 203.562  1.00  0.00     0.041 C 
ATOM     23  O   UNL     1     106.113 314.168 202.529  1.00  0.00    -0.550 OA
ATOM     24  O   UNL     1     104.125 314.621 203.573  1.00  0.00    -0.550 OA
ENDBRANCH  21  22
ENDBRANCH  20  21
ENDBRANCH  19  20
ENDBRANCH  18  19
ENDBRANCH  17  18
ENDBRANCH  16  17
ENDBRANCH  15  16
ENDBRANCH  14  15
ENDBRANCH  13  14
ENDBRANCH   1  13
TORSDOF 20
ENDMDL
