MODEL 1
REMARK VINA RESULT:    -3.111      0.000      0.000
REMARK INTER + INTRA:         -10.405
REMARK INTER:                  -8.205
REMARK INTRA:                  -2.200
REMARK UNBOUND:                -2.200
REMARK SMILES CCCCCCCCCCCCCCCCCCCCCCCCCCCCCC(=O)[O-]
REMARK SMILES IDX 16 1 17 2 18 3 19 4 20 5 21 6 22 7 23 8 24 9 25 10 26 11
REMARK SMILES IDX 27 12 28 13 29 14 30 15 31 16 32 17 15 18 14 19 13 20 12 21
REMARK SMILES IDX 11 22 10 23 9 24 8 25 7 26 6 27 5 28 4 29 3 30 2 31 1 32
REMARK H PARENT
REMARK Flexibility Score: inf
ROOT
ATOM      1  C   UNL     1      -6.249  -7.854   5.213  1.00  0.00     0.000 C 
ENDROOT
BRANCH   1   2
ATOM      2  C   UNL     1      -5.954  -9.088   6.082  1.00  0.00     0.000 C 
BRANCH   2   3
ATOM      3  C   UNL     1      -7.210  -9.941   6.329  1.00  0.00     0.000 C 
BRANCH   3   4
ATOM      4  C   UNL     1      -8.509  -9.105   6.266  1.00  0.00     0.000 C 
BRANCH   4   5
ATOM      5  C   UNL     1      -8.901  -8.481   7.618  1.00  0.00     0.000 C 
BRANCH   5   6
ATOM      6  C   UNL     1      -8.391  -9.240   8.860  1.00  0.00     0.000 C 
BRANCH   6   7
ATOM      7  C   UNL     1      -7.609  -8.355   9.856  1.00  0.00     0.000 C 
BRANCH   7   8
ATOM      8  C   UNL     1      -6.263  -7.879   9.293  1.00  0.00     0.000 C 
BRANCH   8   9
ATOM      9  C   UNL     1      -5.744  -6.650  10.053  1.00  0.00     0.000 C 
BRANCH   9  10
ATOM     10  C   UNL     1      -4.340  -6.212   9.593  1.00  0.00     0.000 C 
BRANCH  10  11
ATOM     11  C   UNL     1      -4.133  -4.687   9.486  1.00  0.00     0.000 C 
BRANCH  11  12
ATOM     12  C   UNL     1      -5.379  -3.887   9.061  1.00  0.00     0.000 C 
BRANCH  12  13
ATOM     13  C   UNL     1      -5.274  -3.204   7.686  1.00  0.00     0.006 C 
BRANCH  13  14
ATOM     14  C   UNL     1      -4.382  -3.973   6.704  1.00  0.00     0.053 C 
BRANCH  14  15
ATOM     15  C   UNL     1      -4.212  -3.192   5.436  1.00  0.00     0.041 C 
ATOM     16  O   UNL     1      -4.884  -2.144   5.239  1.00  0.00    -0.550 OA
ATOM     17  O   UNL     1      -3.267  -3.591   4.498  1.00  0.00    -0.550 OA
ENDBRANCH  14  15
ENDBRANCH  13  14
ENDBRANCH  12  13
ENDBRANCH  11  12
ENDBRANCH  10  11
ENDBRANCH   9  10
ENDBRANCH   8   9
ENDBRANCH   7   8
ENDBRANCH   6   7
ENDBRANCH   5   6
ENDBRANCH   4   5
ENDBRANCH   3   4
ENDBRANCH   2   3
ENDBRANCH   1   2
BRANCH   1  18
ATOM     18  C   UNL     1      -5.916  -6.537   5.942  1.00  0.00     0.000 C 
BRANCH  18  19
ATOM     19  C   UNL     1      -7.093  -6.003   6.775  1.00  0.00     0.000 C 
BRANCH  19  20
ATOM     20  C   UNL     1      -8.276  -5.536   5.911  1.00  0.00     0.000 C 
BRANCH  20  21
ATOM     21  C   UNL     1      -9.337  -4.762   6.716  1.00  0.00     0.000 C 
BRANCH  21  22
ATOM     22  C   UNL     1      -8.804  -3.980   7.935  1.00  0.00     0.000 C 
BRANCH  22  23
ATOM     23  C   UNL     1      -9.560  -2.675   8.265  1.00  0.00     0.000 C 
BRANCH  23  24
ATOM     24  C   UNL     1      -9.858  -2.476   9.762  1.00  0.00    -0.000 C 
BRANCH  24  25
ATOM     25  C   UNL     1     -10.125  -1.002  10.113  1.00  0.00    -0.000 C 
BRANCH  25  26
ATOM     26  C   UNL     1      -9.053  -0.056   9.549  1.00  0.00    -0.000 C 
BRANCH  26  27
ATOM     27  C   UNL     1      -9.260   0.341   8.074  1.00  0.00    -0.000 C 
BRANCH  27  28
ATOM     28  C   UNL     1      -9.619   1.823   7.831  1.00  0.00    -0.000 C 
BRANCH  28  29
ATOM     29  C   UNL     1      -9.116   2.779   8.931  1.00  0.00    -0.000 C 
BRANCH  29  30
ATOM     30  C   UNL     1      -7.577   2.869   8.978  1.00  0.00    -0.000 C 
BRANCH  30  31
ATOM     31  C   UNL     1      -7.076   3.891  10.008  1.00  0.00    -0.003 C 
ATOM     32  C   UNL     1      -6.085   4.891   9.411  1.00  0.00     0.004 C 
ENDBRANCH  30  31
ENDBRANCH  29  30
ENDBRANCH  28  29
ENDBRANCH  27  28
ENDBRANCH  26  27
ENDBRANCH  25  26
ENDBRANCH  24  25
ENDBRANCH  23  24
ENDBRANCH  22  23
ENDBRANCH  21  22
ENDBRANCH  20  21
ENDBRANCH  19  20
ENDBRANCH  18  19
ENDBRANCH   1  18
TORSDOF 28
ENDMDL
MODEL 2
REMARK VINA RESULT:    -2.585      2.200      4.174
REMARK INTER + INTRA:          -9.018
REMARK INTER:                  -6.616
REMARK INTRA:                  -2.401
REMARK UNBOUND:                -2.200
REMARK SMILES CCCCCCCCCCCCCCCCCCCCCCCCCCCCCC(=O)[O-]
REMARK SMILES IDX 16 1 17 2 18 3 19 4 20 5 21 6 22 7 23 8 24 9 25 10 26 11
REMARK SMILES IDX 27 12 28 13 29 14 30 15 31 16 32 17 15 18 14 19 13 20 12 21
REMARK SMILES IDX 11 22 10 23 9 24 8 25 7 26 6 27 5 28 4 29 3 30 2 31 1 32
REMARK H PARENT
REMARK Flexibility Score: inf
ROOT
ATOM      1  C   UNL     1      -4.708  -5.343   6.409  1.00  0.00     0.000 C 
ENDROOT
BRANCH   1   2
ATOM      2  C   UNL     1      -3.773  -5.965   7.460  1.00  0.00     0.000 C 
BRANCH   2   3
ATOM      3  C   UNL     1      -3.508  -5.015   8.640  1.00  0.00     0.000 C 
BRANCH   3   4
ATOM      4  C   UNL     1      -4.370  -5.358   9.876  1.00  0.00     0.000 C 
BRANCH   4   5
ATOM      5  C   UNL     1      -5.853  -4.975   9.713  1.00  0.00     0.000 C 
BRANCH   5   6
ATOM      6  C   UNL     1      -6.859  -6.070  10.125  1.00  0.00     0.000 C 
BRANCH   6   7
ATOM      7  C   UNL     1      -8.102  -6.151   9.212  1.00  0.00     0.000 C 
BRANCH   7   8
ATOM      8  C   UNL     1      -9.103  -7.221   9.670  1.00  0.00     0.000 C 
BRANCH   8   9
ATOM      9  C   UNL     1      -8.409  -8.571   9.899  1.00  0.00     0.000 C 
BRANCH   9  10
ATOM     10  C   UNL     1      -7.970  -9.248   8.586  1.00  0.00     0.000 C 
BRANCH  10  11
ATOM     11  C   UNL     1      -6.447  -9.284   8.345  1.00  0.00     0.000 C 
BRANCH  11  12
ATOM     12  C   UNL     1      -5.997  -8.823   6.945  1.00  0.00     0.000 C 
BRANCH  12  13
ATOM     13  C   UNL     1      -7.125  -8.700   5.906  1.00  0.00     0.006 C 
BRANCH  13  14
ATOM     14  C   UNL     1      -7.535  -7.247   5.639  1.00  0.00     0.053 C 
BRANCH  14  15
ATOM     15  C   UNL     1      -9.027  -7.109   5.700  1.00  0.00     0.041 C 
ATOM     16  O   UNL     1      -9.768  -8.106   5.486  1.00  0.00    -0.550 OA
ATOM     17  O   UNL     1      -9.596  -5.891   6.052  1.00  0.00    -0.550 OA
ENDBRANCH  14  15
ENDBRANCH  13  14
ENDBRANCH  12  13
ENDBRANCH  11  12
ENDBRANCH  10  11
ENDBRANCH   9  10
ENDBRANCH   8   9
ENDBRANCH   7   8
ENDBRANCH   6   7
ENDBRANCH   5   6
ENDBRANCH   4   5
ENDBRANCH   3   4
ENDBRANCH   2   3
ENDBRANCH   1   2
BRANCH   1  18
ATOM     18  C   UNL     1      -4.228  -3.950   5.957  1.00  0.00     0.000 C 
BRANCH  18  19
ATOM     19  C   UNL     1      -5.285  -2.855   6.178  1.00  0.00     0.000 C 
BRANCH  19  20
ATOM     20  C   UNL     1      -6.605  -3.401   6.746  1.00  0.00     0.000 C 
BRANCH  20  21
ATOM     21  C   UNL     1      -7.165  -2.539   7.894  1.00  0.00     0.000 C 
BRANCH  21  22
ATOM     22  C   UNL     1      -8.269  -1.538   7.492  1.00  0.00     0.000 C 
BRANCH  22  23
ATOM     23  C   UNL     1      -9.717  -2.040   7.683  1.00  0.00     0.000 C 
BRANCH  23  24
ATOM     24  C   UNL     1     -10.036  -2.527   9.109  1.00  0.00    -0.000 C 
BRANCH  24  25
ATOM     25  C   UNL     1     -10.084  -1.370  10.123  1.00  0.00    -0.000 C 
BRANCH  25  26
ATOM     26  C   UNL     1     -10.040   0.011   9.448  1.00  0.00    -0.000 C 
BRANCH  26  27
ATOM     27  C   UNL     1      -8.621   0.554   9.192  1.00  0.00    -0.000 C 
BRANCH  27  28
ATOM     28  C   UNL     1      -8.170   1.698  10.125  1.00  0.00    -0.000 C 
BRANCH  28  29
ATOM     29  C   UNL     1      -7.444   2.850   9.400  1.00  0.00    -0.000 C 
BRANCH  29  30
ATOM     30  C   UNL     1      -8.304   4.127   9.310  1.00  0.00    -0.000 C 
BRANCH  30  31
ATOM     31  C   UNL     1      -9.732   3.845   8.822  1.00  0.00    -0.003 C 
ATOM     32  C   UNL     1      -9.791   3.523   7.328  1.00  0.00     0.004 C 
ENDBRANCH  30  31
ENDBRANCH  29  30
ENDBRANCH  28  29
ENDBRANCH  27  28
ENDBRANCH  26  27
ENDBRANCH  25  26
ENDBRANCH  24  25
ENDBRANCH  23  24
ENDBRANCH  22  23
ENDBRANCH  21  22
ENDBRANCH  20  21
ENDBRANCH  19  20
ENDBRANCH  18  19
ENDBRANCH   1  18
TORSDOF 28
ENDMDL
MODEL 3
REMARK VINA RESULT:    -2.518      2.200      4.042
REMARK INTER + INTRA:          -8.840
REMARK INTER:                  -6.573
REMARK INTRA:                  -2.267
REMARK UNBOUND:                -2.200
REMARK SMILES CCCCCCCCCCCCCCCCCCCCCCCCCCCCCC(=O)[O-]
REMARK SMILES IDX 16 1 17 2 18 3 19 4 20 5 21 6 22 7 23 8 24 9 25 10 26 11
REMARK SMILES IDX 27 12 28 13 29 14 30 15 31 16 32 17 15 18 14 19 13 20 12 21
REMARK SMILES IDX 11 22 10 23 9 24 8 25 7 26 6 27 5 28 4 29 3 30 2 31 1 32
REMARK H PARENT
REMARK Flexibility Score: inf
ROOT
ATOM      1  C   UNL     1      -3.312  -5.399   9.556  1.00  0.00     0.000 C 
ENDROOT
BRANCH   1   2
ATOM      2  C   UNL     1      -3.995  -6.678  10.068  1.00  0.00     0.000 C 
BRANCH   2   3
ATOM      3  C   UNL     1      -5.447  -6.801   9.578  1.00  0.00     0.000 C 
BRANCH   3   4
ATOM      4  C   UNL     1      -6.147  -8.066  10.125  1.00  0.00     0.000 C 
BRANCH   4   5
ATOM      5  C   UNL     1      -7.088  -8.735   9.106  1.00  0.00     0.000 C 
BRANCH   5   6
ATOM      6  C   UNL     1      -6.586 -10.077   8.536  1.00  0.00     0.000 C 
BRANCH   6   7
ATOM      7  C   UNL     1      -5.181 -10.000   7.899  1.00  0.00     0.000 C 
BRANCH   7   8
ATOM      8  C   UNL     1      -5.217 -10.114   6.370  1.00  0.00     0.000 C 
BRANCH   8   9
ATOM      9  C   UNL     1      -6.289  -9.194   5.767  1.00  0.00     0.000 C 
BRANCH   9  10
ATOM     10  C   UNL     1      -5.762  -7.777   5.472  1.00  0.00     0.000 C 
BRANCH  10  11
ATOM     11  C   UNL     1      -5.767  -6.812   6.675  1.00  0.00     0.000 C 
BRANCH  11  12
ATOM     12  C   UNL     1      -6.101  -5.347   6.336  1.00  0.00     0.000 C 
BRANCH  12  13
ATOM     13  C   UNL     1      -7.590  -4.976   6.451  1.00  0.00     0.006 C 
BRANCH  13  14
ATOM     14  C   UNL     1      -8.516  -6.195   6.374  1.00  0.00     0.053 C 
BRANCH  14  15
ATOM     15  C   UNL     1      -9.601  -6.089   7.404  1.00  0.00     0.041 C 
ATOM     16  O   UNL     1     -10.026  -7.120   7.990  1.00  0.00    -0.550 OA
ATOM     17  O   UNL     1     -10.100  -4.840   7.757  1.00  0.00    -0.550 OA
ENDBRANCH  14  15
ENDBRANCH  13  14
ENDBRANCH  12  13
ENDBRANCH  11  12
ENDBRANCH  10  11
ENDBRANCH   9  10
ENDBRANCH   8   9
ENDBRANCH   7   8
ENDBRANCH   6   7
ENDBRANCH   5   6
ENDBRANCH   4   5
ENDBRANCH   3   4
ENDBRANCH   2   3
ENDBRANCH   1   2
BRANCH   1  18
ATOM     18  C   UNL     1      -4.328  -4.385   8.993  1.00  0.00     0.000 C 
BRANCH  18  19
ATOM     19  C   UNL     1      -4.734  -3.315  10.020  1.00  0.00     0.000 C 
BRANCH  19  20
ATOM     20  C   UNL     1      -5.927  -2.463   9.560  1.00  0.00     0.000 C 
BRANCH  20  21
ATOM     21  C   UNL     1      -7.284  -3.153   9.795  1.00  0.00     0.000 C 
BRANCH  21  22
ATOM     22  C   UNL     1      -8.451  -2.631   8.931  1.00  0.00     0.000 C 
BRANCH  22  23
ATOM     23  C   UNL     1      -9.530  -1.832   9.693  1.00  0.00     0.000 C 
BRANCH  23  24
ATOM     24  C   UNL     1      -9.087  -0.422  10.125  1.00  0.00    -0.000 C 
BRANCH  24  25
ATOM     25  C   UNL     1      -8.701   0.462   8.925  1.00  0.00    -0.000 C 
BRANCH  25  26
ATOM     26  C   UNL     1      -9.837   1.404   8.494  1.00  0.00    -0.000 C 
BRANCH  26  27
ATOM     27  C   UNL     1      -9.469   2.370   7.351  1.00  0.00    -0.000 C 
BRANCH  27  28
ATOM     28  C   UNL     1      -9.167   3.822   7.782  1.00  0.00    -0.000 C 
BRANCH  28  29
ATOM     29  C   UNL     1      -9.105   4.022   9.310  1.00  0.00    -0.000 C 
BRANCH  29  30
ATOM     30  C   UNL     1      -7.678   3.851   9.870  1.00  0.00    -0.000 C 
BRANCH  30  31
ATOM     31  C   UNL     1      -6.785   5.069   9.594  1.00  0.00    -0.003 C 
ATOM     32  C   UNL     1      -5.295   4.750   9.729  1.00  0.00     0.004 C 
ENDBRANCH  30  31
ENDBRANCH  29  30
ENDBRANCH  28  29
ENDBRANCH  27  28
ENDBRANCH  26  27
ENDBRANCH  25  26
ENDBRANCH  24  25
ENDBRANCH  23  24
ENDBRANCH  22  23
ENDBRANCH  21  22
ENDBRANCH  20  21
ENDBRANCH  19  20
ENDBRANCH  18  19
ENDBRANCH   1  18
TORSDOF 28
ENDMDL
MODEL 4
REMARK VINA RESULT:    -2.505      1.357      3.328
REMARK INTER + INTRA:          -8.806
REMARK INTER:                  -7.219
REMARK INTRA:                  -1.587
REMARK UNBOUND:                -2.200
REMARK SMILES CCCCCCCCCCCCCCCCCCCCCCCCCCCCCC(=O)[O-]
REMARK SMILES IDX 16 1 17 2 18 3 19 4 20 5 21 6 22 7 23 8 24 9 25 10 26 11
REMARK SMILES IDX 27 12 28 13 29 14 30 15 31 16 32 17 15 18 14 19 13 20 12 21
REMARK SMILES IDX 11 22 10 23 9 24 8 25 7 26 6 27 5 28 4 29 3 30 2 31 1 32
REMARK H PARENT
REMARK Flexibility Score: inf
ROOT
ATOM      1  C   UNL     1      -3.166  -5.511   9.488  1.00  0.00     0.000 C 
ENDROOT
BRANCH   1   2
ATOM      2  C   UNL     1      -3.893  -6.808   9.883  1.00  0.00     0.000 C 
BRANCH   2   3
ATOM      3  C   UNL     1      -5.417  -6.698   9.710  1.00  0.00     0.000 C 
BRANCH   3   4
ATOM      4  C   UNL     1      -6.141  -8.030  10.012  1.00  0.00     0.000 C 
BRANCH   4   5
ATOM      5  C   UNL     1      -7.022  -8.526   8.852  1.00  0.00     0.000 C 
BRANCH   5   6
ATOM      6  C   UNL     1      -6.703  -9.950   8.352  1.00  0.00     0.000 C 
BRANCH   6   7
ATOM      7  C   UNL     1      -5.464 -10.028   7.433  1.00  0.00     0.000 C 
BRANCH   7   8
ATOM      8  C   UNL     1      -5.729  -9.460   6.033  1.00  0.00     0.000 C 
BRANCH   8   9
ATOM      9  C   UNL     1      -6.940  -8.516   6.034  1.00  0.00     0.000 C 
BRANCH   9  10
ATOM     10  C   UNL     1      -6.590  -7.096   5.547  1.00  0.00     0.000 C 
BRANCH  10  11
ATOM     11  C   UNL     1      -5.693  -6.279   6.500  1.00  0.00     0.000 C 
BRANCH  11  12
ATOM     12  C   UNL     1      -6.228  -4.880   6.860  1.00  0.00     0.000 C 
BRANCH  12  13
ATOM     13  C   UNL     1      -5.459  -3.708   6.225  1.00  0.00     0.006 C 
BRANCH  13  14
ATOM     14  C   UNL     1      -4.305  -4.168   5.327  1.00  0.00     0.053 C 
BRANCH  14  15
ATOM     15  C   UNL     1      -3.654  -2.986   4.673  1.00  0.00     0.041 C 
ATOM     16  O   UNL     1      -2.538  -3.110   4.101  1.00  0.00    -0.550 OA
ATOM     17  O   UNL     1      -4.311  -1.761   4.644  1.00  0.00    -0.550 OA
ENDBRANCH  14  15
ENDBRANCH  13  14
ENDBRANCH  12  13
ENDBRANCH  11  12
ENDBRANCH  10  11
ENDBRANCH   9  10
ENDBRANCH   8   9
ENDBRANCH   7   8
ENDBRANCH   6   7
ENDBRANCH   5   6
ENDBRANCH   4   5
ENDBRANCH   3   4
ENDBRANCH   2   3
ENDBRANCH   1   2
BRANCH   1  18
ATOM     18  C   UNL     1      -4.143  -4.424   8.998  1.00  0.00     0.000 C 
BRANCH  18  19
ATOM     19  C   UNL     1      -4.598  -3.482  10.125  1.00  0.00     0.000 C 
BRANCH  19  20
ATOM     20  C   UNL     1      -5.828  -2.642   9.745  1.00  0.00     0.000 C 
BRANCH  20  21
ATOM     21  C   UNL     1      -7.143  -3.444   9.802  1.00  0.00     0.000 C 
BRANCH  21  22
ATOM     22  C   UNL     1      -8.274  -2.926   8.888  1.00  0.00     0.000 C 
BRANCH  22  23
ATOM     23  C   UNL     1      -9.270  -1.955   9.557  1.00  0.00     0.000 C 
BRANCH  23  24
ATOM     24  C   UNL     1      -8.689  -0.562   9.862  1.00  0.00    -0.000 C 
BRANCH  24  25
ATOM     25  C   UNL     1      -9.194   0.509   8.879  1.00  0.00    -0.000 C 
BRANCH  25  26
ATOM     26  C   UNL     1      -9.768   1.744   9.592  1.00  0.00    -0.000 C 
BRANCH  26  27
ATOM     27  C   UNL     1     -10.117   2.918   8.657  1.00  0.00    -0.000 C 
BRANCH  27  28
ATOM     28  C   UNL     1      -9.393   4.247   8.964  1.00  0.00    -0.000 C 
BRANCH  28  29
ATOM     29  C   UNL     1      -8.382   4.157  10.125  1.00  0.00    -0.000 C 
BRANCH  29  30
ATOM     30  C   UNL     1      -7.100   4.969   9.856  1.00  0.00    -0.000 C 
BRANCH  30  31
ATOM     31  C   UNL     1      -6.021   4.150   9.132  1.00  0.00    -0.003 C 
ATOM     32  C   UNL     1      -5.808   2.772   9.760  1.00  0.00     0.004 C 
ENDBRANCH  30  31
ENDBRANCH  29  30
ENDBRANCH  28  29
ENDBRANCH  27  28
ENDBRANCH  26  27
ENDBRANCH  25  26
ENDBRANCH  24  25
ENDBRANCH  23  24
ENDBRANCH  22  23
ENDBRANCH  21  22
ENDBRANCH  20  21
ENDBRANCH  19  20
ENDBRANCH  18  19
ENDBRANCH   1  18
TORSDOF 28
ENDMDL
MODEL 5
REMARK VINA RESULT:    -2.471      2.618      7.623
REMARK INTER + INTRA:          -8.717
REMARK INTER:                  -5.243
REMARK INTRA:                  -3.474
REMARK UNBOUND:                -2.200
REMARK SMILES CCCCCCCCCCCCCCCCCCCCCCCCCCCCCC(=O)[O-]
REMARK SMILES IDX 16 1 17 2 18 3 19 4 20 5 21 6 22 7 23 8 24 9 25 10 26 11
REMARK SMILES IDX 27 12 28 13 29 14 30 15 31 16 32 17 15 18 14 19 13 20 12 21
REMARK SMILES IDX 11 22 10 23 9 24 8 25 7 26 6 27 5 28 4 29 3 30 2 31 1 32
REMARK H PARENT
REMARK Flexibility Score: inf
ROOT
ATOM      1  C   UNL     1      -5.092  -5.798   8.157  1.00  0.00     0.000 C 
ENDROOT
BRANCH   1   2
ATOM      2  C   UNL     1      -3.733  -5.378   7.572  1.00  0.00     0.000 C 
BRANCH   2   3
ATOM      3  C   UNL     1      -3.883  -4.413   6.384  1.00  0.00     0.000 C 
BRANCH   3   4
ATOM      4  C   UNL     1      -5.307  -4.439   5.783  1.00  0.00     0.000 C 
BRANCH   4   5
ATOM      5  C   UNL     1      -6.382  -3.882   6.734  1.00  0.00     0.000 C 
BRANCH   5   6
ATOM      6  C   UNL     1      -6.192  -2.406   7.142  1.00  0.00     0.000 C 
BRANCH   6   7
ATOM      7  C   UNL     1      -7.494  -1.710   7.596  1.00  0.00     0.000 C 
BRANCH   7   8
ATOM      8  C   UNL     1      -8.732  -2.598   7.419  1.00  0.00     0.000 C 
BRANCH   8   9
ATOM      9  C   UNL     1      -9.989  -1.922   7.985  1.00  0.00     0.000 C 
BRANCH   9  10
ATOM     10  C   UNL     1      -9.960  -1.799   9.521  1.00  0.00     0.000 C 
BRANCH  10  11
ATOM     11  C   UNL     1     -10.035  -0.357  10.063  1.00  0.00     0.000 C 
BRANCH  11  12
ATOM     12  C   UNL     1      -8.688   0.388  10.125  1.00  0.00     0.000 C 
BRANCH  12  13
ATOM     13  C   UNL     1      -8.561   1.583   9.163  1.00  0.00     0.006 C 
BRANCH  13  14
ATOM     14  C   UNL     1      -7.570   2.644   9.657  1.00  0.00     0.053 C 
BRANCH  14  15
ATOM     15  C   UNL     1      -7.717   3.904   8.858  1.00  0.00     0.041 C 
ATOM     16  O   UNL     1      -6.730   4.667   8.684  1.00  0.00    -0.550 OA
ATOM     17  O   UNL     1      -8.934   4.203   8.255  1.00  0.00    -0.550 OA
ENDBRANCH  14  15
ENDBRANCH  13  14
ENDBRANCH  12  13
ENDBRANCH  11  12
ENDBRANCH  10  11
ENDBRANCH   9  10
ENDBRANCH   8   9
ENDBRANCH   7   8
ENDBRANCH   6   7
ENDBRANCH   5   6
ENDBRANCH   4   5
ENDBRANCH   3   4
ENDBRANCH   2   3
ENDBRANCH   1   2
BRANCH   1  18
ATOM     18  C   UNL     1      -5.147  -5.615   9.687  1.00  0.00     0.000 C 
BRANCH  18  19
ATOM     19  C   UNL     1      -5.926  -4.357  10.108  1.00  0.00     0.000 C 
BRANCH  19  20
ATOM     20  C   UNL     1      -7.450  -4.545  10.046  1.00  0.00     0.000 C 
BRANCH  20  21
ATOM     21  C   UNL     1      -7.872  -6.027  10.066  1.00  0.00     0.000 C 
BRANCH  21  22
ATOM     22  C   UNL     1      -9.342  -6.302   9.682  1.00  0.00     0.000 C 
BRANCH  22  23
ATOM     23  C   UNL     1      -9.864  -7.710  10.038  1.00  0.00     0.000 C 
BRANCH  23  24
ATOM     24  C   UNL     1      -8.774  -8.796  10.091  1.00  0.00    -0.000 C 
BRANCH  24  25
ATOM     25  C   UNL     1      -8.880  -9.787   8.919  1.00  0.00    -0.000 C 
BRANCH  25  26
ATOM     26  C   UNL     1      -7.513 -10.125   8.303  1.00  0.00    -0.000 C 
BRANCH  26  27
ATOM     27  C   UNL     1      -7.267  -9.510   6.912  1.00  0.00    -0.000 C 
BRANCH  27  28
ATOM     28  C   UNL     1      -6.921  -8.005   6.904  1.00  0.00    -0.000 C 
BRANCH  28  29
ATOM     29  C   UNL     1      -7.600  -7.211   5.770  1.00  0.00    -0.000 C 
BRANCH  29  30
ATOM     30  C   UNL     1      -8.973  -7.795   5.380  1.00  0.00    -0.000 C 
BRANCH  30  31
ATOM     31  C   UNL     1     -10.125  -7.196   6.199  1.00  0.00    -0.003 C 
ATOM     32  C   UNL     1     -10.032  -5.674   6.321  1.00  0.00     0.004 C 
ENDBRANCH  30  31
ENDBRANCH  29  30
ENDBRANCH  28  29
ENDBRANCH  27  28
ENDBRANCH  26  27
ENDBRANCH  25  26
ENDBRANCH  24  25
ENDBRANCH  23  24
ENDBRANCH  22  23
ENDBRANCH  21  22
ENDBRANCH  20  21
ENDBRANCH  19  20
ENDBRANCH  18  19
ENDBRANCH   1  18
TORSDOF 28
ENDMDL
MODEL 6
REMARK VINA RESULT:    -2.398      3.057      8.137
REMARK INTER + INTRA:          -8.524
REMARK INTER:                  -5.184
REMARK INTRA:                  -3.340
REMARK UNBOUND:                -2.200
REMARK SMILES CCCCCCCCCCCCCCCCCCCCCCCCCCCCCC(=O)[O-]
REMARK SMILES IDX 16 1 17 2 18 3 19 4 20 5 21 6 22 7 23 8 24 9 25 10 26 11
REMARK SMILES IDX 27 12 28 13 29 14 30 15 31 16 32 17 15 18 14 19 13 20 12 21
REMARK SMILES IDX 11 22 10 23 9 24 8 25 7 26 6 27 5 28 4 29 3 30 2 31 1 32
REMARK H PARENT
REMARK Flexibility Score: inf
ROOT
ATOM      1  C   UNL     1      -4.561  -5.894   8.727  1.00  0.00     0.000 C 
ENDROOT
BRANCH   1   2
ATOM      2  C   UNL     1      -5.371  -6.400   7.521  1.00  0.00     0.000 C 
BRANCH   2   3
ATOM      3  C   UNL     1      -4.901  -5.772   6.198  1.00  0.00     0.000 C 
BRANCH   3   4
ATOM      4  C   UNL     1      -4.880  -4.227   6.257  1.00  0.00     0.000 C 
BRANCH   4   5
ATOM      5  C   UNL     1      -6.276  -3.602   6.439  1.00  0.00     0.000 C 
BRANCH   5   6
ATOM      6  C   UNL     1      -6.312  -2.329   7.309  1.00  0.00     0.000 C 
BRANCH   6   7
ATOM      7  C   UNL     1      -7.656  -1.570   7.250  1.00  0.00     0.000 C 
BRANCH   7   8
ATOM      8  C   UNL     1      -8.678  -2.096   8.266  1.00  0.00     0.000 C 
BRANCH   8   9
ATOM      9  C   UNL     1     -10.006  -1.330   8.170  1.00  0.00     0.000 C 
BRANCH   9  10
ATOM     10  C   UNL     1     -10.116  -0.192   9.203  1.00  0.00     0.000 C 
BRANCH  10  11
ATOM     11  C   UNL     1      -8.889  -0.024  10.123  1.00  0.00     0.000 C 
BRANCH  11  12
ATOM     12  C   UNL     1      -8.177   1.338  10.018  1.00  0.00     0.000 C 
BRANCH  12  13
ATOM     13  C   UNL     1      -8.659   2.237   8.866  1.00  0.00     0.006 C 
BRANCH  13  14
ATOM     14  C   UNL     1      -9.795   3.181   9.281  1.00  0.00     0.053 C 
BRANCH  14  15
ATOM     15  C   UNL     1      -9.361   4.608   9.140  1.00  0.00     0.041 C 
ATOM     16  O   UNL     1      -9.802   5.318   8.196  1.00  0.00    -0.550 OA
ATOM     17  O   UNL     1      -8.515   5.173  10.088  1.00  0.00    -0.550 OA
ENDBRANCH  14  15
ENDBRANCH  13  14
ENDBRANCH  12  13
ENDBRANCH  11  12
ENDBRANCH  10  11
ENDBRANCH   9  10
ENDBRANCH   8   9
ENDBRANCH   7   8
ENDBRANCH   6   7
ENDBRANCH   5   6
ENDBRANCH   4   5
ENDBRANCH   3   4
ENDBRANCH   2   3
ENDBRANCH   1   2
BRANCH   1  18
ATOM     18  C   UNL     1      -5.434  -5.736   9.987  1.00  0.00     0.000 C 
BRANCH  18  19
ATOM     19  C   UNL     1      -6.172  -4.388  10.035  1.00  0.00     0.000 C 
BRANCH  19  20
ATOM     20  C   UNL     1      -7.701  -4.538   9.987  1.00  0.00     0.000 C 
BRANCH  20  21
ATOM     21  C   UNL     1      -8.164  -6.001  10.123  1.00  0.00     0.000 C 
BRANCH  21  22
ATOM     22  C   UNL     1      -8.984  -6.549   8.935  1.00  0.00     0.000 C 
BRANCH  22  23
ATOM     23  C   UNL     1      -8.878  -5.734   7.629  1.00  0.00     0.000 C 
BRANCH  23  24
ATOM     24  C   UNL     1     -10.115  -5.833   6.718  1.00  0.00    -0.000 C 
BRANCH  24  25
ATOM     25  C   UNL     1      -9.796  -6.508   5.372  1.00  0.00    -0.000 C 
BRANCH  25  26
ATOM     26  C   UNL     1      -9.842  -8.043   5.454  1.00  0.00    -0.000 C 
BRANCH  26  27
ATOM     27  C   UNL     1     -10.124  -8.601   6.862  1.00  0.00    -0.000 C 
BRANCH  27  28
ATOM     28  C   UNL     1      -9.613 -10.034   7.122  1.00  0.00    -0.000 C 
BRANCH  28  29
ATOM     29  C   UNL     1      -8.527 -10.125   8.213  1.00  0.00    -0.000 C 
BRANCH  29  30
ATOM     30  C   UNL     1      -7.243  -9.360   7.833  1.00  0.00    -0.000 C 
BRANCH  30  31
ATOM     31  C   UNL     1      -6.395 -10.107   6.793  1.00  0.00    -0.003 C 
ATOM     32  C   UNL     1      -5.718  -9.163   5.798  1.00  0.00     0.004 C 
ENDBRANCH  30  31
ENDBRANCH  29  30
ENDBRANCH  28  29
ENDBRANCH  27  28
ENDBRANCH  26  27
ENDBRANCH  25  26
ENDBRANCH  24  25
ENDBRANCH  23  24
ENDBRANCH  22  23
ENDBRANCH  21  22
ENDBRANCH  20  21
ENDBRANCH  19  20
ENDBRANCH  18  19
ENDBRANCH   1  18
TORSDOF 28
ENDMDL
MODEL 7
REMARK VINA RESULT:    -1.995      2.637      7.671
REMARK INTER + INTRA:          -7.461
REMARK INTER:                  -5.110
REMARK INTRA:                  -2.351
REMARK UNBOUND:                -2.200
REMARK SMILES CCCCCCCCCCCCCCCCCCCCCCCCCCCCCC(=O)[O-]
REMARK SMILES IDX 16 1 17 2 18 3 19 4 20 5 21 6 22 7 23 8 24 9 25 10 26 11
REMARK SMILES IDX 27 12 28 13 29 14 30 15 31 16 32 17 15 18 14 19 13 20 12 21
REMARK SMILES IDX 11 22 10 23 9 24 8 25 7 26 6 27 5 28 4 29 3 30 2 31 1 32
REMARK H PARENT
REMARK Flexibility Score: inf
ROOT
ATOM      1  C   UNL     1      -4.782  -5.321   8.861  1.00  0.00     0.000 C 
ENDROOT
BRANCH   1   2
ATOM      2  C   UNL     1      -5.481  -5.599   7.519  1.00  0.00     0.000 C 
BRANCH   2   3
ATOM      3  C   UNL     1      -4.492  -6.038   6.426  1.00  0.00     0.000 C 
BRANCH   3   4
ATOM      4  C   UNL     1      -3.482  -4.924   6.066  1.00  0.00     0.000 C 
BRANCH   4   5
ATOM      5  C   UNL     1      -3.915  -4.073   4.858  1.00  0.00     0.000 C 
BRANCH   5   6
ATOM      6  C   UNL     1      -4.018  -2.558   5.130  1.00  0.00     0.000 C 
BRANCH   6   7
ATOM      7  C   UNL     1      -5.437  -2.089   5.522  1.00  0.00     0.000 C 
BRANCH   7   8
ATOM      8  C   UNL     1      -5.798  -2.444   6.970  1.00  0.00     0.000 C 
BRANCH   8   9
ATOM      9  C   UNL     1      -7.316  -2.596   7.144  1.00  0.00     0.000 C 
BRANCH   9  10
ATOM     10  C   UNL     1      -8.062  -1.248   7.085  1.00  0.00     0.000 C 
BRANCH  10  11
ATOM     11  C   UNL     1      -9.179  -1.072   8.134  1.00  0.00     0.000 C 
BRANCH  11  12
ATOM     12  C   UNL     1      -8.712  -0.544   9.504  1.00  0.00     0.000 C 
BRANCH  12  13
ATOM     13  C   UNL     1      -8.110   0.872   9.484  1.00  0.00     0.006 C 
BRANCH  13  14
ATOM     14  C   UNL     1      -9.176   1.973   9.455  1.00  0.00     0.053 C 
BRANCH  14  15
ATOM     15  C   UNL     1      -9.017   2.817   8.226  1.00  0.00     0.041 C 
ATOM     16  O   UNL     1      -9.741   2.613   7.215  1.00  0.00    -0.550 OA
ATOM     17  O   UNL     1      -8.107   3.868   8.220  1.00  0.00    -0.550 OA
ENDBRANCH  14  15
ENDBRANCH  13  14
ENDBRANCH  12  13
ENDBRANCH  11  12
ENDBRANCH  10  11
ENDBRANCH   9  10
ENDBRANCH   8   9
ENDBRANCH   7   8
ENDBRANCH   6   7
ENDBRANCH   5   6
ENDBRANCH   4   5
ENDBRANCH   3   4
ENDBRANCH   2   3
ENDBRANCH   1   2
BRANCH   1  18
ATOM     18  C   UNL     1      -5.790  -5.077  10.001  1.00  0.00     0.000 C 
BRANCH  18  19
ATOM     19  C   UNL     1      -6.371  -3.653   9.989  1.00  0.00     0.000 C 
BRANCH  19  20
ATOM     20  C   UNL     1      -7.907  -3.631   9.975  1.00  0.00     0.000 C 
BRANCH  20  21
ATOM     21  C   UNL     1      -8.529  -5.035  10.111  1.00  0.00     0.000 C 
BRANCH  21  22
ATOM     22  C   UNL     1      -8.641  -5.839   8.799  1.00  0.00     0.000 C 
BRANCH  22  23
ATOM     23  C   UNL     1      -9.753  -6.910   8.775  1.00  0.00     0.000 C 
BRANCH  23  24
ATOM     24  C   UNL     1      -9.985  -7.613  10.125  1.00  0.00    -0.000 C 
BRANCH  24  25
ATOM     25  C   UNL     1     -10.059  -9.144   9.980  1.00  0.00    -0.000 C 
BRANCH  25  26
ATOM     26  C   UNL     1      -9.233  -9.667   8.794  1.00  0.00    -0.000 C 
BRANCH  26  27
ATOM     27  C   UNL     1      -7.707  -9.613   9.003  1.00  0.00    -0.000 C 
BRANCH  27  28
ATOM     28  C   UNL     1      -6.912  -8.894   7.892  1.00  0.00    -0.000 C 
BRANCH  28  29
ATOM     29  C   UNL     1      -7.440  -9.161   6.469  1.00  0.00    -0.000 C 
BRANCH  29  30
ATOM     30  C   UNL     1      -7.388  -7.906   5.574  1.00  0.00    -0.000 C 
BRANCH  30  31
ATOM     31  C   UNL     1      -8.684  -7.084   5.632  1.00  0.00    -0.003 C 
ATOM     32  C   UNL     1      -9.931  -7.959   5.760  1.00  0.00     0.004 C 
ENDBRANCH  30  31
ENDBRANCH  29  30
ENDBRANCH  28  29
ENDBRANCH  27  28
ENDBRANCH  26  27
ENDBRANCH  25  26
ENDBRANCH  24  25
ENDBRANCH  23  24
ENDBRANCH  22  23
ENDBRANCH  21  22
ENDBRANCH  20  21
ENDBRANCH  19  20
ENDBRANCH  18  19
ENDBRANCH   1  18
TORSDOF 28
ENDMDL
MODEL 8
REMARK VINA RESULT:    -1.933      2.727      6.899
REMARK INTER + INTRA:          -7.297
REMARK INTER:                  -5.210
REMARK INTRA:                  -2.087
REMARK UNBOUND:                -2.200
REMARK SMILES CCCCCCCCCCCCCCCCCCCCCCCCCCCCCC(=O)[O-]
REMARK SMILES IDX 16 1 17 2 18 3 19 4 20 5 21 6 22 7 23 8 24 9 25 10 26 11
REMARK SMILES IDX 27 12 28 13 29 14 30 15 31 16 32 17 15 18 14 19 13 20 12 21
REMARK SMILES IDX 11 22 10 23 9 24 8 25 7 26 6 27 5 28 4 29 3 30 2 31 1 32
REMARK H PARENT
REMARK Flexibility Score: inf
ROOT
ATOM      1  C   UNL     1      -5.334  -9.297   6.923  1.00  0.00     0.000 C 
ENDROOT
BRANCH   1   2
ATOM      2  C   UNL     1      -5.737  -7.889   6.450  1.00  0.00     0.000 C 
BRANCH   2   3
ATOM      3  C   UNL     1      -5.064  -6.781   7.278  1.00  0.00     0.000 C 
BRANCH   3   4
ATOM      4  C   UNL     1      -5.261  -5.380   6.655  1.00  0.00     0.000 C 
BRANCH   4   5
ATOM      5  C   UNL     1      -5.774  -4.331   7.658  1.00  0.00     0.000 C 
BRANCH   5   6
ATOM      6  C   UNL     1      -4.831  -4.048   8.846  1.00  0.00     0.000 C 
BRANCH   6   7
ATOM      7  C   UNL     1      -5.492  -3.252   9.993  1.00  0.00     0.000 C 
BRANCH   7   8
ATOM      8  C   UNL     1      -5.309  -1.737   9.843  1.00  0.00     0.000 C 
BRANCH   8   9
ATOM      9  C   UNL     1      -6.619  -0.986  10.124  1.00  0.00     0.000 C 
BRANCH   9  10
ATOM     10  C   UNL     1      -7.842  -1.652   9.463  1.00  0.00     0.000 C 
BRANCH  10  11
ATOM     11  C   UNL     1      -8.499  -0.836   8.331  1.00  0.00     0.000 C 
BRANCH  11  12
ATOM     12  C   UNL     1      -9.489   0.248   8.798  1.00  0.00     0.000 C 
BRANCH  12  13
ATOM     13  C   UNL     1      -8.928   1.238   9.834  1.00  0.00     0.006 C 
BRANCH  13  14
ATOM     14  C   UNL     1      -7.780   2.093   9.282  1.00  0.00     0.053 C 
BRANCH  14  15
ATOM     15  C   UNL     1      -8.181   3.537   9.243  1.00  0.00     0.041 C 
ATOM     16  O   UNL     1      -9.205   3.930   9.863  1.00  0.00    -0.550 OA
ATOM     17  O   UNL     1      -7.388   4.458   8.569  1.00  0.00    -0.550 OA
ENDBRANCH  14  15
ENDBRANCH  13  14
ENDBRANCH  12  13
ENDBRANCH  11  12
ENDBRANCH  10  11
ENDBRANCH   9  10
ENDBRANCH   8   9
ENDBRANCH   7   8
ENDBRANCH   6   7
ENDBRANCH   5   6
ENDBRANCH   4   5
ENDBRANCH   3   4
ENDBRANCH   2   3
ENDBRANCH   1   2
BRANCH   1  18
ATOM     18  C   UNL     1      -5.651  -9.521   8.415  1.00  0.00     0.000 C 
BRANCH  18  19
ATOM     19  C   UNL     1      -7.056  -9.032   8.805  1.00  0.00     0.000 C 
BRANCH  19  20
ATOM     20  C   UNL     1      -7.821 -10.038   9.679  1.00  0.00     0.000 C 
BRANCH  20  21
ATOM     21  C   UNL     1      -9.342 -10.010   9.434  1.00  0.00     0.000 C 
BRANCH  21  22
ATOM     22  C   UNL     1     -10.094  -8.822  10.071  1.00  0.00     0.000 C 
BRANCH  22  23
ATOM     23  C   UNL     1      -9.311  -7.492  10.113  1.00  0.00     0.000 C 
BRANCH  23  24
ATOM     24  C   UNL     1     -10.105  -6.273   9.610  1.00  0.00    -0.000 C 
BRANCH  24  25
ATOM     25  C   UNL     1      -9.187  -5.143   9.112  1.00  0.00    -0.000 C 
BRANCH  25  26
ATOM     26  C   UNL     1      -9.972  -3.928   8.592  1.00  0.00    -0.000 C 
BRANCH  26  27
ATOM     27  C   UNL     1      -9.995  -3.788   7.057  1.00  0.00    -0.000 C 
BRANCH  27  28
ATOM     28  C   UNL     1     -10.125  -5.113   6.274  1.00  0.00    -0.000 C 
BRANCH  28  29
ATOM     29  C   UNL     1      -8.829  -5.949   6.237  1.00  0.00    -0.000 C 
BRANCH  29  30
ATOM     30  C   UNL     1      -8.759  -6.876   5.007  1.00  0.00    -0.000 C 
BRANCH  30  31
ATOM     31  C   UNL     1      -9.940  -7.855   4.936  1.00  0.00    -0.003 C 
ATOM     32  C   UNL     1      -9.807  -9.011   5.928  1.00  0.00     0.004 C 
ENDBRANCH  30  31
ENDBRANCH  29  30
ENDBRANCH  28  29
ENDBRANCH  27  28
ENDBRANCH  26  27
ENDBRANCH  25  26
ENDBRANCH  24  25
ENDBRANCH  23  24
ENDBRANCH  22  23
ENDBRANCH  21  22
ENDBRANCH  20  21
ENDBRANCH  19  20
ENDBRANCH  18  19
ENDBRANCH   1  18
TORSDOF 28
ENDMDL
