MODEL 1
REMARK VINA RESULT:    -5.279      0.000      0.000
REMARK INTER + INTRA:          -9.285
REMARK INTER:                  -7.748
REMARK INTRA:                  -1.537
REMARK UNBOUND:                -1.537
REMARK SMILES O=c1c(O[C@@H]2O[C@H](CO)[C@H](O)[C@H](O)[C@@H]2O)c(-c2ccc(O)c(O)c2)oc2cc(O)cc(O)c12
REMARK SMILES IDX 4 1 3 2 16 3 25 4 2 5 26 6 1 7 33 8 27 9 31 10 28 11 30 12
REMARK SMILES IDX 17 13 18 14 19 15 20 16 24 17 22 18 21 19 23 21 32 23 29 25
REMARK SMILES IDX 5 27 14 28 6 29 12 30 7 31 10 32 15 33 13 35 8 37 9 38 11 40
REMARK H PARENT 21 20 23 22 32 24 29 26 15 34 13 36 9 39 11 41
REMARK Flexibility Score: inf
ROOT
ATOM      1  O   UNL     1      33.973 173.547  31.353  1.00  0.00    -0.454 OA
ENDROOT
BRANCH   1   2
ATOM      2  C   UNL     1      32.675 173.321  31.858  1.00  0.00     0.214 A 
ATOM      3  C   UNL     1      31.935 174.422  32.336  1.00  0.00     0.180 A 
ATOM      4  O   UNL     1      30.737 174.230  32.874  1.00  0.00    -0.452 OA
ATOM      5  C   UNL     1      32.058 172.053  31.864  1.00  0.00     0.239 A 
ATOM      6  C   UNL     1      30.174 173.038  33.005  1.00  0.00     0.146 A 
ATOM      7  O   UNL     1      32.580 171.112  31.217  1.00  0.00    -0.285 OA
ATOM      8  C   UNL     1      30.819 171.873  32.522  1.00  0.00     0.111 A 
ATOM      9  C   UNL     1      28.921 172.958  33.618  1.00  0.00     0.094 A 
ATOM     10  C   UNL     1      30.168 170.612  32.702  1.00  0.00     0.134 A 
ATOM     11  C   UNL     1      28.285 171.730  33.769  1.00  0.00     0.123 A 
ATOM     12  C   UNL     1      28.903 170.568  33.301  1.00  0.00     0.093 A 
BRANCH   3  13
ATOM     13  C   UNL     1      32.411 175.823  32.224  1.00  0.00     0.025 A 
ATOM     14  C   UNL     1      33.206 176.429  33.212  1.00  0.00     0.016 A 
ATOM     15  C   UNL     1      33.603 177.763  33.080  1.00  0.00     0.051 A 
ATOM     16  C   UNL     1      33.214 178.513  31.966  1.00  0.00     0.157 A 
ATOM     17  C   UNL     1      31.999 176.590  31.119  1.00  0.00     0.062 A 
ATOM     18  C   UNL     1      32.403 177.925  30.981  1.00  0.00     0.158 A 
BRANCH  16  19
ATOM     19  O   UNL     1      33.639 179.836  31.851  1.00  0.00    -0.504 OA
ATOM     20  H   UNL     1      34.124 180.174  31.028  1.00  0.00     0.293 HD
ENDBRANCH  16  19
BRANCH  18  21
ATOM     21  O   UNL     1      32.004 178.669  29.871  1.00  0.00    -0.504 OA
ATOM     22  H   UNL     1      31.613 179.599  29.965  1.00  0.00     0.293 HD
ENDBRANCH  18  21
ENDBRANCH   3  13
BRANCH  10  23
ATOM     23  O   UNL     1      30.726 169.380  32.339  1.00  0.00    -0.507 OA
ATOM     24  H   UNL     1      30.227 168.615  31.910  1.00  0.00     0.293 HD
ENDBRANCH  10  23
BRANCH  11  25
ATOM     25  O   UNL     1      27.043 171.673  34.405  1.00  0.00    -0.508 OA
ATOM     26  H   UNL     1      26.705 170.819  34.835  1.00  0.00     0.293 HD
ENDBRANCH  11  25
ENDBRANCH   1   2
BRANCH   1  27
ATOM     27  C   UNL     1      35.230 173.032  31.829  1.00  0.00     0.339 C 
ATOM     28  C   UNL     1      35.965 172.079  30.823  1.00  0.00     0.214 C 
ATOM     29  O   UNL     1      36.050 174.077  32.312  1.00  0.00    -0.332 OA
ATOM     30  C   UNL     1      37.477 172.402  30.605  1.00  0.00     0.180 C 
ATOM     31  C   UNL     1      37.212 173.531  32.909  1.00  0.00     0.179 C 
ATOM     32  C   UNL     1      38.201 173.077  31.811  1.00  0.00     0.177 C 
BRANCH  28  33
ATOM     33  O   UNL     1      35.315 172.025  29.577  1.00  0.00    -0.384 OA
ATOM     34  H   UNL     1      35.991 172.219  28.881  1.00  0.00     0.211 HD
ENDBRANCH  28  33
BRANCH  30  35
ATOM     35  O   UNL     1      37.681 173.120  29.412  1.00  0.00    -0.387 OA
ATOM     36  H   UNL     1      38.517 172.780  29.005  1.00  0.00     0.211 HD
ENDBRANCH  30  35
BRANCH  31  37
ATOM     37  C   UNL     1      37.813 174.573  33.871  1.00  0.00     0.191 C 
BRANCH  37  38
ATOM     38  O   UNL     1      37.685 175.878  33.371  1.00  0.00    -0.394 OA
ATOM     39  H   UNL     1      38.557 176.332  33.520  1.00  0.00     0.210 HD
ENDBRANCH  37  38
ENDBRANCH  31  37
BRANCH  32  40
ATOM     40  O   UNL     1      38.980 174.166  31.377  1.00  0.00    -0.387 OA
ATOM     41  H   UNL     1      38.393 174.966  31.409  1.00  0.00     0.211 HD
ENDBRANCH  32  40
ENDBRANCH   1  27
TORSDOF 12
ENDMDL
MODEL 2
REMARK VINA RESULT:    -5.179      5.199     11.471
REMARK INTER + INTRA:          -9.137
REMARK INTER:                  -7.283
REMARK INTRA:                  -1.854
REMARK UNBOUND:                -1.537
REMARK SMILES O=c1c(O[C@@H]2O[C@H](CO)[C@H](O)[C@H](O)[C@@H]2O)c(-c2ccc(O)c(O)c2)oc2cc(O)cc(O)c12
REMARK SMILES IDX 4 1 3 2 16 3 25 4 2 5 26 6 1 7 33 8 27 9 31 10 28 11 30 12
REMARK SMILES IDX 17 13 18 14 19 15 20 16 24 17 22 18 21 19 23 21 32 23 29 25
REMARK SMILES IDX 5 27 14 28 6 29 12 30 7 31 10 32 15 33 13 35 8 37 9 38 11 40
REMARK H PARENT 21 20 23 22 32 24 29 26 15 34 13 36 9 39 11 41
REMARK Flexibility Score: inf
ROOT
ATOM      1  O   UNL     1      31.347 181.515  33.634  1.00  0.00    -0.454 OA
ENDROOT
BRANCH   1   2
ATOM      2  C   UNL     1      32.518 182.157  33.182  1.00  0.00     0.214 A 
ATOM      3  C   UNL     1      33.453 181.410  32.434  1.00  0.00     0.180 A 
ATOM      4  O   UNL     1      34.592 181.972  32.050  1.00  0.00    -0.452 OA
ATOM      5  C   UNL     1      32.783 183.525  33.398  1.00  0.00     0.239 A 
ATOM      6  C   UNL     1      34.927 183.221  32.336  1.00  0.00     0.146 A 
ATOM      7  O   UNL     1      31.866 184.269  33.826  1.00  0.00    -0.285 OA
ATOM      8  C   UNL     1      34.043 184.066  33.050  1.00  0.00     0.111 A 
ATOM      9  C   UNL     1      36.171 183.691  31.904  1.00  0.00     0.094 A 
ATOM     10  C   UNL     1      34.464 185.402  33.339  1.00  0.00     0.134 A 
ATOM     11  C   UNL     1      36.564 184.999  32.171  1.00  0.00     0.123 A 
ATOM     12  C   UNL     1      35.707 185.850  32.873  1.00  0.00     0.093 A 
BRANCH   3  13
ATOM     13  C   UNL     1      33.204 180.013  32.000  1.00  0.00     0.025 A 
ATOM     14  C   UNL     1      33.912 178.922  32.534  1.00  0.00     0.016 A 
ATOM     15  C   UNL     1      33.669 177.626  32.070  1.00  0.00     0.051 A 
ATOM     16  C   UNL     1      32.722 177.397  31.068  1.00  0.00     0.157 A 
ATOM     17  C   UNL     1      32.273 179.780  30.972  1.00  0.00     0.062 A 
ATOM     18  C   UNL     1      32.022 178.481  30.511  1.00  0.00     0.158 A 
BRANCH  16  19
ATOM     19  O   UNL     1      32.486 176.092  30.636  1.00  0.00    -0.504 OA
ATOM     20  H   UNL     1      32.846 175.746  29.754  1.00  0.00     0.293 HD
ENDBRANCH  16  19
BRANCH  18  21
ATOM     21  O   UNL     1      31.081 178.261  29.506  1.00  0.00    -0.504 OA
ATOM     22  H   UNL     1      31.235 177.579  28.772  1.00  0.00     0.293 HD
ENDBRANCH  18  21
ENDBRANCH   3  13
BRANCH  10  23
ATOM     23  O   UNL     1      33.720 186.314  34.097  1.00  0.00    -0.507 OA
ATOM     24  H   UNL     1      33.184 187.084  33.725  1.00  0.00     0.293 HD
ENDBRANCH  10  23
BRANCH  11  25
ATOM     25  O   UNL     1      37.819 185.439  31.748  1.00  0.00    -0.508 OA
ATOM     26  H   UNL     1      38.213 186.314  32.074  1.00  0.00     0.293 HD
ENDBRANCH  11  25
ENDBRANCH   1   2
BRANCH   1  27
ATOM     27  C   UNL     1      30.008 181.607  33.114  1.00  0.00     0.339 C 
ATOM     28  C   UNL     1      29.007 182.397  34.028  1.00  0.00     0.214 C 
ATOM     29  O   UNL     1      30.020 182.060  31.774  1.00  0.00    -0.332 OA
ATOM     30  C   UNL     1      28.152 183.470  33.284  1.00  0.00     0.180 C 
ATOM     31  C   UNL     1      28.709 181.998  31.241  1.00  0.00     0.179 C 
ATOM     32  C   UNL     1      27.869 183.179  31.778  1.00  0.00     0.177 C 
BRANCH  28  33
ATOM     33  O   UNL     1      29.655 182.993  35.125  1.00  0.00    -0.384 OA
ATOM     34  H   UNL     1      28.964 183.458  35.660  1.00  0.00     0.211 HD
ENDBRANCH  28  33
BRANCH  30  35
ATOM     35  O   UNL     1      28.677 184.763  33.471  1.00  0.00    -0.387 OA
ATOM     36  H   UNL     1      28.635 184.959  34.441  1.00  0.00     0.211 HD
ENDBRANCH  30  35
BRANCH  31  37
ATOM     37  C   UNL     1      28.799 181.968  29.704  1.00  0.00     0.191 C 
BRANCH  37  38
ATOM     38  O   UNL     1      29.945 182.632  29.237  1.00  0.00    -0.394 OA
ATOM     39  H   UNL     1      30.336 183.115  30.014  1.00  0.00     0.210 HD
ENDBRANCH  37  38
ENDBRANCH  31  37
BRANCH  32  40
ATOM     40  O   UNL     1      28.093 184.329  30.998  1.00  0.00    -0.387 OA
ATOM     41  H   UNL     1      27.284 184.454  30.437  1.00  0.00     0.211 HD
ENDBRANCH  32  40
ENDBRANCH   1  27
TORSDOF 12
ENDMDL
MODEL 3
REMARK VINA RESULT:    -5.175      3.232      7.905
REMARK INTER + INTRA:          -9.132
REMARK INTER:                  -7.289
REMARK INTRA:                  -1.844
REMARK UNBOUND:                -1.537
REMARK SMILES O=c1c(O[C@@H]2O[C@H](CO)[C@H](O)[C@H](O)[C@@H]2O)c(-c2ccc(O)c(O)c2)oc2cc(O)cc(O)c12
REMARK SMILES IDX 4 1 3 2 16 3 25 4 2 5 26 6 1 7 33 8 27 9 31 10 28 11 30 12
REMARK SMILES IDX 17 13 18 14 19 15 20 16 24 17 22 18 21 19 23 21 32 23 29 25
REMARK SMILES IDX 5 27 14 28 6 29 12 30 7 31 10 32 15 33 13 35 8 37 9 38 11 40
REMARK H PARENT 21 20 23 22 32 24 29 26 15 34 13 36 9 39 11 41
REMARK Flexibility Score: inf
ROOT
ATOM      1  O   UNL     1      30.916 179.456  32.820  1.00  0.00    -0.454 OA
ENDROOT
BRANCH   1   2
ATOM      2  C   UNL     1      31.902 178.492  32.525  1.00  0.00     0.214 A 
ATOM      3  C   UNL     1      33.155 178.929  32.047  1.00  0.00     0.180 A 
ATOM      4  O   UNL     1      34.079 178.041  31.702  1.00  0.00    -0.452 OA
ATOM      5  C   UNL     1      31.716 177.108  32.729  1.00  0.00     0.239 A 
ATOM      6  C   UNL     1      33.897 176.731  31.769  1.00  0.00     0.146 A 
ATOM      7  O   UNL     1      30.723 176.712  33.387  1.00  0.00    -0.285 OA
ATOM      8  C   UNL     1      32.688 176.189  32.270  1.00  0.00     0.111 A 
ATOM      9  C   UNL     1      34.933 175.894  31.346  1.00  0.00     0.094 A 
ATOM     10  C   UNL     1      32.545 174.766  32.307  1.00  0.00     0.134 A 
ATOM     11  C   UNL     1      34.794 174.511  31.406  1.00  0.00     0.123 A 
ATOM     12  C   UNL     1      33.610 173.955  31.897  1.00  0.00     0.093 A 
BRANCH   3  13
ATOM     13  C   UNL     1      33.525 180.364  31.955  1.00  0.00     0.025 A 
ATOM     14  C   UNL     1      34.157 181.048  33.007  1.00  0.00     0.016 A 
ATOM     15  C   UNL     1      34.456 182.408  32.888  1.00  0.00     0.051 A 
ATOM     16  C   UNL     1      34.128 183.107  31.723  1.00  0.00     0.157 A 
ATOM     17  C   UNL     1      33.172 181.079  30.796  1.00  0.00     0.062 A 
ATOM     18  C   UNL     1      33.478 182.441  30.672  1.00  0.00     0.158 A 
BRANCH  16  19
ATOM     19  O   UNL     1      34.453 184.460  31.624  1.00  0.00    -0.504 OA
ATOM     20  H   UNL     1      33.744 185.184  31.625  1.00  0.00     0.293 HD
ENDBRANCH  16  19
BRANCH  18  21
ATOM     21  O   UNL     1      33.142 183.133  29.509  1.00  0.00    -0.504 OA
ATOM     22  H   UNL     1      33.790 183.223  28.736  1.00  0.00     0.293 HD
ENDBRANCH  18  21
ENDBRANCH   3  13
BRANCH  10  23
ATOM     23  O   UNL     1      31.379 174.104  32.709  1.00  0.00    -0.507 OA
ATOM     24  H   UNL     1      31.120 173.164  32.447  1.00  0.00     0.293 HD
ENDBRANCH  10  23
BRANCH  11  25
ATOM     25  O   UNL     1      35.835 173.696  30.957  1.00  0.00    -0.508 OA
ATOM     26  H   UNL     1      36.704 174.086  30.611  1.00  0.00     0.293 HD
ENDBRANCH  11  25
ENDBRANCH   1   2
BRANCH   1  27
ATOM     27  C   UNL     1      29.709 179.763  32.100  1.00  0.00     0.339 C 
ATOM     28  C   UNL     1      29.394 181.296  31.982  1.00  0.00     0.214 C 
ATOM     29  O   UNL     1      29.679 179.089  30.858  1.00  0.00    -0.332 OA
ATOM     30  C   UNL     1      29.025 181.777  30.543  1.00  0.00     0.180 C 
ATOM     31  C   UNL     1      28.421 179.288  30.239  1.00  0.00     0.179 C 
ATOM     32  C   UNL     1      28.358 180.706  29.626  1.00  0.00     0.177 C 
BRANCH  28  33
ATOM     33  O   UNL     1      30.441 182.089  32.485  1.00  0.00    -0.384 OA
ATOM     34  H   UNL     1      30.962 181.529  33.114  1.00  0.00     0.211 HD
ENDBRANCH  28  33
BRANCH  30  35
ATOM     35  O   UNL     1      30.124 182.389  29.910  1.00  0.00    -0.387 OA
ATOM     36  H   UNL     1      29.768 182.913  29.148  1.00  0.00     0.211 HD
ENDBRANCH  30  35
BRANCH  31  37
ATOM     37  C   UNL     1      28.194 178.171  29.204  1.00  0.00     0.191 C 
BRANCH  37  38
ATOM     38  O   UNL     1      29.314 177.991  28.378  1.00  0.00    -0.394 OA
ATOM     39  H   UNL     1      30.110 178.273  28.904  1.00  0.00     0.210 HD
ENDBRANCH  37  38
ENDBRANCH  31  37
BRANCH  32  40
ATOM     40  O   UNL     1      28.947 180.710  28.347  1.00  0.00    -0.387 OA
ATOM     41  H   UNL     1      28.259 180.376  27.716  1.00  0.00     0.211 HD
ENDBRANCH  32  40
ENDBRANCH   1  27
TORSDOF 12
ENDMDL
MODEL 4
REMARK VINA RESULT:    -4.839      2.279      7.501
REMARK INTER + INTRA:          -8.639
REMARK INTER:                  -6.912
REMARK INTRA:                  -1.727
REMARK UNBOUND:                -1.537
REMARK SMILES O=c1c(O[C@@H]2O[C@H](CO)[C@H](O)[C@H](O)[C@@H]2O)c(-c2ccc(O)c(O)c2)oc2cc(O)cc(O)c12
REMARK SMILES IDX 4 1 3 2 16 3 25 4 2 5 26 6 1 7 33 8 27 9 31 10 28 11 30 12
REMARK SMILES IDX 17 13 18 14 19 15 20 16 24 17 22 18 21 19 23 21 32 23 29 25
REMARK SMILES IDX 5 27 14 28 6 29 12 30 7 31 10 32 15 33 13 35 8 37 9 38 11 40
REMARK H PARENT 21 20 23 22 32 24 29 26 15 34 13 36 9 39 11 41
REMARK Flexibility Score: inf
ROOT
ATOM      1  O   UNL     1      32.435 175.992  31.003  1.00  0.00    -0.454 OA
ENDROOT
BRANCH   1   2
ATOM      2  C   UNL     1      32.858 177.309  31.277  1.00  0.00     0.214 A 
ATOM      3  C   UNL     1      34.108 177.503  31.901  1.00  0.00     0.180 A 
ATOM      4  O   UNL     1      34.502 178.727  32.227  1.00  0.00    -0.452 OA
ATOM      5  C   UNL     1      32.114 178.451  30.912  1.00  0.00     0.239 A 
ATOM      6  C   UNL     1      33.777 179.814  32.006  1.00  0.00     0.146 A 
ATOM      7  O   UNL     1      31.137 178.325  30.134  1.00  0.00    -0.285 OA
ATOM      8  C   UNL     1      32.524 179.732  31.351  1.00  0.00     0.111 A 
ATOM      9  C   UNL     1      34.284 181.047  32.424  1.00  0.00     0.094 A 
ATOM     10  C   UNL     1      31.781 180.937  31.150  1.00  0.00     0.134 A 
ATOM     11  C   UNL     1      33.565 182.218  32.205  1.00  0.00     0.123 A 
ATOM     12  C   UNL     1      32.327 182.160  31.561  1.00  0.00     0.093 A 
BRANCH   3  13
ATOM     13  C   UNL     1      35.051 176.391  32.177  1.00  0.00     0.025 A 
ATOM     14  C   UNL     1      35.237 175.863  33.467  1.00  0.00     0.016 A 
ATOM     15  C   UNL     1      36.162 174.839  33.685  1.00  0.00     0.051 A 
ATOM     16  C   UNL     1      36.916 174.326  32.626  1.00  0.00     0.157 A 
ATOM     17  C   UNL     1      35.833 175.890  31.120  1.00  0.00     0.062 A 
ATOM     18  C   UNL     1      36.755 174.857  31.336  1.00  0.00     0.158 A 
BRANCH  16  19
ATOM     19  O   UNL     1      37.820 173.291  32.869  1.00  0.00    -0.504 OA
ATOM     20  H   UNL     1      37.676 172.357  32.504  1.00  0.00     0.293 HD
ENDBRANCH  16  19
BRANCH  18  21
ATOM     21  O   UNL     1      37.508 174.355  30.276  1.00  0.00    -0.504 OA
ATOM     22  H   UNL     1      38.028 173.489  30.354  1.00  0.00     0.293 HD
ENDBRANCH  18  21
ENDBRANCH   3  13
BRANCH  10  23
ATOM     23  O   UNL     1      30.501 180.987  30.584  1.00  0.00    -0.507 OA
ATOM     24  H   UNL     1      30.296 181.220  29.624  1.00  0.00     0.293 HD
ENDBRANCH  10  23
BRANCH  11  25
ATOM     25  O   UNL     1      34.082 183.436  32.651  1.00  0.00    -0.508 OA
ATOM     26  H   UNL     1      33.791 183.847  33.531  1.00  0.00     0.293 HD
ENDBRANCH  11  25
ENDBRANCH   1   2
BRANCH   1  27
ATOM     27  C   UNL     1      31.556 175.147  31.770  1.00  0.00     0.339 C 
ATOM     28  C   UNL     1      30.116 174.991  31.168  1.00  0.00     0.214 C 
ATOM     29  O   UNL     1      32.177 173.911  32.063  1.00  0.00    -0.332 OA
ATOM     30  C   UNL     1      29.600 173.521  31.083  1.00  0.00     0.180 C 
ATOM     31  C   UNL     1      31.354 173.163  32.940  1.00  0.00     0.179 C 
ATOM     32  C   UNL     1      30.178 172.542  32.151  1.00  0.00     0.177 C 
BRANCH  28  33
ATOM     33  O   UNL     1      30.005 175.599  29.904  1.00  0.00    -0.384 OA
ATOM     34  H   UNL     1      30.564 175.079  29.274  1.00  0.00     0.211 HD
ENDBRANCH  28  33
BRANCH  30  35
ATOM     35  O   UNL     1      29.737 173.003  29.780  1.00  0.00    -0.387 OA
ATOM     36  H   UNL     1      30.066 173.740  29.206  1.00  0.00     0.211 HD
ENDBRANCH  30  35
BRANCH  31  37
ATOM     37  C   UNL     1      32.221 172.114  33.661  1.00  0.00     0.191 C 
BRANCH  37  38
ATOM     38  O   UNL     1      31.436 171.159  34.324  1.00  0.00    -0.394 OA
ATOM     39  H   UNL     1      32.051 170.437  34.624  1.00  0.00     0.210 HD
ENDBRANCH  37  38
ENDBRANCH  31  37
BRANCH  32  40
ATOM     40  O   UNL     1      30.579 171.332  31.553  1.00  0.00    -0.387 OA
ATOM     41  H   UNL     1      30.937 171.564  30.657  1.00  0.00     0.211 HD
ENDBRANCH  32  40
ENDBRANCH   1  27
TORSDOF 12
ENDMDL
MODEL 5
REMARK VINA RESULT:    -4.818      2.482      6.774
REMARK INTER + INTRA:          -8.608
REMARK INTER:                  -6.776
REMARK INTRA:                  -1.832
REMARK UNBOUND:                -1.537
REMARK SMILES O=c1c(O[C@@H]2O[C@H](CO)[C@H](O)[C@H](O)[C@@H]2O)c(-c2ccc(O)c(O)c2)oc2cc(O)cc(O)c12
REMARK SMILES IDX 4 1 3 2 16 3 25 4 2 5 26 6 1 7 33 8 27 9 31 10 28 11 30 12
REMARK SMILES IDX 17 13 18 14 19 15 20 16 24 17 22 18 21 19 23 21 32 23 29 25
REMARK SMILES IDX 5 27 14 28 6 29 12 30 7 31 10 32 15 33 13 35 8 37 9 38 11 40
REMARK H PARENT 21 20 23 22 32 24 29 26 15 34 13 36 9 39 11 41
REMARK Flexibility Score: inf
ROOT
ATOM      1  O   UNL     1      31.593 175.127  31.390  1.00  0.00    -0.454 OA
ENDROOT
BRANCH   1   2
ATOM      2  C   UNL     1      32.985 174.907  31.419  1.00  0.00     0.214 A 
ATOM      3  C   UNL     1      33.835 175.992  31.720  1.00  0.00     0.180 A 
ATOM      4  O   UNL     1      35.152 175.828  31.692  1.00  0.00    -0.452 OA
ATOM      5  C   UNL     1      33.573 173.642  31.209  1.00  0.00     0.239 A 
ATOM      6  C   UNL     1      35.742 174.683  31.383  1.00  0.00     0.146 A 
ATOM      7  O   UNL     1      32.844 172.620  31.197  1.00  0.00    -0.285 OA
ATOM      8  C   UNL     1      34.978 173.524  31.102  1.00  0.00     0.111 A 
ATOM      9  C   UNL     1      37.139 174.641  31.355  1.00  0.00     0.094 A 
ATOM     10  C   UNL     1      35.671 172.319  30.764  1.00  0.00     0.134 A 
ATOM     11  C   UNL     1      37.805 173.460  31.047  1.00  0.00     0.123 A 
ATOM     12  C   UNL     1      37.072 172.304  30.766  1.00  0.00     0.093 A 
BRANCH   3  13
ATOM     13  C   UNL     1      33.326 177.326  32.124  1.00  0.00     0.025 A 
ATOM     14  C   UNL     1      33.122 177.677  33.470  1.00  0.00     0.016 A 
ATOM     15  C   UNL     1      32.607 178.933  33.803  1.00  0.00     0.051 A 
ATOM     16  C   UNL     1      32.287 179.856  32.803  1.00  0.00     0.157 A 
ATOM     17  C   UNL     1      32.975 178.248  31.121  1.00  0.00     0.062 A 
ATOM     18  C   UNL     1      32.467 179.511  31.454  1.00  0.00     0.158 A 
BRANCH  16  19
ATOM     19  O   UNL     1      31.791 181.109  33.164  1.00  0.00    -0.504 OA
ATOM     20  H   UNL     1      30.925 181.473  32.785  1.00  0.00     0.293 HD
ENDBRANCH  16  19
BRANCH  18  21
ATOM     21  O   UNL     1      32.142 180.423  30.451  1.00  0.00    -0.504 OA
ATOM     22  H   UNL     1      31.644 180.142  29.615  1.00  0.00     0.293 HD
ENDBRANCH  18  21
ENDBRANCH   3  13
BRANCH  10  23
ATOM     23  O   UNL     1      35.038 171.126  30.394  1.00  0.00    -0.507 OA
ATOM     24  H   UNL     1      34.143 171.058  29.933  1.00  0.00     0.293 HD
ENDBRANCH  10  23
BRANCH  11  25
ATOM     25  O   UNL     1      39.200 173.449  31.004  1.00  0.00    -0.508 OA
ATOM     26  H   UNL     1      39.724 172.581  30.958  1.00  0.00     0.293 HD
ENDBRANCH  11  25
ENDBRANCH   1   2
BRANCH   1  27
ATOM     27  C   UNL     1      30.722 175.260  30.252  1.00  0.00     0.339 C 
ATOM     28  C   UNL     1      29.822 174.006  29.971  1.00  0.00     0.214 C 
ATOM     29  O   UNL     1      29.993 176.470  30.315  1.00  0.00    -0.332 OA
ATOM     30  C   UNL     1      28.313 174.327  29.731  1.00  0.00     0.180 C 
ATOM     31  C   UNL     1      29.260 176.646  29.117  1.00  0.00     0.179 C 
ATOM     32  C   UNL     1      28.012 175.733  29.126  1.00  0.00     0.177 C 
BRANCH  28  33
ATOM     33  O   UNL     1      29.937 173.037  30.985  1.00  0.00    -0.384 OA
ATOM     34  H   UNL     1      29.021 172.806  31.280  1.00  0.00     0.211 HD
ENDBRANCH  28  33
BRANCH  30  35
ATOM     35  O   UNL     1      27.547 174.086  30.887  1.00  0.00    -0.387 OA
ATOM     36  H   UNL     1      26.864 173.409  30.650  1.00  0.00     0.211 HD
ENDBRANCH  30  35
BRANCH  31  37
ATOM     37  C   UNL     1      28.917 178.139  28.959  1.00  0.00     0.191 C 
BRANCH  37  38
ATOM     38  O   UNL     1      30.063 178.946  29.028  1.00  0.00    -0.394 OA
ATOM     39  H   UNL     1      30.613 178.737  28.226  1.00  0.00     0.210 HD
ENDBRANCH  37  38
ENDBRANCH  31  37
BRANCH  32  40
ATOM     40  O   UNL     1      26.958 176.357  29.820  1.00  0.00    -0.387 OA
ATOM     41  H   UNL     1      27.150 177.331  29.811  1.00  0.00     0.211 HD
ENDBRANCH  32  40
ENDBRANCH   1  27
TORSDOF 12
ENDMDL
MODEL 6
REMARK VINA RESULT:    -4.796      4.624      9.420
REMARK INTER + INTRA:          -8.575
REMARK INTER:                  -6.728
REMARK INTRA:                  -1.847
REMARK UNBOUND:                -1.537
REMARK SMILES O=c1c(O[C@@H]2O[C@H](CO)[C@H](O)[C@H](O)[C@@H]2O)c(-c2ccc(O)c(O)c2)oc2cc(O)cc(O)c12
REMARK SMILES IDX 4 1 3 2 16 3 25 4 2 5 26 6 1 7 33 8 27 9 31 10 28 11 30 12
REMARK SMILES IDX 17 13 18 14 19 15 20 16 24 17 22 18 21 19 23 21 32 23 29 25
REMARK SMILES IDX 5 27 14 28 6 29 12 30 7 31 10 32 15 33 13 35 8 37 9 38 11 40
REMARK H PARENT 21 20 23 22 32 24 29 26 15 34 13 36 9 39 11 41
REMARK Flexibility Score: inf
ROOT
ATOM      1  O   UNL     1      40.518 173.174  33.722  1.00  0.00    -0.454 OA
ENDROOT
BRANCH   1   2
ATOM      2  C   UNL     1      40.918 174.524  33.804  1.00  0.00     0.214 A 
ATOM      3  C   UNL     1      39.948 175.530  33.615  1.00  0.00     0.180 A 
ATOM      4  O   UNL     1      40.309 176.807  33.624  1.00  0.00    -0.452 OA
ATOM      5  C   UNL     1      42.236 174.922  34.114  1.00  0.00     0.239 A 
ATOM      6  C   UNL     1      41.558 177.215  33.795  1.00  0.00     0.146 A 
ATOM      7  O   UNL     1      43.053 174.068  34.538  1.00  0.00    -0.285 OA
ATOM      8  C   UNL     1      42.601 176.286  34.030  1.00  0.00     0.111 A 
ATOM      9  C   UNL     1      41.821 178.587  33.753  1.00  0.00     0.094 A 
ATOM     10  C   UNL     1      43.931 176.786  34.196  1.00  0.00     0.134 A 
ATOM     11  C   UNL     1      43.114 179.066  33.937  1.00  0.00     0.123 A 
ATOM     12  C   UNL     1      44.158 178.167  34.170  1.00  0.00     0.093 A 
BRANCH   3  13
ATOM     13  C   UNL     1      38.503 175.235  33.453  1.00  0.00     0.025 A 
ATOM     14  C   UNL     1      37.610 175.228  34.538  1.00  0.00     0.016 A 
ATOM     15  C   UNL     1      36.263 174.910  34.343  1.00  0.00     0.051 A 
ATOM     16  C   UNL     1      35.786 174.592  33.068  1.00  0.00     0.157 A 
ATOM     17  C   UNL     1      38.024 174.887  32.177  1.00  0.00     0.062 A 
ATOM     18  C   UNL     1      36.671 174.576  31.979  1.00  0.00     0.158 A 
BRANCH  16  19
ATOM     19  O   UNL     1      34.434 174.296  32.899  1.00  0.00    -0.504 OA
ATOM     20  H   UNL     1      33.703 174.915  33.231  1.00  0.00     0.293 HD
ENDBRANCH  16  19
BRANCH  18  21
ATOM     21  O   UNL     1      36.205 174.253  30.705  1.00  0.00    -0.504 OA
ATOM     22  H   UNL     1      35.222 174.320  30.465  1.00  0.00     0.293 HD
ENDBRANCH  18  21
ENDBRANCH   3  13
BRANCH  10  23
ATOM     23  O   UNL     1      45.060 175.974  34.360  1.00  0.00    -0.507 OA
ATOM     24  H   UNL     1      45.531 175.798  35.235  1.00  0.00     0.293 HD
ENDBRANCH  10  23
BRANCH  11  25
ATOM     25  O   UNL     1      43.355 180.439  33.868  1.00  0.00    -0.508 OA
ATOM     26  H   UNL     1      42.668 181.081  33.488  1.00  0.00     0.293 HD
ENDBRANCH  11  25
ENDBRANCH   1   2
BRANCH   1  27
ATOM     27  C   UNL     1      40.806 172.207  32.695  1.00  0.00     0.339 C 
ATOM     28  C   UNL     1      39.605 171.265  32.335  1.00  0.00     0.214 C 
ATOM     29  O   UNL     1      41.387 172.830  31.567  1.00  0.00    -0.332 OA
ATOM     30  C   UNL     1      39.326 171.119  30.806  1.00  0.00     0.180 C 
ATOM     31  C   UNL     1      41.796 171.843  30.638  1.00  0.00     0.179 C 
ATOM     32  C   UNL     1      40.565 171.300  29.876  1.00  0.00     0.177 C 
BRANCH  28  33
ATOM     33  O   UNL     1      38.421 171.646  32.991  1.00  0.00    -0.384 OA
ATOM     34  H   UNL     1      38.239 170.970  33.692  1.00  0.00     0.211 HD
ENDBRANCH  28  33
BRANCH  30  35
ATOM     35  O   UNL     1      38.252 171.934  30.400  1.00  0.00    -0.387 OA
ATOM     36  H   UNL     1      38.427 172.844  30.750  1.00  0.00     0.211 HD
ENDBRANCH  30  35
BRANCH  31  37
ATOM     37  C   UNL     1      42.865 172.448  29.708  1.00  0.00     0.191 C 
BRANCH  37  38
ATOM     38  O   UNL     1      42.536 173.756  29.320  1.00  0.00    -0.394 OA
ATOM     39  H   UNL     1      41.569 173.882  29.516  1.00  0.00     0.210 HD
ENDBRANCH  37  38
ENDBRANCH  31  37
BRANCH  32  40
ATOM     40  O   UNL     1      40.254 172.141  28.790  1.00  0.00    -0.387 OA
ATOM     41  H   UNL     1      39.264 172.183  28.739  1.00  0.00     0.211 HD
ENDBRANCH  32  40
ENDBRANCH   1  27
TORSDOF 12
ENDMDL
MODEL 7
REMARK VINA RESULT:    -4.703      8.416     13.953
REMARK INTER + INTRA:          -8.440
REMARK INTER:                  -6.890
REMARK INTRA:                  -1.549
REMARK UNBOUND:                -1.537
REMARK SMILES O=c1c(O[C@@H]2O[C@H](CO)[C@H](O)[C@H](O)[C@@H]2O)c(-c2ccc(O)c(O)c2)oc2cc(O)cc(O)c12
REMARK SMILES IDX 4 1 3 2 16 3 25 4 2 5 26 6 1 7 33 8 27 9 31 10 28 11 30 12
REMARK SMILES IDX 17 13 18 14 19 15 20 16 24 17 22 18 21 19 23 21 32 23 29 25
REMARK SMILES IDX 5 27 14 28 6 29 12 30 7 31 10 32 15 33 13 35 8 37 9 38 11 40
REMARK H PARENT 21 20 23 22 32 24 29 26 15 34 13 36 9 39 11 41
REMARK Flexibility Score: inf
ROOT
ATOM      1  O   UNL     1      34.722 186.273  33.251  1.00  0.00    -0.454 OA
ENDROOT
BRANCH   1   2
ATOM      2  C   UNL     1      36.107 186.019  33.185  1.00  0.00     0.214 A 
ATOM      3  C   UNL     1      36.542 184.717  32.862  1.00  0.00     0.180 A 
ATOM      4  O   UNL     1      37.839 184.435  32.855  1.00  0.00    -0.452 OA
ATOM      5  C   UNL     1      37.086 187.016  33.379  1.00  0.00     0.239 A 
ATOM      6  C   UNL     1      38.782 185.317  33.147  1.00  0.00     0.146 A 
ATOM      7  O   UNL     1      36.737 188.222  33.409  1.00  0.00    -0.285 OA
ATOM      8  C   UNL     1      38.453 186.661  33.448  1.00  0.00     0.111 A 
ATOM      9  C   UNL     1      40.114 184.894  33.138  1.00  0.00     0.094 A 
ATOM     10  C   UNL     1      39.515 187.566  33.767  1.00  0.00     0.134 A 
ATOM     11  C   UNL     1      41.142 185.785  33.427  1.00  0.00     0.123 A 
ATOM     12  C   UNL     1      40.840 187.116  33.727  1.00  0.00     0.093 A 
BRANCH   3  13
ATOM     13  C   UNL     1      35.609 183.630  32.472  1.00  0.00     0.025 A 
ATOM     14  C   UNL     1      35.313 182.551  33.323  1.00  0.00     0.016 A 
ATOM     15  C   UNL     1      34.455 181.532  32.900  1.00  0.00     0.051 A 
ATOM     16  C   UNL     1      33.882 181.570  31.625  1.00  0.00     0.157 A 
ATOM     17  C   UNL     1      35.051 183.649  31.181  1.00  0.00     0.062 A 
ATOM     18  C   UNL     1      34.184 182.633  30.758  1.00  0.00     0.158 A 
BRANCH  16  19
ATOM     19  O   UNL     1      33.015 180.550  31.235  1.00  0.00    -0.504 OA
ATOM     20  H   UNL     1      33.266 179.571  31.320  1.00  0.00     0.293 HD
ENDBRANCH  16  19
BRANCH  18  21
ATOM     21  O   UNL     1      33.622 182.674  29.483  1.00  0.00    -0.504 OA
ATOM     22  H   UNL     1      33.755 181.922  28.817  1.00  0.00     0.293 HD
ENDBRANCH  18  21
ENDBRANCH   3  13
BRANCH  10  23
ATOM     23  O   UNL     1      39.322 188.898  34.153  1.00  0.00    -0.507 OA
ATOM     24  H   UNL     1      38.572 189.495  33.839  1.00  0.00     0.293 HD
ENDBRANCH  10  23
BRANCH  11  25
ATOM     25  O   UNL     1      42.463 185.333  33.433  1.00  0.00    -0.508 OA
ATOM     26  H   UNL     1      43.125 185.617  32.720  1.00  0.00     0.293 HD
ENDBRANCH  11  25
ENDBRANCH   1   2
BRANCH   1  27
ATOM     27  C   UNL     1      33.773 185.857  34.251  1.00  0.00     0.339 C 
ATOM     28  C   UNL     1      33.077 187.035  35.017  1.00  0.00     0.214 C 
ATOM     29  O   UNL     1      32.860 184.919  33.717  1.00  0.00    -0.332 OA
ATOM     30  C   UNL     1      31.524 186.916  35.125  1.00  0.00     0.180 C 
ATOM     31  C   UNL     1      32.037 184.415  34.753  1.00  0.00     0.179 C 
ATOM     32  C   UNL     1      30.959 185.461  35.121  1.00  0.00     0.177 C 
BRANCH  28  33
ATOM     33  O   UNL     1      33.412 188.288  34.473  1.00  0.00    -0.384 OA
ATOM     34  H   UNL     1      33.645 188.146  33.522  1.00  0.00     0.211 HD
ENDBRANCH  28  33
BRANCH  30  35
ATOM     35  O   UNL     1      30.880 187.723  34.168  1.00  0.00    -0.387 OA
ATOM     36  H   UNL     1      29.906 187.583  34.276  1.00  0.00     0.211 HD
ENDBRANCH  30  35
BRANCH  31  37
ATOM     37  C   UNL     1      31.443 183.067  34.305  1.00  0.00     0.191 C 
BRANCH  37  38
ATOM     38  O   UNL     1      31.079 183.083  32.950  1.00  0.00    -0.394 OA
ATOM     39  H   UNL     1      31.827 183.515  32.455  1.00  0.00     0.210 HD
ENDBRANCH  37  38
ENDBRANCH  31  37
BRANCH  32  40
ATOM     40  O   UNL     1      29.861 185.357  34.247  1.00  0.00    -0.387 OA
ATOM     41  H   UNL     1      29.525 184.426  34.324  1.00  0.00     0.211 HD
ENDBRANCH  32  40
ENDBRANCH   1  27
TORSDOF 12
ENDMDL
MODEL 8
REMARK VINA RESULT:    -4.695      4.736      8.367
REMARK INTER + INTRA:          -8.427
REMARK INTER:                  -7.223
REMARK INTRA:                  -1.204
REMARK UNBOUND:                -1.537
REMARK SMILES O=c1c(O[C@@H]2O[C@H](CO)[C@H](O)[C@H](O)[C@@H]2O)c(-c2ccc(O)c(O)c2)oc2cc(O)cc(O)c12
REMARK SMILES IDX 4 1 3 2 16 3 25 4 2 5 26 6 1 7 33 8 27 9 31 10 28 11 30 12
REMARK SMILES IDX 17 13 18 14 19 15 20 16 24 17 22 18 21 19 23 21 32 23 29 25
REMARK SMILES IDX 5 27 14 28 6 29 12 30 7 31 10 32 15 33 13 35 8 37 9 38 11 40
REMARK H PARENT 21 20 23 22 32 24 29 26 15 34 13 36 9 39 11 41
REMARK Flexibility Score: inf
ROOT
ATOM      1  O   UNL     1      31.542 180.624  32.208  1.00  0.00    -0.454 OA
ENDROOT
BRANCH   1   2
ATOM      2  C   UNL     1      30.799 179.826  31.313  1.00  0.00     0.214 A 
ATOM      3  C   UNL     1      31.130 178.461  31.188  1.00  0.00     0.180 A 
ATOM      4  O   UNL     1      30.488 177.703  30.308  1.00  0.00    -0.452 OA
ATOM      5  C   UNL     1      29.704 180.315  30.569  1.00  0.00     0.239 A 
ATOM      6  C   UNL     1      29.534 178.155  29.508  1.00  0.00     0.146 A 
ATOM      7  O   UNL     1      29.225 181.442  30.848  1.00  0.00    -0.285 OA
ATOM      8  C   UNL     1      29.102 179.502  29.581  1.00  0.00     0.111 A 
ATOM      9  C   UNL     1      28.953 177.267  28.598  1.00  0.00     0.094 A 
ATOM     10  C   UNL     1      28.075 179.935  28.684  1.00  0.00     0.134 A 
ATOM     11  C   UNL     1      27.940 177.691  27.745  1.00  0.00     0.123 A 
ATOM     12  C   UNL     1      27.498 179.016  27.799  1.00  0.00     0.093 A 
BRANCH   3  13
ATOM     13  C   UNL     1      32.147 177.798  32.041  1.00  0.00     0.025 A 
ATOM     14  C   UNL     1      31.879 177.404  33.364  1.00  0.00     0.016 A 
ATOM     15  C   UNL     1      32.878 176.814  34.142  1.00  0.00     0.051 A 
ATOM     16  C   UNL     1      34.158 176.609  33.618  1.00  0.00     0.157 A 
ATOM     17  C   UNL     1      33.444 177.615  31.528  1.00  0.00     0.062 A 
ATOM     18  C   UNL     1      34.445 177.015  32.305  1.00  0.00     0.158 A 
BRANCH  16  19
ATOM     19  O   UNL     1      35.131 176.001  34.411  1.00  0.00    -0.504 OA
ATOM     20  H   UNL     1      35.921 176.517  34.780  1.00  0.00     0.293 HD
ENDBRANCH  16  19
BRANCH  18  21
ATOM     21  O   UNL     1      35.721 176.820  31.778  1.00  0.00    -0.504 OA
ATOM     22  H   UNL     1      35.910 176.098  31.092  1.00  0.00     0.293 HD
ENDBRANCH  18  21
ENDBRANCH   3  13
BRANCH  10  23
ATOM     23  O   UNL     1      27.609 181.253  28.602  1.00  0.00    -0.507 OA
ATOM     24  H   UNL     1      27.860 182.002  29.229  1.00  0.00     0.293 HD
ENDBRANCH  10  23
BRANCH  11  25
ATOM     25  O   UNL     1      27.391 176.792  26.829  1.00  0.00    -0.508 OA
ATOM     26  H   UNL     1      26.514 176.317  27.012  1.00  0.00     0.293 HD
ENDBRANCH  11  25
ENDBRANCH   1   2
BRANCH   1  27
ATOM     27  C   UNL     1      32.102 181.933  31.999  1.00  0.00     0.339 C 
ATOM     28  C   UNL     1      32.329 182.760  33.313  1.00  0.00     0.214 C 
ATOM     29  O   UNL     1      33.250 181.864  31.177  1.00  0.00    -0.332 OA
ATOM     30  C   UNL     1      33.738 183.421  33.433  1.00  0.00     0.180 C 
ATOM     31  C   UNL     1      33.691 183.173  30.866  1.00  0.00     0.179 C 
ATOM     32  C   UNL     1      34.431 183.778  32.081  1.00  0.00     0.177 C 
BRANCH  28  33
ATOM     33  O   UNL     1      32.072 181.997  34.467  1.00  0.00    -0.384 OA
ATOM     34  H   UNL     1      31.283 182.393  34.914  1.00  0.00     0.211 HD
ENDBRANCH  28  33
BRANCH  30  35
ATOM     35  O   UNL     1      34.588 182.670  34.267  1.00  0.00    -0.387 OA
ATOM     36  H   UNL     1      35.337 182.345  33.706  1.00  0.00     0.211 HD
ENDBRANCH  30  35
BRANCH  31  37
ATOM     37  C   UNL     1      34.560 183.116  29.596  1.00  0.00     0.191 C 
BRANCH  37  38
ATOM     38  O   UNL     1      35.268 184.311  29.396  1.00  0.00    -0.394 OA
ATOM     39  H   UNL     1      34.709 185.044  29.770  1.00  0.00     0.210 HD
ENDBRANCH  37  38
ENDBRANCH  31  37
BRANCH  32  40
ATOM     40  O   UNL     1      35.776 183.365  32.088  1.00  0.00    -0.387 OA
ATOM     41  H   UNL     1      36.214 183.835  32.844  1.00  0.00     0.211 HD
ENDBRANCH  32  40
ENDBRANCH   1  27
TORSDOF 12
ENDMDL
MODEL 9
REMARK VINA RESULT:    -4.677      4.900      6.971
REMARK INTER + INTRA:          -8.401
REMARK INTER:                  -6.481
REMARK INTRA:                  -1.920
REMARK UNBOUND:                -1.537
REMARK SMILES O=c1c(O[C@@H]2O[C@H](CO)[C@H](O)[C@H](O)[C@@H]2O)c(-c2ccc(O)c(O)c2)oc2cc(O)cc(O)c12
REMARK SMILES IDX 4 1 3 2 16 3 25 4 2 5 26 6 1 7 33 8 27 9 31 10 28 11 30 12
REMARK SMILES IDX 17 13 18 14 19 15 20 16 24 17 22 18 21 19 23 21 32 23 29 25
REMARK SMILES IDX 5 27 14 28 6 29 12 30 7 31 10 32 15 33 13 35 8 37 9 38 11 40
REMARK H PARENT 21 20 23 22 32 24 29 26 15 34 13 36 9 39 11 41
REMARK Flexibility Score: inf
ROOT
ATOM      1  O   UNL     1      29.040 175.175  29.793  1.00  0.00    -0.454 OA
ENDROOT
BRANCH   1   2
ATOM      2  C   UNL     1      29.257 174.994  28.412  1.00  0.00     0.214 A 
ATOM      3  C   UNL     1      28.730 175.945  27.514  1.00  0.00     0.180 A 
ATOM      4  O   UNL     1      28.864 175.766  26.206  1.00  0.00    -0.452 OA
ATOM      5  C   UNL     1      30.018 173.931  27.882  1.00  0.00     0.239 A 
ATOM      6  C   UNL     1      29.470 174.718  25.668  1.00  0.00     0.146 A 
ATOM      7  O   UNL     1      30.709 173.224  28.655  1.00  0.00    -0.285 OA
ATOM      8  C   UNL     1      30.066 173.725  26.483  1.00  0.00     0.111 A 
ATOM      9  C   UNL     1      29.521 174.623  24.274  1.00  0.00     0.094 A 
ATOM     10  C   UNL     1      30.698 172.611  25.845  1.00  0.00     0.134 A 
ATOM     11  C   UNL     1      30.156 173.547  23.662  1.00  0.00     0.123 A 
ATOM     12  C   UNL     1      30.750 172.556  24.447  1.00  0.00     0.093 A 
BRANCH   3  13
ATOM     13  C   UNL     1      28.060 177.191  27.963  1.00  0.00     0.025 A 
ATOM     14  C   UNL     1      26.661 177.320  28.008  1.00  0.00     0.016 A 
ATOM     15  C   UNL     1      26.074 178.525  28.404  1.00  0.00     0.051 A 
ATOM     16  C   UNL     1      26.869 179.618  28.759  1.00  0.00     0.157 A 
ATOM     17  C   UNL     1      28.855 178.304  28.293  1.00  0.00     0.062 A 
ATOM     18  C   UNL     1      28.268 179.510  28.699  1.00  0.00     0.158 A 
BRANCH  16  19
ATOM     19  O   UNL     1      26.257 180.803  29.168  1.00  0.00    -0.504 OA
ATOM     20  H   UNL     1      25.299 180.826  29.497  1.00  0.00     0.293 HD
ENDBRANCH  16  19
BRANCH  18  21
ATOM     21  O   UNL     1      29.067 180.599  29.045  1.00  0.00    -0.504 OA
ATOM     22  H   UNL     1      28.666 181.483  29.336  1.00  0.00     0.293 HD
ENDBRANCH  18  21
ENDBRANCH   3  13
BRANCH  10  23
ATOM     23  O   UNL     1      31.259 171.527  26.531  1.00  0.00    -0.507 OA
ATOM     24  H   UNL     1      30.863 170.601  26.584  1.00  0.00     0.293 HD
ENDBRANCH  10  23
BRANCH  11  25
ATOM     25  O   UNL     1      30.174 173.462  22.269  1.00  0.00    -0.508 OA
ATOM     26  H   UNL     1      30.229 174.291  21.686  1.00  0.00     0.293 HD
ENDBRANCH  11  25
ENDBRANCH   1   2
BRANCH   1  27
ATOM     27  C   UNL     1      29.952 175.666  30.794  1.00  0.00     0.339 C 
ATOM     28  C   UNL     1      30.473 174.573  31.791  1.00  0.00     0.214 C 
ATOM     29  O   UNL     1      30.988 176.423  30.201  1.00  0.00    -0.332 OA
ATOM     30  C   UNL     1      32.019 174.575  32.012  1.00  0.00     0.180 C 
ATOM     31  C   UNL     1      31.781 177.016  31.213  1.00  0.00     0.179 C 
ATOM     32  C   UNL     1      32.722 175.956  31.830  1.00  0.00     0.177 C 
BRANCH  28  33
ATOM     33  O   UNL     1      30.056 173.281  31.422  1.00  0.00    -0.384 OA
ATOM     34  H   UNL     1      29.230 173.378  30.885  1.00  0.00     0.211 HD
ENDBRANCH  28  33
BRANCH  30  35
ATOM     35  O   UNL     1      32.647 173.571  31.251  1.00  0.00    -0.387 OA
ATOM     36  H   UNL     1      33.342 174.012  30.701  1.00  0.00     0.211 HD
ENDBRANCH  30  35
BRANCH  31  37
ATOM     37  C   UNL     1      32.535 178.218  30.614  1.00  0.00     0.191 C 
BRANCH  37  38
ATOM     38  O   UNL     1      31.711 178.981  29.772  1.00  0.00    -0.394 OA
ATOM     39  H   UNL     1      30.929 178.412  29.539  1.00  0.00     0.210 HD
ENDBRANCH  37  38
ENDBRANCH  31  37
BRANCH  32  40
ATOM     40  O   UNL     1      33.885 175.822  31.048  1.00  0.00    -0.387 OA
ATOM     41  H   UNL     1      33.957 174.862  30.808  1.00  0.00     0.211 HD
ENDBRANCH  32  40
ENDBRANCH   1  27
TORSDOF 12
ENDMDL
