MODEL 1
REMARK VINA RESULT:    -7.336      0.000      0.000
REMARK INTER + INTRA:          -8.887
REMARK INTER:                  -8.623
REMARK INTRA:                  -0.265
REMARK UNBOUND:                -0.265
REMARK SMILES O=c1cc(-c2ccc(O)c(O)c2)oc2cc(O)cc(O)c12
REMARK SMILES IDX 4 1 3 2 2 3 1 4 21 5 19 6 18 7 16 8 15 9 14 10 13 11 5 12
REMARK SMILES IDX 6 13 7 14 8 15 12 16 10 17 9 18 11 20 20 22 17 24
REMARK H PARENT 9 19 11 21 20 23 17 25
REMARK Flexibility Score: inf
ROOT
ATOM      1  C   UNL     1      31.400 -91.866  37.737  1.00  0.00     0.138 A 
ATOM      2  C   UNL     1      30.164 -92.454  37.441  1.00  0.00     0.100 A 
ATOM      3  C   UNL     1      29.996 -93.830  37.599  1.00  0.00     0.197 A 
ATOM      4  O   UNL     1      28.858 -94.319  37.379  1.00  0.00    -0.289 OA
ATOM      5  C   UNL     1      31.088 -94.628  38.021  1.00  0.00     0.107 A 
ATOM      6  C   UNL     1      31.045 -96.045  38.185  1.00  0.00     0.134 A 
ATOM      7  C   UNL     1      32.162 -96.714  38.703  1.00  0.00     0.093 A 
ATOM      8  C   UNL     1      33.337 -96.025  39.009  1.00  0.00     0.123 A 
ATOM      9  C   UNL     1      33.405 -94.649  38.807  1.00  0.00     0.094 A 
ATOM     10  C   UNL     1      32.298 -93.947  38.324  1.00  0.00     0.146 A 
ATOM     11  O   UNL     1      32.400 -92.633  38.162  1.00  0.00    -0.456 OA
ENDROOT
BRANCH   1  12
ATOM     12  C   UNL     1      31.635 -90.409  37.583  1.00  0.00     0.021 A 
ATOM     13  C   UNL     1      32.525 -89.899  36.617  1.00  0.00     0.016 A 
ATOM     14  C   UNL     1      32.719 -88.522  36.489  1.00  0.00     0.051 A 
ATOM     15  C   UNL     1      32.024 -87.629  37.314  1.00  0.00     0.157 A 
ATOM     16  C   UNL     1      30.930 -89.504  38.397  1.00  0.00     0.062 A 
ATOM     17  C   UNL     1      31.123 -88.124  38.271  1.00  0.00     0.158 A 
BRANCH  15  18
ATOM     18  O   UNL     1      32.220 -86.255  37.183  1.00  0.00    -0.504 OA
ATOM     19  H   UNL     1      31.489 -85.645  36.836  1.00  0.00     0.293 HD
ENDBRANCH  15  18
BRANCH  17  20
ATOM     20  O   UNL     1      30.413 -87.261  39.105  1.00  0.00    -0.504 OA
ATOM     21  H   UNL     1      30.856 -86.483  39.577  1.00  0.00     0.293 HD
ENDBRANCH  17  20
ENDBRANCH   1  12
BRANCH   6  22
ATOM     22  O   UNL     1      29.950 -96.842  37.835  1.00  0.00    -0.507 OA
ATOM     23  H   UNL     1      29.388 -97.371  38.483  1.00  0.00     0.293 HD
ENDBRANCH   6  22
BRANCH   8  24
ATOM     24  O   UNL     1      34.447 -96.701  39.510  1.00  0.00    -0.508 OA
ATOM     25  H   UNL     1      35.247 -96.204  39.883  1.00  0.00     0.293 HD
ENDBRANCH   8  24
TORSDOF 5
ENDMDL
MODEL 2
REMARK VINA RESULT:    -7.143      1.267      2.861
REMARK INTER + INTRA:          -8.661
REMARK INTER:                  -8.389
REMARK INTRA:                  -0.271
REMARK UNBOUND:                -0.265
REMARK SMILES O=c1cc(-c2ccc(O)c(O)c2)oc2cc(O)cc(O)c12
REMARK SMILES IDX 4 1 3 2 2 3 1 4 21 5 19 6 18 7 16 8 15 9 14 10 13 11 5 12
REMARK SMILES IDX 6 13 7 14 8 15 12 16 10 17 9 18 11 20 20 22 17 24
REMARK H PARENT 9 19 11 21 20 23 17 25
REMARK Flexibility Score: inf
ROOT
ATOM      1  C   UNL     1      31.423 -92.068  37.843  1.00  0.00     0.138 A 
ATOM      2  C   UNL     1      32.407 -92.908  38.379  1.00  0.00     0.100 A 
ATOM      3  C   UNL     1      32.141 -94.269  38.541  1.00  0.00     0.197 A 
ATOM      4  O   UNL     1      33.064 -95.006  38.973  1.00  0.00    -0.289 OA
ATOM      5  C   UNL     1      30.866 -94.783  38.198  1.00  0.00     0.107 A 
ATOM      6  C   UNL     1      30.470 -96.145  38.352  1.00  0.00     0.134 A 
ATOM      7  C   UNL     1      29.214 -96.555  37.884  1.00  0.00     0.093 A 
ATOM      8  C   UNL     1      28.320 -95.641  37.322  1.00  0.00     0.123 A 
ATOM      9  C   UNL     1      28.679 -94.300  37.213  1.00  0.00     0.094 A 
ATOM     10  C   UNL     1      29.938 -93.865  37.638  1.00  0.00     0.146 A 
ATOM     11  O   UNL     1      30.246 -92.581  37.499  1.00  0.00    -0.456 OA
ENDROOT
BRANCH   1  12
ATOM     12  C   UNL     1      31.650 -90.613  37.652  1.00  0.00     0.021 A 
ATOM     13  C   UNL     1      32.567 -90.126  36.701  1.00  0.00     0.016 A 
ATOM     14  C   UNL     1      32.754 -88.751  36.536  1.00  0.00     0.051 A 
ATOM     15  C   UNL     1      32.024 -87.840  37.309  1.00  0.00     0.157 A 
ATOM     16  C   UNL     1      30.911 -89.691  38.414  1.00  0.00     0.062 A 
ATOM     17  C   UNL     1      31.097 -88.314  38.252  1.00  0.00     0.158 A 
BRANCH  15  18
ATOM     18  O   UNL     1      32.213 -86.469  37.142  1.00  0.00    -0.504 OA
ATOM     19  H   UNL     1      32.991 -86.102  36.606  1.00  0.00     0.293 HD
ENDBRANCH  15  18
BRANCH  17  20
ATOM     20  O   UNL     1      30.352 -87.432  39.034  1.00  0.00    -0.504 OA
ATOM     21  H   UNL     1      30.226 -87.570  40.029  1.00  0.00     0.293 HD
ENDBRANCH  17  20
ENDBRANCH   1  12
BRANCH   6  22
ATOM     22  O   UNL     1      31.252 -97.124  38.971  1.00  0.00    -0.507 OA
ATOM     23  H   UNL     1      31.503 -98.011  38.562  1.00  0.00     0.293 HD
ENDBRANCH   6  22
BRANCH   8  24
ATOM     24  O   UNL     1      27.068 -96.055  36.874  1.00  0.00    -0.508 OA
ATOM     25  H   UNL     1      26.213 -95.693  37.279  1.00  0.00     0.293 HD
ENDBRANCH   8  24
TORSDOF 5
ENDMDL
MODEL 3
REMARK VINA RESULT:    -5.728      9.185     10.783
REMARK INTER + INTRA:          -6.997
REMARK INTER:                  -6.717
REMARK INTRA:                  -0.281
REMARK UNBOUND:                -0.265
REMARK SMILES O=c1cc(-c2ccc(O)c(O)c2)oc2cc(O)cc(O)c12
REMARK SMILES IDX 4 1 3 2 2 3 1 4 21 5 19 6 18 7 16 8 15 9 14 10 13 11 5 12
REMARK SMILES IDX 6 13 7 14 8 15 12 16 10 17 9 18 11 20 20 22 17 24
REMARK H PARENT 9 19 11 21 20 23 17 25
REMARK Flexibility Score: inf
ROOT
ATOM      1  C   UNL     1      37.945 -94.833  31.251  1.00  0.00     0.138 A 
ATOM      2  C   UNL     1      38.597 -95.454  30.179  1.00  0.00     0.100 A 
ATOM      3  C   UNL     1      37.934 -95.607  28.960  1.00  0.00     0.197 A 
ATOM      4  O   UNL     1      38.566 -96.118  28.000  1.00  0.00    -0.289 OA
ATOM      5  C   UNL     1      36.593 -95.168  28.829  1.00  0.00     0.107 A 
ATOM      6  C   UNL     1      35.805 -95.302  27.647  1.00  0.00     0.134 A 
ATOM      7  C   UNL     1      34.522 -94.740  27.606  1.00  0.00     0.093 A 
ATOM      8  C   UNL     1      33.979 -94.099  28.722  1.00  0.00     0.123 A 
ATOM      9  C   UNL     1      34.722 -94.007  29.896  1.00  0.00     0.094 A 
ATOM     10  C   UNL     1      36.018 -94.527  29.959  1.00  0.00     0.146 A 
ATOM     11  O   UNL     1      36.698 -94.401  31.093  1.00  0.00    -0.456 OA
ENDROOT
BRANCH   1  12
ATOM     12  C   UNL     1      38.602 -94.648  32.570  1.00  0.00     0.021 A 
ATOM     13  C   UNL     1      39.802 -93.923  32.704  1.00  0.00     0.016 A 
ATOM     14  C   UNL     1      40.393 -93.756  33.958  1.00  0.00     0.051 A 
ATOM     15  C   UNL     1      39.793 -94.300  35.101  1.00  0.00     0.157 A 
ATOM     16  C   UNL     1      37.999 -95.178  33.724  1.00  0.00     0.062 A 
ATOM     17  C   UNL     1      38.589 -95.013  34.982  1.00  0.00     0.158 A 
BRANCH  15  18
ATOM     18  O   UNL     1      40.386 -94.131  36.352  1.00  0.00    -0.504 OA
ATOM     19  H   UNL     1      39.831 -93.967  37.184  1.00  0.00     0.293 HD
ENDBRANCH  15  18
BRANCH  17  20
ATOM     20  O   UNL     1      37.965 -95.563  36.101  1.00  0.00    -0.504 OA
ATOM     21  H   UNL     1      36.977 -95.785  36.113  1.00  0.00     0.293 HD
ENDBRANCH  17  20
ENDBRANCH   1  12
BRANCH   6  22
ATOM     22  O   UNL     1      36.219 -95.991  26.503  1.00  0.00    -0.507 OA
ATOM     23  H   UNL     1      35.603 -96.384  25.808  1.00  0.00     0.293 HD
ENDBRANCH   6  22
BRANCH   8  24
ATOM     24  O   UNL     1      32.697 -93.556  28.676  1.00  0.00    -0.508 OA
ATOM     25  H   UNL     1      31.873 -94.145  28.650  1.00  0.00     0.293 HD
ENDBRANCH   8  24
TORSDOF 5
ENDMDL
MODEL 4
REMARK VINA RESULT:    -5.596      8.789     10.950
REMARK INTER + INTRA:          -6.842
REMARK INTER:                  -6.525
REMARK INTRA:                  -0.317
REMARK UNBOUND:                -0.265
REMARK SMILES O=c1cc(-c2ccc(O)c(O)c2)oc2cc(O)cc(O)c12
REMARK SMILES IDX 4 1 3 2 2 3 1 4 21 5 19 6 18 7 16 8 15 9 14 10 13 11 5 12
REMARK SMILES IDX 6 13 7 14 8 15 12 16 10 17 9 18 11 20 20 22 17 24
REMARK H PARENT 9 19 11 21 20 23 17 25
REMARK Flexibility Score: inf
ROOT
ATOM      1  C   UNL     1      40.936 -94.674  35.804  1.00  0.00     0.138 A 
ATOM      2  C   UNL     1      42.062 -94.881  34.997  1.00  0.00     0.100 A 
ATOM      3  C   UNL     1      41.920 -94.920  33.609  1.00  0.00     0.197 A 
ATOM      4  O   UNL     1      42.957 -95.053  32.910  1.00  0.00    -0.289 OA
ATOM      5  C   UNL     1      40.634 -94.788  33.029  1.00  0.00     0.107 A 
ATOM      6  C   UNL     1      40.363 -94.846  31.629  1.00  0.00     0.134 A 
ATOM      7  C   UNL     1      39.063 -94.603  31.167  1.00  0.00     0.093 A 
ATOM      8  C   UNL     1      38.015 -94.361  32.058  1.00  0.00     0.123 A 
ATOM      9  C   UNL     1      38.260 -94.350  33.429  1.00  0.00     0.094 A 
ATOM     10  C   UNL     1      39.552 -94.556  33.920  1.00  0.00     0.146 A 
ATOM     11  O   UNL     1      39.745 -94.521  35.234  1.00  0.00    -0.456 OA
ENDROOT
BRANCH   1  12
ATOM     12  C   UNL     1      41.028 -94.627  37.285  1.00  0.00     0.021 A 
ATOM     13  C   UNL     1      42.214 -94.968  37.964  1.00  0.00     0.016 A 
ATOM     14  C   UNL     1      42.275 -94.905  39.359  1.00  0.00     0.051 A 
ATOM     15  C   UNL     1      41.159 -94.493  40.098  1.00  0.00     0.157 A 
ATOM     16  C   UNL     1      39.918 -94.200  38.035  1.00  0.00     0.062 A 
ATOM     17  C   UNL     1      39.976 -94.137  39.431  1.00  0.00     0.158 A 
BRANCH  15  18
ATOM     18  O   UNL     1      41.224 -94.431  41.489  1.00  0.00    -0.504 OA
ATOM     19  H   UNL     1      42.086 -94.620  41.990  1.00  0.00     0.293 HD
ENDBRANCH  15  18
BRANCH  17  20
ATOM     20  O   UNL     1      38.850 -93.719  40.139  1.00  0.00    -0.504 OA
ATOM     21  H   UNL     1      38.460 -94.260  40.900  1.00  0.00     0.293 HD
ENDBRANCH  17  20
ENDBRANCH   1  12
BRANCH   6  22
ATOM     22  O   UNL     1      41.319 -95.159  30.658  1.00  0.00    -0.507 OA
ATOM     23  H   UNL     1      41.667 -96.085  30.463  1.00  0.00     0.293 HD
ENDBRANCH   6  22
BRANCH   8  24
ATOM     24  O   UNL     1      36.723 -94.134  31.590  1.00  0.00    -0.508 OA
ATOM     25  H   UNL     1      35.914 -94.540  32.046  1.00  0.00     0.293 HD
ENDBRANCH   8  24
TORSDOF 5
ENDMDL
MODEL 5
REMARK VINA RESULT:    -5.584      9.926     11.416
REMARK INTER + INTRA:          -6.828
REMARK INTER:                  -6.519
REMARK INTRA:                  -0.309
REMARK UNBOUND:                -0.265
REMARK SMILES O=c1cc(-c2ccc(O)c(O)c2)oc2cc(O)cc(O)c12
REMARK SMILES IDX 4 1 3 2 2 3 1 4 21 5 19 6 18 7 16 8 15 9 14 10 13 11 5 12
REMARK SMILES IDX 6 13 7 14 8 15 12 16 10 17 9 18 11 20 20 22 17 24
REMARK H PARENT 9 19 11 21 20 23 17 25
REMARK Flexibility Score: inf
ROOT
ATOM      1  C   UNL     1      39.559 -94.988  31.363  1.00  0.00     0.138 A 
ATOM      2  C   UNL     1      39.974 -95.232  30.048  1.00  0.00     0.100 A 
ATOM      3  C   UNL     1      39.021 -95.383  29.039  1.00  0.00     0.197 A 
ATOM      4  O   UNL     1      39.426 -95.546  27.860  1.00  0.00    -0.289 OA
ATOM      5  C   UNL     1      37.642 -95.326  29.359  1.00  0.00     0.107 A 
ATOM      6  C   UNL     1      36.581 -95.500  28.421  1.00  0.00     0.134 A 
ATOM      7  C   UNL     1      35.256 -95.323  28.838  1.00  0.00     0.093 A 
ATOM      8  C   UNL     1      34.951 -95.036  30.171  1.00  0.00     0.123 A 
ATOM      9  C   UNL     1      35.977 -94.913  31.104  1.00  0.00     0.094 A 
ATOM     10  C   UNL     1      37.311 -95.050  30.713  1.00  0.00     0.146 A 
ATOM     11  O   UNL     1      38.260 -94.908  31.632  1.00  0.00    -0.456 OA
ENDROOT
BRANCH   1  12
ATOM     12  C   UNL     1      40.529 -94.823  32.475  1.00  0.00     0.021 A 
ATOM     13  C   UNL     1      41.816 -95.393  32.426  1.00  0.00     0.016 A 
ATOM     14  C   UNL     1      42.711 -95.213  33.483  1.00  0.00     0.051 A 
ATOM     15  C   UNL     1      42.343 -94.456  34.602  1.00  0.00     0.157 A 
ATOM     16  C   UNL     1      40.172 -94.053  33.596  1.00  0.00     0.062 A 
ATOM     17  C   UNL     1      41.067 -93.871  34.657  1.00  0.00     0.158 A 
BRANCH  15  18
ATOM     18  O   UNL     1      43.239 -94.279  35.655  1.00  0.00    -0.504 OA
ATOM     19  H   UNL     1      43.498 -95.045  36.266  1.00  0.00     0.293 HD
ENDBRANCH  15  18
BRANCH  17  20
ATOM     20  O   UNL     1      40.671 -93.109  35.755  1.00  0.00    -0.504 OA
ATOM     21  H   UNL     1      39.698 -92.908  35.949  1.00  0.00     0.293 HD
ENDBRANCH  17  20
ENDBRANCH   1  12
BRANCH   6  22
ATOM     22  O   UNL     1      36.769 -95.866  27.085  1.00  0.00    -0.507 OA
ATOM     23  H   UNL     1      37.555 -95.596  26.514  1.00  0.00     0.293 HD
ENDBRANCH   6  22
BRANCH   8  24
ATOM     24  O   UNL     1      33.629 -94.877  30.579  1.00  0.00    -0.508 OA
ATOM     25  H   UNL     1      33.375 -94.228  31.315  1.00  0.00     0.293 HD
ENDBRANCH   8  24
TORSDOF 5
ENDMDL
MODEL 6
REMARK VINA RESULT:    -5.459      9.180     10.612
REMARK INTER + INTRA:          -6.682
REMARK INTER:                  -6.403
REMARK INTRA:                  -0.278
REMARK UNBOUND:                -0.265
REMARK SMILES O=c1cc(-c2ccc(O)c(O)c2)oc2cc(O)cc(O)c12
REMARK SMILES IDX 4 1 3 2 2 3 1 4 21 5 19 6 18 7 16 8 15 9 14 10 13 11 5 12
REMARK SMILES IDX 6 13 7 14 8 15 12 16 10 17 9 18 11 20 20 22 17 24
REMARK H PARENT 9 19 11 21 20 23 17 25
REMARK Flexibility Score: inf
ROOT
ATOM      1  C   UNL     1      36.481 -94.851  30.141  1.00  0.00     0.138 A 
ATOM      2  C   UNL     1      37.515 -95.266  29.294  1.00  0.00     0.100 A 
ATOM      3  C   UNL     1      38.831 -95.271  29.759  1.00  0.00     0.197 A 
ATOM      4  O   UNL     1      39.730 -95.702  28.992  1.00  0.00    -0.289 OA
ATOM      5  C   UNL     1      39.115 -94.821  31.072  1.00  0.00     0.107 A 
ATOM      6  C   UNL     1      40.420 -94.749  31.643  1.00  0.00     0.134 A 
ATOM      7  C   UNL     1      40.566 -94.381  32.987  1.00  0.00     0.093 A 
ATOM      8  C   UNL     1      39.460 -94.026  33.762  1.00  0.00     0.123 A 
ATOM      9  C   UNL     1      38.186 -94.046  33.199  1.00  0.00     0.094 A 
ATOM     10  C   UNL     1      38.003 -94.442  31.872  1.00  0.00     0.146 A 
ATOM     11  O   UNL     1      36.770 -94.464  31.380  1.00  0.00    -0.456 OA
ENDROOT
BRANCH   1  12
ATOM     12  C   UNL     1      35.064 -94.822  29.697  1.00  0.00     0.021 A 
ATOM     13  C   UNL     1      34.648 -94.047  28.598  1.00  0.00     0.016 A 
ATOM     14  C   UNL     1      33.311 -94.047  28.196  1.00  0.00     0.051 A 
ATOM     15  C   UNL     1      32.367 -94.825  28.878  1.00  0.00     0.157 A 
ATOM     16  C   UNL     1      34.113 -95.612  30.367  1.00  0.00     0.062 A 
ATOM     17  C   UNL     1      32.772 -95.613  29.968  1.00  0.00     0.158 A 
BRANCH  15  18
ATOM     18  O   UNL     1      31.033 -94.822  28.474  1.00  0.00    -0.504 OA
ATOM     19  H   UNL     1      30.282 -95.043  29.120  1.00  0.00     0.293 HD
ENDBRANCH  15  18
BRANCH  17  20
ATOM     20  O   UNL     1      31.858 -96.402  30.664  1.00  0.00    -0.504 OA
ATOM     21  H   UNL     1      32.028 -97.381  30.858  1.00  0.00     0.293 HD
ENDBRANCH  17  20
ENDBRANCH   1  12
BRANCH   6  22
ATOM     22  O   UNL     1      41.600 -95.004  30.937  1.00  0.00    -0.507 OA
ATOM     23  H   UNL     1      41.651 -95.236  29.957  1.00  0.00     0.293 HD
ENDBRANCH   6  22
BRANCH   8  24
ATOM     24  O   UNL     1      39.616 -93.647  35.093  1.00  0.00    -0.508 OA
ATOM     25  H   UNL     1      40.455 -93.874  35.614  1.00  0.00     0.293 HD
ENDBRANCH   8  24
TORSDOF 5
ENDMDL
MODEL 7
REMARK VINA RESULT:    -5.458      8.414     10.393
REMARK INTER + INTRA:          -6.680
REMARK INTER:                  -6.365
REMARK INTRA:                  -0.315
REMARK UNBOUND:                -0.265
REMARK SMILES O=c1cc(-c2ccc(O)c(O)c2)oc2cc(O)cc(O)c12
REMARK SMILES IDX 4 1 3 2 2 3 1 4 21 5 19 6 18 7 16 8 15 9 14 10 13 11 5 12
REMARK SMILES IDX 6 13 7 14 8 15 12 16 10 17 9 18 11 20 20 22 17 24
REMARK H PARENT 9 19 11 21 20 23 17 25
REMARK Flexibility Score: inf
ROOT
ATOM      1  C   UNL     1      39.844 -94.696  33.917  1.00  0.00     0.138 A 
ATOM      2  C   UNL     1      41.215 -94.440  34.041  1.00  0.00     0.100 A 
ATOM      3  C   UNL     1      41.795 -94.373  35.310  1.00  0.00     0.197 A 
ATOM      4  O   UNL     1      43.038 -94.197  35.386  1.00  0.00    -0.289 OA
ATOM      5  C   UNL     1      40.985 -94.526  36.462  1.00  0.00     0.107 A 
ATOM      6  C   UNL     1      41.458 -94.442  37.806  1.00  0.00     0.134 A 
ATOM      7  C   UNL     1      40.579 -94.710  38.864  1.00  0.00     0.093 A 
ATOM      8  C   UNL     1      39.234 -95.000  38.628  1.00  0.00     0.123 A 
ATOM      9  C   UNL     1      38.752 -95.035  37.323  1.00  0.00     0.094 A 
ATOM     10  C   UNL     1      39.610 -94.807  36.244  1.00  0.00     0.146 A 
ATOM     11  O   UNL     1      39.112 -94.867  35.013  1.00  0.00    -0.456 OA
ENDROOT
BRANCH   1  12
ATOM     12  C   UNL     1      39.176 -94.775  32.594  1.00  0.00     0.021 A 
ATOM     13  C   UNL     1      39.908 -94.944  31.403  1.00  0.00     0.016 A 
ATOM     14  C   UNL     1      39.252 -95.025  30.173  1.00  0.00     0.051 A 
ATOM     15  C   UNL     1      37.855 -94.947  30.109  1.00  0.00     0.157 A 
ATOM     16  C   UNL     1      37.773 -94.712  32.522  1.00  0.00     0.062 A 
ATOM     17  C   UNL     1      37.113 -94.792  31.291  1.00  0.00     0.158 A 
BRANCH  15  18
ATOM     18  O   UNL     1      37.204 -95.028  28.879  1.00  0.00    -0.504 OA
ATOM     19  H   UNL     1      37.534 -95.641  28.143  1.00  0.00     0.293 HD
ENDBRANCH  15  18
BRANCH  17  20
ATOM     20  O   UNL     1      35.721 -94.715  31.261  1.00  0.00    -0.504 OA
ATOM     21  H   UNL     1      35.208 -94.565  30.402  1.00  0.00     0.293 HD
ENDBRANCH  17  20
ENDBRANCH   1  12
BRANCH   6  22
ATOM     22  O   UNL     1      42.762 -94.082  38.156  1.00  0.00    -0.507 OA
ATOM     23  H   UNL     1      43.561 -94.124  37.542  1.00  0.00     0.293 HD
ENDBRANCH   6  22
BRANCH   8  24
ATOM     24  O   UNL     1      38.365 -95.249  39.688  1.00  0.00    -0.508 OA
ATOM     25  H   UNL     1      37.762 -94.526  40.062  1.00  0.00     0.293 HD
ENDBRANCH   8  24
TORSDOF 5
ENDMDL
MODEL 8
REMARK VINA RESULT:    -5.342      7.600      9.525
REMARK INTER + INTRA:          -6.543
REMARK INTER:                  -6.235
REMARK INTRA:                  -0.308
REMARK UNBOUND:                -0.265
REMARK SMILES O=c1cc(-c2ccc(O)c(O)c2)oc2cc(O)cc(O)c12
REMARK SMILES IDX 4 1 3 2 2 3 1 4 21 5 19 6 18 7 16 8 15 9 14 10 13 11 5 12
REMARK SMILES IDX 6 13 7 14 8 15 12 16 10 17 9 18 11 20 20 22 17 24
REMARK H PARENT 9 19 11 21 20 23 17 25
REMARK Flexibility Score: inf
ROOT
ATOM      1  C   UNL     1      39.479 -94.850  35.436  1.00  0.00     0.138 A 
ATOM      2  C   UNL     1      40.615 -94.438  36.143  1.00  0.00     0.100 A 
ATOM      3  C   UNL     1      40.645 -94.552  37.534  1.00  0.00     0.197 A 
ATOM      4  O   UNL     1      41.700 -94.225  38.134  1.00  0.00    -0.289 OA
ATOM      5  C   UNL     1      39.511 -95.050  38.223  1.00  0.00     0.107 A 
ATOM      6  C   UNL     1      39.413 -95.179  39.641  1.00  0.00     0.134 A 
ATOM      7  C   UNL     1      38.277 -95.777  40.202  1.00  0.00     0.093 A 
ATOM      8  C   UNL     1      37.213 -96.197  39.401  1.00  0.00     0.123 A 
ATOM      9  C   UNL     1      37.279 -96.030  38.020  1.00  0.00     0.094 A 
ATOM     10  C   UNL     1      38.412 -95.469  37.426  1.00  0.00     0.146 A 
ATOM     11  O   UNL     1      38.441 -95.344  36.104  1.00  0.00    -0.456 OA
ENDROOT
BRANCH   1  12
ATOM     12  C   UNL     1      39.392 -94.748  33.958  1.00  0.00     0.021 A 
ATOM     13  C   UNL     1      40.539 -94.810  33.143  1.00  0.00     0.016 A 
ATOM     14  C   UNL     1      40.427 -94.721  31.754  1.00  0.00     0.051 A 
ATOM     15  C   UNL     1      39.170 -94.578  31.153  1.00  0.00     0.157 A 
ATOM     16  C   UNL     1      38.133 -94.619  33.346  1.00  0.00     0.062 A 
ATOM     17  C   UNL     1      38.018 -94.529  31.954  1.00  0.00     0.158 A 
BRANCH  15  18
ATOM     18  O   UNL     1      39.062 -94.489  29.766  1.00  0.00    -0.504 OA
ATOM     19  H   UNL     1      39.460 -93.711  29.251  1.00  0.00     0.293 HD
ENDBRANCH  15  18
BRANCH  17  20
ATOM     20  O   UNL     1      36.752 -94.391  31.386  1.00  0.00    -0.504 OA
ATOM     21  H   UNL     1      36.529 -93.642  30.743  1.00  0.00     0.293 HD
ENDBRANCH  17  20
ENDBRANCH   1  12
BRANCH   6  22
ATOM     22  O   UNL     1      40.381 -94.721  40.539  1.00  0.00    -0.507 OA
ATOM     23  H   UNL     1      41.265 -94.310  40.279  1.00  0.00     0.293 HD
ENDBRANCH   6  22
BRANCH   8  24
ATOM     24  O   UNL     1      36.081 -96.778  39.969  1.00  0.00    -0.508 OA
ATOM     25  H   UNL     1      36.102 -97.181  40.898  1.00  0.00     0.293 HD
ENDBRANCH   8  24
TORSDOF 5
ENDMDL
MODEL 9
REMARK VINA RESULT:    -5.277      8.425      9.977
REMARK INTER + INTRA:          -6.467
REMARK INTER:                  -6.172
REMARK INTRA:                  -0.295
REMARK UNBOUND:                -0.265
REMARK SMILES O=c1cc(-c2ccc(O)c(O)c2)oc2cc(O)cc(O)c12
REMARK SMILES IDX 4 1 3 2 2 3 1 4 21 5 19 6 18 7 16 8 15 9 14 10 13 11 5 12
REMARK SMILES IDX 6 13 7 14 8 15 12 16 10 17 9 18 11 20 20 22 17 24
REMARK H PARENT 9 19 11 21 20 23 17 25
REMARK Flexibility Score: inf
ROOT
ATOM      1  C   UNL     1      40.012 -94.994  37.431  1.00  0.00     0.138 A 
ATOM      2  C   UNL     1      38.905 -95.494  38.128  1.00  0.00     0.100 A 
ATOM      3  C   UNL     1      39.039 -95.862  39.468  1.00  0.00     0.197 A 
ATOM      4  O   UNL     1      38.014 -96.254  40.081  1.00  0.00    -0.289 OA
ATOM      5  C   UNL     1      40.303 -95.763  40.101  1.00  0.00     0.107 A 
ATOM      6  C   UNL     1      40.567 -96.141  41.452  1.00  0.00     0.134 A 
ATOM      7  C   UNL     1      41.835 -95.904  41.998  1.00  0.00     0.093 A 
ATOM      8  C   UNL     1      42.863 -95.358  41.226  1.00  0.00     0.123 A 
ATOM      9  C   UNL     1      42.628 -95.031  39.893  1.00  0.00     0.094 A 
ATOM     10  C   UNL     1      41.365 -95.223  39.328  1.00  0.00     0.146 A 
ATOM     11  O   UNL     1      41.179 -94.882  38.058  1.00  0.00    -0.456 OA
ENDROOT
BRANCH   1  12
ATOM     12  C   UNL     1      39.927 -94.591  36.005  1.00  0.00     0.021 A 
ATOM     13  C   UNL     1      41.053 -94.125  35.299  1.00  0.00     0.016 A 
ATOM     14  C   UNL     1      40.945 -93.761  33.954  1.00  0.00     0.051 A 
ATOM     15  C   UNL     1      39.718 -93.865  33.289  1.00  0.00     0.157 A 
ATOM     16  C   UNL     1      38.702 -94.707  35.325  1.00  0.00     0.062 A 
ATOM     17  C   UNL     1      38.591 -94.343  33.978  1.00  0.00     0.158 A 
BRANCH  15  18
ATOM     18  O   UNL     1      39.614 -93.502  31.947  1.00  0.00    -0.504 OA
ATOM     19  H   UNL     1      40.338 -93.735  31.276  1.00  0.00     0.293 HD
ENDBRANCH  15  18
BRANCH  17  20
ATOM     20  O   UNL     1      37.356 -94.462  33.343  1.00  0.00    -0.504 OA
ATOM     21  H   UNL     1      36.545 -93.930  33.636  1.00  0.00     0.293 HD
ENDBRANCH  17  20
ENDBRANCH   1  12
BRANCH   6  22
ATOM     22  O   UNL     1      39.637 -96.767  42.287  1.00  0.00    -0.507 OA
ATOM     23  H   UNL     1      39.600 -97.757  42.475  1.00  0.00     0.293 HD
ENDBRANCH   6  22
BRANCH   8  24
ATOM     24  O   UNL     1      44.124 -95.140  41.775  1.00  0.00    -0.508 OA
ATOM     25  H   UNL     1      44.745 -95.909  42.000  1.00  0.00     0.293 HD
ENDBRANCH   8  24
TORSDOF 5
ENDMDL
