MODEL 1
REMARK VINA RESULT:    -4.057      0.000      0.000
REMARK INTER + INTRA:          -8.361
REMARK INTER:                  -7.378
REMARK INTRA:                  -0.983
REMARK UNBOUND:                -0.983
REMARK SMILES CCCCCCCCCCCCCCCC(=O)[O-]
REMARK SMILES IDX 9 1 10 2 11 3 12 4 13 5 14 6 15 7 16 8 17 9 18 10 8 11 7 12
REMARK SMILES IDX 6 13 5 14 4 15 3 16 2 17 1 18
REMARK H PARENT
REMARK Flexibility Score: inf
ROOT
ATOM      1  C   UNL     1     -99.953 -62.657 -68.445  1.00  0.00     0.000 C 
ENDROOT
BRANCH   1   2
ATOM      2  C   UNL     1     -98.546 -63.030 -68.942  1.00  0.00     0.000 C 
BRANCH   2   3
ATOM      3  C   UNL     1     -97.848 -61.864 -69.663  1.00  0.00     0.000 C 
BRANCH   3   4
ATOM      4  C   UNL     1     -96.855 -62.340 -70.737  1.00  0.00     0.000 C 
BRANCH   4   5
ATOM      5  C   UNL     1     -95.423 -62.483 -70.196  1.00  0.00     0.000 C 
BRANCH   5   6
ATOM      6  C   UNL     1     -94.689 -61.138 -70.103  1.00  0.00     0.006 C 
BRANCH   6   7
ATOM      7  C   UNL     1     -93.251 -61.261 -70.614  1.00  0.00     0.053 C 
BRANCH   7   8
ATOM      8  C   UNL     1     -93.236 -61.738 -72.031  1.00  0.00     0.041 C 
ATOM      9  O   UNL     1     -92.876 -62.915 -72.301  1.00  0.00    -0.550 OA
ATOM     10  O   UNL     1     -93.572 -60.869 -73.061  1.00  0.00    -0.550 OA
ENDBRANCH   7   8
ENDBRANCH   6   7
ENDBRANCH   5   6
ENDBRANCH   4   5
ENDBRANCH   3   4
ENDBRANCH   2   3
ENDBRANCH   1   2
BRANCH   1  11
ATOM     11  C   UNL     1     -99.938 -62.036 -67.038  1.00  0.00     0.000 C 
BRANCH  11  12
ATOM     12  C   UNL     1    -100.849 -60.805 -66.924  1.00  0.00    -0.000 C 
BRANCH  12  13
ATOM     13  C   UNL     1    -100.019 -59.519 -66.792  1.00  0.00    -0.000 C 
BRANCH  13  14
ATOM     14  C   UNL     1     -98.506 -59.790 -66.710  1.00  0.00    -0.000 C 
BRANCH  14  15
ATOM     15  C   UNL     1     -97.608 -58.608 -67.125  1.00  0.00    -0.000 C 
BRANCH  15  16
ATOM     16  C   UNL     1     -97.079 -57.747 -65.959  1.00  0.00    -0.000 C 
BRANCH  16  17
ATOM     17  C   UNL     1     -96.526 -58.544 -64.765  1.00  0.00    -0.003 C 
ATOM     18  C   UNL     1     -95.996 -57.649 -63.646  1.00  0.00     0.004 C 
ENDBRANCH  16  17
ENDBRANCH  15  16
ENDBRANCH  14  15
ENDBRANCH  13  14
ENDBRANCH  12  13
ENDBRANCH  11  12
ENDBRANCH   1  11
TORSDOF 14
ENDMDL
MODEL 2
REMARK VINA RESULT:    -3.793      1.835      3.648
REMARK INTER + INTRA:          -7.881
REMARK INTER:                  -6.401
REMARK INTRA:                  -1.480
REMARK UNBOUND:                -0.983
REMARK SMILES CCCCCCCCCCCCCCCC(=O)[O-]
REMARK SMILES IDX 9 1 10 2 11 3 12 4 13 5 14 6 15 7 16 8 17 9 18 10 8 11 7 12
REMARK SMILES IDX 6 13 5 14 4 15 3 16 2 17 1 18
REMARK H PARENT
REMARK Flexibility Score: inf
ROOT
ATOM      1  C   UNL     1     -99.791 -59.378 -66.853  1.00  0.00     0.000 C 
ENDROOT
BRANCH   1   2
ATOM      2  C   UNL     1    -100.656 -60.635 -67.044  1.00  0.00     0.000 C 
BRANCH   2   3
ATOM      3  C   UNL     1     -99.813 -61.913 -67.191  1.00  0.00     0.000 C 
BRANCH   3   4
ATOM      4  C   UNL     1     -99.870 -62.503 -68.611  1.00  0.00     0.000 C 
BRANCH   4   5
ATOM      5  C   UNL     1     -98.508 -63.033 -69.086  1.00  0.00     0.000 C 
BRANCH   5   6
ATOM      6  C   UNL     1     -97.782 -62.049 -70.014  1.00  0.00     0.006 C 
BRANCH   6   7
ATOM      7  C   UNL     1     -96.338 -62.494 -70.264  1.00  0.00     0.053 C 
BRANCH   7   8
ATOM      8  C   UNL     1     -95.457 -61.310 -70.506  1.00  0.00     0.041 C 
ATOM      9  O   UNL     1     -94.321 -61.244 -69.966  1.00  0.00    -0.550 OA
ATOM     10  O   UNL     1     -95.911 -60.254 -71.286  1.00  0.00    -0.550 OA
ENDBRANCH   7   8
ENDBRANCH   6   7
ENDBRANCH   5   6
ENDBRANCH   4   5
ENDBRANCH   3   4
ENDBRANCH   2   3
ENDBRANCH   1   2
BRANCH   1  11
ATOM     11  C   UNL     1     -98.406 -59.508 -67.510  1.00  0.00     0.000 C 
BRANCH  11  12
ATOM     12  C   UNL     1     -97.371 -58.548 -66.906  1.00  0.00    -0.000 C 
BRANCH  12  13
ATOM     13  C   UNL     1     -97.700 -58.241 -65.436  1.00  0.00    -0.000 C 
BRANCH  13  14
ATOM     14  C   UNL     1     -96.631 -58.765 -64.462  1.00  0.00    -0.000 C 
BRANCH  14  15
ATOM     15  C   UNL     1     -96.620 -60.295 -64.266  1.00  0.00    -0.000 C 
BRANCH  15  16
ATOM     16  C   UNL     1     -98.008 -60.966 -64.277  1.00  0.00    -0.000 C 
BRANCH  16  17
ATOM     17  C   UNL     1     -98.022 -62.430 -63.804  1.00  0.00    -0.003 C 
ATOM     18  C   UNL     1     -99.434 -62.998 -63.669  1.00  0.00     0.004 C 
ENDBRANCH  16  17
ENDBRANCH  15  16
ENDBRANCH  14  15
ENDBRANCH  13  14
ENDBRANCH  12  13
ENDBRANCH  11  12
ENDBRANCH   1  11
TORSDOF 14
ENDMDL
MODEL 3
REMARK VINA RESULT:    -3.766     14.025     15.526
REMARK INTER + INTRA:          -7.831
REMARK INTER:                  -6.256
REMARK INTRA:                  -1.575
REMARK UNBOUND:                -0.983
REMARK SMILES CCCCCCCCCCCCCCCC(=O)[O-]
REMARK SMILES IDX 9 1 10 2 11 3 12 4 13 5 14 6 15 7 16 8 17 9 18 10 8 11 7 12
REMARK SMILES IDX 6 13 5 14 4 15 3 16 2 17 1 18
REMARK H PARENT
REMARK Flexibility Score: inf
ROOT
ATOM      1  C   UNL     1     -98.505 -46.843 -69.631  1.00  0.00     0.000 C 
ENDROOT
BRANCH   1   2
ATOM      2  C   UNL     1     -97.992 -46.938 -71.078  1.00  0.00     0.000 C 
BRANCH   2   3
ATOM      3  C   UNL     1     -98.789 -47.946 -71.922  1.00  0.00     0.000 C 
BRANCH   3   4
ATOM      4  C   UNL     1     -99.783 -47.264 -72.879  1.00  0.00     0.000 C 
BRANCH   4   5
ATOM      5  C   UNL     1    -101.235 -47.707 -72.636  1.00  0.00     0.000 C 
BRANCH   5   6
ATOM      6  C   UNL     1    -101.932 -46.878 -71.548  1.00  0.00     0.006 C 
BRANCH   6   7
ATOM      7  C   UNL     1    -103.453 -47.022 -71.638  1.00  0.00     0.053 C 
BRANCH   7   8
ATOM      8  C   UNL     1    -103.937 -48.083 -70.701  1.00  0.00     0.041 C 
ATOM      9  O   UNL     1    -103.799 -47.941 -69.457  1.00  0.00    -0.550 OA
ATOM     10  O   UNL     1    -104.493 -49.253 -71.203  1.00  0.00    -0.550 OA
ENDBRANCH   7   8
ENDBRANCH   6   7
ENDBRANCH   5   6
ENDBRANCH   4   5
ENDBRANCH   3   4
ENDBRANCH   2   3
ENDBRANCH   1   2
BRANCH   1  11
ATOM     11  C   UNL     1     -97.694 -45.852 -68.780  1.00  0.00     0.000 C 
BRANCH  11  12
ATOM     12  C   UNL     1     -96.895 -44.854 -69.632  1.00  0.00    -0.000 C 
BRANCH  12  13
ATOM     13  C   UNL     1     -95.445 -44.748 -69.135  1.00  0.00    -0.000 C 
BRANCH  13  14
ATOM     14  C   UNL     1     -95.077 -45.850 -68.125  1.00  0.00    -0.000 C 
BRANCH  14  15
ATOM     15  C   UNL     1     -93.999 -46.842 -68.606  1.00  0.00    -0.000 C 
BRANCH  15  16
ATOM     16  C   UNL     1     -93.664 -46.766 -70.110  1.00  0.00    -0.000 C 
BRANCH  16  17
ATOM     17  C   UNL     1     -94.343 -47.839 -70.978  1.00  0.00    -0.003 C 
ATOM     18  C   UNL     1     -94.605 -47.369 -72.408  1.00  0.00     0.004 C 
ENDBRANCH  16  17
ENDBRANCH  15  16
ENDBRANCH  14  15
ENDBRANCH  13  14
ENDBRANCH  12  13
ENDBRANCH  11  12
ENDBRANCH   1  11
TORSDOF 14
ENDMDL
MODEL 4
REMARK VINA RESULT:    -3.664     14.051     15.640
REMARK INTER + INTRA:          -7.645
REMARK INTER:                  -5.769
REMARK INTRA:                  -1.877
REMARK UNBOUND:                -0.983
REMARK SMILES CCCCCCCCCCCCCCCC(=O)[O-]
REMARK SMILES IDX 9 1 10 2 11 3 12 4 13 5 14 6 15 7 16 8 17 9 18 10 8 11 7 12
REMARK SMILES IDX 6 13 5 14 4 15 3 16 2 17 1 18
REMARK H PARENT
REMARK Flexibility Score: inf
ROOT
ATOM      1  C   UNL     1     -98.101 -46.810 -69.804  1.00  0.00     0.000 C 
ENDROOT
BRANCH   1   2
ATOM      2  C   UNL     1     -97.537 -46.403 -71.176  1.00  0.00     0.000 C 
BRANCH   2   3
ATOM      3  C   UNL     1     -97.758 -47.482 -72.249  1.00  0.00     0.000 C 
BRANCH   3   4
ATOM      4  C   UNL     1     -99.148 -48.137 -72.154  1.00  0.00     0.000 C 
BRANCH   4   5
ATOM      5  C   UNL     1    -100.086 -47.697 -73.289  1.00  0.00     0.000 C 
BRANCH   5   6
ATOM      6  C   UNL     1    -101.448 -47.209 -72.773  1.00  0.00     0.006 C 
BRANCH   6   7
ATOM      7  C   UNL     1    -101.389 -46.904 -71.273  1.00  0.00     0.053 C 
BRANCH   7   8
ATOM      8  C   UNL     1    -101.443 -45.428 -71.036  1.00  0.00     0.041 C 
ATOM      9  O   UNL     1    -100.582 -44.670 -71.557  1.00  0.00    -0.550 OA
ATOM     10  O   UNL     1    -102.412 -44.894 -70.196  1.00  0.00    -0.550 OA
ENDBRANCH   7   8
ENDBRANCH   6   7
ENDBRANCH   5   6
ENDBRANCH   4   5
ENDBRANCH   3   4
ENDBRANCH   2   3
ENDBRANCH   1   2
BRANCH   1  11
ATOM     11  C   UNL     1     -97.475 -46.012 -68.648  1.00  0.00     0.000 C 
BRANCH  11  12
ATOM     12  C   UNL     1     -96.105 -45.419 -69.011  1.00  0.00    -0.000 C 
BRANCH  12  13
ATOM     13  C   UNL     1     -95.004 -45.987 -68.102  1.00  0.00    -0.000 C 
BRANCH  13  14
ATOM     14  C   UNL     1     -93.988 -46.854 -68.866  1.00  0.00    -0.000 C 
BRANCH  14  15
ATOM     15  C   UNL     1     -93.269 -46.144 -70.031  1.00  0.00    -0.000 C 
BRANCH  15  16
ATOM     16  C   UNL     1     -93.586 -46.702 -71.433  1.00  0.00    -0.000 C 
BRANCH  16  17
ATOM     17  C   UNL     1     -94.283 -48.074 -71.441  1.00  0.00    -0.003 C 
ATOM     18  C   UNL     1     -94.207 -48.772 -72.799  1.00  0.00     0.004 C 
ENDBRANCH  16  17
ENDBRANCH  15  16
ENDBRANCH  14  15
ENDBRANCH  13  14
ENDBRANCH  12  13
ENDBRANCH  11  12
ENDBRANCH   1  11
TORSDOF 14
ENDMDL
MODEL 5
REMARK VINA RESULT:    -3.558     14.084     15.608
REMARK INTER + INTRA:          -7.454
REMARK INTER:                  -5.359
REMARK INTRA:                  -2.095
REMARK UNBOUND:                -0.983
REMARK SMILES CCCCCCCCCCCCCCCC(=O)[O-]
REMARK SMILES IDX 9 1 10 2 11 3 12 4 13 5 14 6 15 7 16 8 17 9 18 10 8 11 7 12
REMARK SMILES IDX 6 13 5 14 4 15 3 16 2 17 1 18
REMARK H PARENT
REMARK Flexibility Score: inf
ROOT
ATOM      1  C   UNL     1     -94.374 -48.017 -71.165  1.00  0.00     0.000 C 
ENDROOT
BRANCH   1   2
ATOM      2  C   UNL     1     -94.124 -47.219 -72.456  1.00  0.00     0.000 C 
BRANCH   2   3
ATOM      3  C   UNL     1     -95.413 -46.980 -73.260  1.00  0.00     0.000 C 
BRANCH   3   4
ATOM      4  C   UNL     1     -96.559 -47.917 -72.838  1.00  0.00     0.000 C 
BRANCH   4   5
ATOM      5  C   UNL     1     -97.943 -47.275 -73.021  1.00  0.00     0.000 C 
BRANCH   5   6
ATOM      6  C   UNL     1     -99.037 -47.992 -72.215  1.00  0.00     0.006 C 
BRANCH   6   7
ATOM      7  C   UNL     1    -100.427 -47.474 -72.597  1.00  0.00     0.053 C 
BRANCH   7   8
ATOM      8  C   UNL     1    -100.984 -46.612 -71.509  1.00  0.00     0.041 C 
ATOM      9  O   UNL     1    -100.407 -45.537 -71.195  1.00  0.00    -0.550 OA
ATOM     10  O   UNL     1    -102.111 -47.019 -70.807  1.00  0.00    -0.550 OA
ENDBRANCH   7   8
ENDBRANCH   6   7
ENDBRANCH   5   6
ENDBRANCH   4   5
ENDBRANCH   3   4
ENDBRANCH   2   3
ENDBRANCH   1   2
BRANCH   1  11
ATOM     11  C   UNL     1     -93.999 -47.227 -69.900  1.00  0.00     0.000 C 
BRANCH  11  12
ATOM     12  C   UNL     1     -93.004 -46.091 -70.184  1.00  0.00    -0.000 C 
BRANCH  12  13
ATOM     13  C   UNL     1     -93.674 -44.720 -70.005  1.00  0.00    -0.000 C 
BRANCH  13  14
ATOM     14  C   UNL     1     -94.776 -44.728 -68.931  1.00  0.00    -0.000 C 
BRANCH  14  15
ATOM     15  C   UNL     1     -96.120 -44.113 -69.369  1.00  0.00    -0.000 C 
BRANCH  15  16
ATOM     16  C   UNL     1     -97.039 -45.055 -70.173  1.00  0.00    -0.000 C 
BRANCH  16  17
ATOM     17  C   UNL     1     -97.396 -46.372 -69.463  1.00  0.00    -0.003 C 
ATOM     18  C   UNL     1     -98.164 -46.156 -68.159  1.00  0.00     0.004 C 
ENDBRANCH  16  17
ENDBRANCH  15  16
ENDBRANCH  14  15
ENDBRANCH  13  14
ENDBRANCH  12  13
ENDBRANCH  11  12
ENDBRANCH   1  11
TORSDOF 14
ENDMDL
MODEL 6
REMARK VINA RESULT:    -3.541     15.979     19.024
REMARK INTER + INTRA:          -7.421
REMARK INTER:                  -5.718
REMARK INTRA:                  -1.704
REMARK UNBOUND:                -0.983
REMARK SMILES CCCCCCCCCCCCCCCC(=O)[O-]
REMARK SMILES IDX 9 1 10 2 11 3 12 4 13 5 14 6 15 7 16 8 17 9 18 10 8 11 7 12
REMARK SMILES IDX 6 13 5 14 4 15 3 16 2 17 1 18
REMARK H PARENT
REMARK Flexibility Score: inf
ROOT
ATOM      1  C   UNL     1    -107.138 -47.760 -57.318  1.00  0.00     0.000 C 
ENDROOT
BRANCH   1   2
ATOM      2  C   UNL     1    -108.132 -47.401 -58.436  1.00  0.00     0.000 C 
BRANCH   2   3
ATOM      3  C   UNL     1    -109.136 -48.531 -58.717  1.00  0.00     0.000 C 
BRANCH   3   4
ATOM      4  C   UNL     1    -109.045 -49.061 -60.159  1.00  0.00     0.000 C 
BRANCH   4   5
ATOM      5  C   UNL     1    -108.206 -48.152 -61.071  1.00  0.00     0.000 C 
BRANCH   5   6
ATOM      6  C   UNL     1    -108.086 -48.697 -62.501  1.00  0.00     0.006 C 
BRANCH   6   7
ATOM      7  C   UNL     1    -107.509 -50.116 -62.501  1.00  0.00     0.053 C 
BRANCH   7   8
ATOM      8  C   UNL     1    -107.369 -50.626 -63.900  1.00  0.00     0.041 C 
ATOM      9  O   UNL     1    -106.910 -49.879 -64.804  1.00  0.00    -0.550 OA
ATOM     10  O   UNL     1    -107.794 -51.910 -64.217  1.00  0.00    -0.550 OA
ENDBRANCH   7   8
ENDBRANCH   6   7
ENDBRANCH   5   6
ENDBRANCH   4   5
ENDBRANCH   3   4
ENDBRANCH   2   3
ENDBRANCH   1   2
BRANCH   1  11
ATOM     11  C   UNL     1    -107.531 -47.152 -55.961  1.00  0.00     0.000 C 
BRANCH  11  12
ATOM     12  C   UNL     1    -107.649 -48.206 -54.851  1.00  0.00    -0.000 C 
BRANCH  12  13
ATOM     13  C   UNL     1    -109.050 -48.837 -54.841  1.00  0.00    -0.000 C 
BRANCH  13  14
ATOM     14  C   UNL     1    -109.026 -50.351 -55.115  1.00  0.00    -0.000 C 
BRANCH  14  15
ATOM     15  C   UNL     1    -107.619 -50.970 -55.240  1.00  0.00    -0.000 C 
BRANCH  15  16
ATOM     16  C   UNL     1    -107.384 -51.809 -56.512  1.00  0.00    -0.000 C 
BRANCH  16  17
ATOM     17  C   UNL     1    -108.552 -51.810 -57.512  1.00  0.00    -0.003 C 
ATOM     18  C   UNL     1    -108.267 -52.644 -58.761  1.00  0.00     0.004 C 
ENDBRANCH  16  17
ENDBRANCH  15  16
ENDBRANCH  14  15
ENDBRANCH  13  14
ENDBRANCH  12  13
ENDBRANCH  11  12
ENDBRANCH   1  11
TORSDOF 14
ENDMDL
MODEL 7
REMARK VINA RESULT:    -3.531     13.326     14.799
REMARK INTER + INTRA:          -7.404
REMARK INTER:                  -5.846
REMARK INTRA:                  -1.558
REMARK UNBOUND:                -0.983
REMARK SMILES CCCCCCCCCCCCCCCC(=O)[O-]
REMARK SMILES IDX 9 1 10 2 11 3 12 4 13 5 14 6 15 7 16 8 17 9 18 10 8 11 7 12
REMARK SMILES IDX 6 13 5 14 4 15 3 16 2 17 1 18
REMARK H PARENT
REMARK Flexibility Score: inf
ROOT
ATOM      1  C   UNL     1     -97.617 -45.787 -68.760  1.00  0.00     0.000 C 
ENDROOT
BRANCH   1   2
ATOM      2  C   UNL     1     -96.179 -45.452 -69.193  1.00  0.00     0.000 C 
BRANCH   2   3
ATOM      3  C   UNL     1     -95.129 -45.959 -68.190  1.00  0.00     0.000 C 
BRANCH   3   4
ATOM      4  C   UNL     1     -94.054 -46.840 -68.851  1.00  0.00     0.000 C 
BRANCH   4   5
ATOM      5  C   UNL     1     -93.314 -46.117 -69.987  1.00  0.00     0.000 C 
BRANCH   5   6
ATOM      6  C   UNL     1     -93.357 -46.896 -71.310  1.00  0.00     0.006 C 
BRANCH   6   7
ATOM      7  C   UNL     1     -94.382 -48.031 -71.245  1.00  0.00     0.053 C 
BRANCH   7   8
ATOM      8  C   UNL     1     -94.671 -48.557 -72.615  1.00  0.00     0.041 C 
ATOM      9  O   UNL     1     -94.541 -47.810 -73.621  1.00  0.00    -0.550 OA
ATOM     10  O   UNL     1     -95.133 -49.857 -72.778  1.00  0.00    -0.550 OA
ENDBRANCH   7   8
ENDBRANCH   6   7
ENDBRANCH   5   6
ENDBRANCH   4   5
ENDBRANCH   3   4
ENDBRANCH   2   3
ENDBRANCH   1   2
BRANCH   1  11
ATOM     11  C   UNL     1     -98.267 -46.857 -69.654  1.00  0.00     0.000 C 
BRANCH  11  12
ATOM     12  C   UNL     1     -97.761 -46.807 -71.103  1.00  0.00    -0.000 C 
BRANCH  12  13
ATOM     13  C   UNL     1     -98.386 -47.933 -71.940  1.00  0.00    -0.000 C 
BRANCH  13  14
ATOM     14  C   UNL     1     -98.844 -47.461 -73.332  1.00  0.00    -0.000 C 
BRANCH  14  15
ATOM     15  C   UNL     1    -100.361 -47.556 -73.587  1.00  0.00    -0.000 C 
BRANCH  15  16
ATOM     16  C   UNL     1    -101.249 -47.355 -72.342  1.00  0.00    -0.000 C 
BRANCH  16  17
ATOM     17  C   UNL     1    -101.367 -45.899 -71.860  1.00  0.00    -0.003 C 
ATOM     18  C   UNL     1    -102.614 -45.653 -71.011  1.00  0.00     0.004 C 
ENDBRANCH  16  17
ENDBRANCH  15  16
ENDBRANCH  14  15
ENDBRANCH  13  14
ENDBRANCH  12  13
ENDBRANCH  11  12
ENDBRANCH   1  11
TORSDOF 14
ENDMDL
MODEL 8
REMARK VINA RESULT:    -3.499     14.096     15.630
REMARK INTER + INTRA:          -7.345
REMARK INTER:                  -5.164
REMARK INTRA:                  -2.181
REMARK UNBOUND:                -0.983
REMARK SMILES CCCCCCCCCCCCCCCC(=O)[O-]
REMARK SMILES IDX 9 1 10 2 11 3 12 4 13 5 14 6 15 7 16 8 17 9 18 10 8 11 7 12
REMARK SMILES IDX 6 13 5 14 4 15 3 16 2 17 1 18
REMARK H PARENT
REMARK Flexibility Score: inf
ROOT
ATOM      1  C   UNL     1     -95.605 -48.212 -72.729  1.00  0.00     0.000 C 
ENDROOT
BRANCH   1   2
ATOM      2  C   UNL     1     -96.539 -47.606 -73.789  1.00  0.00     0.000 C 
BRANCH   2   3
ATOM      3  C   UNL     1     -97.974 -47.413 -73.270  1.00  0.00     0.000 C 
BRANCH   3   4
ATOM      4  C   UNL     1     -98.169 -47.964 -71.846  1.00  0.00     0.000 C 
BRANCH   4   5
ATOM      5  C   UNL     1     -99.242 -47.196 -71.058  1.00  0.00     0.000 C 
BRANCH   5   6
ATOM      6  C   UNL     1    -100.115 -46.310 -71.958  1.00  0.00     0.006 C 
BRANCH   6   7
ATOM      7  C   UNL     1    -101.527 -46.888 -72.094  1.00  0.00     0.053 C 
BRANCH   7   8
ATOM      8  C   UNL     1    -102.358 -46.529 -70.903  1.00  0.00     0.041 C 
ATOM      9  O   UNL     1    -103.098 -47.393 -70.363  1.00  0.00    -0.550 OA
ATOM     10  O   UNL     1    -102.354 -45.227 -70.419  1.00  0.00    -0.550 OA
ENDBRANCH   7   8
ENDBRANCH   6   7
ENDBRANCH   5   6
ENDBRANCH   4   5
ENDBRANCH   3   4
ENDBRANCH   2   3
ENDBRANCH   1   2
BRANCH   1  11
ATOM     11  C   UNL     1     -94.142 -47.774 -72.912  1.00  0.00     0.000 C 
BRANCH  11  12
ATOM     12  C   UNL     1     -93.548 -47.144 -71.643  1.00  0.00    -0.000 C 
BRANCH  12  13
ATOM     13  C   UNL     1     -94.355 -47.552 -70.400  1.00  0.00    -0.000 C 
BRANCH  13  14
ATOM     14  C   UNL     1     -93.920 -46.797 -69.131  1.00  0.00    -0.000 C 
BRANCH  14  15
ATOM     15  C   UNL     1     -95.041 -46.014 -68.421  1.00  0.00    -0.000 C 
BRANCH  15  16
ATOM     16  C   UNL     1     -96.391 -45.981 -69.166  1.00  0.00    -0.000 C 
BRANCH  16  17
ATOM     17  C   UNL     1     -96.724 -44.640 -69.842  1.00  0.00    -0.003 C 
ATOM     18  C   UNL     1     -96.382 -44.623 -71.331  1.00  0.00     0.004 C 
ENDBRANCH  16  17
ENDBRANCH  15  16
ENDBRANCH  14  15
ENDBRANCH  13  14
ENDBRANCH  12  13
ENDBRANCH  11  12
ENDBRANCH   1  11
TORSDOF 14
ENDMDL
MODEL 9
REMARK VINA RESULT:    -3.379     13.943     15.101
REMARK INTER + INTRA:          -7.129
REMARK INTER:                  -5.178
REMARK INTRA:                  -1.950
REMARK UNBOUND:                -0.983
REMARK SMILES CCCCCCCCCCCCCCCC(=O)[O-]
REMARK SMILES IDX 9 1 10 2 11 3 12 4 13 5 14 6 15 7 16 8 17 9 18 10 8 11 7 12
REMARK SMILES IDX 6 13 5 14 4 15 3 16 2 17 1 18
REMARK H PARENT
REMARK Flexibility Score: inf
ROOT
ATOM      1  C   UNL     1     -97.780 -46.651 -70.983  1.00  0.00     0.000 C 
ENDROOT
BRANCH   1   2
ATOM      2  C   UNL     1     -98.496 -46.611 -69.622  1.00  0.00     0.000 C 
BRANCH   2   3
ATOM      3  C   UNL     1     -97.574 -46.140 -68.485  1.00  0.00     0.000 C 
BRANCH   3   4
ATOM      4  C   UNL     1     -96.224 -45.608 -68.997  1.00  0.00     0.000 C 
BRANCH   4   5
ATOM      5  C   UNL     1     -95.027 -46.227 -68.259  1.00  0.00     0.000 C 
BRANCH   5   6
ATOM      6  C   UNL     1     -94.063 -46.958 -69.205  1.00  0.00     0.006 C 
BRANCH   6   7
ATOM      7  C   UNL     1     -94.135 -46.374 -70.619  1.00  0.00     0.053 C 
BRANCH   7   8
ATOM      8  C   UNL     1     -93.975 -47.454 -71.642  1.00  0.00     0.041 C 
ATOM      9  O   UNL     1     -94.811 -48.393 -71.707  1.00  0.00    -0.550 OA
ATOM     10  O   UNL     1     -92.875 -47.450 -72.490  1.00  0.00    -0.550 OA
ENDBRANCH   7   8
ENDBRANCH   6   7
ENDBRANCH   5   6
ENDBRANCH   4   5
ENDBRANCH   3   4
ENDBRANCH   2   3
ENDBRANCH   1   2
BRANCH   1  11
ATOM     11  C   UNL     1     -98.511 -47.532 -72.009  1.00  0.00     0.000 C 
BRANCH  11  12
ATOM     12  C   UNL     1     -98.695 -46.835 -73.366  1.00  0.00    -0.000 C 
BRANCH  12  13
ATOM     13  C   UNL     1    -100.030 -47.237 -74.011  1.00  0.00    -0.000 C 
BRANCH  13  14
ATOM     14  C   UNL     1    -100.996 -47.907 -73.018  1.00  0.00    -0.000 C 
BRANCH  14  15
ATOM     15  C   UNL     1    -102.102 -46.988 -72.462  1.00  0.00    -0.000 C 
BRANCH  15  16
ATOM     16  C   UNL     1    -101.882 -46.501 -71.015  1.00  0.00    -0.000 C 
BRANCH  16  17
ATOM     17  C   UNL     1    -101.862 -44.973 -70.843  1.00  0.00    -0.003 C 
ATOM     18  C   UNL     1    -100.742 -44.299 -71.636  1.00  0.00     0.004 C 
ENDBRANCH  16  17
ENDBRANCH  15  16
ENDBRANCH  14  15
ENDBRANCH  13  14
ENDBRANCH  12  13
ENDBRANCH  11  12
ENDBRANCH   1  11
TORSDOF 14
ENDMDL
