MODEL 1
REMARK VINA RESULT:    -2.693      0.000      0.000
REMARK INTER + INTRA:          -7.658
REMARK INTER:                  -5.212
REMARK INTRA:                  -2.446
REMARK UNBOUND:                -2.446
REMARK SMILES CCCCCCCCCCCCCCCCCC(=O)[O-]
REMARK SMILES IDX 10 1 11 2 12 3 13 4 14 5 15 6 16 7 17 8 18 9 19 10 20 11
REMARK SMILES IDX 9 12 8 13 7 14 6 15 5 16 4 17 3 18 2 19 1 20
REMARK H PARENT
REMARK Flexibility Score: inf
ROOT
ATOM      1  C   UNL     1      28.361  13.121  47.589  1.00  0.00     0.000 C 
ENDROOT
BRANCH   1   2
ATOM      2  C   UNL     1      28.274  12.701  49.069  1.00  0.00     0.000 C 
BRANCH   2   3
ATOM      3  C   UNL     1      28.450  13.848  50.083  1.00  0.00     0.000 C 
BRANCH   3   4
ATOM      4  C   UNL     1      27.660  15.131  49.760  1.00  0.00     0.000 C 
BRANCH   4   5
ATOM      5  C   UNL     1      26.165  15.087  50.123  1.00  0.00     0.000 C 
BRANCH   5   6
ATOM      6  C   UNL     1      25.255  14.958  48.889  1.00  0.00     0.000 C 
BRANCH   6   7
ATOM      7  C   UNL     1      24.635  13.558  48.756  1.00  0.00     0.006 C 
BRANCH   7   8
ATOM      8  C   UNL     1      24.505  12.838  50.106  1.00  0.00     0.053 C 
BRANCH   8   9
ATOM      9  C   UNL     1      23.983  11.451  49.909  1.00  0.00     0.041 C 
ATOM     10  O   UNL     1      22.769  11.193  50.125  1.00  0.00    -0.550 OA
ATOM     11  O   UNL     1      24.846  10.428  49.532  1.00  0.00    -0.550 OA
ENDBRANCH   8   9
ENDBRANCH   7   8
ENDBRANCH   6   7
ENDBRANCH   5   6
ENDBRANCH   4   5
ENDBRANCH   3   4
ENDBRANCH   2   3
ENDBRANCH   1   2
BRANCH   1  12
ATOM     12  C   UNL     1      29.780  13.101  46.993  1.00  0.00     0.000 C 
BRANCH  12  13
ATOM     13  C   UNL     1      30.816  12.473  47.940  1.00  0.00    -0.000 C 
BRANCH  13  14
ATOM     14  C   UNL     1      32.078  13.336  48.093  1.00  0.00    -0.000 C 
BRANCH  14  15
ATOM     15  C   UNL     1      32.016  14.257  49.324  1.00  0.00    -0.000 C 
BRANCH  15  16
ATOM     16  C   UNL     1      32.115  15.745  48.955  1.00  0.00    -0.000 C 
BRANCH  16  17
ATOM     17  C   UNL     1      30.841  16.529  49.307  1.00  0.00    -0.000 C 
BRANCH  17  18
ATOM     18  C   UNL     1      30.515  17.561  48.217  1.00  0.00    -0.000 C 
BRANCH  18  19
ATOM     19  C   UNL     1      29.641  16.979  47.094  1.00  0.00    -0.003 C 
ATOM     20  C   UNL     1      28.158  17.307  47.268  1.00  0.00     0.004 C 
ENDBRANCH  18  19
ENDBRANCH  17  18
ENDBRANCH  16  17
ENDBRANCH  15  16
ENDBRANCH  14  15
ENDBRANCH  13  14
ENDBRANCH  12  13
ENDBRANCH   1  12
TORSDOF 16
ENDMDL
MODEL 2
REMARK VINA RESULT:    -2.532      2.505      6.591
REMARK INTER + INTRA:          -7.346
REMARK INTER:                  -5.297
REMARK INTRA:                  -2.049
REMARK UNBOUND:                -2.446
REMARK SMILES CCCCCCCCCCCCCCCCCC(=O)[O-]
REMARK SMILES IDX 10 1 11 2 12 3 13 4 14 5 15 6 16 7 17 8 18 9 19 10 20 11
REMARK SMILES IDX 9 12 8 13 7 14 6 15 5 16 4 17 3 18 2 19 1 20
REMARK H PARENT
REMARK Flexibility Score: inf
ROOT
ATOM      1  C   UNL     1      27.201  17.271  47.502  1.00  0.00     0.000 C 
ENDROOT
BRANCH   1   2
ATOM      2  C   UNL     1      28.691  17.082  47.153  1.00  0.00     0.000 C 
BRANCH   2   3
ATOM      3  C   UNL     1      29.621  16.861  48.361  1.00  0.00     0.000 C 
BRANCH   3   4
ATOM      4  C   UNL     1      31.111  17.152  48.099  1.00  0.00     0.000 C 
BRANCH   4   5
ATOM      5  C   UNL     1      32.025  17.044  49.333  1.00  0.00     0.000 C 
BRANCH   5   6
ATOM      6  C   UNL     1      31.944  15.668  50.017  1.00  0.00     0.000 C 
BRANCH   6   7
ATOM      7  C   UNL     1      32.098  14.505  49.024  1.00  0.00     0.006 C 
BRANCH   7   8
ATOM      8  C   UNL     1      31.006  13.439  49.188  1.00  0.00     0.053 C 
BRANCH   8   9
ATOM      9  C   UNL     1      30.642  12.856  47.859  1.00  0.00     0.041 C 
ATOM     10  O   UNL     1      31.293  11.884  47.393  1.00  0.00    -0.550 OA
ATOM     11  O   UNL     1      29.612  13.416  47.112  1.00  0.00    -0.550 OA
ENDBRANCH   8   9
ENDBRANCH   7   8
ENDBRANCH   6   7
ENDBRANCH   5   6
ENDBRANCH   4   5
ENDBRANCH   3   4
ENDBRANCH   2   3
ENDBRANCH   1   2
BRANCH   1  12
ATOM     12  C   UNL     1      26.935  17.967  48.849  1.00  0.00     0.000 C 
BRANCH  12  13
ATOM     13  C   UNL     1      25.437  18.069  49.182  1.00  0.00    -0.000 C 
BRANCH  13  14
ATOM     14  C   UNL     1      24.933  16.875  50.008  1.00  0.00    -0.000 C 
BRANCH  14  15
ATOM     15  C   UNL     1      24.145  15.862  49.159  1.00  0.00    -0.000 C 
BRANCH  15  16
ATOM     16  C   UNL     1      23.611  14.684  49.987  1.00  0.00    -0.000 C 
BRANCH  16  17
ATOM     17  C   UNL     1      24.320  13.360  49.660  1.00  0.00    -0.000 C 
BRANCH  17  18
ATOM     18  C   UNL     1      25.382  13.563  48.570  1.00  0.00    -0.000 C 
BRANCH  18  19
ATOM     19  C   UNL     1      26.792  13.161  49.037  1.00  0.00    -0.003 C 
ATOM     20  C   UNL     1      27.498  14.274  49.811  1.00  0.00     0.004 C 
ENDBRANCH  18  19
ENDBRANCH  17  18
ENDBRANCH  16  17
ENDBRANCH  15  16
ENDBRANCH  14  15
ENDBRANCH  13  14
ENDBRANCH  12  13
ENDBRANCH   1  12
TORSDOF 16
ENDMDL
MODEL 3
REMARK VINA RESULT:    -2.375      1.518      3.387
REMARK INTER + INTRA:          -7.042
REMARK INTER:                  -5.158
REMARK INTRA:                  -1.884
REMARK UNBOUND:                -2.446
REMARK SMILES CCCCCCCCCCCCCCCCCC(=O)[O-]
REMARK SMILES IDX 10 1 11 2 12 3 13 4 14 5 15 6 16 7 17 8 18 9 19 10 20 11
REMARK SMILES IDX 9 12 8 13 7 14 6 15 5 16 4 17 3 18 2 19 1 20
REMARK H PARENT
REMARK Flexibility Score: inf
ROOT
ATOM      1  C   UNL     1      28.208  15.797  48.787  1.00  0.00     0.000 C 
ENDROOT
BRANCH   1   2
ATOM      2  C   UNL     1      27.400  16.164  50.048  1.00  0.00     0.000 C 
BRANCH   2   3
ATOM      3  C   UNL     1      26.925  17.628  50.115  1.00  0.00     0.000 C 
BRANCH   3   4
ATOM      4  C   UNL     1      25.397  17.822  50.055  1.00  0.00     0.000 C 
BRANCH   4   5
ATOM      5  C   UNL     1      24.651  16.841  49.132  1.00  0.00     0.000 C 
BRANCH   5   6
ATOM      6  C   UNL     1      23.523  16.084  49.854  1.00  0.00     0.000 C 
BRANCH   6   7
ATOM      7  C   UNL     1      23.708  14.559  49.803  1.00  0.00     0.006 C 
BRANCH   7   8
ATOM      8  C   UNL     1      24.680  14.118  48.700  1.00  0.00     0.053 C 
BRANCH   8   9
ATOM      9  C   UNL     1      25.336  12.826  49.069  1.00  0.00     0.041 C 
ATOM     10  O   UNL     1      26.590  12.715  49.022  1.00  0.00    -0.550 OA
ATOM     11  O   UNL     1      24.561  11.726  49.421  1.00  0.00    -0.550 OA
ENDBRANCH   8   9
ENDBRANCH   7   8
ENDBRANCH   6   7
ENDBRANCH   5   6
ENDBRANCH   4   5
ENDBRANCH   3   4
ENDBRANCH   2   3
ENDBRANCH   1   2
BRANCH   1  12
ATOM     12  C   UNL     1      28.249  16.891  47.704  1.00  0.00     0.000 C 
BRANCH  12  13
ATOM     13  C   UNL     1      29.681  17.237  47.261  1.00  0.00    -0.000 C 
BRANCH  13  14
ATOM     14  C   UNL     1      30.682  17.217  48.427  1.00  0.00    -0.000 C 
BRANCH  14  15
ATOM     15  C   UNL     1      31.737  16.106  48.278  1.00  0.00    -0.000 C 
BRANCH  15  16
ATOM     16  C   UNL     1      31.342  14.815  49.010  1.00  0.00    -0.000 C 
BRANCH  16  17
ATOM     17  C   UNL     1      32.124  13.589  48.513  1.00  0.00    -0.000 C 
BRANCH  17  18
ATOM     18  C   UNL     1      31.207  12.631  47.740  1.00  0.00    -0.000 C 
BRANCH  18  19
ATOM     19  C   UNL     1      29.719  12.989  47.888  1.00  0.00    -0.003 C 
ATOM     20  C   UNL     1      29.024  13.199  46.543  1.00  0.00     0.004 C 
ENDBRANCH  18  19
ENDBRANCH  17  18
ENDBRANCH  16  17
ENDBRANCH  15  16
ENDBRANCH  14  15
ENDBRANCH  13  14
ENDBRANCH  12  13
ENDBRANCH   1  12
TORSDOF 16
ENDMDL
MODEL 4
REMARK VINA RESULT:    -1.894      1.468      3.786
REMARK INTER + INTRA:          -6.112
REMARK INTER:                  -4.891
REMARK INTRA:                  -1.221
REMARK UNBOUND:                -2.446
REMARK SMILES CCCCCCCCCCCCCCCCCC(=O)[O-]
REMARK SMILES IDX 10 1 11 2 12 3 13 4 14 5 15 6 16 7 17 8 18 9 19 10 20 11
REMARK SMILES IDX 9 12 8 13 7 14 6 15 5 16 4 17 3 18 2 19 1 20
REMARK H PARENT
REMARK Flexibility Score: inf
ROOT
ATOM      1  C   UNL     1      29.839  16.829  47.413  1.00  0.00     0.000 C 
ENDROOT
BRANCH   1   2
ATOM      2  C   UNL     1      28.498  17.150  46.723  1.00  0.00     0.000 C 
BRANCH   2   3
ATOM      3  C   UNL     1      27.440  17.806  47.631  1.00  0.00     0.000 C 
BRANCH   3   4
ATOM      4  C   UNL     1      27.843  17.940  49.112  1.00  0.00     0.000 C 
BRANCH   4   5
ATOM      5  C   UNL     1      26.669  18.005  50.106  1.00  0.00     0.000 C 
BRANCH   5   6
ATOM      6  C   UNL     1      25.781  16.750  50.063  1.00  0.00     0.000 C 
BRANCH   6   7
ATOM      7  C   UNL     1      26.476  15.556  49.388  1.00  0.00     0.006 C 
BRANCH   7   8
ATOM      8  C   UNL     1      25.555  14.810  48.414  1.00  0.00     0.053 C 
BRANCH   8   9
ATOM      9  C   UNL     1      24.579  13.962  49.165  1.00  0.00     0.041 C 
ATOM     10  O   UNL     1      24.710  12.709  49.185  1.00  0.00    -0.550 OA
ATOM     11  O   UNL     1      23.494  14.550  49.806  1.00  0.00    -0.550 OA
ENDBRANCH   8   9
ENDBRANCH   7   8
ENDBRANCH   6   7
ENDBRANCH   5   6
ENDBRANCH   4   5
ENDBRANCH   3   4
ENDBRANCH   2   3
ENDBRANCH   1   2
BRANCH   1  12
ATOM     12  C   UNL     1      30.869  17.973  47.390  1.00  0.00     0.000 C 
BRANCH  12  13
ATOM     13  C   UNL     1      31.664  18.086  48.702  1.00  0.00    -0.000 C 
BRANCH  13  14
ATOM     14  C   UNL     1      31.267  17.013  49.728  1.00  0.00    -0.000 C 
BRANCH  14  15
ATOM     15  C   UNL     1      32.125  15.740  49.610  1.00  0.00    -0.000 C 
BRANCH  15  16
ATOM     16  C   UNL     1      31.277  14.461  49.535  1.00  0.00    -0.000 C 
BRANCH  16  17
ATOM     17  C   UNL     1      31.978  13.330  48.767  1.00  0.00    -0.000 C 
BRANCH  17  18
ATOM     18  C   UNL     1      30.958  12.472  48.005  1.00  0.00    -0.000 C 
BRANCH  18  19
ATOM     19  C   UNL     1      29.506  12.900  48.276  1.00  0.00    -0.003 C 
ATOM     20  C   UNL     1      28.765  13.318  47.006  1.00  0.00     0.004 C 
ENDBRANCH  18  19
ENDBRANCH  17  18
ENDBRANCH  16  17
ENDBRANCH  15  16
ENDBRANCH  14  15
ENDBRANCH  13  14
ENDBRANCH  12  13
ENDBRANCH   1  12
TORSDOF 16
ENDMDL
MODEL 5
REMARK VINA RESULT:    -1.825      3.313      6.904
REMARK INTER + INTRA:          -5.977
REMARK INTER:                  -4.092
REMARK INTRA:                  -1.885
REMARK UNBOUND:                -2.446
REMARK SMILES CCCCCCCCCCCCCCCCCC(=O)[O-]
REMARK SMILES IDX 10 1 11 2 12 3 13 4 14 5 15 6 16 7 17 8 18 9 19 10 20 11
REMARK SMILES IDX 9 12 8 13 7 14 6 15 5 16 4 17 3 18 2 19 1 20
REMARK H PARENT
REMARK Flexibility Score: inf
ROOT
ATOM      1  C   UNL     1      28.021  15.494  48.189  1.00  0.00     0.000 C 
ENDROOT
BRANCH   1   2
ATOM      2  C   UNL     1      28.582  14.895  46.884  1.00  0.00     0.000 C 
BRANCH   2   3
ATOM      3  C   UNL     1      28.973  13.407  46.965  1.00  0.00     0.000 C 
BRANCH   3   4
ATOM      4  C   UNL     1      29.427  12.927  48.357  1.00  0.00     0.000 C 
BRANCH   4   5
ATOM      5  C   UNL     1      30.928  12.609  48.482  1.00  0.00     0.000 C 
BRANCH   5   6
ATOM      6  C   UNL     1      31.791  13.869  48.667  1.00  0.00     0.000 C 
BRANCH   6   7
ATOM      7  C   UNL     1      31.491  14.603  49.984  1.00  0.00     0.006 C 
BRANCH   7   8
ATOM      8  C   UNL     1      32.096  16.012  50.026  1.00  0.00     0.053 C 
BRANCH   8   9
ATOM      9  C   UNL     1      31.233  16.973  49.272  1.00  0.00     0.041 C 
ATOM     10  O   UNL     1      30.455  17.747  49.890  1.00  0.00    -0.550 OA
ATOM     11  O   UNL     1      31.252  16.983  47.882  1.00  0.00    -0.550 OA
ENDBRANCH   8   9
ENDBRANCH   7   8
ENDBRANCH   6   7
ENDBRANCH   5   6
ENDBRANCH   4   5
ENDBRANCH   3   4
ENDBRANCH   2   3
ENDBRANCH   1   2
BRANCH   1  12
ATOM     12  C   UNL     1      27.362  16.877  48.036  1.00  0.00     0.000 C 
BRANCH  12  13
ATOM     13  C   UNL     1      25.830  16.824  48.157  1.00  0.00    -0.000 C 
BRANCH  13  14
ATOM     14  C   UNL     1      25.324  17.349  49.509  1.00  0.00    -0.000 C 
BRANCH  14  15
ATOM     15  C   UNL     1      23.934  16.798  49.873  1.00  0.00    -0.000 C 
BRANCH  15  16
ATOM     16  C   UNL     1      23.634  15.453  49.194  1.00  0.00    -0.000 C 
BRANCH  16  17
ATOM     17  C   UNL     1      23.871  14.253  50.124  1.00  0.00    -0.000 C 
BRANCH  17  18
ATOM     18  C   UNL     1      24.177  12.985  49.315  1.00  0.00    -0.000 C 
BRANCH  18  19
ATOM     19  C   UNL     1      25.679  12.812  49.033  1.00  0.00    -0.003 C 
ATOM     20  C   UNL     1      26.559  13.420  50.124  1.00  0.00     0.004 C 
ENDBRANCH  18  19
ENDBRANCH  17  18
ENDBRANCH  16  17
ENDBRANCH  15  16
ENDBRANCH  14  15
ENDBRANCH  13  14
ENDBRANCH  12  13
ENDBRANCH   1  12
TORSDOF 16
ENDMDL
MODEL 6
REMARK VINA RESULT:    -1.223     15.410     17.049
REMARK INTER + INTRA:          -4.812
REMARK INTER:                  -4.109
REMARK INTRA:                  -0.704
REMARK UNBOUND:                -2.446
REMARK SMILES CCCCCCCCCCCCCCCCCC(=O)[O-]
REMARK SMILES IDX 10 1 11 2 12 3 13 4 14 5 15 6 16 7 17 8 18 9 19 10 20 11
REMARK SMILES IDX 9 12 8 13 7 14 6 15 5 16 4 17 3 18 2 19 1 20
REMARK H PARENT
REMARK Flexibility Score: inf
ROOT
ATOM      1  C   UNL     1      31.582   2.260  39.468  1.00  0.00     0.000 C 
ENDROOT
BRANCH   1   2
ATOM      2  C   UNL     1      32.122   1.581  40.742  1.00  0.00     0.000 C 
BRANCH   2   3
ATOM      3  C   UNL     1      31.601   0.153  40.990  1.00  0.00     0.000 C 
BRANCH   3   4
ATOM      4  C   UNL     1      31.106  -0.121  42.424  1.00  0.00     0.000 C 
BRANCH   4   5
ATOM      5  C   UNL     1      30.216  -1.367  42.581  1.00  0.00     0.000 C 
BRANCH   5   6
ATOM      6  C   UNL     1      30.387  -2.056  43.946  1.00  0.00     0.000 C 
BRANCH   6   7
ATOM      7  C   UNL     1      30.564  -1.051  45.096  1.00  0.00     0.006 C 
BRANCH   7   8
ATOM      8  C   UNL     1      29.628  -1.337  46.279  1.00  0.00     0.053 C 
BRANCH   8   9
ATOM      9  C   UNL     1      30.415  -1.783  47.470  1.00  0.00     0.041 C 
ATOM     10  O   UNL     1      31.635  -2.076  47.352  1.00  0.00    -0.550 OA
ATOM     11  O   UNL     1      29.791  -1.921  48.705  1.00  0.00    -0.550 OA
ENDBRANCH   8   9
ENDBRANCH   7   8
ENDBRANCH   6   7
ENDBRANCH   5   6
ENDBRANCH   4   5
ENDBRANCH   3   4
ENDBRANCH   2   3
ENDBRANCH   1   2
BRANCH   1  12
ATOM     12  C   UNL     1      32.049   1.623  38.147  1.00  0.00     0.000 C 
BRANCH  12  13
ATOM     13  C   UNL     1      30.967   0.750  37.490  1.00  0.00    -0.000 C 
BRANCH  13  14
ATOM     14  C   UNL     1      29.581   0.951  38.123  1.00  0.00    -0.000 C 
BRANCH  14  15
ATOM     15  C   UNL     1      28.769  -0.354  38.191  1.00  0.00    -0.000 C 
BRANCH  15  16
ATOM     16  C   UNL     1      28.896  -1.059  39.550  1.00  0.00    -0.000 C 
BRANCH  16  17
ATOM     17  C   UNL     1      27.663  -1.908  39.894  1.00  0.00    -0.000 C 
BRANCH  17  18
ATOM     18  C   UNL     1      27.357  -1.844  41.398  1.00  0.00    -0.000 C 
BRANCH  18  19
ATOM     19  C   UNL     1      27.484  -0.420  41.966  1.00  0.00    -0.003 C 
ATOM     20  C   UNL     1      27.116  -0.339  43.447  1.00  0.00     0.004 C 
ENDBRANCH  18  19
ENDBRANCH  17  18
ENDBRANCH  16  17
ENDBRANCH  15  16
ENDBRANCH  14  15
ENDBRANCH  13  14
ENDBRANCH  12  13
ENDBRANCH   1  12
TORSDOF 16
ENDMDL
MODEL 7
REMARK VINA RESULT:    -0.750      3.605      5.911
REMARK INTER + INTRA:          -3.897
REMARK INTER:                  -2.923
REMARK INTRA:                  -0.974
REMARK UNBOUND:                -2.446
REMARK SMILES CCCCCCCCCCCCCCCCCC(=O)[O-]
REMARK SMILES IDX 10 1 11 2 12 3 13 4 14 5 15 6 16 7 17 8 18 9 19 10 20 11
REMARK SMILES IDX 9 12 8 13 7 14 6 15 5 16 4 17 3 18 2 19 1 20
REMARK H PARENT
REMARK Flexibility Score: inf
ROOT
ATOM      1  C   UNL     1      24.987  12.664  50.010  1.00  0.00     0.000 C 
ENDROOT
BRANCH   1   2
ATOM      2  C   UNL     1      24.854  11.271  49.362  1.00  0.00     0.000 C 
BRANCH   2   3
ATOM      3  C   UNL     1      23.810  10.345  50.016  1.00  0.00     0.000 C 
BRANCH   3   4
ATOM      4  C   UNL     1      22.350  10.824  49.897  1.00  0.00     0.000 C 
BRANCH   4   5
ATOM      5  C   UNL     1      21.285   9.736  50.125  1.00  0.00     0.000 C 
BRANCH   5   6
ATOM      6  C   UNL     1      21.503   8.494  49.244  1.00  0.00     0.000 C 
BRANCH   6   7
ATOM      7  C   UNL     1      20.511   7.363  49.560  1.00  0.00     0.006 C 
BRANCH   7   8
ATOM      8  C   UNL     1      19.174   7.885  50.105  1.00  0.00     0.053 C 
BRANCH   8   9
ATOM      9  C   UNL     1      18.031   7.268  49.363  1.00  0.00     0.041 C 
ATOM     10  O   UNL     1      16.879   7.770  49.441  1.00  0.00    -0.550 OA
ATOM     11  O   UNL     1      18.228   6.109  48.621  1.00  0.00    -0.550 OA
ENDBRANCH   8   9
ENDBRANCH   7   8
ENDBRANCH   6   7
ENDBRANCH   5   6
ENDBRANCH   4   5
ENDBRANCH   3   4
ENDBRANCH   2   3
ENDBRANCH   1   2
BRANCH   1  12
ATOM     12  C   UNL     1      25.865  13.659  49.230  1.00  0.00     0.000 C 
BRANCH  12  13
ATOM     13  C   UNL     1      25.134  14.973  48.906  1.00  0.00    -0.000 C 
BRANCH  13  14
ATOM     14  C   UNL     1      25.847  16.204  49.486  1.00  0.00    -0.000 C 
BRANCH  14  15
ATOM     15  C   UNL     1      26.395  17.137  48.392  1.00  0.00    -0.000 C 
BRANCH  15  16
ATOM     16  C   UNL     1      27.904  17.389  48.532  1.00  0.00    -0.000 C 
BRANCH  16  17
ATOM     17  C   UNL     1      28.671  17.141  47.224  1.00  0.00    -0.000 C 
BRANCH  17  18
ATOM     18  C   UNL     1      29.636  15.955  47.372  1.00  0.00    -0.000 C 
BRANCH  18  19
ATOM     19  C   UNL     1      28.994  14.758  48.093  1.00  0.00    -0.003 C 
ATOM     20  C   UNL     1      29.131  13.453  47.309  1.00  0.00     0.004 C 
ENDBRANCH  18  19
ENDBRANCH  17  18
ENDBRANCH  16  17
ENDBRANCH  15  16
ENDBRANCH  14  15
ENDBRANCH  13  14
ENDBRANCH  12  13
ENDBRANCH   1  12
TORSDOF 16
ENDMDL
MODEL 8
REMARK VINA RESULT:    -0.668     14.987     15.919
REMARK INTER + INTRA:          -3.739
REMARK INTER:                  -2.931
REMARK INTRA:                  -0.808
REMARK UNBOUND:                -2.446
REMARK SMILES CCCCCCCCCCCCCCCCCC(=O)[O-]
REMARK SMILES IDX 10 1 11 2 12 3 13 4 14 5 15 6 16 7 17 8 18 9 19 10 20 11
REMARK SMILES IDX 9 12 8 13 7 14 6 15 5 16 4 17 3 18 2 19 1 20
REMARK H PARENT
REMARK Flexibility Score: inf
ROOT
ATOM      1  C   UNL     1      27.724  -0.677  42.877  1.00  0.00     0.000 C 
ENDROOT
BRANCH   1   2
ATOM      2  C   UNL     1      26.451   0.134  43.192  1.00  0.00     0.000 C 
BRANCH   2   3
ATOM      3  C   UNL     1      25.698   0.669  41.959  1.00  0.00     0.000 C 
BRANCH   3   4
ATOM      4  C   UNL     1      24.532   1.628  42.272  1.00  0.00     0.000 C 
BRANCH   4   5
ATOM      5  C   UNL     1      23.939   2.356  41.052  1.00  0.00     0.000 C 
BRANCH   5   6
ATOM      6  C   UNL     1      22.404   2.441  41.096  1.00  0.00     0.000 C 
BRANCH   6   7
ATOM      7  C   UNL     1      21.727   1.113  40.720  1.00  0.00     0.006 C 
BRANCH   7   8
ATOM      8  C   UNL     1      20.589   1.296  39.707  1.00  0.00     0.053 C 
BRANCH   8   9
ATOM      9  C   UNL     1      19.425   1.982  40.348  1.00  0.00     0.041 C 
ATOM     10  O   UNL     1      19.246   1.899  41.592  1.00  0.00    -0.550 OA
ATOM     11  O   UNL     1      18.508   2.675  39.566  1.00  0.00    -0.550 OA
ENDBRANCH   8   9
ENDBRANCH   7   8
ENDBRANCH   6   7
ENDBRANCH   5   6
ENDBRANCH   4   5
ENDBRANCH   3   4
ENDBRANCH   2   3
ENDBRANCH   1   2
BRANCH   1  12
ATOM     12  C   UNL     1      28.782  -0.682  43.996  1.00  0.00     0.000 C 
BRANCH  12  13
ATOM     13  C   UNL     1      30.204  -0.943  43.471  1.00  0.00    -0.000 C 
BRANCH  13  14
ATOM     14  C   UNL     1      30.295  -0.850  41.940  1.00  0.00    -0.000 C 
BRANCH  14  15
ATOM     15  C   UNL     1      31.743  -0.949  41.429  1.00  0.00    -0.000 C 
BRANCH  15  16
ATOM     16  C   UNL     1      31.896  -0.446  39.986  1.00  0.00    -0.000 C 
BRANCH  16  17
ATOM     17  C   UNL     1      32.107   1.074  39.907  1.00  0.00    -0.000 C 
BRANCH  17  18
ATOM     18  C   UNL     1      30.866   1.770  39.331  1.00  0.00    -0.000 C 
BRANCH  18  19
ATOM     19  C   UNL     1      30.148   0.917  38.272  1.00  0.00    -0.003 C 
ATOM     20  C   UNL     1      28.807   0.371  38.761  1.00  0.00     0.004 C 
ENDBRANCH  18  19
ENDBRANCH  17  18
ENDBRANCH  16  17
ENDBRANCH  15  16
ENDBRANCH  14  15
ENDBRANCH  13  14
ENDBRANCH  12  13
ENDBRANCH   1  12
TORSDOF 16
ENDMDL
MODEL 9
REMARK VINA RESULT:    -0.472      1.304      2.065
REMARK INTER + INTRA:          -3.360
REMARK INTER:                  -2.277
REMARK INTRA:                  -1.083
REMARK UNBOUND:                -2.446
REMARK SMILES CCCCCCCCCCCCCCCCCC(=O)[O-]
REMARK SMILES IDX 10 1 11 2 12 3 13 4 14 5 15 6 16 7 17 8 18 9 19 10 20 11
REMARK SMILES IDX 9 12 8 13 7 14 6 15 5 16 4 17 3 18 2 19 1 20
REMARK H PARENT
REMARK Flexibility Score: inf
ROOT
ATOM      1  C   UNL     1      29.187  12.935  47.470  1.00  0.00     0.000 C 
ENDROOT
BRANCH   1   2
ATOM      2  C   UNL     1      28.925  12.327  48.863  1.00  0.00     0.000 C 
BRANCH   2   3
ATOM      3  C   UNL     1      27.889  13.081  49.719  1.00  0.00     0.000 C 
BRANCH   3   4
ATOM      4  C   UNL     1      27.106  14.181  48.975  1.00  0.00     0.000 C 
BRANCH   4   5
ATOM      5  C   UNL     1      25.605  13.898  48.784  1.00  0.00     0.000 C 
BRANCH   5   6
ATOM      6  C   UNL     1      24.921  13.405  50.071  1.00  0.00     0.000 C 
BRANCH   6   7
ATOM      7  C   UNL     1      23.622  12.632  49.791  1.00  0.00     0.006 C 
BRANCH   7   8
ATOM      8  C   UNL     1      23.857  11.127  49.608  1.00  0.00     0.053 C 
BRANCH   8   9
ATOM      9  C   UNL     1      22.583  10.371  49.815  1.00  0.00     0.041 C 
ATOM     10  O   UNL     1      22.613   9.150  50.125  1.00  0.00    -0.550 OA
ATOM     11  O   UNL     1      21.360  11.000  49.619  1.00  0.00    -0.550 OA
ENDBRANCH   8   9
ENDBRANCH   7   8
ENDBRANCH   6   7
ENDBRANCH   5   6
ENDBRANCH   4   5
ENDBRANCH   3   4
ENDBRANCH   2   3
ENDBRANCH   1   2
BRANCH   1  12
ATOM     12  C   UNL     1      30.042  14.215  47.473  1.00  0.00     0.000 C 
BRANCH  12  13
ATOM     13  C   UNL     1      31.247  14.125  48.424  1.00  0.00    -0.000 C 
BRANCH  13  14
ATOM     14  C   UNL     1      32.093  15.408  48.428  1.00  0.00    -0.000 C 
BRANCH  14  15
ATOM     15  C   UNL     1      31.236  16.679  48.562  1.00  0.00    -0.000 C 
BRANCH  15  16
ATOM     16  C   UNL     1      30.049  16.494  49.520  1.00  0.00    -0.000 C 
BRANCH  16  17
ATOM     17  C   UNL     1      29.143  17.733  49.587  1.00  0.00    -0.000 C 
BRANCH  17  18
ATOM     18  C   UNL     1      27.663  17.327  49.630  1.00  0.00    -0.000 C 
BRANCH  18  19
ATOM     19  C   UNL     1      26.844  17.957  48.492  1.00  0.00    -0.003 C 
ATOM     20  C   UNL     1      27.433  17.672  47.111  1.00  0.00     0.004 C 
ENDBRANCH  18  19
ENDBRANCH  17  18
ENDBRANCH  16  17
ENDBRANCH  15  16
ENDBRANCH  14  15
ENDBRANCH  13  14
ENDBRANCH  12  13
ENDBRANCH   1  12
TORSDOF 16
ENDMDL
