MODEL 1
REMARK VINA RESULT:     0.305      0.000      0.000
REMARK INTER + INTRA:          -0.206
REMARK INTER:                   0.589
REMARK INTRA:                  -0.795
REMARK UNBOUND:                -0.795
REMARK SMILES CCCCCCCCCCCCCCCCCC(=O)[O-]
REMARK SMILES IDX 10 1 11 2 12 3 13 4 14 5 15 6 16 7 17 8 18 9 19 10 20 11
REMARK SMILES IDX 9 12 8 13 7 14 6 15 5 16 4 17 3 18 2 19 1 20
REMARK H PARENT
REMARK Flexibility Score: inf
ROOT
ATOM      1  C   UNL     1      40.795  45.812  22.373  1.00  0.00     0.000 C 
ENDROOT
BRANCH   1   2
ATOM      2  C   UNL     1      41.068  45.310  20.945  1.00  0.00     0.000 C 
BRANCH   2   3
ATOM      3  C   UNL     1      41.122  43.778  20.798  1.00  0.00     0.000 C 
BRANCH   3   4
ATOM      4  C   UNL     1      41.099  43.318  19.330  1.00  0.00     0.000 C 
BRANCH   4   5
ATOM      5  C   UNL     1      41.120  41.788  19.193  1.00  0.00     0.000 C 
BRANCH   5   6
ATOM      6  C   UNL     1      40.361  41.298  17.948  1.00  0.00     0.000 C 
BRANCH   6   7
ATOM      7  C   UNL     1      40.063  39.787  17.980  1.00  0.00     0.006 C 
BRANCH   7   8
ATOM      8  C   UNL     1      38.836  39.412  18.832  1.00  0.00     0.053 C 
BRANCH   8   9
ATOM      9  C   UNL     1      38.681  37.931  19.003  1.00  0.00     0.041 C 
ATOM     10  O   UNL     1      37.947  37.470  19.916  1.00  0.00    -0.550 OA
ATOM     11  O   UNL     1      39.375  37.060  18.174  1.00  0.00    -0.550 OA
ENDBRANCH   8   9
ENDBRANCH   7   8
ENDBRANCH   6   7
ENDBRANCH   5   6
ENDBRANCH   4   5
ENDBRANCH   3   4
ENDBRANCH   2   3
ENDBRANCH   1   2
BRANCH   1  12
ATOM     12  C   UNL     1      40.607  44.668  23.384  1.00  0.00     0.000 C 
BRANCH  12  13
ATOM     13  C   UNL     1      39.600  45.018  24.490  1.00  0.00    -0.000 C 
BRANCH  13  14
ATOM     14  C   UNL     1      38.748  46.251  24.141  1.00  0.00    -0.000 C 
BRANCH  14  15
ATOM     15  C   UNL     1      37.239  45.968  24.227  1.00  0.00    -0.000 C 
BRANCH  15  16
ATOM     16  C   UNL     1      36.423  46.807  23.229  1.00  0.00    -0.000 C 
BRANCH  16  17
ATOM     17  C   UNL     1      34.916  46.779  23.527  1.00  0.00    -0.000 C 
BRANCH  17  18
ATOM     18  C   UNL     1      34.610  46.394  24.982  1.00  0.00    -0.000 C 
BRANCH  18  19
ATOM     19  C   UNL     1      33.434  45.412  25.054  1.00  0.00    -0.003 C 
ATOM     20  C   UNL     1      32.282  45.865  24.162  1.00  0.00     0.004 C 
ENDBRANCH  18  19
ENDBRANCH  17  18
ENDBRANCH  16  17
ENDBRANCH  15  16
ENDBRANCH  14  15
ENDBRANCH  13  14
ENDBRANCH  12  13
ENDBRANCH   1  12
TORSDOF 16
ENDMDL
MODEL 2
REMARK VINA RESULT:     0.444     17.866     21.961
REMARK INTER + INTRA:           0.065
REMARK INTER:                  -0.242
REMARK INTRA:                   0.307
REMARK UNBOUND:                -0.795
REMARK SMILES CCCCCCCCCCCCCCCCCC(=O)[O-]
REMARK SMILES IDX 10 1 11 2 12 3 13 4 14 5 15 6 16 7 17 8 18 9 19 10 20 11
REMARK SMILES IDX 9 12 8 13 7 14 6 15 5 16 4 17 3 18 2 19 1 20
REMARK H PARENT
REMARK Flexibility Score: inf
ROOT
ATOM      1  C   UNL     1      21.909  54.263  32.560  1.00  0.00     0.000 C 
ENDROOT
BRANCH   1   2
ATOM      2  C   UNL     1      21.618  54.994  33.883  1.00  0.00     0.000 C 
BRANCH   2   3
ATOM      3  C   UNL     1      21.801  54.137  35.149  1.00  0.00     0.000 C 
BRANCH   3   4
ATOM      4  C   UNL     1      23.171  53.438  35.202  1.00  0.00     0.000 C 
BRANCH   4   5
ATOM      5  C   UNL     1      24.165  54.161  36.124  1.00  0.00     0.000 C 
BRANCH   5   6
ATOM      6  C   UNL     1      25.086  55.125  35.356  1.00  0.00     0.000 C 
BRANCH   6   7
ATOM      7  C   UNL     1      25.553  54.561  34.001  1.00  0.00     0.006 C 
BRANCH   7   8
ATOM      8  C   UNL     1      24.717  55.046  32.803  1.00  0.00     0.053 C 
BRANCH   8   9
ATOM      9  C   UNL     1      25.391  54.796  31.488  1.00  0.00     0.041 C 
ATOM     10  O   UNL     1      24.711  54.699  30.433  1.00  0.00    -0.550 OA
ATOM     11  O   UNL     1      26.770  54.638  31.433  1.00  0.00    -0.550 OA
ENDBRANCH   8   9
ENDBRANCH   7   8
ENDBRANCH   6   7
ENDBRANCH   5   6
ENDBRANCH   4   5
ENDBRANCH   3   4
ENDBRANCH   2   3
ENDBRANCH   1   2
BRANCH   1  12
ATOM     12  C   UNL     1      20.914  54.626  31.445  1.00  0.00     0.000 C 
BRANCH  12  13
ATOM     13  C   UNL     1      21.614  55.034  30.140  1.00  0.00    -0.000 C 
BRANCH  13  14
ATOM     14  C   UNL     1      21.184  54.165  28.945  1.00  0.00    -0.000 C 
BRANCH  14  15
ATOM     15  C   UNL     1      22.368  53.773  28.046  1.00  0.00    -0.000 C 
BRANCH  15  16
ATOM     16  C   UNL     1      23.008  52.438  28.464  1.00  0.00    -0.000 C 
BRANCH  16  17
ATOM     17  C   UNL     1      23.083  51.431  27.306  1.00  0.00    -0.000 C 
BRANCH  17  18
ATOM     18  C   UNL     1      24.502  51.290  26.737  1.00  0.00    -0.000 C 
BRANCH  18  19
ATOM     19  C   UNL     1      24.660  52.108  25.449  1.00  0.00    -0.003 C 
ATOM     20  C   UNL     1      24.370  53.585  25.695  1.00  0.00     0.004 C 
ENDBRANCH  18  19
ENDBRANCH  17  18
ENDBRANCH  16  17
ENDBRANCH  15  16
ENDBRANCH  14  15
ENDBRANCH  13  14
ENDBRANCH  12  13
ENDBRANCH   1  12
TORSDOF 16
ENDMDL
MODEL 3
REMARK VINA RESULT:     0.617      1.112      1.519
REMARK INTER + INTRA:           0.399
REMARK INTER:                   0.855
REMARK INTRA:                  -0.456
REMARK UNBOUND:                -0.795
REMARK SMILES CCCCCCCCCCCCCCCCCC(=O)[O-]
REMARK SMILES IDX 10 1 11 2 12 3 13 4 14 5 15 6 16 7 17 8 18 9 19 10 20 11
REMARK SMILES IDX 9 12 8 13 7 14 6 15 5 16 4 17 3 18 2 19 1 20
REMARK H PARENT
REMARK Flexibility Score: inf
ROOT
ATOM      1  C   UNL     1      40.766  44.523  23.018  1.00  0.00     0.000 C 
ENDROOT
BRANCH   1   2
ATOM      2  C   UNL     1      40.905  45.680  22.012  1.00  0.00     0.000 C 
BRANCH   2   3
ATOM      3  C   UNL     1      41.100  45.242  20.549  1.00  0.00     0.000 C 
BRANCH   3   4
ATOM      4  C   UNL     1      41.124  43.713  20.381  1.00  0.00     0.000 C 
BRANCH   4   5
ATOM      5  C   UNL     1      40.868  43.276  18.930  1.00  0.00     0.000 C 
BRANCH   5   6
ATOM      6  C   UNL     1      41.006  41.756  18.740  1.00  0.00     0.000 C 
BRANCH   6   7
ATOM      7  C   UNL     1      39.808  40.968  19.304  1.00  0.00     0.006 C 
BRANCH   7   8
ATOM      8  C   UNL     1      39.143  40.029  18.281  1.00  0.00     0.053 C 
BRANCH   8   9
ATOM      9  C   UNL     1      39.570  38.602  18.442  1.00  0.00     0.041 C 
ATOM     10  O   UNL     1      40.782  38.284  18.329  1.00  0.00    -0.550 OA
ATOM     11  O   UNL     1      38.622  37.616  18.684  1.00  0.00    -0.550 OA
ENDBRANCH   8   9
ENDBRANCH   7   8
ENDBRANCH   6   7
ENDBRANCH   5   6
ENDBRANCH   4   5
ENDBRANCH   3   4
ENDBRANCH   2   3
ENDBRANCH   1   2
BRANCH   1  12
ATOM     12  C   UNL     1      40.911  44.981  24.480  1.00  0.00     0.000 C 
BRANCH  12  13
ATOM     13  C   UNL     1      39.579  45.441  25.088  1.00  0.00    -0.000 C 
BRANCH  13  14
ATOM     14  C   UNL     1      38.474  45.606  24.029  1.00  0.00    -0.000 C 
BRANCH  14  15
ATOM     15  C   UNL     1      37.177  46.186  24.616  1.00  0.00    -0.000 C 
BRANCH  15  16
ATOM     16  C   UNL     1      36.276  46.820  23.543  1.00  0.00    -0.000 C 
BRANCH  16  17
ATOM     17  C   UNL     1      34.841  47.057  24.042  1.00  0.00    -0.000 C 
BRANCH  17  18
ATOM     18  C   UNL     1      34.643  46.613  25.498  1.00  0.00    -0.000 C 
BRANCH  18  19
ATOM     19  C   UNL     1      33.198  46.854  25.953  1.00  0.00    -0.003 C 
ATOM     20  C   UNL     1      32.992  48.299  26.396  1.00  0.00     0.004 C 
ENDBRANCH  18  19
ENDBRANCH  17  18
ENDBRANCH  16  17
ENDBRANCH  15  16
ENDBRANCH  14  15
ENDBRANCH  13  14
ENDBRANCH  12  13
ENDBRANCH   1  12
TORSDOF 16
ENDMDL
MODEL 4
REMARK VINA RESULT:     1.544     17.253     20.736
REMARK INTER + INTRA:           2.193
REMARK INTER:                   3.123
REMARK INTRA:                  -0.930
REMARK UNBOUND:                -0.795
REMARK SMILES CCCCCCCCCCCCCCCCCC(=O)[O-]
REMARK SMILES IDX 10 1 11 2 12 3 13 4 14 5 15 6 16 7 17 8 18 9 19 10 20 11
REMARK SMILES IDX 9 12 8 13 7 14 6 15 5 16 4 17 3 18 2 19 1 20
REMARK H PARENT
REMARK Flexibility Score: inf
ROOT
ATOM      1  C   UNL     1      21.166  54.276  29.996  1.00  0.00     0.000 C 
ENDROOT
BRANCH   1   2
ATOM      2  C   UNL     1      22.486  54.214  29.207  1.00  0.00     0.000 C 
BRANCH   2   3
ATOM      3  C   UNL     1      23.071  52.800  29.036  1.00  0.00     0.000 C 
BRANCH   3   4
ATOM      4  C   UNL     1      22.330  51.972  27.972  1.00  0.00     0.000 C 
BRANCH   4   5
ATOM      5  C   UNL     1      23.212  50.871  27.364  1.00  0.00     0.000 C 
BRANCH   5   6
ATOM      6  C   UNL     1      24.699  51.261  27.328  1.00  0.00     0.000 C 
BRANCH   6   7
ATOM      7  C   UNL     1      25.197  51.607  25.912  1.00  0.00     0.006 C 
BRANCH   7   8
ATOM      8  C   UNL     1      24.149  52.321  25.040  1.00  0.00     0.053 C 
BRANCH   8   9
ATOM      9  C   UNL     1      24.104  53.799  25.283  1.00  0.00     0.041 C 
ATOM     10  O   UNL     1      24.462  54.273  26.393  1.00  0.00    -0.550 OA
ATOM     11  O   UNL     1      23.634  54.652  24.292  1.00  0.00    -0.550 OA
ENDBRANCH   8   9
ENDBRANCH   7   8
ENDBRANCH   6   7
ENDBRANCH   5   6
ENDBRANCH   4   5
ENDBRANCH   3   4
ENDBRANCH   2   3
ENDBRANCH   1   2
BRANCH   1  12
ATOM     12  C   UNL     1      21.374  54.182  31.517  1.00  0.00     0.000 C 
BRANCH  12  13
ATOM     13  C   UNL     1      22.478  55.124  32.020  1.00  0.00    -0.000 C 
BRANCH  13  14
ATOM     14  C   UNL     1      23.884  54.517  31.867  1.00  0.00    -0.000 C 
BRANCH  14  15
ATOM     15  C   UNL     1      24.450  53.996  33.199  1.00  0.00    -0.000 C 
BRANCH  15  16
ATOM     16  C   UNL     1      24.621  55.113  34.243  1.00  0.00    -0.000 C 
BRANCH  16  17
ATOM     17  C   UNL     1      23.621  54.993  35.404  1.00  0.00    -0.000 C 
BRANCH  17  18
ATOM     18  C   UNL     1      23.007  53.590  35.511  1.00  0.00    -0.000 C 
BRANCH  18  19
ATOM     19  C   UNL     1      21.477  53.666  35.593  1.00  0.00    -0.003 C 
ATOM     20  C   UNL     1      20.992  55.111  35.521  1.00  0.00     0.004 C 
ENDBRANCH  18  19
ENDBRANCH  17  18
ENDBRANCH  16  17
ENDBRANCH  15  16
ENDBRANCH  14  15
ENDBRANCH  13  14
ENDBRANCH  12  13
ENDBRANCH   1  12
TORSDOF 16
ENDMDL
MODEL 5
REMARK VINA RESULT:     2.631      3.743      8.456
REMARK INTER + INTRA:           4.296
REMARK INTER:                   5.033
REMARK INTRA:                  -0.737
REMARK UNBOUND:                -0.795
REMARK SMILES CCCCCCCCCCCCCCCCCC(=O)[O-]
REMARK SMILES IDX 10 1 11 2 12 3 13 4 14 5 15 6 16 7 17 8 18 9 19 10 20 11
REMARK SMILES IDX 9 12 8 13 7 14 6 15 5 16 4 17 3 18 2 19 1 20
REMARK H PARENT
REMARK Flexibility Score: inf
ROOT
ATOM      1  C   UNL     1      39.739  44.609  24.072  1.00  0.00     0.000 C 
ENDROOT
BRANCH   1   2
ATOM      2  C   UNL     1      38.558  45.566  23.836  1.00  0.00     0.000 C 
BRANCH   2   3
ATOM      3  C   UNL     1      37.857  46.054  25.117  1.00  0.00     0.000 C 
BRANCH   3   4
ATOM      4  C   UNL     1      36.410  46.516  24.867  1.00  0.00     0.000 C 
BRANCH   4   5
ATOM      5  C   UNL     1      36.202  47.053  23.443  1.00  0.00     0.000 C 
BRANCH   5   6
ATOM      6  C   UNL     1      34.722  47.333  23.130  1.00  0.00     0.000 C 
BRANCH   6   7
ATOM      7  C   UNL     1      34.065  46.226  22.285  1.00  0.00     0.006 C 
BRANCH   7   8
ATOM      8  C   UNL     1      33.294  45.183  23.115  1.00  0.00     0.053 C 
BRANCH   8   9
ATOM      9  C   UNL     1      32.957  45.674  24.490  1.00  0.00     0.041 C 
ATOM     10  O   UNL     1      33.395  45.072  25.505  1.00  0.00    -0.550 OA
ATOM     11  O   UNL     1      32.130  46.778  24.651  1.00  0.00    -0.550 OA
ENDBRANCH   8   9
ENDBRANCH   7   8
ENDBRANCH   6   7
ENDBRANCH   5   6
ENDBRANCH   4   5
ENDBRANCH   3   4
ENDBRANCH   2   3
ENDBRANCH   1   2
BRANCH   1  12
ATOM     12  C   UNL     1      40.981  44.974  23.241  1.00  0.00     0.000 C 
BRANCH  12  13
ATOM     13  C   UNL     1      40.673  46.001  22.141  1.00  0.00    -0.000 C 
BRANCH  13  14
ATOM     14  C   UNL     1      41.092  45.510  20.743  1.00  0.00    -0.000 C 
BRANCH  14  15
ATOM     15  C   UNL     1      40.950  43.987  20.587  1.00  0.00    -0.000 C 
BRANCH  15  16
ATOM     16  C   UNL     1      41.077  43.530  19.124  1.00  0.00    -0.000 C 
BRANCH  16  17
ATOM     17  C   UNL     1      41.125  42.000  18.985  1.00  0.00    -0.000 C 
BRANCH  17  18
ATOM     18  C   UNL     1      39.727  41.365  18.975  1.00  0.00    -0.000 C 
BRANCH  18  19
ATOM     19  C   UNL     1      39.772  39.949  18.388  1.00  0.00    -0.003 C 
ATOM     20  C   UNL     1      41.079  39.703  17.641  1.00  0.00     0.004 C 
ENDBRANCH  18  19
ENDBRANCH  17  18
ENDBRANCH  16  17
ENDBRANCH  15  16
ENDBRANCH  14  15
ENDBRANCH  13  14
ENDBRANCH  12  13
ENDBRANCH   1  12
TORSDOF 16
ENDMDL
MODEL 6
REMARK VINA RESULT:     2.993      4.894      9.267
REMARK INTER + INTRA:           4.998
REMARK INTER:                   6.151
REMARK INTRA:                  -1.152
REMARK UNBOUND:                -0.795
REMARK SMILES CCCCCCCCCCCCCCCCCC(=O)[O-]
REMARK SMILES IDX 10 1 11 2 12 3 13 4 14 5 15 6 16 7 17 8 18 9 19 10 20 11
REMARK SMILES IDX 9 12 8 13 7 14 6 15 5 16 4 17 3 18 2 19 1 20
REMARK H PARENT
REMARK Flexibility Score: inf
ROOT
ATOM      1  C   UNL     1      37.003  46.255  23.820  1.00  0.00     0.000 C 
ENDROOT
BRANCH   1   2
ATOM      2  C   UNL     1      36.165  47.419  23.262  1.00  0.00     0.000 C 
BRANCH   2   3
ATOM      3  C   UNL     1      35.351  47.081  21.999  1.00  0.00     0.000 C 
BRANCH   3   4
ATOM      4  C   UNL     1      34.468  45.832  22.175  1.00  0.00     0.000 C 
BRANCH   4   5
ATOM      5  C   UNL     1      33.403  46.014  23.266  1.00  0.00     0.000 C 
BRANCH   5   6
ATOM      6  C   UNL     1      33.621  45.074  24.464  1.00  0.00     0.000 C 
BRANCH   6   7
ATOM      7  C   UNL     1      33.627  45.813  25.816  1.00  0.00     0.006 C 
BRANCH   7   8
ATOM      8  C   UNL     1      33.660  47.346  25.688  1.00  0.00     0.053 C 
BRANCH   8   9
ATOM      9  C   UNL     1      32.997  48.038  26.841  1.00  0.00     0.041 C 
ATOM     10  O   UNL     1      32.221  49.008  26.639  1.00  0.00    -0.550 OA
ATOM     11  O   UNL     1      33.263  47.630  28.142  1.00  0.00    -0.550 OA
ENDBRANCH   8   9
ENDBRANCH   7   8
ENDBRANCH   6   7
ENDBRANCH   5   6
ENDBRANCH   4   5
ENDBRANCH   3   4
ENDBRANCH   2   3
ENDBRANCH   1   2
BRANCH   1  12
ATOM     12  C   UNL     1      38.418  46.195  23.219  1.00  0.00     0.000 C 
BRANCH  12  13
ATOM     13  C   UNL     1      39.392  45.381  24.084  1.00  0.00    -0.000 C 
BRANCH  13  14
ATOM     14  C   UNL     1      40.553  44.790  23.265  1.00  0.00    -0.000 C 
BRANCH  14  15
ATOM     15  C   UNL     1      41.102  45.779  22.223  1.00  0.00    -0.000 C 
BRANCH  15  16
ATOM     16  C   UNL     1      40.927  45.273  20.781  1.00  0.00    -0.000 C 
BRANCH  16  17
ATOM     17  C   UNL     1      41.123  43.754  20.660  1.00  0.00    -0.000 C 
BRANCH  17  18
ATOM     18  C   UNL     1      41.125  43.275  19.201  1.00  0.00    -0.000 C 
BRANCH  18  19
ATOM     19  C   UNL     1      40.642  41.823  19.100  1.00  0.00    -0.003 C 
ATOM     20  C   UNL     1      40.630  41.344  17.651  1.00  0.00     0.004 C 
ENDBRANCH  18  19
ENDBRANCH  17  18
ENDBRANCH  16  17
ENDBRANCH  15  16
ENDBRANCH  14  15
ENDBRANCH  13  14
ENDBRANCH  12  13
ENDBRANCH   1  12
TORSDOF 16
ENDMDL
MODEL 7
REMARK VINA RESULT:     3.236      5.631      7.676
REMARK INTER + INTRA:           5.468
REMARK INTER:                   6.234
REMARK INTRA:                  -0.767
REMARK UNBOUND:                -0.795
REMARK SMILES CCCCCCCCCCCCCCCCCC(=O)[O-]
REMARK SMILES IDX 10 1 11 2 12 3 13 4 14 5 15 6 16 7 17 8 18 9 19 10 20 11
REMARK SMILES IDX 9 12 8 13 7 14 6 15 5 16 4 17 3 18 2 19 1 20
REMARK H PARENT
REMARK Flexibility Score: inf
ROOT
ATOM      1  C   UNL     1      37.318  40.229  20.174  1.00  0.00     0.000 C 
ENDROOT
BRANCH   1   2
ATOM      2  C   UNL     1      38.742  40.412  19.622  1.00  0.00     0.000 C 
BRANCH   2   3
ATOM      3  C   UNL     1      38.960  39.859  18.202  1.00  0.00     0.000 C 
BRANCH   3   4
ATOM      4  C   UNL     1      40.394  40.078  17.689  1.00  0.00     0.000 C 
BRANCH   4   5
ATOM      5  C   UNL     1      40.527  39.815  16.181  1.00  0.00     0.000 C 
BRANCH   5   6
ATOM      6  C   UNL     1      41.125  38.432  15.875  1.00  0.00     0.000 C 
BRANCH   6   7
ATOM      7  C   UNL     1      40.095  37.292  15.987  1.00  0.00     0.006 C 
BRANCH   7   8
ATOM      8  C   UNL     1      40.649  36.012  16.639  1.00  0.00     0.053 C 
BRANCH   8   9
ATOM      9  C   UNL     1      39.884  35.608  17.862  1.00  0.00     0.041 C 
ATOM     10  O   UNL     1      40.478  35.451  18.961  1.00  0.00    -0.550 OA
ATOM     11  O   UNL     1      38.518  35.372  17.781  1.00  0.00    -0.550 OA
ENDBRANCH   8   9
ENDBRANCH   7   8
ENDBRANCH   6   7
ENDBRANCH   5   6
ENDBRANCH   4   5
ENDBRANCH   3   4
ENDBRANCH   2   3
ENDBRANCH   1   2
BRANCH   1  12
ATOM     12  C   UNL     1      36.853  38.763  20.159  1.00  0.00     0.000 C 
BRANCH  12  13
ATOM     13  C   UNL     1      37.914  37.803  20.716  1.00  0.00    -0.000 C 
BRANCH  13  14
ATOM     14  C   UNL     1      37.521  36.325  20.540  1.00  0.00    -0.000 C 
BRANCH  14  15
ATOM     15  C   UNL     1      37.631  35.527  21.849  1.00  0.00    -0.000 C 
BRANCH  15  16
ATOM     16  C   UNL     1      36.267  35.015  22.345  1.00  0.00    -0.000 C 
BRANCH  16  17
ATOM     17  C   UNL     1      35.087  35.716  21.653  1.00  0.00    -0.000 C 
BRANCH  17  18
ATOM     18  C   UNL     1      33.728  35.152  22.092  1.00  0.00    -0.000 C 
BRANCH  18  19
ATOM     19  C   UNL     1      32.585  36.081  21.664  1.00  0.00    -0.003 C 
ATOM     20  C   UNL     1      31.449  35.296  21.016  1.00  0.00     0.004 C 
ENDBRANCH  18  19
ENDBRANCH  17  18
ENDBRANCH  16  17
ENDBRANCH  15  16
ENDBRANCH  14  15
ENDBRANCH  13  14
ENDBRANCH  12  13
ENDBRANCH   1  12
TORSDOF 16
ENDMDL
