MODEL 1
REMARK VINA RESULT:    -5.074      0.000      0.000
REMARK INTER + INTRA:          -6.434
REMARK INTER:                  -6.112
REMARK INTRA:                  -0.322
REMARK UNBOUND:                -0.322
REMARK SMILES O=c1c(O)c(-c2ccc(O)c(O)c2)oc2cc(O)cc(O)c12
REMARK SMILES IDX 5 1 3 2 2 3 1 4 22 5 20 6 19 7 17 8 16 9 15 10 14 11 6 12
REMARK SMILES IDX 7 13 8 14 9 15 13 16 11 17 10 18 12 20 4 22 21 24 18 26
REMARK H PARENT 10 19 12 21 4 23 21 25 18 27
REMARK Flexibility Score: inf
ROOT
ATOM      1  C   UNL     1       0.482   7.394   8.817  1.00  0.00     0.180 A 
ATOM      2  C   UNL     1       1.314   6.452   8.188  1.00  0.00     0.208 A 
ATOM      3  C   UNL     1       2.454   5.989   8.866  1.00  0.00     0.238 A 
ATOM      4  O   UNL     1       3.153   5.091   8.328  1.00  0.00    -0.285 OA
ATOM      5  C   UNL     1       2.778   6.516  10.139  1.00  0.00     0.111 A 
ATOM      6  C   UNL     1       3.933   6.153  10.899  1.00  0.00     0.134 A 
ATOM      7  C   UNL     1       4.094   6.659  12.194  1.00  0.00     0.093 A 
ATOM      8  C   UNL     1       3.180   7.564  12.734  1.00  0.00     0.123 A 
ATOM      9  C   UNL     1       2.077   7.967  11.980  1.00  0.00     0.094 A 
ATOM     10  C   UNL     1       1.867   7.450  10.700  1.00  0.00     0.146 A 
ATOM     11  O   UNL     1       0.795   7.845  10.025  1.00  0.00    -0.452 OA
ENDROOT
BRANCH   1  12
ATOM     12  C   UNL     1      -0.743   7.918   8.172  1.00  0.00     0.025 A 
ATOM     13  C   UNL     1      -0.701   9.028   7.312  1.00  0.00     0.016 A 
ATOM     14  C   UNL     1      -1.867   9.490   6.696  1.00  0.00     0.051 A 
ATOM     15  C   UNL     1      -3.087   8.844   6.916  1.00  0.00     0.157 A 
ATOM     16  C   UNL     1      -1.966   7.258   8.375  1.00  0.00     0.062 A 
ATOM     17  C   UNL     1      -3.138   7.719   7.757  1.00  0.00     0.158 A 
BRANCH  15  18
ATOM     18  O   UNL     1      -4.234   9.328   6.288  1.00  0.00    -0.504 OA
ATOM     19  H   UNL     1      -5.046   9.632   6.812  1.00  0.00     0.293 HD
ENDBRANCH  15  18
BRANCH  17  20
ATOM     20  O   UNL     1      -4.349   7.065   7.976  1.00  0.00    -0.504 OA
ATOM     21  H   UNL     1      -4.550   6.165   7.556  1.00  0.00     0.293 HD
ENDBRANCH  17  20
ENDBRANCH   1  12
BRANCH   2  22
ATOM     22  O   UNL     1       1.019   6.002   6.898  1.00  0.00    -0.502 OA
ATOM     23  H   UNL     1       1.625   6.181   6.107  1.00  0.00     0.293 HD
ENDBRANCH   2  22
BRANCH   6  24
ATOM     24  O   UNL     1       4.955   5.325  10.423  1.00  0.00    -0.507 OA
ATOM     25  H   UNL     1       5.283   4.490  10.883  1.00  0.00     0.293 HD
ENDBRANCH   6  24
BRANCH   8  26
ATOM     26  O   UNL     1       3.383   8.061  14.019  1.00  0.00    -0.508 OA
ATOM     27  H   UNL     1       4.084   7.668  14.635  1.00  0.00     0.293 HD
ENDBRANCH   8  26
TORSDOF 6
ENDMDL
MODEL 2
REMARK VINA RESULT:    -5.025      1.813      3.197
REMARK INTER + INTRA:          -6.376
REMARK INTER:                  -6.750
REMARK INTRA:                   0.374
REMARK UNBOUND:                -0.322
REMARK SMILES O=c1c(O)c(-c2ccc(O)c(O)c2)oc2cc(O)cc(O)c12
REMARK SMILES IDX 5 1 3 2 2 3 1 4 22 5 20 6 19 7 17 8 16 9 15 10 14 11 6 12
REMARK SMILES IDX 7 13 8 14 9 15 13 16 11 17 10 18 12 20 4 22 21 24 18 26
REMARK H PARENT 10 19 12 21 4 23 21 25 18 27
REMARK Flexibility Score: inf
ROOT
ATOM      1  C   UNL     1       0.411   7.743  10.211  1.00  0.00     0.180 A 
ATOM      2  C   UNL     1       0.825   8.828  11.003  1.00  0.00     0.208 A 
ATOM      3  C   UNL     1       2.134   8.840  11.510  1.00  0.00     0.238 A 
ATOM      4  O   UNL     1       2.521   9.849  12.156  1.00  0.00    -0.285 OA
ATOM      5  C   UNL     1       2.994   7.742  11.268  1.00  0.00     0.111 A 
ATOM      6  C   UNL     1       4.327   7.627  11.770  1.00  0.00     0.134 A 
ATOM      7  C   UNL     1       5.123   6.544  11.376  1.00  0.00     0.093 A 
ATOM      8  C   UNL     1       4.616   5.541  10.552  1.00  0.00     0.123 A 
ATOM      9  C   UNL     1       3.299   5.615  10.099  1.00  0.00     0.094 A 
ATOM     10  C   UNL     1       2.492   6.702  10.443  1.00  0.00     0.146 A 
ATOM     11  O   UNL     1       1.252   6.743   9.974  1.00  0.00    -0.452 OA
ENDROOT
BRANCH   1  12
ATOM     12  C   UNL     1      -0.948   7.665   9.629  1.00  0.00     0.025 A 
ATOM     13  C   UNL     1      -2.012   8.421  10.150  1.00  0.00     0.016 A 
ATOM     14  C   UNL     1      -3.281   8.349   9.569  1.00  0.00     0.051 A 
ATOM     15  C   UNL     1      -3.503   7.537   8.453  1.00  0.00     0.157 A 
ATOM     16  C   UNL     1      -1.169   6.867   8.495  1.00  0.00     0.062 A 
ATOM     17  C   UNL     1      -2.442   6.793   7.910  1.00  0.00     0.158 A 
BRANCH  15  18
ATOM     18  O   UNL     1      -4.780   7.485   7.895  1.00  0.00    -0.504 OA
ATOM     19  H   UNL     1      -5.461   6.788   8.174  1.00  0.00     0.293 HD
ENDBRANCH  15  18
BRANCH  17  20
ATOM     20  O   UNL     1      -2.654   5.987   6.793  1.00  0.00    -0.504 OA
ATOM     21  H   UNL     1      -3.461   5.377   6.723  1.00  0.00     0.293 HD
ENDBRANCH  17  20
ENDBRANCH   1  12
BRANCH   2  22
ATOM     22  O   UNL     1      -0.064   9.865  11.295  1.00  0.00    -0.502 OA
ATOM     23  H   UNL     1      -0.954   9.970  10.821  1.00  0.00     0.293 HD
ENDBRANCH   2  22
BRANCH   6  24
ATOM     24  O   UNL     1       4.905   8.527  12.671  1.00  0.00    -0.507 OA
ATOM     25  H   UNL     1       4.784   8.501  13.672  1.00  0.00     0.293 HD
ENDBRANCH   6  24
BRANCH   8  26
ATOM     26  O   UNL     1       5.431   4.468  10.195  1.00  0.00    -0.508 OA
ATOM     27  H   UNL     1       6.427   4.476  10.378  1.00  0.00     0.293 HD
ENDBRANCH   8  26
TORSDOF 6
ENDMDL
MODEL 3
REMARK VINA RESULT:    -4.992      1.991      2.768
REMARK INTER + INTRA:          -6.336
REMARK INTER:                  -6.133
REMARK INTRA:                  -0.203
REMARK UNBOUND:                -0.322
REMARK SMILES O=c1c(O)c(-c2ccc(O)c(O)c2)oc2cc(O)cc(O)c12
REMARK SMILES IDX 5 1 3 2 2 3 1 4 22 5 20 6 19 7 17 8 16 9 15 10 14 11 6 12
REMARK SMILES IDX 7 13 8 14 9 15 13 16 11 17 10 18 12 20 4 22 21 24 18 26
REMARK H PARENT 10 19 12 21 4 23 21 25 18 27
REMARK Flexibility Score: inf
ROOT
ATOM      1  C   UNL     1       1.847   6.356   9.126  1.00  0.00     0.180 A 
ATOM      2  C   UNL     1       2.332   5.602   8.043  1.00  0.00     0.208 A 
ATOM      3  C   UNL     1       3.553   4.921   8.179  1.00  0.00     0.238 A 
ATOM      4  O   UNL     1       3.944   4.189   7.233  1.00  0.00    -0.285 OA
ATOM      5  C   UNL     1       4.301   5.049   9.375  1.00  0.00     0.111 A 
ATOM      6  C   UNL     1       5.573   4.440   9.606  1.00  0.00     0.134 A 
ATOM      7  C   UNL     1       6.170   4.548  10.868  1.00  0.00     0.093 A 
ATOM      8  C   UNL     1       5.577   5.294  11.885  1.00  0.00     0.123 A 
ATOM      9  C   UNL     1       4.361   5.938  11.653  1.00  0.00     0.094 A 
ATOM     10  C   UNL     1       3.721   5.817  10.417  1.00  0.00     0.146 A 
ATOM     11  O   UNL     1       2.556   6.430  10.246  1.00  0.00    -0.452 OA
ENDROOT
BRANCH   1  12
ATOM     12  C   UNL     1       0.563   7.089   9.063  1.00  0.00     0.025 A 
ATOM     13  C   UNL     1      -0.538   6.707   9.850  1.00  0.00     0.016 A 
ATOM     14  C   UNL     1      -1.733   7.429   9.791  1.00  0.00     0.051 A 
ATOM     15  C   UNL     1      -1.844   8.548   8.961  1.00  0.00     0.157 A 
ATOM     16  C   UNL     1       0.455   8.225   8.246  1.00  0.00     0.062 A 
ATOM     17  C   UNL     1      -0.743   8.951   8.185  1.00  0.00     0.158 A 
BRANCH  15  18
ATOM     18  O   UNL     1      -3.049   9.247   8.923  1.00  0.00    -0.504 OA
ATOM     19  H   UNL     1      -3.526   9.449   8.052  1.00  0.00     0.293 HD
ENDBRANCH  15  18
BRANCH  17  20
ATOM     20  O   UNL     1      -0.844  10.070   7.361  1.00  0.00    -0.504 OA
ATOM     21  H   UNL     1      -0.607  10.998   7.693  1.00  0.00     0.293 HD
ENDBRANCH  17  20
ENDBRANCH   1  12
BRANCH   2  22
ATOM     22  O   UNL     1       1.616   5.551   6.844  1.00  0.00    -0.502 OA
ATOM     23  H   UNL     1       1.869   6.106   6.035  1.00  0.00     0.293 HD
ENDBRANCH   2  22
BRANCH   6  24
ATOM     24  O   UNL     1       6.297   3.745   8.633  1.00  0.00    -0.507 OA
ATOM     25  H   UNL     1       5.901   3.336   7.800  1.00  0.00     0.293 HD
ENDBRANCH   6  24
BRANCH   8  26
ATOM     26  O   UNL     1       6.209   5.395  13.122  1.00  0.00    -0.508 OA
ATOM     27  H   UNL     1       6.657   6.253  13.421  1.00  0.00     0.293 HD
ENDBRANCH   8  26
TORSDOF 6
ENDMDL
MODEL 4
REMARK VINA RESULT:    -4.898      1.708      3.388
REMARK INTER + INTRA:          -6.222
REMARK INTER:                  -5.895
REMARK INTRA:                  -0.327
REMARK UNBOUND:                -0.322
REMARK SMILES O=c1c(O)c(-c2ccc(O)c(O)c2)oc2cc(O)cc(O)c12
REMARK SMILES IDX 5 1 3 2 2 3 1 4 22 5 20 6 19 7 17 8 16 9 15 10 14 11 6 12
REMARK SMILES IDX 7 13 8 14 9 15 13 16 11 17 10 18 12 20 4 22 21 24 18 26
REMARK H PARENT 10 19 12 21 4 23 21 25 18 27
REMARK Flexibility Score: inf
ROOT
ATOM      1  C   UNL     1      -0.956   8.125   8.706  1.00  0.00     0.180 A 
ATOM      2  C   UNL     1      -0.477   8.520   9.968  1.00  0.00     0.208 A 
ATOM      3  C   UNL     1       0.776   8.053  10.397  1.00  0.00     0.238 A 
ATOM      4  O   UNL     1       1.231   8.470  11.494  1.00  0.00    -0.285 OA
ATOM      5  C   UNL     1       1.509   7.153   9.586  1.00  0.00     0.111 A 
ATOM      6  C   UNL     1       2.769   6.581   9.940  1.00  0.00     0.134 A 
ATOM      7  C   UNL     1       3.453   5.787   9.012  1.00  0.00     0.093 A 
ATOM      8  C   UNL     1       2.895   5.491   7.769  1.00  0.00     0.123 A 
ATOM      9  C   UNL     1       1.640   5.999   7.433  1.00  0.00     0.094 A 
ATOM     10  C   UNL     1       0.951   6.827   8.322  1.00  0.00     0.146 A 
ATOM     11  O   UNL     1      -0.231   7.306   7.954  1.00  0.00    -0.452 OA
ENDROOT
BRANCH   1  12
ATOM     12  C   UNL     1      -2.260   8.586   8.179  1.00  0.00     0.025 A 
ATOM     13  C   UNL     1      -2.357   9.723   7.358  1.00  0.00     0.016 A 
ATOM     14  C   UNL     1      -3.596  10.125   6.852  1.00  0.00     0.051 A 
ATOM     15  C   UNL     1      -4.751   9.393   7.144  1.00  0.00     0.157 A 
ATOM     16  C   UNL     1      -3.418   7.841   8.453  1.00  0.00     0.062 A 
ATOM     17  C   UNL     1      -4.663   8.243   7.946  1.00  0.00     0.158 A 
BRANCH  15  18
ATOM     18  O   UNL     1      -5.974   9.820   6.626  1.00  0.00    -0.504 OA
ATOM     19  H   UNL     1      -6.358  10.733   6.838  1.00  0.00     0.293 HD
ENDBRANCH  15  18
BRANCH  17  20
ATOM     20  O   UNL     1      -5.808   7.504   8.235  1.00  0.00    -0.504 OA
ATOM     21  H   UNL     1      -5.793   6.738   8.900  1.00  0.00     0.293 HD
ENDBRANCH  17  20
ENDBRANCH   1  12
BRANCH   2  22
ATOM     22  O   UNL     1      -1.250   9.347  10.786  1.00  0.00    -0.502 OA
ATOM     23  H   UNL     1      -1.929   8.982  11.443  1.00  0.00     0.293 HD
ENDBRANCH   2  22
BRANCH   6  24
ATOM     24  O   UNL     1       3.377   6.740  11.189  1.00  0.00    -0.507 OA
ATOM     25  H   UNL     1       2.927   6.574  12.077  1.00  0.00     0.293 HD
ENDBRANCH   6  24
BRANCH   8  26
ATOM     26  O   UNL     1       3.596   4.682   6.876  1.00  0.00    -0.508 OA
ATOM     27  H   UNL     1       4.245   5.073   6.204  1.00  0.00     0.293 HD
ENDBRANCH   8  26
TORSDOF 6
ENDMDL
MODEL 5
REMARK VINA RESULT:    -4.887      2.219      6.909
REMARK INTER + INTRA:          -6.210
REMARK INTER:                  -6.028
REMARK INTRA:                  -0.181
REMARK UNBOUND:                -0.322
REMARK SMILES O=c1c(O)c(-c2ccc(O)c(O)c2)oc2cc(O)cc(O)c12
REMARK SMILES IDX 5 1 3 2 2 3 1 4 22 5 20 6 19 7 17 8 16 9 15 10 14 11 6 12
REMARK SMILES IDX 7 13 8 14 9 15 13 16 11 17 10 18 12 20 4 22 21 24 18 26
REMARK H PARENT 10 19 12 21 4 23 21 25 18 27
REMARK Flexibility Score: inf
ROOT
ATOM      1  C   UNL     1       2.526   6.087   8.713  1.00  0.00     0.180 A 
ATOM      2  C   UNL     1       2.781   6.879   7.580  1.00  0.00     0.208 A 
ATOM      3  C   UNL     1       1.786   7.761   7.128  1.00  0.00     0.238 A 
ATOM      4  O   UNL     1       2.048   8.521   6.159  1.00  0.00    -0.285 OA
ATOM      5  C   UNL     1       0.529   7.799   7.778  1.00  0.00     0.111 A 
ATOM      6  C   UNL     1      -0.569   8.622   7.378  1.00  0.00     0.134 A 
ATOM      7  C   UNL     1      -1.729   8.654   8.162  1.00  0.00     0.093 A 
ATOM      8  C   UNL     1      -1.857   7.849   9.292  1.00  0.00     0.123 A 
ATOM      9  C   UNL     1      -0.813   7.001   9.662  1.00  0.00     0.094 A 
ATOM     10  C   UNL     1       0.373   6.974   8.923  1.00  0.00     0.146 A 
ATOM     11  O   UNL     1       1.349   6.168   9.321  1.00  0.00    -0.452 OA
ENDROOT
BRANCH   1  12
ATOM     12  C   UNL     1       3.529   5.145   9.258  1.00  0.00     0.025 A 
ATOM     13  C   UNL     1       3.948   4.018   8.529  1.00  0.00     0.016 A 
ATOM     14  C   UNL     1       4.915   3.157   9.055  1.00  0.00     0.051 A 
ATOM     15  C   UNL     1       5.488   3.413  10.304  1.00  0.00     0.157 A 
ATOM     16  C   UNL     1       4.121   5.411  10.503  1.00  0.00     0.062 A 
ATOM     17  C   UNL     1       5.092   4.548  11.032  1.00  0.00     0.158 A 
BRANCH  15  18
ATOM     18  O   UNL     1       6.449   2.534  10.802  1.00  0.00    -0.504 OA
ATOM     19  H   UNL     1       6.595   1.614  10.403  1.00  0.00     0.293 HD
ENDBRANCH  15  18
BRANCH  17  20
ATOM     20  O   UNL     1       5.664   4.814  12.275  1.00  0.00    -0.504 OA
ATOM     21  H   UNL     1       5.207   5.414  12.952  1.00  0.00     0.293 HD
ENDBRANCH  17  20
ENDBRANCH   1  12
BRANCH   2  22
ATOM     22  O   UNL     1       4.000   6.772   6.906  1.00  0.00    -0.502 OA
ATOM     23  H   UNL     1       4.641   6.003   7.061  1.00  0.00     0.293 HD
ENDBRANCH   2  22
BRANCH   6  24
ATOM     24  O   UNL     1      -0.581   9.400   6.216  1.00  0.00    -0.507 OA
ATOM     25  H   UNL     1       0.225   9.857   5.818  1.00  0.00     0.293 HD
ENDBRANCH   6  24
BRANCH   8  26
ATOM     26  O   UNL     1      -3.033   7.894  10.038  1.00  0.00    -0.508 OA
ATOM     27  H   UNL     1      -3.262   7.172  10.711  1.00  0.00     0.293 HD
ENDBRANCH   8  26
TORSDOF 6
ENDMDL
MODEL 6
REMARK VINA RESULT:    -4.879      2.195      6.550
REMARK INTER + INTRA:          -6.200
REMARK INTER:                  -5.910
REMARK INTRA:                  -0.290
REMARK UNBOUND:                -0.322
REMARK SMILES O=c1c(O)c(-c2ccc(O)c(O)c2)oc2cc(O)cc(O)c12
REMARK SMILES IDX 5 1 3 2 2 3 1 4 22 5 20 6 19 7 17 8 16 9 15 10 14 11 6 12
REMARK SMILES IDX 7 13 8 14 9 15 13 16 11 17 10 18 12 20 4 22 21 24 18 26
REMARK H PARENT 10 19 12 21 4 23 21 25 18 27
REMARK Flexibility Score: inf
ROOT
ATOM      1  C   UNL     1       1.382   6.832   8.561  1.00  0.00     0.180 A 
ATOM      2  C   UNL     1       1.590   7.659   9.679  1.00  0.00     0.208 A 
ATOM      3  C   UNL     1       0.488   8.308  10.259  1.00  0.00     0.238 A 
ATOM      4  O   UNL     1       0.670   8.987  11.304  1.00  0.00    -0.285 OA
ATOM      5  C   UNL     1      -0.797   8.169   9.681  1.00  0.00     0.111 A 
ATOM      6  C   UNL     1      -1.978   8.816  10.160  1.00  0.00     0.134 A 
ATOM      7  C   UNL     1      -3.214   8.519   9.573  1.00  0.00     0.093 A 
ATOM      8  C   UNL     1      -3.305   7.650   8.487  1.00  0.00     0.123 A 
ATOM      9  C   UNL     1      -2.152   7.053   7.977  1.00  0.00     0.094 A 
ATOM     10  C   UNL     1      -0.909   7.299   8.565  1.00  0.00     0.146 A 
ATOM     11  O   UNL     1       0.160   6.695   8.061  1.00  0.00    -0.452 OA
ENDROOT
BRANCH   1  12
ATOM     12  C   UNL     1       2.491   6.104   7.903  1.00  0.00     0.025 A 
ATOM     13  C   UNL     1       3.111   6.604   6.745  1.00  0.00     0.016 A 
ATOM     14  C   UNL     1       4.172   5.910   6.156  1.00  0.00     0.051 A 
ATOM     15  C   UNL     1       4.638   4.719   6.719  1.00  0.00     0.157 A 
ATOM     16  C   UNL     1       2.975   4.917   8.478  1.00  0.00     0.062 A 
ATOM     17  C   UNL     1       4.039   4.220   7.888  1.00  0.00     0.158 A 
BRANCH  15  18
ATOM     18  O   UNL     1       5.697   4.049   6.108  1.00  0.00    -0.504 OA
ATOM     19  H   UNL     1       6.424   3.590   6.644  1.00  0.00     0.293 HD
ENDBRANCH  15  18
BRANCH  17  20
ATOM     20  O   UNL     1       4.503   3.036   8.460  1.00  0.00    -0.504 OA
ATOM     21  H   UNL     1       5.428   2.971   8.868  1.00  0.00     0.293 HD
ENDBRANCH  17  20
ENDBRANCH   1  12
BRANCH   2  22
ATOM     22  O   UNL     1       2.878   7.844  10.187  1.00  0.00    -0.502 OA
ATOM     23  H   UNL     1       3.266   8.763  10.364  1.00  0.00     0.293 HD
ENDBRANCH   2  22
BRANCH   6  24
ATOM     24  O   UNL     1      -1.988   9.770  11.182  1.00  0.00    -0.507 OA
ATOM     25  H   UNL     1      -2.770  10.366  11.409  1.00  0.00     0.293 HD
ENDBRANCH   6  24
BRANCH   8  26
ATOM     26  O   UNL     1      -4.550   7.391   7.917  1.00  0.00    -0.508 OA
ATOM     27  H   UNL     1      -5.175   6.692   8.302  1.00  0.00     0.293 HD
ENDBRANCH   8  26
TORSDOF 6
ENDMDL
MODEL 7
REMARK VINA RESULT:    -4.805      1.763      6.651
REMARK INTER + INTRA:          -6.110
REMARK INTER:                  -5.780
REMARK INTRA:                  -0.330
REMARK UNBOUND:                -0.322
REMARK SMILES O=c1c(O)c(-c2ccc(O)c(O)c2)oc2cc(O)cc(O)c12
REMARK SMILES IDX 5 1 3 2 2 3 1 4 22 5 20 6 19 7 17 8 16 9 15 10 14 11 6 12
REMARK SMILES IDX 7 13 8 14 9 15 13 16 11 17 10 18 12 20 4 22 21 24 18 26
REMARK H PARENT 10 19 12 21 4 23 21 25 18 27
REMARK Flexibility Score: inf
ROOT
ATOM      1  C   UNL     1       1.319   8.131  10.410  1.00  0.00     0.180 A 
ATOM      2  C   UNL     1       1.574   7.224   9.366  1.00  0.00     0.208 A 
ATOM      3  C   UNL     1       0.520   6.849   8.518  1.00  0.00     0.238 A 
ATOM      4  O   UNL     1       0.770   6.095   7.541  1.00  0.00    -0.285 OA
ATOM      5  C   UNL     1      -0.787   7.339   8.757  1.00  0.00     0.111 A 
ATOM      6  C   UNL     1      -1.940   6.991   7.988  1.00  0.00     0.134 A 
ATOM      7  C   UNL     1      -3.161   7.622   8.252  1.00  0.00     0.093 A 
ATOM      8  C   UNL     1      -3.289   8.539   9.294  1.00  0.00     0.123 A 
ATOM      9  C   UNL     1      -2.182   8.846  10.086  1.00  0.00     0.094 A 
ATOM     10  C   UNL     1      -0.941   8.263   9.824  1.00  0.00     0.146 A 
ATOM     11  O   UNL     1       0.090   8.599  10.589  1.00  0.00    -0.452 OA
ENDROOT
BRANCH   1  12
ATOM     12  C   UNL     1       2.382   8.585  11.336  1.00  0.00     0.025 A 
ATOM     13  C   UNL     1       3.183   9.701  11.040  1.00  0.00     0.016 A 
ATOM     14  C   UNL     1       4.163  10.125  11.941  1.00  0.00     0.051 A 
ATOM     15  C   UNL     1       4.349   9.454  13.153  1.00  0.00     0.157 A 
ATOM     16  C   UNL     1       2.556   7.925  12.563  1.00  0.00     0.062 A 
ATOM     17  C   UNL     1       3.539   8.349  13.469  1.00  0.00     0.158 A 
BRANCH  15  18
ATOM     18  O   UNL     1       5.336   9.899  14.031  1.00  0.00    -0.504 OA
ATOM     19  H   UNL     1       6.323   9.755  13.850  1.00  0.00     0.293 HD
ENDBRANCH  15  18
BRANCH  17  20
ATOM     20  O   UNL     1       3.713   7.679  14.678  1.00  0.00    -0.504 OA
ATOM     21  H   UNL     1       2.947   7.197  15.133  1.00  0.00     0.293 HD
ENDBRANCH  17  20
ENDBRANCH   1  12
BRANCH   2  22
ATOM     22  O   UNL     1       2.854   6.691   9.193  1.00  0.00    -0.502 OA
ATOM     23  H   UNL     1       3.130   5.799   9.584  1.00  0.00     0.293 HD
ENDBRANCH   2  22
BRANCH   6  24
ATOM     24  O   UNL     1      -1.945   6.021   6.981  1.00  0.00    -0.507 OA
ATOM     25  H   UNL     1      -2.381   6.129   6.078  1.00  0.00     0.293 HD
ENDBRANCH   6  24
BRANCH   8  26
ATOM     26  O   UNL     1      -4.525   9.134   9.539  1.00  0.00    -0.508 OA
ATOM     27  H   UNL     1      -5.016   8.996  10.414  1.00  0.00     0.293 HD
ENDBRANCH   8  26
TORSDOF 6
ENDMDL
MODEL 8
REMARK VINA RESULT:    -4.797     18.406     19.763
REMARK INTER + INTRA:          -6.101
REMARK INTER:                  -5.880
REMARK INTRA:                  -0.221
REMARK UNBOUND:                -0.322
REMARK SMILES O=c1c(O)c(-c2ccc(O)c(O)c2)oc2cc(O)cc(O)c12
REMARK SMILES IDX 5 1 3 2 2 3 1 4 22 5 20 6 19 7 17 8 16 9 15 10 14 11 6 12
REMARK SMILES IDX 7 13 8 14 9 15 13 16 11 17 10 18 12 20 4 22 21 24 18 26
REMARK H PARENT 10 19 12 21 4 23 21 25 18 27
REMARK Flexibility Score: inf
ROOT
ATOM      1  C   UNL     1      -7.179  -3.176  22.946  1.00  0.00     0.180 A 
ATOM      2  C   UNL     1      -7.734  -3.365  21.669  1.00  0.00     0.208 A 
ATOM      3  C   UNL     1      -7.636  -4.629  21.064  1.00  0.00     0.238 A 
ATOM      4  O   UNL     1      -8.200  -4.811  19.953  1.00  0.00    -0.285 OA
ATOM      5  C   UNL     1      -6.935  -5.671  21.717  1.00  0.00     0.111 A 
ATOM      6  C   UNL     1      -6.735  -6.979  21.178  1.00  0.00     0.134 A 
ATOM      7  C   UNL     1      -6.118  -7.962  21.962  1.00  0.00     0.093 A 
ATOM      8  C   UNL     1      -5.636  -7.669  23.237  1.00  0.00     0.123 A 
ATOM      9  C   UNL     1      -5.778  -6.381  23.753  1.00  0.00     0.094 A 
ATOM     10  C   UNL     1      -6.424  -5.389  23.011  1.00  0.00     0.146 A 
ATOM     11  O   UNL     1      -6.556  -4.182  23.548  1.00  0.00    -0.452 OA
ENDROOT
BRANCH   1  12
ATOM     12  C   UNL     1      -7.255  -1.878  23.654  1.00  0.00     0.025 A 
ATOM     13  C   UNL     1      -8.478  -1.372  24.125  1.00  0.00     0.016 A 
ATOM     14  C   UNL     1      -8.521  -0.155  24.812  1.00  0.00     0.051 A 
ATOM     15  C   UNL     1      -7.347   0.564  25.052  1.00  0.00     0.157 A 
ATOM     16  C   UNL     1      -6.074  -1.164  23.914  1.00  0.00     0.062 A 
ATOM     17  C   UNL     1      -6.115   0.057  24.603  1.00  0.00     0.158 A 
BRANCH  15  18
ATOM     18  O   UNL     1      -7.422   1.776  25.739  1.00  0.00    -0.504 OA
ATOM     19  H   UNL     1      -7.003   1.902  26.653  1.00  0.00     0.293 HD
ENDBRANCH  15  18
BRANCH  17  20
ATOM     20  O   UNL     1      -4.939   0.765  24.844  1.00  0.00    -0.504 OA
ATOM     21  H   UNL     1      -4.249   0.438  25.511  1.00  0.00     0.293 HD
ENDBRANCH  17  20
ENDBRANCH   1  12
BRANCH   2  22
ATOM     22  O   UNL     1      -8.355  -2.303  21.007  1.00  0.00    -0.502 OA
ATOM     23  H   UNL     1      -9.269  -2.388  20.578  1.00  0.00     0.293 HD
ENDBRANCH   2  22
BRANCH   6  24
ATOM     24  O   UNL     1      -7.096  -7.355  19.881  1.00  0.00    -0.507 OA
ATOM     25  H   UNL     1      -6.811  -6.877  19.040  1.00  0.00     0.293 HD
ENDBRANCH   6  24
BRANCH   8  26
ATOM     26  O   UNL     1      -5.012  -8.668  23.981  1.00  0.00    -0.508 OA
ATOM     27  H   UNL     1      -4.663  -9.514  23.546  1.00  0.00     0.293 HD
ENDBRANCH   8  26
TORSDOF 6
ENDMDL
MODEL 9
REMARK VINA RESULT:    -4.693     17.288     19.036
REMARK INTER + INTRA:          -5.976
REMARK INTER:                  -6.446
REMARK INTRA:                   0.471
REMARK UNBOUND:                -0.322
REMARK SMILES O=c1c(O)c(-c2ccc(O)c(O)c2)oc2cc(O)cc(O)c12
REMARK SMILES IDX 5 1 3 2 2 3 1 4 22 5 20 6 19 7 17 8 16 9 15 10 14 11 6 12
REMARK SMILES IDX 7 13 8 14 9 15 13 16 11 17 10 18 12 20 4 22 21 24 18 26
REMARK H PARENT 10 19 12 21 4 23 21 25 18 27
REMARK Flexibility Score: inf
ROOT
ATOM      1  C   UNL     1      -3.103  -9.775  11.603  1.00  0.00     0.180 A 
ATOM      2  C   UNL     1      -4.347  -9.904  12.245  1.00  0.00     0.208 A 
ATOM      3  C   UNL     1      -5.515  -9.935  11.467  1.00  0.00     0.238 A 
ATOM      4  O   UNL     1      -6.619 -10.125  12.043  1.00  0.00    -0.285 OA
ATOM      5  C   UNL     1      -5.431  -9.779  10.062  1.00  0.00     0.111 A 
ATOM      6  C   UNL     1      -6.554  -9.750   9.179  1.00  0.00     0.134 A 
ATOM      7  C   UNL     1      -6.343  -9.698   7.796  1.00  0.00     0.093 A 
ATOM      8  C   UNL     1      -5.056  -9.610   7.266  1.00  0.00     0.123 A 
ATOM      9  C   UNL     1      -3.954  -9.583   8.122  1.00  0.00     0.094 A 
ATOM     10  C   UNL     1      -4.130  -9.672   9.505  1.00  0.00     0.146 A 
ATOM     11  O   UNL     1      -3.054  -9.663  10.281  1.00  0.00    -0.452 OA
ENDROOT
BRANCH   1  12
ATOM     12  C   UNL     1      -1.828  -9.749  12.354  1.00  0.00     0.025 A 
ATOM     13  C   UNL     1      -1.804  -9.781  13.759  1.00  0.00     0.016 A 
ATOM     14  C   UNL     1      -0.586  -9.780  14.445  1.00  0.00     0.051 A 
ATOM     15  C   UNL     1       0.622  -9.763  13.742  1.00  0.00     0.157 A 
ATOM     16  C   UNL     1      -0.612  -9.752  11.650  1.00  0.00     0.062 A 
ATOM     17  C   UNL     1       0.611  -9.752  12.337  1.00  0.00     0.158 A 
BRANCH  15  18
ATOM     18  O   UNL     1       1.821  -9.761  14.454  1.00  0.00    -0.504 OA
ATOM     19  H   UNL     1       1.846  -9.835  15.465  1.00  0.00     0.293 HD
ENDBRANCH  15  18
BRANCH  17  20
ATOM     20  O   UNL     1       1.811  -9.742  11.629  1.00  0.00    -0.504 OA
ATOM     21  H   UNL     1       2.487  -8.994  11.739  1.00  0.00     0.293 HD
ENDBRANCH  17  20
ENDBRANCH   1  12
BRANCH   2  22
ATOM     22  O   UNL     1      -4.415  -9.979  13.639  1.00  0.00    -0.502 OA
ATOM     23  H   UNL     1      -5.269 -10.214  14.130  1.00  0.00     0.293 HD
ENDBRANCH   2  22
BRANCH   6  24
ATOM     24  O   UNL     1      -7.886  -9.744   9.605  1.00  0.00    -0.507 OA
ATOM     25  H   UNL     1      -8.186  -9.622  10.560  1.00  0.00     0.293 HD
ENDBRANCH   6  24
BRANCH   8  26
ATOM     26  O   UNL     1      -4.885  -9.543   5.885  1.00  0.00    -0.508 OA
ATOM     27  H   UNL     1      -5.503  -8.993   5.300  1.00  0.00     0.293 HD
ENDBRANCH   8  26
TORSDOF 6
ENDMDL
