MODEL 1
REMARK VINA RESULT:    -2.164      0.000      0.000
REMARK INTER + INTRA:          -4.992
REMARK INTER:                  -3.934
REMARK INTRA:                  -1.058
REMARK UNBOUND:                -1.058
REMARK SMILES CCCCCCCCCCCCCCCC(=O)[O-]
REMARK SMILES IDX 9 1 10 2 11 3 12 4 13 5 14 6 15 7 16 8 17 9 18 10 8 11 7 12
REMARK SMILES IDX 6 13 5 14 4 15 3 16 2 17 1 18
REMARK H PARENT
REMARK Flexibility Score: inf
ROOT
ATOM      1  C   UNL     1      -5.200 -21.869  16.173  1.00  0.00     0.000 C 
ENDROOT
BRANCH   1   2
ATOM      2  C   UNL     1      -6.205 -20.786  15.743  1.00  0.00     0.000 C 
BRANCH   2   3
ATOM      3  C   UNL     1      -7.453 -21.376  15.068  1.00  0.00     0.000 C 
BRANCH   3   4
ATOM      4  C   UNL     1      -8.573 -20.336  14.886  1.00  0.00     0.000 C 
BRANCH   4   5
ATOM      5  C   UNL     1      -9.840 -20.927  14.242  1.00  0.00     0.000 C 
BRANCH   5   6
ATOM      6  C   UNL     1     -11.125 -20.796  15.085  1.00  0.00     0.006 C 
BRANCH   6   7
ATOM      7  C   UNL     1     -10.989 -19.895  16.322  1.00  0.00     0.053 C 
BRANCH   7   8
ATOM      8  C   UNL     1     -10.912 -20.690  17.590  1.00  0.00     0.041 C 
ATOM      9  O   UNL     1     -10.773 -20.105  18.696  1.00  0.00    -0.550 OA
ATOM     10  O   UNL     1     -11.029 -22.073  17.553  1.00  0.00    -0.550 OA
ENDBRANCH   7   8
ENDBRANCH   6   7
ENDBRANCH   5   6
ENDBRANCH   4   5
ENDBRANCH   3   4
ENDBRANCH   2   3
ENDBRANCH   1   2
BRANCH   1  11
ATOM     11  C   UNL     1      -5.888 -23.122  16.736  1.00  0.00     0.000 C 
BRANCH  11  12
ATOM     12  C   UNL     1      -5.963 -23.121  18.274  1.00  0.00    -0.000 C 
BRANCH  12  13
ATOM     13  C   UNL     1      -7.324 -22.612  18.791  1.00  0.00    -0.000 C 
BRANCH  13  14
ATOM     14  C   UNL     1      -7.649 -23.068  20.224  1.00  0.00    -0.000 C 
BRANCH  14  15
ATOM     15  C   UNL     1      -9.114 -22.813  20.616  1.00  0.00    -0.000 C 
BRANCH  15  16
ATOM     16  C   UNL     1      -9.260 -21.615  21.577  1.00  0.00    -0.000 C 
BRANCH  16  17
ATOM     17  C   UNL     1      -8.407 -21.740  22.850  1.00  0.00    -0.003 C 
ATOM     18  C   UNL     1      -8.708 -23.005  23.650  1.00  0.00     0.004 C 
ENDBRANCH  16  17
ENDBRANCH  15  16
ENDBRANCH  14  15
ENDBRANCH  13  14
ENDBRANCH  12  13
ENDBRANCH  11  12
ENDBRANCH   1  11
TORSDOF 14
ENDMDL
MODEL 2
REMARK VINA RESULT:    -1.765      2.156      5.510
REMARK INTER + INTRA:          -4.267
REMARK INTER:                  -3.056
REMARK INTRA:                  -1.212
REMARK UNBOUND:                -1.058
REMARK SMILES CCCCCCCCCCCCCCCC(=O)[O-]
REMARK SMILES IDX 9 1 10 2 11 3 12 4 13 5 14 6 15 7 16 8 17 9 18 10 8 11 7 12
REMARK SMILES IDX 6 13 5 14 4 15 3 16 2 17 1 18
REMARK H PARENT
REMARK Flexibility Score: inf
ROOT
ATOM      1  C   UNL     1      -5.985 -22.379  18.255  1.00  0.00     0.000 C 
ENDROOT
BRANCH   1   2
ATOM      2  C   UNL     1      -7.311 -23.124  18.488  1.00  0.00     0.000 C 
BRANCH   2   3
ATOM      3  C   UNL     1      -8.472 -22.171  18.812  1.00  0.00     0.000 C 
BRANCH   3   4
ATOM      4  C   UNL     1      -9.829 -22.706  18.321  1.00  0.00     0.000 C 
BRANCH   4   5
ATOM      5  C   UNL     1     -10.854 -22.871  19.457  1.00  0.00     0.000 C 
BRANCH   5   6
ATOM      6  C   UNL     1     -10.565 -22.043  20.726  1.00  0.00     0.006 C 
BRANCH   6   7
ATOM      7  C   UNL     1     -10.379 -22.875  22.004  1.00  0.00     0.053 C 
BRANCH   7   8
ATOM      8  C   UNL     1      -9.982 -22.028  23.174  1.00  0.00     0.041 C 
ATOM      9  O   UNL     1     -10.696 -21.048  23.517  1.00  0.00    -0.550 OA
ATOM     10  O   UNL     1      -8.843 -22.339  23.905  1.00  0.00    -0.550 OA
ENDBRANCH   7   8
ENDBRANCH   6   7
ENDBRANCH   5   6
ENDBRANCH   4   5
ENDBRANCH   3   4
ENDBRANCH   2   3
ENDBRANCH   1   2
BRANCH   1  11
ATOM     11  C   UNL     1      -5.052 -23.123  17.286  1.00  0.00     0.000 C 
BRANCH  11  12
ATOM     12  C   UNL     1      -4.783 -22.332  15.993  1.00  0.00    -0.000 C 
BRANCH  12  13
ATOM     13  C   UNL     1      -5.807 -21.198  15.780  1.00  0.00    -0.000 C 
BRANCH  13  14
ATOM     14  C   UNL     1      -7.146 -21.678  15.194  1.00  0.00    -0.000 C 
BRANCH  14  15
ATOM     15  C   UNL     1      -8.154 -20.535  14.988  1.00  0.00    -0.000 C 
BRANCH  15  16
ATOM     16  C   UNL     1      -9.374 -20.978  14.154  1.00  0.00    -0.000 C 
BRANCH  16  17
ATOM     17  C   UNL     1     -10.712 -20.843  14.900  1.00  0.00    -0.003 C 
ATOM     18  C   UNL     1     -10.634 -19.905  16.102  1.00  0.00     0.004 C 
ENDBRANCH  16  17
ENDBRANCH  15  16
ENDBRANCH  14  15
ENDBRANCH  13  14
ENDBRANCH  12  13
ENDBRANCH  11  12
ENDBRANCH   1  11
TORSDOF 14
ENDMDL
MODEL 3
REMARK VINA RESULT:    -1.622      2.906      4.734
REMARK INTER + INTRA:          -4.008
REMARK INTER:                  -3.205
REMARK INTRA:                  -0.804
REMARK UNBOUND:                -1.058
REMARK SMILES CCCCCCCCCCCCCCCC(=O)[O-]
REMARK SMILES IDX 9 1 10 2 11 3 12 4 13 5 14 6 15 7 16 8 17 9 18 10 8 11 7 12
REMARK SMILES IDX 6 13 5 14 4 15 3 16 2 17 1 18
REMARK H PARENT
REMARK Flexibility Score: inf
ROOT
ATOM      1  C   UNL     1     -10.155 -20.715  16.425  1.00  0.00     0.000 C 
ENDROOT
BRANCH   1   2
ATOM      2  C   UNL     1      -9.537 -20.641  15.018  1.00  0.00     0.000 C 
BRANCH   2   3
ATOM      3  C   UNL     1      -8.025 -20.918  15.023  1.00  0.00     0.000 C 
BRANCH   3   4
ATOM      4  C   UNL     1      -7.666 -22.217  15.765  1.00  0.00     0.000 C 
BRANCH   4   5
ATOM      5  C   UNL     1      -7.023 -21.963  17.140  1.00  0.00     0.000 C 
BRANCH   5   6
ATOM      6  C   UNL     1      -6.025 -23.043  17.606  1.00  0.00     0.006 C 
BRANCH   6   7
ATOM      7  C   UNL     1      -4.575 -22.553  17.752  1.00  0.00     0.053 C 
BRANCH   7   8
ATOM      8  C   UNL     1      -3.915 -22.349  16.423  1.00  0.00     0.041 C 
ATOM      9  O   UNL     1      -4.329 -21.453  15.641  1.00  0.00    -0.550 OA
ATOM     10  O   UNL     1      -2.822 -23.125  16.062  1.00  0.00    -0.550 OA
ENDBRANCH   7   8
ENDBRANCH   6   7
ENDBRANCH   5   6
ENDBRANCH   4   5
ENDBRANCH   3   4
ENDBRANCH   2   3
ENDBRANCH   1   2
BRANCH   1  11
ATOM     11  C   UNL     1     -11.124 -21.897  16.584  1.00  0.00     0.000 C 
BRANCH  11  12
ATOM     12  C   UNL     1     -10.516 -23.063  17.383  1.00  0.00    -0.000 C 
BRANCH  12  13
ATOM     13  C   UNL     1     -10.840 -22.969  18.889  1.00  0.00    -0.000 C 
BRANCH  13  14
ATOM     14  C   UNL     1      -9.603 -22.729  19.771  1.00  0.00    -0.000 C 
BRANCH  14  15
ATOM     15  C   UNL     1      -9.880 -22.957  21.267  1.00  0.00    -0.000 C 
BRANCH  15  16
ATOM     16  C   UNL     1      -8.615 -22.767  22.129  1.00  0.00    -0.000 C 
BRANCH  16  17
ATOM     17  C   UNL     1      -8.735 -21.625  23.153  1.00  0.00    -0.003 C 
ATOM     18  C   UNL     1      -9.592 -20.463  22.657  1.00  0.00     0.004 C 
ENDBRANCH  16  17
ENDBRANCH  15  16
ENDBRANCH  14  15
ENDBRANCH  13  14
ENDBRANCH  12  13
ENDBRANCH  11  12
ENDBRANCH   1  11
TORSDOF 14
ENDMDL
MODEL 4
REMARK VINA RESULT:    -1.439      1.966      6.138
REMARK INTER + INTRA:          -3.675
REMARK INTER:                  -2.650
REMARK INTRA:                  -1.025
REMARK UNBOUND:                -1.058
REMARK SMILES CCCCCCCCCCCCCCCC(=O)[O-]
REMARK SMILES IDX 9 1 10 2 11 3 12 4 13 5 14 6 15 7 16 8 17 9 18 10 8 11 7 12
REMARK SMILES IDX 6 13 5 14 4 15 3 16 2 17 1 18
REMARK H PARENT
REMARK Flexibility Score: inf
ROOT
ATOM      1  C   UNL     1      -8.636 -21.415  18.073  1.00  0.00     0.000 C 
ENDROOT
BRANCH   1   2
ATOM      2  C   UNL     1      -9.570 -21.148  19.266  1.00  0.00     0.000 C 
BRANCH   2   3
ATOM      3  C   UNL     1     -10.822 -22.039  19.244  1.00  0.00     0.000 C 
BRANCH   3   4
ATOM      4  C   UNL     1     -11.125 -22.665  20.617  1.00  0.00     0.000 C 
BRANCH   4   5
ATOM      5  C   UNL     1      -9.856 -23.125  21.357  1.00  0.00     0.000 C 
BRANCH   5   6
ATOM      6  C   UNL     1      -9.924 -23.026  22.895  1.00  0.00     0.006 C 
BRANCH   6   7
ATOM      7  C   UNL     1      -8.878 -22.092  23.522  1.00  0.00     0.053 C 
BRANCH   7   8
ATOM      8  C   UNL     1      -9.076 -20.667  23.104  1.00  0.00     0.041 C 
ATOM      9  O   UNL     1      -8.092 -19.884  23.037  1.00  0.00    -0.550 OA
ATOM     10  O   UNL     1     -10.341 -20.212  22.757  1.00  0.00    -0.550 OA
ENDBRANCH   7   8
ENDBRANCH   6   7
ENDBRANCH   5   6
ENDBRANCH   4   5
ENDBRANCH   3   4
ENDBRANCH   2   3
ENDBRANCH   1   2
BRANCH   1  11
ATOM     11  C   UNL     1      -7.857 -22.732  18.216  1.00  0.00     0.000 C 
BRANCH  11  12
ATOM     12  C   UNL     1      -6.892 -22.985  17.043  1.00  0.00    -0.000 C 
BRANCH  12  13
ATOM     13  C   UNL     1      -6.558 -21.690  16.274  1.00  0.00    -0.000 C 
BRANCH  13  14
ATOM     14  C   UNL     1      -7.169 -21.635  14.864  1.00  0.00    -0.000 C 
BRANCH  14  15
ATOM     15  C   UNL     1      -8.247 -20.547  14.721  1.00  0.00    -0.000 C 
BRANCH  15  16
ATOM     16  C   UNL     1      -9.497 -21.060  13.975  1.00  0.00    -0.000 C 
BRANCH  16  17
ATOM     17  C   UNL     1     -10.809 -20.826  14.741  1.00  0.00    -0.003 C 
ATOM     18  C   UNL     1     -10.623 -19.994  16.008  1.00  0.00     0.004 C 
ENDBRANCH  16  17
ENDBRANCH  15  16
ENDBRANCH  14  15
ENDBRANCH  13  14
ENDBRANCH  12  13
ENDBRANCH  11  12
ENDBRANCH   1  11
TORSDOF 14
ENDMDL
MODEL 5
REMARK VINA RESULT:    -0.956      1.953      4.714
REMARK INTER + INTRA:          -2.796
REMARK INTER:                  -1.637
REMARK INTRA:                  -1.160
REMARK UNBOUND:                -1.058
REMARK SMILES CCCCCCCCCCCCCCCC(=O)[O-]
REMARK SMILES IDX 9 1 10 2 11 3 12 4 13 5 14 6 15 7 16 8 17 9 18 10 8 11 7 12
REMARK SMILES IDX 6 13 5 14 4 15 3 16 2 17 1 18
REMARK H PARENT
REMARK Flexibility Score: inf
ROOT
ATOM      1  C   UNL     1      -8.266 -21.558  15.269  1.00  0.00     0.000 C 
ENDROOT
BRANCH   1   2
ATOM      2  C   UNL     1      -8.883 -20.235  14.783  1.00  0.00     0.000 C 
BRANCH   2   3
ATOM      3  C   UNL     1     -10.403 -20.337  14.573  1.00  0.00     0.000 C 
BRANCH   3   4
ATOM      4  C   UNL     1     -11.111 -21.056  15.735  1.00  0.00     0.000 C 
BRANCH   4   5
ATOM      5  C   UNL     1     -11.125 -20.228  17.032  1.00  0.00     0.000 C 
BRANCH   5   6
ATOM      6  C   UNL     1     -10.620 -20.969  18.287  1.00  0.00     0.006 C 
BRANCH   6   7
ATOM      7  C   UNL     1     -11.119 -20.385  19.618  1.00  0.00     0.053 C 
BRANCH   7   8
ATOM      8  C   UNL     1     -10.358 -20.927  20.789  1.00  0.00     0.041 C 
ATOM      9  O   UNL     1      -9.817 -22.062  20.722  1.00  0.00    -0.550 OA
ATOM     10  O   UNL     1     -10.217 -20.164  21.941  1.00  0.00    -0.550 OA
ENDBRANCH   7   8
ENDBRANCH   6   7
ENDBRANCH   5   6
ENDBRANCH   4   5
ENDBRANCH   3   4
ENDBRANCH   2   3
ENDBRANCH   1   2
BRANCH   1  11
ATOM     11  C   UNL     1      -7.705 -21.459  16.697  1.00  0.00     0.000 C 
BRANCH  11  12
ATOM     12  C   UNL     1      -7.574 -22.831  17.382  1.00  0.00    -0.000 C 
BRANCH  12  13
ATOM     13  C   UNL     1      -6.748 -22.756  18.683  1.00  0.00    -0.000 C 
BRANCH  13  14
ATOM     14  C   UNL     1      -5.267 -23.125  18.495  1.00  0.00    -0.000 C 
BRANCH  14  15
ATOM     15  C   UNL     1      -4.524 -22.162  17.553  1.00  0.00    -0.000 C 
BRANCH  15  16
ATOM     16  C   UNL     1      -3.741 -22.910  16.455  1.00  0.00    -0.000 C 
BRANCH  16  17
ATOM     17  C   UNL     1      -3.325 -22.012  15.277  1.00  0.00    -0.003 C 
ATOM     18  C   UNL     1      -4.212 -20.779  15.122  1.00  0.00     0.004 C 
ENDBRANCH  16  17
ENDBRANCH  15  16
ENDBRANCH  14  15
ENDBRANCH  13  14
ENDBRANCH  12  13
ENDBRANCH  11  12
ENDBRANCH   1  11
TORSDOF 14
ENDMDL
MODEL 6
REMARK VINA RESULT:    -0.684      2.390      4.161
REMARK INTER + INTRA:          -2.301
REMARK INTER:                  -1.947
REMARK INTRA:                  -0.355
REMARK UNBOUND:                -1.058
REMARK SMILES CCCCCCCCCCCCCCCC(=O)[O-]
REMARK SMILES IDX 9 1 10 2 11 3 12 4 13 5 14 6 15 7 16 8 17 9 18 10 8 11 7 12
REMARK SMILES IDX 6 13 5 14 4 15 3 16 2 17 1 18
REMARK H PARENT
REMARK Flexibility Score: inf
ROOT
ATOM      1  C   UNL     1     -10.256 -22.020  16.677  1.00  0.00     0.000 C 
ENDROOT
BRANCH   1   2
ATOM      2  C   UNL     1     -10.969 -21.323  15.505  1.00  0.00     0.000 C 
BRANCH   2   3
ATOM      3  C   UNL     1     -10.322 -19.977  15.139  1.00  0.00     0.000 C 
BRANCH   3   4
ATOM      4  C   UNL     1      -8.785 -20.027  15.197  1.00  0.00     0.000 C 
BRANCH   4   5
ATOM      5  C   UNL     1      -8.197 -21.232  14.443  1.00  0.00     0.000 C 
BRANCH   5   6
ATOM      6  C   UNL     1      -7.322 -22.174  15.295  1.00  0.00     0.006 C 
BRANCH   6   7
ATOM      7  C   UNL     1      -6.290 -21.460  16.182  1.00  0.00     0.053 C 
BRANCH   7   8
ATOM      8  C   UNL     1      -5.426 -22.429  16.929  1.00  0.00     0.041 C 
ATOM      9  O   UNL     1      -4.303 -22.763  16.467  1.00  0.00    -0.550 OA
ATOM     10  O   UNL     1      -5.845 -22.937  18.152  1.00  0.00    -0.550 OA
ENDBRANCH   7   8
ENDBRANCH   6   7
ENDBRANCH   5   6
ENDBRANCH   4   5
ENDBRANCH   3   4
ENDBRANCH   2   3
ENDBRANCH   1   2
BRANCH   1  11
ATOM     11  C   UNL     1     -11.124 -22.082  17.944  1.00  0.00     0.000 C 
BRANCH  11  12
ATOM     12  C   UNL     1     -10.622 -23.123  18.960  1.00  0.00    -0.000 C 
BRANCH  12  13
ATOM     13  C   UNL     1     -11.063 -22.791  20.401  1.00  0.00    -0.000 C 
BRANCH  13  14
ATOM     14  C   UNL     1     -10.466 -21.481  20.942  1.00  0.00    -0.000 C 
BRANCH  14  15
ATOM     15  C   UNL     1      -9.081 -21.673  21.582  1.00  0.00    -0.000 C 
BRANCH  15  16
ATOM     16  C   UNL     1      -9.117 -21.491  23.114  1.00  0.00    -0.000 C 
BRANCH  16  17
ATOM     17  C   UNL     1      -9.502 -22.769  23.877  1.00  0.00    -0.003 C 
ATOM     18  C   UNL     1     -11.007 -22.907  24.093  1.00  0.00     0.004 C 
ENDBRANCH  16  17
ENDBRANCH  15  16
ENDBRANCH  14  15
ENDBRANCH  13  14
ENDBRANCH  12  13
ENDBRANCH  11  12
ENDBRANCH   1  11
TORSDOF 14
ENDMDL
MODEL 7
REMARK VINA RESULT:    -0.481      2.611      6.779
REMARK INTER + INTRA:          -1.933
REMARK INTER:                  -1.718
REMARK INTRA:                  -0.215
REMARK UNBOUND:                -1.058
REMARK SMILES CCCCCCCCCCCCCCCC(=O)[O-]
REMARK SMILES IDX 9 1 10 2 11 3 12 4 13 5 14 6 15 7 16 8 17 9 18 10 8 11 7 12
REMARK SMILES IDX 6 13 5 14 4 15 3 16 2 17 1 18
REMARK H PARENT
REMARK Flexibility Score: inf
ROOT
ATOM      1  C   UNL     1      -8.711 -21.266  19.522  1.00  0.00     0.000 C 
ENDROOT
BRANCH   1   2
ATOM      2  C   UNL     1      -9.443 -20.085  20.183  1.00  0.00     0.000 C 
BRANCH   2   3
ATOM      3  C   UNL     1     -10.851 -20.464  20.671  1.00  0.00     0.000 C 
BRANCH   3   4
ATOM      4  C   UNL     1     -11.115 -20.010  22.117  1.00  0.00     0.000 C 
BRANCH   4   5
ATOM      5  C   UNL     1     -10.920 -21.139  23.144  1.00  0.00     0.000 C 
BRANCH   5   6
ATOM      6  C   UNL     1     -10.805 -22.556  22.546  1.00  0.00     0.006 C 
BRANCH   6   7
ATOM      7  C   UNL     1      -9.371 -23.103  22.469  1.00  0.00     0.053 C 
BRANCH   7   8
ATOM      8  C   UNL     1      -8.484 -22.502  23.516  1.00  0.00     0.041 C 
ATOM      9  O   UNL     1      -7.888 -21.416  23.293  1.00  0.00    -0.550 OA
ATOM     10  O   UNL     1      -8.343 -23.123  24.750  1.00  0.00    -0.550 OA
ENDBRANCH   7   8
ENDBRANCH   6   7
ENDBRANCH   5   6
ENDBRANCH   4   5
ENDBRANCH   3   4
ENDBRANCH   2   3
ENDBRANCH   1   2
BRANCH   1  11
ATOM     11  C   UNL     1      -9.061 -21.419  18.034  1.00  0.00     0.000 C 
BRANCH  11  12
ATOM     12  C   UNL     1     -10.579 -21.424  17.776  1.00  0.00    -0.000 C 
BRANCH  12  13
ATOM     13  C   UNL     1     -11.080 -20.074  17.221  1.00  0.00    -0.000 C 
BRANCH  13  14
ATOM     14  C   UNL     1     -11.077 -20.000  15.685  1.00  0.00    -0.000 C 
BRANCH  14  15
ATOM     15  C   UNL     1      -9.662 -19.891  15.092  1.00  0.00    -0.000 C 
BRANCH  15  16
ATOM     16  C   UNL     1      -9.240 -21.177  14.352  1.00  0.00    -0.000 C 
BRANCH  16  17
ATOM     17  C   UNL     1      -7.718 -21.313  14.177  1.00  0.00    -0.003 C 
ATOM     18  C   UNL     1      -6.953 -21.219  15.495  1.00  0.00     0.004 C 
ENDBRANCH  16  17
ENDBRANCH  15  16
ENDBRANCH  14  15
ENDBRANCH  13  14
ENDBRANCH  12  13
ENDBRANCH  11  12
ENDBRANCH   1  11
TORSDOF 14
ENDMDL
MODEL 8
REMARK VINA RESULT:    -0.302      2.510      5.244
REMARK INTER + INTRA:          -1.607
REMARK INTER:                  -1.307
REMARK INTRA:                  -0.300
REMARK UNBOUND:                -1.058
REMARK SMILES CCCCCCCCCCCCCCCC(=O)[O-]
REMARK SMILES IDX 9 1 10 2 11 3 12 4 13 5 14 6 15 7 16 8 17 9 18 10 8 11 7 12
REMARK SMILES IDX 6 13 5 14 4 15 3 16 2 17 1 18
REMARK H PARENT
REMARK Flexibility Score: inf
ROOT
ATOM      1  C   UNL     1      -7.656 -21.912  18.840  1.00  0.00     0.000 C 
ENDROOT
BRANCH   1   2
ATOM      2  C   UNL     1      -8.758 -20.842  18.933  1.00  0.00     0.000 C 
BRANCH   2   3
ATOM      3  C   UNL     1     -10.035 -21.245  18.176  1.00  0.00     0.000 C 
BRANCH   3   4
ATOM      4  C   UNL     1     -10.980 -22.106  19.031  1.00  0.00     0.000 C 
BRANCH   4   5
ATOM      5  C   UNL     1     -10.924 -21.752  20.528  1.00  0.00     0.000 C 
BRANCH   5   6
ATOM      6  C   UNL     1     -11.004 -22.955  21.490  1.00  0.00     0.006 C 
BRANCH   6   7
ATOM      7  C   UNL     1      -9.827 -23.070  22.471  1.00  0.00     0.053 C 
BRANCH   7   8
ATOM      8  C   UNL     1      -9.316 -21.726  22.893  1.00  0.00     0.041 C 
ATOM      9  O   UNL     1      -8.087 -21.557  23.113  1.00  0.00    -0.550 OA
ATOM     10  O   UNL     1     -10.190 -20.653  23.010  1.00  0.00    -0.550 OA
ENDBRANCH   7   8
ENDBRANCH   6   7
ENDBRANCH   5   6
ENDBRANCH   4   5
ENDBRANCH   3   4
ENDBRANCH   2   3
ENDBRANCH   1   2
BRANCH   1  11
ATOM     11  C   UNL     1      -8.081 -23.125  17.997  1.00  0.00     0.000 C 
BRANCH  11  12
ATOM     12  C   UNL     1      -7.880 -22.901  16.487  1.00  0.00    -0.000 C 
BRANCH  12  13
ATOM     13  C   UNL     1      -6.664 -22.000  16.188  1.00  0.00    -0.000 C 
BRANCH  13  14
ATOM     14  C   UNL     1      -5.402 -22.782  15.785  1.00  0.00    -0.000 C 
BRANCH  14  15
ATOM     15  C   UNL     1      -4.172 -22.414  16.633  1.00  0.00    -0.000 C 
BRANCH  15  16
ATOM     16  C   UNL     1      -4.511 -22.305  18.134  1.00  0.00    -0.000 C 
BRANCH  16  17
ATOM     17  C   UNL     1      -3.573 -23.125  19.036  1.00  0.00    -0.003 C 
ATOM     18  C   UNL     1      -3.952 -23.055  20.514  1.00  0.00     0.004 C 
ENDBRANCH  16  17
ENDBRANCH  15  16
ENDBRANCH  14  15
ENDBRANCH  13  14
ENDBRANCH  12  13
ENDBRANCH  11  12
ENDBRANCH   1  11
TORSDOF 14
ENDMDL
