MODEL 1
REMARK VINA RESULT:    -2.999      0.000      0.000
REMARK INTER + INTRA:         -10.834
REMARK INTER:                  -6.856
REMARK INTRA:                  -3.978
REMARK UNBOUND:                -3.978
REMARK SMILES CCCCCCCCCCCCCCCCCCCCCCCC(=O)[O-]
REMARK SMILES IDX 13 1 14 2 15 3 16 4 17 5 18 6 19 7 20 8 21 9 22 10 23 11
REMARK SMILES IDX 24 12 25 13 26 14 12 15 11 16 10 17 9 18 8 19 7 20 6 21 5 22
REMARK SMILES IDX 4 23 3 24 2 25 1 26
REMARK H PARENT
REMARK Flexibility Score: inf
ROOT
ATOM      1  C   UNL     1    -115.310  37.870 -10.136  1.00  0.00     0.000 C 
ENDROOT
BRANCH   1   2
ATOM      2  C   UNL     1    -115.247  37.496  -8.644  1.00  0.00     0.000 C 
BRANCH   2   3
ATOM      3  C   UNL     1    -116.559  36.886  -8.122  1.00  0.00     0.000 C 
BRANCH   3   4
ATOM      4  C   UNL     1    -116.341  35.598  -7.307  1.00  0.00     0.000 C 
BRANCH   4   5
ATOM      5  C   UNL     1    -114.986  34.900  -7.525  1.00  0.00     0.000 C 
BRANCH   5   6
ATOM      6  C   UNL     1    -115.010  33.887  -8.682  1.00  0.00     0.000 C 
BRANCH   6   7
ATOM      7  C   UNL     1    -116.440  33.538  -9.125  1.00  0.00     0.000 C 
BRANCH   7   8
ATOM      8  C   UNL     1    -116.680  33.805 -10.619  1.00  0.00     0.000 C 
BRANCH   8   9
ATOM      9  C   UNL     1    -115.349  33.896 -11.379  1.00  0.00     0.000 C 
BRANCH   9  10
ATOM     10  C   UNL     1    -115.512  33.687 -12.893  1.00  0.00     0.006 C 
BRANCH  10  11
ATOM     11  C   UNL     1    -114.877  32.378 -13.383  1.00  0.00     0.053 C 
BRANCH  11  12
ATOM     12  C   UNL     1    -115.936  31.367 -13.696  1.00  0.00     0.041 C 
ATOM     13  O   UNL     1    -116.686  30.930 -12.783  1.00  0.00    -0.550 OA
ATOM     14  O   UNL     1    -116.076  30.885 -14.991  1.00  0.00    -0.550 OA
ENDBRANCH  11  12
ENDBRANCH  10  11
ENDBRANCH   9  10
ENDBRANCH   8   9
ENDBRANCH   7   8
ENDBRANCH   6   7
ENDBRANCH   5   6
ENDBRANCH   4   5
ENDBRANCH   3   4
ENDBRANCH   2   3
ENDBRANCH   1   2
BRANCH   1  15
ATOM     15  C   UNL     1    -116.605  37.457 -10.862  1.00  0.00     0.000 C 
BRANCH  15  16
ATOM     16  C   UNL     1    -116.418  37.300 -12.379  1.00  0.00     0.000 C 
BRANCH  16  17
ATOM     17  C   UNL     1    -114.931  37.363 -12.762  1.00  0.00     0.000 C 
BRANCH  17  18
ATOM     18  C   UNL     1    -114.689  37.013 -14.239  1.00  0.00    -0.000 C 
BRANCH  18  19
ATOM     19  C   UNL     1    -113.207  37.111 -14.634  1.00  0.00    -0.000 C 
BRANCH  19  20
ATOM     20  C   UNL     1    -112.668  38.550 -14.567  1.00  0.00    -0.000 C 
BRANCH  20  21
ATOM     21  C   UNL     1    -111.610  38.759 -13.464  1.00  0.00    -0.000 C 
BRANCH  21  22
ATOM     22  C   UNL     1    -111.697  40.156 -12.830  1.00  0.00    -0.000 C 
BRANCH  22  23
ATOM     23  C   UNL     1    -112.983  40.304 -12.004  1.00  0.00    -0.000 C 
BRANCH  23  24
ATOM     24  C   UNL     1    -113.968  41.312 -12.618  1.00  0.00    -0.000 C 
BRANCH  24  25
ATOM     25  C   UNL     1    -115.433  40.950 -12.337  1.00  0.00    -0.003 C 
ATOM     26  C   UNL     1    -116.224  40.818 -13.635  1.00  0.00     0.004 C 
ENDBRANCH  24  25
ENDBRANCH  23  24
ENDBRANCH  22  23
ENDBRANCH  21  22
ENDBRANCH  20  21
ENDBRANCH  19  20
ENDBRANCH  18  19
ENDBRANCH  17  18
ENDBRANCH  16  17
ENDBRANCH  15  16
ENDBRANCH   1  15
TORSDOF 22
ENDMDL
MODEL 2
REMARK VINA RESULT:    -2.944      3.416      6.705
REMARK INTER + INTRA:         -10.709
REMARK INTER:                  -7.135
REMARK INTRA:                  -3.573
REMARK UNBOUND:                -3.978
REMARK SMILES CCCCCCCCCCCCCCCCCCCCCCCC(=O)[O-]
REMARK SMILES IDX 13 1 14 2 15 3 16 4 17 5 18 6 19 7 20 8 21 9 22 10 23 11
REMARK SMILES IDX 24 12 25 13 26 14 12 15 11 16 10 17 9 18 8 19 7 20 6 21 5 22
REMARK SMILES IDX 4 23 3 24 2 25 1 26
REMARK H PARENT
REMARK Flexibility Score: inf
ROOT
ATOM      1  C   UNL     1    -116.576  35.560  -7.357  1.00  0.00     0.000 C 
ENDROOT
BRANCH   1   2
ATOM      2  C   UNL     1    -116.802  37.002  -7.847  1.00  0.00     0.000 C 
BRANCH   2   3
ATOM      3  C   UNL     1    -115.581  37.586  -8.578  1.00  0.00     0.000 C 
BRANCH   3   4
ATOM      4  C   UNL     1    -115.747  39.076  -8.930  1.00  0.00     0.000 C 
BRANCH   4   5
ATOM      5  C   UNL     1    -114.529  39.735  -9.605  1.00  0.00     0.000 C 
BRANCH   5   6
ATOM      6  C   UNL     1    -114.126  39.049 -10.921  1.00  0.00     0.000 C 
BRANCH   6   7
ATOM      7  C   UNL     1    -114.427  39.921 -12.151  1.00  0.00     0.000 C 
BRANCH   7   8
ATOM      8  C   UNL     1    -113.431  39.688 -13.299  1.00  0.00     0.000 C 
BRANCH   8   9
ATOM      9  C   UNL     1    -112.270  38.793 -12.844  1.00  0.00     0.000 C 
BRANCH   9  10
ATOM     10  C   UNL     1    -111.515  38.153 -14.020  1.00  0.00     0.006 C 
BRANCH  10  11
ATOM     11  C   UNL     1    -111.120  39.173 -15.097  1.00  0.00     0.053 C 
BRANCH  11  12
ATOM     12  C   UNL     1    -109.676  39.542 -14.966  1.00  0.00     0.041 C 
ATOM     13  O   UNL     1    -108.834  39.118 -15.801  1.00  0.00    -0.550 OA
ATOM     14  O   UNL     1    -109.254  40.331 -13.903  1.00  0.00    -0.550 OA
ENDBRANCH  11  12
ENDBRANCH  10  11
ENDBRANCH   9  10
ENDBRANCH   8   9
ENDBRANCH   7   8
ENDBRANCH   6   7
ENDBRANCH   5   6
ENDBRANCH   4   5
ENDBRANCH   3   4
ENDBRANCH   2   3
ENDBRANCH   1   2
BRANCH   1  15
ATOM     15  C   UNL     1    -115.155  35.006  -7.582  1.00  0.00     0.000 C 
BRANCH  15  16
ATOM     16  C   UNL     1    -115.110  33.878  -8.623  1.00  0.00     0.000 C 
BRANCH  16  17
ATOM     17  C   UNL     1    -116.511  33.584  -9.182  1.00  0.00     0.000 C 
BRANCH  17  18
ATOM     18  C   UNL     1    -116.560  33.660 -10.716  1.00  0.00    -0.000 C 
BRANCH  18  19
ATOM     19  C   UNL     1    -116.867  35.076 -11.228  1.00  0.00    -0.000 C 
BRANCH  19  20
ATOM     20  C   UNL     1    -115.626  35.783 -11.799  1.00  0.00    -0.000 C 
BRANCH  20  21
ATOM     21  C   UNL     1    -115.918  36.601 -13.075  1.00  0.00    -0.000 C 
BRANCH  21  22
ATOM     22  C   UNL     1    -114.843  36.400 -14.154  1.00  0.00    -0.000 C 
BRANCH  22  23
ATOM     23  C   UNL     1    -114.531  34.909 -14.347  1.00  0.00    -0.000 C 
BRANCH  23  24
ATOM     24  C   UNL     1    -115.653  34.160 -15.084  1.00  0.00    -0.000 C 
BRANCH  24  25
ATOM     25  C   UNL     1    -115.774  32.695 -14.642  1.00  0.00    -0.003 C 
ATOM     26  C   UNL     1    -114.823  32.390 -13.488  1.00  0.00     0.004 C 
ENDBRANCH  24  25
ENDBRANCH  23  24
ENDBRANCH  22  23
ENDBRANCH  21  22
ENDBRANCH  20  21
ENDBRANCH  19  20
ENDBRANCH  18  19
ENDBRANCH  17  18
ENDBRANCH  16  17
ENDBRANCH  15  16
ENDBRANCH   1  15
TORSDOF 22
ENDMDL
MODEL 3
REMARK VINA RESULT:    -2.926      3.371      6.706
REMARK INTER + INTRA:         -10.668
REMARK INTER:                  -7.313
REMARK INTRA:                  -3.355
REMARK UNBOUND:                -3.978
REMARK SMILES CCCCCCCCCCCCCCCCCCCCCCCC(=O)[O-]
REMARK SMILES IDX 13 1 14 2 15 3 16 4 17 5 18 6 19 7 20 8 21 9 22 10 23 11
REMARK SMILES IDX 24 12 25 13 26 14 12 15 11 16 10 17 9 18 8 19 7 20 6 21 5 22
REMARK SMILES IDX 4 23 3 24 2 25 1 26
REMARK H PARENT
REMARK Flexibility Score: inf
ROOT
ATOM      1  C   UNL     1    -116.512  36.916  -7.580  1.00  0.00     0.000 C 
ENDROOT
BRANCH   1   2
ATOM      2  C   UNL     1    -116.917  37.168  -9.044  1.00  0.00     0.000 C 
BRANCH   2   3
ATOM      3  C   UNL     1    -115.768  37.730  -9.897  1.00  0.00     0.000 C 
BRANCH   3   4
ATOM      4  C   UNL     1    -114.650  38.371  -9.053  1.00  0.00     0.000 C 
BRANCH   4   5
ATOM      5  C   UNL     1    -114.556  39.906  -9.139  1.00  0.00     0.000 C 
BRANCH   5   6
ATOM      6  C   UNL     1    -114.688  40.438 -10.576  1.00  0.00     0.000 C 
BRANCH   6   7
ATOM      7  C   UNL     1    -113.396  41.103 -11.075  1.00  0.00     0.000 C 
BRANCH   7   8
ATOM      8  C   UNL     1    -113.051  40.717 -12.522  1.00  0.00     0.000 C 
BRANCH   8   9
ATOM      9  C   UNL     1    -112.870  39.198 -12.655  1.00  0.00     0.000 C 
BRANCH   9  10
ATOM     10  C   UNL     1    -111.453  38.803 -13.100  1.00  0.00     0.006 C 
BRANCH  10  11
ATOM     11  C   UNL     1    -110.474  39.985 -13.083  1.00  0.00     0.053 C 
BRANCH  11  12
ATOM     12  C   UNL     1    -109.915  40.222 -14.451  1.00  0.00     0.041 C 
ATOM     13  O   UNL     1    -109.893  41.386 -14.935  1.00  0.00    -0.550 OA
ATOM     14  O   UNL     1    -109.443  39.155 -15.204  1.00  0.00    -0.550 OA
ENDBRANCH  11  12
ENDBRANCH  10  11
ENDBRANCH   9  10
ENDBRANCH   8   9
ENDBRANCH   7   8
ENDBRANCH   6   7
ENDBRANCH   5   6
ENDBRANCH   4   5
ENDBRANCH   3   4
ENDBRANCH   2   3
ENDBRANCH   1   2
BRANCH   1  15
ATOM     15  C   UNL     1    -116.368  35.433  -7.184  1.00  0.00     0.000 C 
BRANCH  15  16
ATOM     16  C   UNL     1    -114.981  34.858  -7.508  1.00  0.00     0.000 C 
BRANCH  16  17
ATOM     17  C   UNL     1    -115.050  33.880  -8.690  1.00  0.00     0.000 C 
BRANCH  17  18
ATOM     18  C   UNL     1    -116.494  33.514  -9.068  1.00  0.00    -0.000 C 
BRANCH  18  19
ATOM     19  C   UNL     1    -116.786  33.723 -10.562  1.00  0.00    -0.000 C 
BRANCH  19  20
ATOM     20  C   UNL     1    -115.575  34.279 -11.331  1.00  0.00    -0.000 C 
BRANCH  20  21
ATOM     21  C   UNL     1    -115.167  33.414 -12.543  1.00  0.00    -0.000 C 
BRANCH  21  22
ATOM     22  C   UNL     1    -115.515  34.086 -13.880  1.00  0.00    -0.000 C 
BRANCH  22  23
ATOM     23  C   UNL     1    -114.317  34.880 -14.422  1.00  0.00    -0.000 C 
BRANCH  23  24
ATOM     24  C   UNL     1    -114.517  36.400 -14.312  1.00  0.00    -0.000 C 
BRANCH  24  25
ATOM     25  C   UNL     1    -115.999  36.802 -14.321  1.00  0.00    -0.003 C 
ATOM     26  C   UNL     1    -116.225  38.084 -13.526  1.00  0.00     0.004 C 
ENDBRANCH  24  25
ENDBRANCH  23  24
ENDBRANCH  22  23
ENDBRANCH  21  22
ENDBRANCH  20  21
ENDBRANCH  19  20
ENDBRANCH  18  19
ENDBRANCH  17  18
ENDBRANCH  16  17
ENDBRANCH  15  16
ENDBRANCH   1  15
TORSDOF 22
ENDMDL
MODEL 4
REMARK VINA RESULT:    -2.914      4.074      7.604
REMARK INTER + INTRA:         -10.641
REMARK INTER:                  -7.445
REMARK INTRA:                  -3.196
REMARK UNBOUND:                -3.978
REMARK SMILES CCCCCCCCCCCCCCCCCCCCCCCC(=O)[O-]
REMARK SMILES IDX 13 1 14 2 15 3 16 4 17 5 18 6 19 7 20 8 21 9 22 10 23 11
REMARK SMILES IDX 24 12 25 13 26 14 12 15 11 16 10 17 9 18 8 19 7 20 6 21 5 22
REMARK SMILES IDX 4 23 3 24 2 25 1 26
REMARK H PARENT
REMARK Flexibility Score: inf
ROOT
ATOM      1  C   UNL     1    -115.284  37.014  -8.854  1.00  0.00     0.000 C 
ENDROOT
BRANCH   1   2
ATOM      2  C   UNL     1    -115.934  38.406  -8.965  1.00  0.00     0.000 C 
BRANCH   2   3
ATOM      3  C   UNL     1    -114.947  39.494  -9.423  1.00  0.00     0.000 C 
BRANCH   3   4
ATOM      4  C   UNL     1    -114.161  39.099 -10.687  1.00  0.00     0.000 C 
BRANCH   4   5
ATOM      5  C   UNL     1    -114.531  39.877 -11.964  1.00  0.00     0.000 C 
BRANCH   5   6
ATOM      6  C   UNL     1    -113.564  39.613 -13.131  1.00  0.00     0.000 C 
BRANCH   6   7
ATOM      7  C   UNL     1    -112.297  38.866 -12.684  1.00  0.00     0.000 C 
BRANCH   7   8
ATOM      8  C   UNL     1    -111.034  39.352 -13.412  1.00  0.00     0.000 C 
BRANCH   8   9
ATOM      9  C   UNL     1    -111.353  40.549 -14.320  1.00  0.00     0.000 C 
BRANCH   9  10
ATOM     10  C   UNL     1    -110.537  41.801 -13.962  1.00  0.00     0.006 C 
BRANCH  10  11
ATOM     11  C   UNL     1    -111.413  43.048 -13.777  1.00  0.00     0.053 C 
BRANCH  11  12
ATOM     12  C   UNL     1    -111.546  43.385 -12.325  1.00  0.00     0.041 C 
ATOM     13  O   UNL     1    -111.067  44.461 -11.877  1.00  0.00    -0.550 OA
ATOM     14  O   UNL     1    -112.174  42.498 -11.460  1.00  0.00    -0.550 OA
ENDBRANCH  11  12
ENDBRANCH  10  11
ENDBRANCH   9  10
ENDBRANCH   8   9
ENDBRANCH   7   8
ENDBRANCH   6   7
ENDBRANCH   5   6
ENDBRANCH   4   5
ENDBRANCH   3   4
ENDBRANCH   2   3
ENDBRANCH   1   2
BRANCH   1  15
ATOM     15  C   UNL     1    -115.967  36.048  -7.867  1.00  0.00     0.000 C 
BRANCH  15  16
ATOM     16  C   UNL     1    -115.159  34.763  -7.630  1.00  0.00     0.000 C 
BRANCH  16  17
ATOM     17  C   UNL     1    -115.141  33.882  -8.889  1.00  0.00     0.000 C 
BRANCH  17  18
ATOM     18  C   UNL     1    -116.554  33.529  -9.380  1.00  0.00    -0.000 C 
BRANCH  18  19
ATOM     19  C   UNL     1    -116.672  33.557 -10.912  1.00  0.00    -0.000 C 
BRANCH  19  20
ATOM     20  C   UNL     1    -115.545  34.364 -11.580  1.00  0.00    -0.000 C 
BRANCH  20  21
ATOM     21  C   UNL     1    -115.990  35.763 -12.054  1.00  0.00    -0.000 C 
BRANCH  21  22
ATOM     22  C   UNL     1    -115.127  36.288 -13.211  1.00  0.00    -0.000 C 
BRANCH  22  23
ATOM     23  C   UNL     1    -115.111  35.291 -14.379  1.00  0.00    -0.000 C 
BRANCH  23  24
ATOM     24  C   UNL     1    -113.695  35.042 -14.923  1.00  0.00    -0.000 C 
BRANCH  24  25
ATOM     25  C   UNL     1    -112.965  36.343 -15.287  1.00  0.00    -0.003 C 
ATOM     26  C   UNL     1    -111.453  36.142 -15.286  1.00  0.00     0.004 C 
ENDBRANCH  24  25
ENDBRANCH  23  24
ENDBRANCH  22  23
ENDBRANCH  21  22
ENDBRANCH  20  21
ENDBRANCH  19  20
ENDBRANCH  18  19
ENDBRANCH  17  18
ENDBRANCH  16  17
ENDBRANCH  15  16
ENDBRANCH   1  15
TORSDOF 22
ENDMDL
MODEL 5
REMARK VINA RESULT:    -2.906      3.624      7.075
REMARK INTER + INTRA:         -10.622
REMARK INTER:                  -6.841
REMARK INTRA:                  -3.780
REMARK UNBOUND:                -3.978
REMARK SMILES CCCCCCCCCCCCCCCCCCCCCCCC(=O)[O-]
REMARK SMILES IDX 13 1 14 2 15 3 16 4 17 5 18 6 19 7 20 8 21 9 22 10 23 11
REMARK SMILES IDX 24 12 25 13 26 14 12 15 11 16 10 17 9 18 8 19 7 20 6 21 5 22
REMARK SMILES IDX 4 23 3 24 2 25 1 26
REMARK H PARENT
REMARK Flexibility Score: inf
ROOT
ATOM      1  C   UNL     1    -115.207  37.397  -8.884  1.00  0.00     0.000 C 
ENDROOT
BRANCH   1   2
ATOM      2  C   UNL     1    -114.760  38.870  -8.939  1.00  0.00     0.000 C 
BRANCH   2   3
ATOM      3  C   UNL     1    -114.960  39.506 -10.325  1.00  0.00     0.000 C 
BRANCH   3   4
ATOM      4  C   UNL     1    -116.380  39.295 -10.884  1.00  0.00     0.000 C 
BRANCH   4   5
ATOM      5  C   UNL     1    -116.540  39.554 -12.393  1.00  0.00     0.000 C 
BRANCH   5   6
ATOM      6  C   UNL     1    -115.254  40.078 -13.054  1.00  0.00     0.000 C 
BRANCH   6   7
ATOM      7  C   UNL     1    -114.998  39.437 -14.428  1.00  0.00     0.000 C 
BRANCH   7   8
ATOM      8  C   UNL     1    -113.543  38.975 -14.604  1.00  0.00     0.000 C 
BRANCH   8   9
ATOM      9  C   UNL     1    -112.969  38.457 -13.278  1.00  0.00     0.000 C 
BRANCH   9  10
ATOM     10  C   UNL     1    -111.542  38.960 -13.010  1.00  0.00     0.006 C 
BRANCH  10  11
ATOM     11  C   UNL     1    -111.492  40.462 -12.695  1.00  0.00     0.053 C 
BRANCH  11  12
ATOM     12  C   UNL     1    -110.577  41.167 -13.647  1.00  0.00     0.041 C 
ATOM     13  O   UNL     1    -109.690  40.524 -14.268  1.00  0.00    -0.550 OA
ATOM     14  O   UNL     1    -110.686  42.540 -13.827  1.00  0.00    -0.550 OA
ENDBRANCH  11  12
ENDBRANCH  10  11
ENDBRANCH   9  10
ENDBRANCH   8   9
ENDBRANCH   7   8
ENDBRANCH   6   7
ENDBRANCH   5   6
ENDBRANCH   4   5
ENDBRANCH   3   4
ENDBRANCH   2   3
ENDBRANCH   1   2
BRANCH   1  15
ATOM     15  C   UNL     1    -116.306  37.083  -7.850  1.00  0.00     0.000 C 
BRANCH  15  16
ATOM     16  C   UNL     1    -116.304  35.614  -7.401  1.00  0.00     0.000 C 
BRANCH  16  17
ATOM     17  C   UNL     1    -114.963  34.938  -7.727  1.00  0.00     0.000 C 
BRANCH  17  18
ATOM     18  C   UNL     1    -115.110  33.806  -8.757  1.00  0.00    -0.000 C 
BRANCH  18  19
ATOM     19  C   UNL     1    -116.550  33.664  -9.277  1.00  0.00    -0.000 C 
BRANCH  19  20
ATOM     20  C   UNL     1    -116.623  33.605 -10.812  1.00  0.00    -0.000 C 
BRANCH  20  21
ATOM     21  C   UNL     1    -115.463  34.344 -11.511  1.00  0.00    -0.000 C 
BRANCH  21  22
ATOM     22  C   UNL     1    -115.858  35.761 -11.954  1.00  0.00    -0.000 C 
BRANCH  22  23
ATOM     23  C   UNL     1    -115.685  35.930 -13.471  1.00  0.00    -0.000 C 
BRANCH  23  24
ATOM     24  C   UNL     1    -114.675  34.936 -14.065  1.00  0.00    -0.000 C 
BRANCH  24  25
ATOM     25  C   UNL     1    -114.181  35.358 -15.456  1.00  0.00    -0.003 C 
ATOM     26  C   UNL     1    -112.662  35.501 -15.480  1.00  0.00     0.004 C 
ENDBRANCH  24  25
ENDBRANCH  23  24
ENDBRANCH  22  23
ENDBRANCH  21  22
ENDBRANCH  20  21
ENDBRANCH  19  20
ENDBRANCH  18  19
ENDBRANCH  17  18
ENDBRANCH  16  17
ENDBRANCH  15  16
ENDBRANCH   1  15
TORSDOF 22
ENDMDL
MODEL 6
REMARK VINA RESULT:    -2.905      1.436      4.162
REMARK INTER + INTRA:         -10.620
REMARK INTER:                  -7.301
REMARK INTRA:                  -3.318
REMARK UNBOUND:                -3.978
REMARK SMILES CCCCCCCCCCCCCCCCCCCCCCCC(=O)[O-]
REMARK SMILES IDX 13 1 14 2 15 3 16 4 17 5 18 6 19 7 20 8 21 9 22 10 23 11
REMARK SMILES IDX 24 12 25 13 26 14 12 15 11 16 10 17 9 18 8 19 7 20 6 21 5 22
REMARK SMILES IDX 4 23 3 24 2 25 1 26
REMARK H PARENT
REMARK Flexibility Score: inf
ROOT
ATOM      1  C   UNL     1    -115.127  34.969  -7.620  1.00  0.00     0.000 C 
ENDROOT
BRANCH   1   2
ATOM      2  C   UNL     1    -115.172  33.875  -8.704  1.00  0.00     0.000 C 
BRANCH   2   3
ATOM      3  C   UNL     1    -116.595  33.598  -9.217  1.00  0.00     0.000 C 
BRANCH   3   4
ATOM      4  C   UNL     1    -116.762  33.900 -10.718  1.00  0.00     0.000 C 
BRANCH   4   5
ATOM      5  C   UNL     1    -115.464  34.243 -11.471  1.00  0.00     0.000 C 
BRANCH   5   6
ATOM      6  C   UNL     1    -115.648  35.366 -12.507  1.00  0.00     0.000 C 
BRANCH   6   7
ATOM      7  C   UNL     1    -114.962  35.046 -13.845  1.00  0.00     0.000 C 
BRANCH   7   8
ATOM      8  C   UNL     1    -114.478  33.590 -13.930  1.00  0.00     0.000 C 
BRANCH   8   9
ATOM      9  C   UNL     1    -115.143  32.860 -15.105  1.00  0.00     0.000 C 
BRANCH   9  10
ATOM     10  C   UNL     1    -116.450  32.156 -14.707  1.00  0.00     0.006 C 
BRANCH  10  11
ATOM     11  C   UNL     1    -116.283  31.240 -13.487  1.00  0.00     0.053 C 
BRANCH  11  12
ATOM     12  C   UNL     1    -116.580  29.819 -13.853  1.00  0.00     0.041 C 
ATOM     13  O   UNL     1    -116.621  29.472 -15.064  1.00  0.00    -0.550 OA
ATOM     14  O   UNL     1    -116.840  28.885 -12.860  1.00  0.00    -0.550 OA
ENDBRANCH  11  12
ENDBRANCH  10  11
ENDBRANCH   9  10
ENDBRANCH   8   9
ENDBRANCH   7   8
ENDBRANCH   6   7
ENDBRANCH   5   6
ENDBRANCH   4   5
ENDBRANCH   3   4
ENDBRANCH   2   3
ENDBRANCH   1   2
BRANCH   1  15
ATOM     15  C   UNL     1    -116.501  35.460  -7.127  1.00  0.00     0.000 C 
BRANCH  15  16
ATOM     16  C   UNL     1    -116.673  36.982  -7.248  1.00  0.00     0.000 C 
BRANCH  16  17
ATOM     17  C   UNL     1    -116.017  37.512  -8.533  1.00  0.00     0.000 C 
BRANCH  17  18
ATOM     18  C   UNL     1    -116.989  37.533  -9.724  1.00  0.00    -0.000 C 
BRANCH  18  19
ATOM     19  C   UNL     1    -116.512  38.452 -10.860  1.00  0.00    -0.000 C 
BRANCH  19  20
ATOM     20  C   UNL     1    -114.979  38.504 -10.977  1.00  0.00    -0.000 C 
BRANCH  20  21
ATOM     21  C   UNL     1    -114.485  39.245 -12.238  1.00  0.00    -0.000 C 
BRANCH  21  22
ATOM     22  C   UNL     1    -113.068  38.816 -12.647  1.00  0.00    -0.000 C 
BRANCH  22  23
ATOM     23  C   UNL     1    -112.984  38.572 -14.161  1.00  0.00    -0.000 C 
BRANCH  23  24
ATOM     24  C   UNL     1    -111.764  37.726 -14.557  1.00  0.00    -0.000 C 
BRANCH  24  25
ATOM     25  C   UNL     1    -112.118  36.608 -15.548  1.00  0.00    -0.003 C 
ATOM     26  C   UNL     1    -111.133  35.448 -15.441  1.00  0.00     0.004 C 
ENDBRANCH  24  25
ENDBRANCH  23  24
ENDBRANCH  22  23
ENDBRANCH  21  22
ENDBRANCH  20  21
ENDBRANCH  19  20
ENDBRANCH  18  19
ENDBRANCH  17  18
ENDBRANCH  16  17
ENDBRANCH  15  16
ENDBRANCH   1  15
TORSDOF 22
ENDMDL
MODEL 7
REMARK VINA RESULT:    -2.901      3.547      6.482
REMARK INTER + INTRA:         -10.609
REMARK INTER:                  -7.268
REMARK INTRA:                  -3.342
REMARK UNBOUND:                -3.978
REMARK SMILES CCCCCCCCCCCCCCCCCCCCCCCC(=O)[O-]
REMARK SMILES IDX 13 1 14 2 15 3 16 4 17 5 18 6 19 7 20 8 21 9 22 10 23 11
REMARK SMILES IDX 24 12 25 13 26 14 12 15 11 16 10 17 9 18 8 19 7 20 6 21 5 22
REMARK SMILES IDX 4 23 3 24 2 25 1 26
REMARK H PARENT
REMARK Flexibility Score: inf
ROOT
ATOM      1  C   UNL     1    -116.584  33.719  -9.251  1.00  0.00     0.000 C 
ENDROOT
BRANCH   1   2
ATOM      2  C   UNL     1    -116.672  33.891 -10.778  1.00  0.00     0.000 C 
BRANCH   2   3
ATOM      3  C   UNL     1    -115.293  33.906 -11.461  1.00  0.00     0.000 C 
BRANCH   3   4
ATOM      4  C   UNL     1    -115.374  33.703 -12.985  1.00  0.00     0.000 C 
BRANCH   4   5
ATOM      5  C   UNL     1    -115.247  34.984 -13.830  1.00  0.00     0.000 C 
BRANCH   5   6
ATOM      6  C   UNL     1    -114.118  34.907 -14.872  1.00  0.00     0.000 C 
BRANCH   6   7
ATOM      7  C   UNL     1    -113.351  36.233 -15.004  1.00  0.00     0.000 C 
BRANCH   7   8
ATOM      8  C   UNL     1    -111.835  36.029 -15.145  1.00  0.00     0.000 C 
BRANCH   8   9
ATOM      9  C   UNL     1    -111.090  37.368 -15.040  1.00  0.00     0.000 C 
BRANCH   9  10
ATOM     10  C   UNL     1    -111.602  38.246 -13.887  1.00  0.00     0.006 C 
BRANCH  10  11
ATOM     11  C   UNL     1    -111.758  39.720 -14.287  1.00  0.00     0.053 C 
BRANCH  11  12
ATOM     12  C   UNL     1    -110.877  40.587 -13.445  1.00  0.00     0.041 C 
ATOM     13  O   UNL     1    -109.675  40.266 -13.244  1.00  0.00    -0.550 OA
ATOM     14  O   UNL     1    -111.390  41.737 -12.857  1.00  0.00    -0.550 OA
ENDBRANCH  11  12
ENDBRANCH  10  11
ENDBRANCH   9  10
ENDBRANCH   8   9
ENDBRANCH   7   8
ENDBRANCH   6   7
ENDBRANCH   5   6
ENDBRANCH   4   5
ENDBRANCH   3   4
ENDBRANCH   2   3
ENDBRANCH   1   2
BRANCH   1  15
ATOM     15  C   UNL     1    -115.167  33.840  -8.657  1.00  0.00     0.000 C 
BRANCH  15  16
ATOM     16  C   UNL     1    -115.064  34.918  -7.567  1.00  0.00     0.000 C 
BRANCH  16  17
ATOM     17  C   UNL     1    -116.440  35.533  -7.267  1.00  0.00     0.000 C 
BRANCH  17  18
ATOM     18  C   UNL     1    -116.510  37.025  -7.633  1.00  0.00    -0.000 C 
BRANCH  18  19
ATOM     19  C   UNL     1    -115.567  37.394  -8.789  1.00  0.00    -0.000 C 
BRANCH  19  20
ATOM     20  C   UNL     1    -116.301  37.523 -10.135  1.00  0.00    -0.000 C 
BRANCH  20  21
ATOM     21  C   UNL     1    -115.349  37.634 -11.345  1.00  0.00    -0.000 C 
BRANCH  21  22
ATOM     22  C   UNL     1    -115.174  39.085 -11.817  1.00  0.00    -0.000 C 
BRANCH  22  23
ATOM     23  C   UNL     1    -113.875  39.689 -11.266  1.00  0.00    -0.000 C 
BRANCH  23  24
ATOM     24  C   UNL     1    -114.114  40.598 -10.050  1.00  0.00    -0.000 C 
BRANCH  24  25
ATOM     25  C   UNL     1    -115.459  41.334 -10.120  1.00  0.00    -0.003 C 
ATOM     26  C   UNL     1    -116.290  41.079  -8.867  1.00  0.00     0.004 C 
ENDBRANCH  24  25
ENDBRANCH  23  24
ENDBRANCH  22  23
ENDBRANCH  21  22
ENDBRANCH  20  21
ENDBRANCH  19  20
ENDBRANCH  18  19
ENDBRANCH  17  18
ENDBRANCH  16  17
ENDBRANCH  15  16
ENDBRANCH   1  15
TORSDOF 22
ENDMDL
MODEL 8
REMARK VINA RESULT:    -2.885      3.765      6.233
REMARK INTER + INTRA:         -10.573
REMARK INTER:                  -7.183
REMARK INTRA:                  -3.390
REMARK UNBOUND:                -3.978
REMARK SMILES CCCCCCCCCCCCCCCCCCCCCCCC(=O)[O-]
REMARK SMILES IDX 13 1 14 2 15 3 16 4 17 5 18 6 19 7 20 8 21 9 22 10 23 11
REMARK SMILES IDX 24 12 25 13 26 14 12 15 11 16 10 17 9 18 8 19 7 20 6 21 5 22
REMARK SMILES IDX 4 23 3 24 2 25 1 26
REMARK H PARENT
REMARK Flexibility Score: inf
ROOT
ATOM      1  C   UNL     1    -115.195  33.887  -8.652  1.00  0.00     0.000 C 
ENDROOT
BRANCH   1   2
ATOM      2  C   UNL     1    -115.120  34.900  -7.495  1.00  0.00     0.000 C 
BRANCH   2   3
ATOM      3  C   UNL     1    -116.487  35.509  -7.141  1.00  0.00     0.000 C 
BRANCH   3   4
ATOM      4  C   UNL     1    -116.579  37.012  -7.463  1.00  0.00     0.000 C 
BRANCH   4   5
ATOM      5  C   UNL     1    -116.621  37.364  -8.962  1.00  0.00     0.000 C 
BRANCH   5   6
ATOM      6  C   UNL     1    -115.276  37.887  -9.495  1.00  0.00     0.000 C 
BRANCH   6   7
ATOM      7  C   UNL     1    -115.351  38.294 -10.975  1.00  0.00     0.000 C 
BRANCH   7   8
ATOM      8  C   UNL     1    -114.141  39.130 -11.422  1.00  0.00     0.000 C 
BRANCH   8   9
ATOM      9  C   UNL     1    -114.524  40.078 -12.568  1.00  0.00     0.000 C 
BRANCH   9  10
ATOM     10  C   UNL     1    -113.663  41.351 -12.600  1.00  0.00     0.006 C 
BRANCH  10  11
ATOM     11  C   UNL     1    -112.515  41.317 -11.582  1.00  0.00     0.053 C 
BRANCH  11  12
ATOM     12  C   UNL     1    -112.684  42.403 -10.566  1.00  0.00     0.041 C 
ATOM     13  O   UNL     1    -112.969  42.116  -9.372  1.00  0.00    -0.550 OA
ATOM     14  O   UNL     1    -112.555  43.733 -10.942  1.00  0.00    -0.550 OA
ENDBRANCH  11  12
ENDBRANCH  10  11
ENDBRANCH   9  10
ENDBRANCH   8   9
ENDBRANCH   7   8
ENDBRANCH   6   7
ENDBRANCH   5   6
ENDBRANCH   4   5
ENDBRANCH   3   4
ENDBRANCH   2   3
ENDBRANCH   1   2
BRANCH   1  15
ATOM     15  C   UNL     1    -116.618  33.556  -9.144  1.00  0.00     0.000 C 
BRANCH  15  16
ATOM     16  C   UNL     1    -116.871  34.004 -10.591  1.00  0.00     0.000 C 
BRANCH  16  17
ATOM     17  C   UNL     1    -115.577  34.511 -11.247  1.00  0.00     0.000 C 
BRANCH  17  18
ATOM     18  C   UNL     1    -115.808  35.033 -12.675  1.00  0.00    -0.000 C 
BRANCH  18  19
ATOM     19  C   UNL     1    -114.968  34.282 -13.721  1.00  0.00    -0.000 C 
BRANCH  19  20
ATOM     20  C   UNL     1    -114.066  35.219 -14.542  1.00  0.00    -0.000 C 
BRANCH  20  21
ATOM     21  C   UNL     1    -114.331  36.716 -14.275  1.00  0.00    -0.000 C 
BRANCH  21  22
ATOM     22  C   UNL     1    -113.401  37.627 -15.090  1.00  0.00    -0.000 C 
BRANCH  22  23
ATOM     23  C   UNL     1    -111.931  37.384 -14.718  1.00  0.00    -0.000 C 
BRANCH  23  24
ATOM     24  C   UNL     1    -111.356  38.493 -13.823  1.00  0.00    -0.000 C 
BRANCH  24  25
ATOM     25  C   UNL     1    -110.403  39.428 -14.581  1.00  0.00    -0.003 C 
ATOM     26  C   UNL     1    -109.722  40.408 -13.630  1.00  0.00     0.004 C 
ENDBRANCH  24  25
ENDBRANCH  23  24
ENDBRANCH  22  23
ENDBRANCH  21  22
ENDBRANCH  20  21
ENDBRANCH  19  20
ENDBRANCH  18  19
ENDBRANCH  17  18
ENDBRANCH  16  17
ENDBRANCH  15  16
ENDBRANCH   1  15
TORSDOF 22
ENDMDL
MODEL 9
REMARK VINA RESULT:    -2.830      2.920      5.049
REMARK INTER + INTRA:         -10.447
REMARK INTER:                  -6.789
REMARK INTRA:                  -3.658
REMARK UNBOUND:                -3.978
REMARK SMILES CCCCCCCCCCCCCCCCCCCCCCCC(=O)[O-]
REMARK SMILES IDX 13 1 14 2 15 3 16 4 17 5 18 6 19 7 20 8 21 9 22 10 23 11
REMARK SMILES IDX 24 12 25 13 26 14 12 15 11 16 10 17 9 18 8 19 7 20 6 21 5 22
REMARK SMILES IDX 4 23 3 24 2 25 1 26
REMARK H PARENT
REMARK Flexibility Score: inf
ROOT
ATOM      1  C   UNL     1    -115.064  34.924  -7.675  1.00  0.00     0.000 C 
ENDROOT
BRANCH   1   2
ATOM      2  C   UNL     1    -115.103  33.882  -8.809  1.00  0.00     0.000 C 
BRANCH   2   3
ATOM      3  C   UNL     1    -116.531  33.570  -9.288  1.00  0.00     0.000 C 
BRANCH   3   4
ATOM      4  C   UNL     1    -116.760  33.925 -10.769  1.00  0.00     0.000 C 
BRANCH   4   5
ATOM      5  C   UNL     1    -115.504  33.883 -11.659  1.00  0.00     0.000 C 
BRANCH   5   6
ATOM      6  C   UNL     1    -115.782  34.307 -13.112  1.00  0.00     0.000 C 
BRANCH   6   7
ATOM      7  C   UNL     1    -114.501  34.374 -13.958  1.00  0.00     0.000 C 
BRANCH   7   8
ATOM      8  C   UNL     1    -114.484  35.577 -14.913  1.00  0.00     0.000 C 
BRANCH   8   9
ATOM      9  C   UNL     1    -113.212  35.576 -15.773  1.00  0.00     0.000 C 
BRANCH   9  10
ATOM     10  C   UNL     1    -111.981  36.101 -15.016  1.00  0.00     0.006 C 
BRANCH  10  11
ATOM     11  C   UNL     1    -111.458  37.429 -15.583  1.00  0.00     0.053 C 
BRANCH  11  12
ATOM     12  C   UNL     1    -109.968  37.391 -15.714  1.00  0.00     0.041 C 
ATOM     13  O   UNL     1    -109.303  38.462 -15.704  1.00  0.00    -0.550 OA
ATOM     14  O   UNL     1    -109.314  36.177 -15.878  1.00  0.00    -0.550 OA
ENDBRANCH  11  12
ENDBRANCH  10  11
ENDBRANCH   9  10
ENDBRANCH   8   9
ENDBRANCH   7   8
ENDBRANCH   6   7
ENDBRANCH   5   6
ENDBRANCH   4   5
ENDBRANCH   3   4
ENDBRANCH   2   3
ENDBRANCH   1   2
BRANCH   1  15
ATOM     15  C   UNL     1    -116.440  35.423  -7.195  1.00  0.00     0.000 C 
BRANCH  15  16
ATOM     16  C   UNL     1    -116.702  36.894  -7.551  1.00  0.00     0.000 C 
BRANCH  16  17
ATOM     17  C   UNL     1    -115.711  37.390  -8.616  1.00  0.00     0.000 C 
BRANCH  17  18
ATOM     18  C   UNL     1    -116.385  37.639  -9.975  1.00  0.00    -0.000 C 
BRANCH  18  19
ATOM     19  C   UNL     1    -115.418  37.454 -11.157  1.00  0.00    -0.000 C 
BRANCH  19  20
ATOM     20  C   UNL     1    -115.980  38.011 -12.476  1.00  0.00    -0.000 C 
BRANCH  20  21
ATOM     21  C   UNL     1    -114.945  38.810 -13.295  1.00  0.00    -0.000 C 
BRANCH  21  22
ATOM     22  C   UNL     1    -113.519  38.652 -12.744  1.00  0.00    -0.000 C 
BRANCH  22  23
ATOM     23  C   UNL     1    -112.892  40.021 -12.443  1.00  0.00    -0.000 C 
BRANCH  23  24
ATOM     24  C   UNL     1    -113.925  41.159 -12.449  1.00  0.00    -0.000 C 
BRANCH  24  25
ATOM     25  C   UNL     1    -114.112  41.793 -11.063  1.00  0.00    -0.003 C 
ATOM     26  C   UNL     1    -114.000  40.745  -9.960  1.00  0.00     0.004 C 
ENDBRANCH  24  25
ENDBRANCH  23  24
ENDBRANCH  22  23
ENDBRANCH  21  22
ENDBRANCH  20  21
ENDBRANCH  19  20
ENDBRANCH  18  19
ENDBRANCH  17  18
ENDBRANCH  16  17
ENDBRANCH  15  16
ENDBRANCH   1  15
TORSDOF 22
ENDMDL
