MODEL 1
REMARK VINA RESULT:    -6.145      0.000      0.000
REMARK INTER + INTRA:          -7.462
REMARK INTER:                  -7.222
REMARK INTRA:                  -0.240
REMARK UNBOUND:                -0.240
REMARK SMILES O=c1c(O)c(-c2ccc(O)cc2)oc2cc(O)cc(O)c12
REMARK SMILES IDX 5 1 3 2 2 3 1 4 21 5 19 6 18 7 16 8 15 9 14 10 13 11 6 12
REMARK SMILES IDX 7 13 8 14 9 15 12 16 11 17 10 18 4 20 20 22 17 24
REMARK H PARENT 10 19 4 21 20 23 17 25
REMARK Flexibility Score: inf
ROOT
ATOM      1  C   UNL     1     318.533  82.853  99.411  1.00  0.00     0.180 A 
ATOM      2  C   UNL     1     318.867  81.644  98.777  1.00  0.00     0.208 A 
ATOM      3  C   UNL     1     318.696  80.439  99.477  1.00  0.00     0.238 A 
ATOM      4  O   UNL     1     319.047  79.363  98.924  1.00  0.00    -0.285 OA
ATOM      5  C   UNL     1     318.179  80.456 100.795  1.00  0.00     0.111 A 
ATOM      6  C   UNL     1     317.927  79.292 101.582  1.00  0.00     0.134 A 
ATOM      7  C   UNL     1     317.538  79.434 102.920  1.00  0.00     0.093 A 
ATOM      8  C   UNL     1     317.329  80.698 103.478  1.00  0.00     0.123 A 
ATOM      9  C   UNL     1     317.514  81.838 102.701  1.00  0.00     0.094 A 
ATOM     10  C   UNL     1     317.937  81.730 101.373  1.00  0.00     0.146 A 
ATOM     11  O   UNL     1     318.112  82.842 100.670  1.00  0.00    -0.452 OA
ENDROOT
BRANCH   1  12
ATOM     12  C   UNL     1     318.661  84.161  98.729  1.00  0.00     0.021 A 
ATOM     13  C   UNL     1     317.754  84.561  97.731  1.00  0.00     0.016 A 
ATOM     14  C   UNL     1     317.881  85.811  97.119  1.00  0.00     0.047 A 
ATOM     15  C   UNL     1     318.904  86.683  97.503  1.00  0.00     0.115 A 
ATOM     16  C   UNL     1     319.675  85.051  99.125  1.00  0.00     0.016 A 
ATOM     17  C   UNL     1     319.801  86.300  98.511  1.00  0.00     0.047 A 
BRANCH  15  18
ATOM     18  O   UNL     1     319.020  87.924  96.883  1.00  0.00    -0.508 OA
ATOM     19  H   UNL     1     319.813  88.532  97.057  1.00  0.00     0.293 HD
ENDBRANCH  15  18
ENDBRANCH   1  12
BRANCH   2  20
ATOM     20  O   UNL     1     319.396  81.650  97.484  1.00  0.00    -0.502 OA
ATOM     21  H   UNL     1     319.708  82.499  97.027  1.00  0.00     0.293 HD
ENDBRANCH   2  20
BRANCH   6  22
ATOM     22  O   UNL     1     318.017  77.985 101.095  1.00  0.00    -0.507 OA
ATOM     23  H   UNL     1     317.293  77.288 101.182  1.00  0.00     0.293 HD
ENDBRANCH   6  22
BRANCH   8  24
ATOM     24  O   UNL     1     316.927  80.830 104.806  1.00  0.00    -0.508 OA
ATOM     25  H   UNL     1     317.525  81.259 105.502  1.00  0.00     0.293 HD
ENDBRANCH   8  24
TORSDOF 5
ENDMDL
MODEL 2
REMARK VINA RESULT:    -6.025     11.421     15.470
REMARK INTER + INTRA:          -7.321
REMARK INTER:                  -7.072
REMARK INTRA:                  -0.250
REMARK UNBOUND:                -0.240
REMARK SMILES O=c1c(O)c(-c2ccc(O)cc2)oc2cc(O)cc(O)c12
REMARK SMILES IDX 5 1 3 2 2 3 1 4 21 5 19 6 18 7 16 8 15 9 14 10 13 11 6 12
REMARK SMILES IDX 7 13 8 14 9 15 12 16 11 17 10 18 4 20 20 22 17 24
REMARK H PARENT 10 19 4 21 20 23 17 25
REMARK Flexibility Score: inf
ROOT
ATOM      1  C   UNL     1     324.153  87.229  88.354  1.00  0.00     0.180 A 
ATOM      2  C   UNL     1     324.754  86.179  87.639  1.00  0.00     0.208 A 
ATOM      3  C   UNL     1     326.012  86.387  87.052  1.00  0.00     0.238 A 
ATOM      4  O   UNL     1     326.521  85.461  86.369  1.00  0.00    -0.285 OA
ATOM      5  C   UNL     1     326.660  87.637  87.200  1.00  0.00     0.111 A 
ATOM      6  C   UNL     1     327.953  87.946  86.681  1.00  0.00     0.134 A 
ATOM      7  C   UNL     1     328.440  89.256  86.775  1.00  0.00     0.093 A 
ATOM      8  C   UNL     1     327.707  90.252  87.427  1.00  0.00     0.123 A 
ATOM      9  C   UNL     1     326.471  89.946  87.988  1.00  0.00     0.094 A 
ATOM     10  C   UNL     1     325.942  88.657  87.879  1.00  0.00     0.146 A 
ATOM     11  O   UNL     1     324.755  88.411  88.419  1.00  0.00    -0.452 OA
ENDROOT
BRANCH   1  12
ATOM     12  C   UNL     1     322.839  87.077  89.022  1.00  0.00     0.021 A 
ATOM     13  C   UNL     1     322.708  86.366  90.229  1.00  0.00     0.016 A 
ATOM     14  C   UNL     1     321.462  86.257  90.853  1.00  0.00     0.047 A 
ATOM     15  C   UNL     1     320.336  86.866  90.291  1.00  0.00     0.115 A 
ATOM     16  C   UNL     1     321.707  87.704  88.473  1.00  0.00     0.016 A 
ATOM     17  C   UNL     1     320.462  87.593  89.099  1.00  0.00     0.047 A 
BRANCH  15  18
ATOM     18  O   UNL     1     319.101  86.747  90.923  1.00  0.00    -0.508 OA
ATOM     19  H   UNL     1     318.538  85.909  90.833  1.00  0.00     0.293 HD
ENDBRANCH  15  18
ENDBRANCH   1  12
BRANCH   2  20
ATOM     20  O   UNL     1     324.087  84.960  87.487  1.00  0.00    -0.502 OA
ATOM     21  H   UNL     1     323.088  84.864  87.623  1.00  0.00     0.293 HD
ENDBRANCH   2  20
BRANCH   6  22
ATOM     22  O   UNL     1     328.804  87.005  86.095  1.00  0.00    -0.507 OA
ATOM     23  H   UNL     1     328.762  86.715  85.130  1.00  0.00     0.293 HD
ENDBRANCH   6  22
BRANCH   8  24
ATOM     24  O   UNL     1     328.207  91.549  87.529  1.00  0.00    -0.508 OA
ATOM     25  H   UNL     1     328.139  92.077  88.390  1.00  0.00     0.293 HD
ENDBRANCH   8  24
TORSDOF 5
ENDMDL
MODEL 3
REMARK VINA RESULT:    -6.020     12.306     15.681
REMARK INTER + INTRA:          -7.316
REMARK INTER:                  -7.148
REMARK INTRA:                  -0.168
REMARK UNBOUND:                -0.240
REMARK SMILES O=c1c(O)c(-c2ccc(O)cc2)oc2cc(O)cc(O)c12
REMARK SMILES IDX 5 1 3 2 2 3 1 4 21 5 19 6 18 7 16 8 15 9 14 10 13 11 6 12
REMARK SMILES IDX 7 13 8 14 9 15 12 16 11 17 10 18 4 20 20 22 17 24
REMARK H PARENT 10 19 4 21 20 23 17 25
REMARK Flexibility Score: inf
ROOT
ATOM      1  C   UNL     1     325.679  89.390  87.218  1.00  0.00     0.180 A 
ATOM      2  C   UNL     1     325.937  88.106  86.709  1.00  0.00     0.208 A 
ATOM      3  C   UNL     1     325.164  87.025  87.163  1.00  0.00     0.238 A 
ATOM      4  O   UNL     1     325.434  85.869  86.744  1.00  0.00    -0.285 OA
ATOM      5  C   UNL     1     324.132  87.244  88.107  1.00  0.00     0.111 A 
ATOM      6  C   UNL     1     323.261  86.230  88.606  1.00  0.00     0.134 A 
ATOM      7  C   UNL     1     322.362  86.537  89.636  1.00  0.00     0.093 A 
ATOM      8  C   UNL     1     322.259  87.837  90.138  1.00  0.00     0.123 A 
ATOM      9  C   UNL     1     323.063  88.846  89.616  1.00  0.00     0.094 A 
ATOM     10  C   UNL     1     323.994  88.564  88.614  1.00  0.00     0.146 A 
ATOM     11  O   UNL     1     324.749  89.553  88.152  1.00  0.00    -0.452 OA
ENDROOT
BRANCH   1  12
ATOM     12  C   UNL     1     326.435  90.582  86.770  1.00  0.00     0.021 A 
ATOM     13  C   UNL     1     325.821  91.601  86.019  1.00  0.00     0.016 A 
ATOM     14  C   UNL     1     326.549  92.728  85.627  1.00  0.00     0.047 A 
ATOM     15  C   UNL     1     327.893  92.860  85.991  1.00  0.00     0.115 A 
ATOM     16  C   UNL     1     327.780  90.731  87.149  1.00  0.00     0.016 A 
ATOM     17  C   UNL     1     328.507  91.858  86.756  1.00  0.00     0.047 A 
BRANCH  15  18
ATOM     18  O   UNL     1     328.606  93.988  85.593  1.00  0.00    -0.508 OA
ATOM     19  H   UNL     1     329.537  93.914  85.199  1.00  0.00     0.293 HD
ENDBRANCH  15  18
ENDBRANCH   1  12
BRANCH   2  20
ATOM     20  O   UNL     1     326.974  87.907  85.794  1.00  0.00    -0.502 OA
ATOM     21  H   UNL     1     327.229  88.600  85.100  1.00  0.00     0.293 HD
ENDBRANCH   2  20
BRANCH   6  22
ATOM     22  O   UNL     1     323.219  84.924  88.111  1.00  0.00    -0.507 OA
ATOM     23  H   UNL     1     323.416  84.097  88.653  1.00  0.00     0.293 HD
ENDBRANCH   6  22
BRANCH   8  24
ATOM     24  O   UNL     1     321.350  88.136  91.151  1.00  0.00    -0.508 OA
ATOM     25  H   UNL     1     321.036  89.084  91.319  1.00  0.00     0.293 HD
ENDBRANCH   8  24
TORSDOF 5
ENDMDL
MODEL 4
REMARK VINA RESULT:    -5.889      2.786      4.248
REMARK INTER + INTRA:          -7.162
REMARK INTER:                  -6.985
REMARK INTRA:                  -0.177
REMARK UNBOUND:                -0.240
REMARK SMILES O=c1c(O)c(-c2ccc(O)cc2)oc2cc(O)cc(O)c12
REMARK SMILES IDX 5 1 3 2 2 3 1 4 21 5 19 6 18 7 16 8 15 9 14 10 13 11 6 12
REMARK SMILES IDX 7 13 8 14 9 15 12 16 11 17 10 18 4 20 20 22 17 24
REMARK H PARENT 10 19 4 21 20 23 17 25
REMARK Flexibility Score: inf
ROOT
ATOM      1  C   UNL     1     318.132  84.976  99.933  1.00  0.00     0.180 A 
ATOM      2  C   UNL     1     317.990  85.099  98.540  1.00  0.00     0.208 A 
ATOM      3  C   UNL     1     317.717  83.951  97.779  1.00  0.00     0.238 A 
ATOM      4  O   UNL     1     317.645  84.058  96.527  1.00  0.00    -0.285 OA
ATOM      5  C   UNL     1     317.573  82.698  98.422  1.00  0.00     0.111 A 
ATOM      6  C   UNL     1     317.256  81.476  97.755  1.00  0.00     0.134 A 
ATOM      7  C   UNL     1     317.267  80.274  98.474  1.00  0.00     0.093 A 
ATOM      8  C   UNL     1     317.520  80.259  99.848  1.00  0.00     0.123 A 
ATOM      9  C   UNL     1     317.771  81.453 100.519  1.00  0.00     0.094 A 
ATOM     10  C   UNL     1     317.802  82.664  99.823  1.00  0.00     0.146 A 
ATOM     11  O   UNL     1     318.057  83.778 100.499  1.00  0.00    -0.452 OA
ENDROOT
BRANCH   1  12
ATOM     12  C   UNL     1     318.395  86.145 100.804  1.00  0.00     0.021 A 
ATOM     13  C   UNL     1     319.628  86.822 100.771  1.00  0.00     0.016 A 
ATOM     14  C   UNL     1     319.845  87.937 101.585  1.00  0.00     0.047 A 
ATOM     15  C   UNL     1     318.832  88.400 102.430  1.00  0.00     0.115 A 
ATOM     16  C   UNL     1     317.375  86.628 101.641  1.00  0.00     0.016 A 
ATOM     17  C   UNL     1     317.594  87.743 102.455  1.00  0.00     0.047 A 
BRANCH  15  18
ATOM     18  O   UNL     1     319.063  89.511 103.237  1.00  0.00    -0.508 OA
ATOM     19  H   UNL     1     319.563  90.322 102.891  1.00  0.00     0.293 HD
ENDBRANCH  15  18
ENDBRANCH   1  12
BRANCH   2  20
ATOM     20  O   UNL     1     318.158  86.342  97.923  1.00  0.00    -0.502 OA
ATOM     21  H   UNL     1     317.421  87.036  97.887  1.00  0.00     0.293 HD
ENDBRANCH   2  20
BRANCH   6  22
ATOM     22  O   UNL     1     316.900  81.393  96.406  1.00  0.00    -0.507 OA
ATOM     23  H   UNL     1     316.424  82.119  95.892  1.00  0.00     0.293 HD
ENDBRANCH   6  22
BRANCH   8  24
ATOM     24  O   UNL     1     317.513  79.060 100.558  1.00  0.00    -0.508 OA
ATOM     25  H   UNL     1     318.126  78.292 100.308  1.00  0.00     0.293 HD
ENDBRANCH   8  24
TORSDOF 5
ENDMDL
MODEL 5
REMARK VINA RESULT:    -5.747     11.657     14.722
REMARK INTER + INTRA:          -6.995
REMARK INTER:                  -6.721
REMARK INTRA:                  -0.274
REMARK UNBOUND:                -0.240
REMARK SMILES O=c1c(O)c(-c2ccc(O)cc2)oc2cc(O)cc(O)c12
REMARK SMILES IDX 5 1 3 2 2 3 1 4 21 5 19 6 18 7 16 8 15 9 14 10 13 11 6 12
REMARK SMILES IDX 7 13 8 14 9 15 12 16 11 17 10 18 4 20 20 22 17 24
REMARK H PARENT 10 19 4 21 20 23 17 25
REMARK Flexibility Score: inf
ROOT
ATOM      1  C   UNL     1     325.134  87.792  87.437  1.00  0.00     0.180 A 
ATOM      2  C   UNL     1     325.353  86.412  87.292  1.00  0.00     0.208 A 
ATOM      3  C   UNL     1     324.461  85.512  87.898  1.00  0.00     0.238 A 
ATOM      4  O   UNL     1     324.692  84.278  87.810  1.00  0.00    -0.285 OA
ATOM      5  C   UNL     1     323.353  86.004  88.629  1.00  0.00     0.111 A 
ATOM      6  C   UNL     1     322.363  85.185  89.251  1.00  0.00     0.134 A 
ATOM      7  C   UNL     1     321.384  85.777  90.058  1.00  0.00     0.093 A 
ATOM      8  C   UNL     1     321.320  87.164  90.212  1.00  0.00     0.123 A 
ATOM      9  C   UNL     1     322.244  87.976  89.561  1.00  0.00     0.094 A 
ATOM     10  C   UNL     1     323.255  87.413  88.778  1.00  0.00     0.146 A 
ATOM     11  O   UNL     1     324.123  88.223  88.184  1.00  0.00    -0.452 OA
ENDROOT
BRANCH   1  12
ATOM     12  C   UNL     1     326.016  88.800  86.807  1.00  0.00     0.021 A 
ATOM     13  C   UNL     1     325.895  89.133  85.445  1.00  0.00     0.016 A 
ATOM     14  C   UNL     1     326.722  90.106  84.878  1.00  0.00     0.047 A 
ATOM     15  C   UNL     1     327.671  90.769  85.663  1.00  0.00     0.115 A 
ATOM     16  C   UNL     1     326.957  89.485  87.594  1.00  0.00     0.016 A 
ATOM     17  C   UNL     1     327.785  90.457  87.025  1.00  0.00     0.047 A 
BRANCH  15  18
ATOM     18  O   UNL     1     328.490  91.734  85.084  1.00  0.00    -0.508 OA
ATOM     19  H   UNL     1     328.139  92.374  84.380  1.00  0.00     0.293 HD
ENDBRANCH  15  18
ENDBRANCH   1  12
BRANCH   2  20
ATOM     20  O   UNL     1     326.465  85.947  86.585  1.00  0.00    -0.502 OA
ATOM     21  H   UNL     1     327.337  86.461  86.539  1.00  0.00     0.293 HD
ENDBRANCH   2  20
BRANCH   6  22
ATOM     22  O   UNL     1     322.282  83.799  89.087  1.00  0.00    -0.507 OA
ATOM     23  H   UNL     1     323.019  83.221  88.713  1.00  0.00     0.293 HD
ENDBRANCH   6  22
BRANCH   8  24
ATOM     24  O   UNL     1     320.332  87.746  91.004  1.00  0.00    -0.508 OA
ATOM     25  H   UNL     1     319.810  87.205  91.684  1.00  0.00     0.293 HD
ENDBRANCH   8  24
TORSDOF 5
ENDMDL
MODEL 6
REMARK VINA RESULT:    -5.715     11.499     15.620
REMARK INTER + INTRA:          -6.958
REMARK INTER:                  -6.668
REMARK INTRA:                  -0.290
REMARK UNBOUND:                -0.240
REMARK SMILES O=c1c(O)c(-c2ccc(O)cc2)oc2cc(O)cc(O)c12
REMARK SMILES IDX 5 1 3 2 2 3 1 4 21 5 19 6 18 7 16 8 15 9 14 10 13 11 6 12
REMARK SMILES IDX 7 13 8 14 9 15 12 16 11 17 10 18 4 20 20 22 17 24
REMARK H PARENT 10 19 4 21 20 23 17 25
REMARK Flexibility Score: inf
ROOT
ATOM      1  C   UNL     1     324.146  87.638  88.429  1.00  0.00     0.180 A 
ATOM      2  C   UNL     1     324.850  88.836  88.635  1.00  0.00     0.208 A 
ATOM      3  C   UNL     1     326.095  89.011  88.009  1.00  0.00     0.238 A 
ATOM      4  O   UNL     1     326.746  90.063  88.239  1.00  0.00    -0.285 OA
ATOM      5  C   UNL     1     326.611  87.992  87.172  1.00  0.00     0.111 A 
ATOM      6  C   UNL     1     327.842  88.079  86.455  1.00  0.00     0.134 A 
ATOM      7  C   UNL     1     328.317  86.959  85.761  1.00  0.00     0.093 A 
ATOM      8  C   UNL     1     327.573  85.777  85.705  1.00  0.00     0.123 A 
ATOM      9  C   UNL     1     326.342  85.703  86.351  1.00  0.00     0.094 A 
ATOM     10  C   UNL     1     325.858  86.792  87.081  1.00  0.00     0.146 A 
ATOM     11  O   UNL     1     324.686  86.675  87.692  1.00  0.00    -0.452 OA
ENDROOT
BRANCH   1  12
ATOM     12  C   UNL     1     322.817  87.392  89.036  1.00  0.00     0.021 A 
ATOM     13  C   UNL     1     321.637  87.868  88.436  1.00  0.00     0.016 A 
ATOM     14  C   UNL     1     320.392  87.602  89.014  1.00  0.00     0.047 A 
ATOM     15  C   UNL     1     320.308  86.847  90.188  1.00  0.00     0.115 A 
ATOM     16  C   UNL     1     322.722  86.616  90.204  1.00  0.00     0.016 A 
ATOM     17  C   UNL     1     321.477  86.353  90.781  1.00  0.00     0.047 A 
BRANCH  15  18
ATOM     18  O   UNL     1     319.061  86.591  90.754  1.00  0.00    -0.508 OA
ATOM     19  H   UNL     1     318.964  86.344  91.732  1.00  0.00     0.293 HD
ENDBRANCH  15  18
ENDBRANCH   1  12
BRANCH   2  20
ATOM     20  O   UNL     1     324.333  89.820  89.483  1.00  0.00    -0.502 OA
ATOM     21  H   UNL     1     324.379  90.808  89.263  1.00  0.00     0.293 HD
ENDBRANCH   2  20
BRANCH   6  22
ATOM     22  O   UNL     1     328.617  89.239  86.370  1.00  0.00    -0.507 OA
ATOM     23  H   UNL     1     328.522  89.942  85.653  1.00  0.00     0.293 HD
ENDBRANCH   6  22
BRANCH   8  24
ATOM     24  O   UNL     1     328.046  84.673  84.998  1.00  0.00    -0.508 OA
ATOM     25  H   UNL     1     328.541  84.777  84.121  1.00  0.00     0.293 HD
ENDBRANCH   8  24
TORSDOF 5
ENDMDL
MODEL 7
REMARK VINA RESULT:    -5.684     10.693     14.578
REMARK INTER + INTRA:          -6.921
REMARK INTER:                  -6.635
REMARK INTRA:                  -0.286
REMARK UNBOUND:                -0.240
REMARK SMILES O=c1c(O)c(-c2ccc(O)cc2)oc2cc(O)cc(O)c12
REMARK SMILES IDX 5 1 3 2 2 3 1 4 21 5 19 6 18 7 16 8 15 9 14 10 13 11 6 12
REMARK SMILES IDX 7 13 8 14 9 15 12 16 11 17 10 18 4 20 20 22 17 24
REMARK H PARENT 10 19 4 21 20 23 17 25
REMARK Flexibility Score: inf
ROOT
ATOM      1  C   UNL     1     323.609  87.649  89.124  1.00  0.00     0.180 A 
ATOM      2  C   UNL     1     324.244  87.311  87.918  1.00  0.00     0.208 A 
ATOM      3  C   UNL     1     325.508  87.854  87.637  1.00  0.00     0.238 A 
ATOM      4  O   UNL     1     326.048  87.590  86.531  1.00  0.00    -0.285 OA
ATOM      5  C   UNL     1     326.128  88.715  88.574  1.00  0.00     0.111 A 
ATOM      6  C   UNL     1     327.424  89.291  88.413  1.00  0.00     0.134 A 
ATOM      7  C   UNL     1     327.882  90.232  89.343  1.00  0.00     0.093 A 
ATOM      8  C   UNL     1     327.118  90.569  90.463  1.00  0.00     0.123 A 
ATOM      9  C   UNL     1     325.878  89.968  90.661  1.00  0.00     0.094 A 
ATOM     10  C   UNL     1     325.377  89.052  89.732  1.00  0.00     0.146 A 
ATOM     11  O   UNL     1     324.186  88.511  89.953  1.00  0.00    -0.452 OA
ENDROOT
BRANCH   1  12
ATOM     12  C   UNL     1     322.287  87.096  89.501  1.00  0.00     0.021 A 
ATOM     13  C   UNL     1     321.090  87.708  89.086  1.00  0.00     0.016 A 
ATOM     14  C   UNL     1     319.855  87.155  89.433  1.00  0.00     0.047 A 
ATOM     15  C   UNL     1     319.797  85.977  90.185  1.00  0.00     0.115 A 
ATOM     16  C   UNL     1     322.221  85.902  90.239  1.00  0.00     0.016 A 
ATOM     17  C   UNL     1     320.985  85.350  90.586  1.00  0.00     0.047 A 
BRANCH  15  18
ATOM     18  O   UNL     1     318.559  85.438  90.525  1.00  0.00    -0.508 OA
ATOM     19  H   UNL     1     317.997  84.933  89.849  1.00  0.00     0.293 HD
ENDBRANCH  15  18
ENDBRANCH   1  12
BRANCH   2  20
ATOM     20  O   UNL     1     323.605  86.476  86.996  1.00  0.00    -0.502 OA
ATOM     21  H   UNL     1     322.597  86.439  86.901  1.00  0.00     0.293 HD
ENDBRANCH   2  20
BRANCH   6  22
ATOM     22  O   UNL     1     328.304  88.955  87.381  1.00  0.00    -0.507 OA
ATOM     23  H   UNL     1     328.464  88.017  87.044  1.00  0.00     0.293 HD
ENDBRANCH   6  22
BRANCH   8  24
ATOM     24  O   UNL     1     327.589  91.495  91.392  1.00  0.00    -0.508 OA
ATOM     25  H   UNL     1     328.546  91.827  91.372  1.00  0.00     0.293 HD
ENDBRANCH   8  24
TORSDOF 5
ENDMDL
MODEL 8
REMARK VINA RESULT:    -5.596     11.622     15.150
REMARK INTER + INTRA:          -6.817
REMARK INTER:                  -6.677
REMARK INTRA:                  -0.140
REMARK UNBOUND:                -0.240
REMARK SMILES O=c1c(O)c(-c2ccc(O)cc2)oc2cc(O)cc(O)c12
REMARK SMILES IDX 5 1 3 2 2 3 1 4 21 5 19 6 18 7 16 8 15 9 14 10 13 11 6 12
REMARK SMILES IDX 7 13 8 14 9 15 12 16 11 17 10 18 4 20 20 22 17 24
REMARK H PARENT 10 19 4 21 20 23 17 25
REMARK Flexibility Score: inf
ROOT
ATOM      1  C   UNL     1     325.525  88.289  87.844  1.00  0.00     0.180 A 
ATOM      2  C   UNL     1     324.926  89.398  88.463  1.00  0.00     0.208 A 
ATOM      3  C   UNL     1     323.760  89.208  89.221  1.00  0.00     0.238 A 
ATOM      4  O   UNL     1     323.197  90.213  89.729  1.00  0.00    -0.285 OA
ATOM      5  C   UNL     1     323.216  87.908  89.364  1.00  0.00     0.111 A 
ATOM      6  C   UNL     1     322.062  87.593  90.141  1.00  0.00     0.134 A 
ATOM      7  C   UNL     1     321.538  86.294  90.105  1.00  0.00     0.093 A 
ATOM      8  C   UNL     1     322.166  85.285  89.370  1.00  0.00     0.123 A 
ATOM      9  C   UNL     1     323.327  85.569  88.656  1.00  0.00     0.094 A 
ATOM     10  C   UNL     1     323.854  86.863  88.644  1.00  0.00     0.146 A 
ATOM     11  O   UNL     1     324.956  87.093  87.941  1.00  0.00    -0.452 OA
ENDROOT
BRANCH   1  12
ATOM     12  C   UNL     1     326.770  88.407  87.050  1.00  0.00     0.021 A 
ATOM     13  C   UNL     1     326.805  89.131  85.844  1.00  0.00     0.016 A 
ATOM     14  C   UNL     1     327.997  89.249  85.124  1.00  0.00     0.047 A 
ATOM     15  C   UNL     1     329.171  88.660  85.604  1.00  0.00     0.115 A 
ATOM     16  C   UNL     1     327.958  87.834  87.536  1.00  0.00     0.016 A 
ATOM     17  C   UNL     1     329.149  87.953  86.814  1.00  0.00     0.047 A 
BRANCH  15  18
ATOM     18  O   UNL     1     330.351  88.784  84.875  1.00  0.00    -0.508 OA
ATOM     19  H   UNL     1     330.361  89.193  83.948  1.00  0.00     0.293 HD
ENDBRANCH  15  18
ENDBRANCH   1  12
BRANCH   2  20
ATOM     20  O   UNL     1     325.466  90.676  88.292  1.00  0.00    -0.502 OA
ATOM     21  H   UNL     1     325.283  91.436  88.937  1.00  0.00     0.293 HD
ENDBRANCH   2  20
BRANCH   6  22
ATOM     22  O   UNL     1     321.414  88.503  90.981  1.00  0.00    -0.507 OA
ATOM     23  H   UNL     1     320.753  88.251  91.700  1.00  0.00     0.293 HD
ENDBRANCH   6  22
BRANCH   8  24
ATOM     24  O   UNL     1     321.647  83.992  89.353  1.00  0.00    -0.508 OA
ATOM     25  H   UNL     1     320.720  83.787  89.707  1.00  0.00     0.293 HD
ENDBRANCH   8  24
TORSDOF 5
ENDMDL
