MODEL 1
REMARK VINA RESULT:    -5.614      0.000      0.000
REMARK INTER + INTRA:          -7.146
REMARK INTER:                  -6.763
REMARK INTRA:                  -0.384
REMARK UNBOUND:                -0.384
REMARK SMILES O=c1c(O)c(-c2ccc(O)cc2O)oc2cc(O)cc(O)c12
REMARK SMILES IDX 5 1 3 2 2 3 1 4 22 5 20 6 19 7 17 8 16 9 15 10 14 11 6 12
REMARK SMILES IDX 8 13 7 14 9 15 11 16 12 17 10 18 13 20 4 22 21 24 18 26
REMARK H PARENT 10 19 13 21 4 23 21 25 18 27
REMARK Flexibility Score: inf
ROOT
ATOM      1  C   UNL     1     131.395 132.200 132.845  1.00  0.00     0.184 A 
ATOM      2  C   UNL     1     130.649 133.332 132.482  1.00  0.00     0.208 A 
ATOM      3  C   UNL     1     131.299 134.571 132.378  1.00  0.00     0.238 A 
ATOM      4  O   UNL     1     130.616 135.592 132.106  1.00  0.00    -0.285 OA
ATOM      5  C   UNL     1     132.692 134.658 132.623  1.00  0.00     0.111 A 
ATOM      6  C   UNL     1     133.462 135.853 132.508  1.00  0.00     0.134 A 
ATOM      7  C   UNL     1     134.807 135.848 132.900  1.00  0.00     0.093 A 
ATOM      8  C   UNL     1     135.425 134.680 133.340  1.00  0.00     0.123 A 
ATOM      9  C   UNL     1     134.697 133.490 133.400  1.00  0.00     0.094 A 
ATOM     10  C   UNL     1     133.345 133.470 133.051  1.00  0.00     0.146 A 
ATOM     11  O   UNL     1     132.684 132.322 133.132  1.00  0.00    -0.451 OA
ENDROOT
BRANCH   1  12
ATOM     12  C   UNL     1     130.774 130.863 132.955  1.00  0.00     0.063 A 
ATOM     13  C   UNL     1     129.249 129.371 134.123  1.00  0.00     0.047 A 
ATOM     14  C   UNL     1     129.851 130.625 133.987  1.00  0.00     0.020 A 
ATOM     15  C   UNL     1     129.572 128.336 133.241  1.00  0.00     0.119 A 
ATOM     16  C   UNL     1     130.509 128.557 132.224  1.00  0.00     0.093 A 
ATOM     17  C   UNL     1     131.122 129.811 132.084  1.00  0.00     0.130 A 
BRANCH  15  18
ATOM     18  O   UNL     1     128.961 127.094 133.387  1.00  0.00    -0.508 OA
ATOM     19  H   UNL     1     129.470 126.231 133.232  1.00  0.00     0.293 HD
ENDBRANCH  15  18
BRANCH  17  20
ATOM     20  O   UNL     1     132.090 130.003 131.097  1.00  0.00    -0.507 OA
ATOM     21  H   UNL     1     131.877 130.474 130.227  1.00  0.00     0.293 HD
ENDBRANCH  17  20
ENDBRANCH   1  12
BRANCH   2  22
ATOM     22  O   UNL     1     129.273 133.221 132.265  1.00  0.00    -0.502 OA
ATOM     23  H   UNL     1     128.600 133.820 132.728  1.00  0.00     0.293 HD
ENDBRANCH   2  22
BRANCH   6  24
ATOM     24  O   UNL     1     132.967 137.055 131.994  1.00  0.00    -0.507 OA
ATOM     25  H   UNL     1     132.920 137.923 132.506  1.00  0.00     0.293 HD
ENDBRANCH   6  24
BRANCH   8  26
ATOM     26  O   UNL     1     136.769 134.709 133.707  1.00  0.00    -0.508 OA
ATOM     27  H   UNL     1     137.279 133.859 133.920  1.00  0.00     0.293 HD
ENDBRANCH   8  26
TORSDOF 6
ENDMDL
MODEL 2
REMARK VINA RESULT:    -5.578      3.738      9.705
REMARK INTER + INTRA:          -7.103
REMARK INTER:                  -6.690
REMARK INTRA:                  -0.413
REMARK UNBOUND:                -0.384
REMARK SMILES O=c1c(O)c(-c2ccc(O)cc2O)oc2cc(O)cc(O)c12
REMARK SMILES IDX 5 1 3 2 2 3 1 4 22 5 20 6 19 7 17 8 16 9 15 10 14 11 6 12
REMARK SMILES IDX 8 13 7 14 9 15 11 16 12 17 10 18 13 20 4 22 21 24 18 26
REMARK H PARENT 10 19 13 21 4 23 21 25 18 27
REMARK Flexibility Score: inf
ROOT
ATOM      1  C   UNL     1     128.252 127.520 132.801  1.00  0.00     0.184 A 
ATOM      2  C   UNL     1     128.989 126.378 132.452  1.00  0.00     0.208 A 
ATOM      3  C   UNL     1     128.329 125.143 132.360  1.00  0.00     0.238 A 
ATOM      4  O   UNL     1     129.005 124.113 132.100  1.00  0.00    -0.285 OA
ATOM      5  C   UNL     1     126.936 125.070 132.603  1.00  0.00     0.111 A 
ATOM      6  C   UNL     1     126.156 123.880 132.499  1.00  0.00     0.134 A 
ATOM      7  C   UNL     1     124.811 123.900 132.887  1.00  0.00     0.093 A 
ATOM      8  C   UNL     1     124.201 125.078 133.314  1.00  0.00     0.123 A 
ATOM      9  C   UNL     1     124.938 126.262 133.363  1.00  0.00     0.094 A 
ATOM     10  C   UNL     1     126.291 126.267 133.016  1.00  0.00     0.146 A 
ATOM     11  O   UNL     1     126.961 127.411 133.087  1.00  0.00    -0.451 OA
ENDROOT
BRANCH   1  12
ATOM     12  C   UNL     1     128.884 128.852 132.898  1.00  0.00     0.063 A 
ATOM     13  C   UNL     1     130.319 130.386 134.124  1.00  0.00     0.047 A 
ATOM     14  C   UNL     1     129.710 129.135 133.998  1.00  0.00     0.020 A 
ATOM     15  C   UNL     1     130.099 131.375 133.162  1.00  0.00     0.119 A 
ATOM     16  C   UNL     1     129.257 131.112 132.073  1.00  0.00     0.093 A 
ATOM     17  C   UNL     1     128.638 129.860 131.943  1.00  0.00     0.130 A 
BRANCH  15  18
ATOM     18  O   UNL     1     130.715 132.616 133.299  1.00  0.00    -0.508 OA
ATOM     19  H   UNL     1     130.315 133.455 132.893  1.00  0.00     0.293 HD
ENDBRANCH  15  18
BRANCH  17  20
ATOM     20  O   UNL     1     127.763 129.626 130.881  1.00  0.00    -0.507 OA
ATOM     21  H   UNL     1     128.100 129.376 129.959  1.00  0.00     0.293 HD
ENDBRANCH  17  20
ENDBRANCH   1  12
BRANCH   2  22
ATOM     22  O   UNL     1     130.367 126.475 132.236  1.00  0.00    -0.502 OA
ATOM     23  H   UNL     1     130.946 125.664 132.055  1.00  0.00     0.293 HD
ENDBRANCH   2  22
BRANCH   6  24
ATOM     24  O   UNL     1     126.642 122.669 131.998  1.00  0.00    -0.507 OA
ATOM     25  H   UNL     1     126.895 121.873 132.565  1.00  0.00     0.293 HD
ENDBRANCH   6  24
BRANCH   8  26
ATOM     26  O   UNL     1     122.856 125.063 133.678  1.00  0.00    -0.508 OA
ATOM     27  H   UNL     1     122.526 125.545 134.507  1.00  0.00     0.293 HD
ENDBRANCH   8  26
TORSDOF 6
ENDMDL
MODEL 3
REMARK VINA RESULT:    -5.519      1.037      1.041
REMARK INTER + INTRA:          -7.032
REMARK INTER:                  -6.725
REMARK INTRA:                  -0.307
REMARK UNBOUND:                -0.384
REMARK SMILES O=c1c(O)c(-c2ccc(O)cc2O)oc2cc(O)cc(O)c12
REMARK SMILES IDX 5 1 3 2 2 3 1 4 22 5 20 6 19 7 17 8 16 9 15 10 14 11 6 12
REMARK SMILES IDX 8 13 7 14 9 15 11 16 12 17 10 18 13 20 4 22 21 24 18 26
REMARK H PARENT 10 19 13 21 4 23 21 25 18 27
REMARK Flexibility Score: inf
ROOT
ATOM      1  C   UNL     1     131.011 132.800 132.777  1.00  0.00     0.184 A 
ATOM      2  C   UNL     1     130.429 134.044 132.489  1.00  0.00     0.208 A 
ATOM      3  C   UNL     1     131.245 135.185 132.450  1.00  0.00     0.238 A 
ATOM      4  O   UNL     1     130.710 136.305 132.245  1.00  0.00    -0.285 OA
ATOM      5  C   UNL     1     132.637 135.063 132.683  1.00  0.00     0.111 A 
ATOM      6  C   UNL     1     133.566 136.144 132.628  1.00  0.00     0.134 A 
ATOM      7  C   UNL     1     134.898 135.929 133.003  1.00  0.00     0.093 A 
ATOM      8  C   UNL     1     135.349 134.662 133.367  1.00  0.00     0.123 A 
ATOM      9  C   UNL     1     134.463 133.584 133.367  1.00  0.00     0.094 A 
ATOM     10  C   UNL     1     133.120 133.773 133.033  1.00  0.00     0.146 A 
ATOM     11  O   UNL     1     132.306 132.724 133.056  1.00  0.00    -0.451 OA
ENDROOT
BRANCH   1  12
ATOM     12  C   UNL     1     130.210 131.558 132.817  1.00  0.00     0.063 A 
ATOM     13  C   UNL     1     129.255 129.744 134.125  1.00  0.00     0.047 A 
ATOM     14  C   UNL     1     130.002 130.922 134.052  1.00  0.00     0.020 A 
ATOM     15  C   UNL     1     128.718 129.179 132.965  1.00  0.00     0.119 A 
ATOM     16  C   UNL     1     128.939 129.792 131.725  1.00  0.00     0.093 A 
ATOM     17  C   UNL     1     129.694 130.972 131.643  1.00  0.00     0.130 A 
BRANCH  15  18
ATOM     18  O   UNL     1     127.972 128.006 133.054  1.00  0.00    -0.508 OA
ATOM     19  H   UNL     1     128.323 127.126 132.695  1.00  0.00     0.293 HD
ENDBRANCH  15  18
BRANCH  17  20
ATOM     20  O   UNL     1     129.948 131.547 130.397  1.00  0.00    -0.507 OA
ATOM     21  H   UNL     1     130.001 132.551 130.274  1.00  0.00     0.293 HD
ENDBRANCH  17  20
ENDBRANCH   1  12
BRANCH   2  22
ATOM     22  O   UNL     1     129.050 134.139 132.282  1.00  0.00    -0.502 OA
ATOM     23  H   UNL     1     128.397 133.461 132.656  1.00  0.00     0.293 HD
ENDBRANCH   2  22
BRANCH   6  24
ATOM     24  O   UNL     1     133.241 137.431 132.190  1.00  0.00    -0.507 OA
ATOM     25  H   UNL     1     132.993 138.198 132.796  1.00  0.00     0.293 HD
ENDBRANCH   6  24
BRANCH   8  26
ATOM     26  O   UNL     1     136.686 134.483 133.719  1.00  0.00    -0.508 OA
ATOM     27  H   UNL     1     137.387 135.187 133.514  1.00  0.00     0.293 HD
ENDBRANCH   8  26
TORSDOF 6
ENDMDL
MODEL 4
REMARK VINA RESULT:    -5.290      3.229      5.933
REMARK INTER + INTRA:          -6.756
REMARK INTER:                  -6.415
REMARK INTRA:                  -0.341
REMARK UNBOUND:                -0.384
REMARK SMILES O=c1c(O)c(-c2ccc(O)cc2O)oc2cc(O)cc(O)c12
REMARK SMILES IDX 5 1 3 2 2 3 1 4 22 5 20 6 19 7 17 8 16 9 15 10 14 11 6 12
REMARK SMILES IDX 8 13 7 14 9 15 11 16 12 17 10 18 13 20 4 22 21 24 18 26
REMARK H PARENT 10 19 13 21 4 23 21 25 18 27
REMARK Flexibility Score: inf
ROOT
ATOM      1  C   UNL     1     128.340 128.025 132.862  1.00  0.00     0.184 A 
ATOM      2  C   UNL     1     129.731 127.871 132.757  1.00  0.00     0.208 A 
ATOM      3  C   UNL     1     130.548 129.011 132.801  1.00  0.00     0.238 A 
ATOM      4  O   UNL     1     131.789 128.873 132.651  1.00  0.00    -0.285 OA
ATOM      5  C   UNL     1     129.962 130.290 132.967  1.00  0.00     0.111 A 
ATOM      6  C   UNL     1     130.694 131.511 133.066  1.00  0.00     0.134 A 
ATOM      7  C   UNL     1     130.005 132.729 133.100  1.00  0.00     0.093 A 
ATOM      8  C   UNL     1     128.611 132.769 133.102  1.00  0.00     0.123 A 
ATOM      9  C   UNL     1     127.883 131.579 133.066  1.00  0.00     0.094 A 
ATOM     10  C   UNL     1     128.542 130.349 132.996  1.00  0.00     0.146 A 
ATOM     11  O   UNL     1     127.814 129.240 132.951  1.00  0.00    -0.451 OA
ENDROOT
BRANCH   1  12
ATOM     12  C   UNL     1     127.426 126.864 132.840  1.00  0.00     0.063 A 
ATOM     13  C   UNL     1     125.992 125.326 134.062  1.00  0.00     0.047 A 
ATOM     14  C   UNL     1     126.856 126.423 134.046  1.00  0.00     0.020 A 
ATOM     15  C   UNL     1     125.698 124.645 132.877  1.00  0.00     0.119 A 
ATOM     16  C   UNL     1     126.281 125.061 131.673  1.00  0.00     0.093 A 
ATOM     17  C   UNL     1     127.154 126.159 131.650  1.00  0.00     0.130 A 
BRANCH  15  18
ATOM     18  O   UNL     1     124.833 123.554 132.908  1.00  0.00    -0.508 OA
ATOM     19  H   UNL     1     124.062 123.470 132.256  1.00  0.00     0.293 HD
ENDBRANCH  15  18
BRANCH  17  20
ATOM     20  O   UNL     1     127.765 126.533 130.453  1.00  0.00    -0.507 OA
ATOM     21  H   UNL     1     127.495 126.123 129.567  1.00  0.00     0.293 HD
ENDBRANCH  17  20
ENDBRANCH   1  12
BRANCH   2  22
ATOM     22  O   UNL     1     130.281 126.599 132.575  1.00  0.00    -0.502 OA
ATOM     23  H   UNL     1     131.106 126.441 132.009  1.00  0.00     0.293 HD
ENDBRANCH   2  22
BRANCH   6  24
ATOM     24  O   UNL     1     132.087 131.580 133.163  1.00  0.00    -0.507 OA
ATOM     25  H   UNL     1     132.591 131.916 133.970  1.00  0.00     0.293 HD
ENDBRANCH   6  24
BRANCH   8  26
ATOM     26  O   UNL     1     127.959 133.999 133.151  1.00  0.00    -0.508 OA
ATOM     27  H   UNL     1     128.286 134.795 132.614  1.00  0.00     0.293 HD
ENDBRANCH   8  26
TORSDOF 6
ENDMDL
MODEL 5
REMARK VINA RESULT:    -5.281      4.050      9.811
REMARK INTER + INTRA:          -6.745
REMARK INTER:                  -6.336
REMARK INTRA:                  -0.409
REMARK UNBOUND:                -0.384
REMARK SMILES O=c1c(O)c(-c2ccc(O)cc2O)oc2cc(O)cc(O)c12
REMARK SMILES IDX 5 1 3 2 2 3 1 4 22 5 20 6 19 7 17 8 16 9 15 10 14 11 6 12
REMARK SMILES IDX 8 13 7 14 9 15 11 16 12 17 10 18 13 20 4 22 21 24 18 26
REMARK H PARENT 10 19 13 21 4 23 21 25 18 27
REMARK Flexibility Score: inf
ROOT
ATOM      1  C   UNL     1     128.507 126.522 133.001  1.00  0.00     0.184 A 
ATOM      2  C   UNL     1     127.120 126.628 132.816  1.00  0.00     0.208 A 
ATOM      3  C   UNL     1     126.332 125.471 132.899  1.00  0.00     0.238 A 
ATOM      4  O   UNL     1     125.096 125.563 132.677  1.00  0.00    -0.285 OA
ATOM      5  C   UNL     1     126.940 124.224 133.183  1.00  0.00     0.111 A 
ATOM      6  C   UNL     1     126.235 122.993 133.330  1.00  0.00     0.134 A 
ATOM      7  C   UNL     1     126.952 121.799 133.483  1.00  0.00     0.093 A 
ATOM      8  C   UNL     1     128.344 121.800 133.559  1.00  0.00     0.123 A 
ATOM      9  C   UNL     1     129.042 123.006 133.476  1.00  0.00     0.094 A 
ATOM     10  C   UNL     1     128.357 124.208 133.287  1.00  0.00     0.146 A 
ATOM     11  O   UNL     1     129.058 125.333 133.202  1.00  0.00    -0.451 OA
ENDROOT
BRANCH   1  12
ATOM     12  C   UNL     1     129.391 127.705 132.944  1.00  0.00     0.063 A 
ATOM     13  C   UNL     1     130.473 129.548 134.106  1.00  0.00     0.047 A 
ATOM     14  C   UNL     1     129.646 128.422 134.125  1.00  0.00     0.020 A 
ATOM     15  C   UNL     1     131.043 129.982 132.905  1.00  0.00     0.119 A 
ATOM     16  C   UNL     1     130.776 129.288 131.718  1.00  0.00     0.093 A 
ATOM     17  C   UNL     1     129.942 128.160 131.728  1.00  0.00     0.130 A 
BRANCH  15  18
ATOM     18  O   UNL     1     131.868 131.104 132.902  1.00  0.00    -0.508 OA
ATOM     19  H   UNL     1     132.877 131.020 132.869  1.00  0.00     0.293 HD
ENDBRANCH  15  18
BRANCH  17  20
ATOM     20  O   UNL     1     129.645 127.507 130.531  1.00  0.00    -0.507 OA
ATOM     21  H   UNL     1     129.508 126.504 130.492  1.00  0.00     0.293 HD
ENDBRANCH  17  20
ENDBRANCH   1  12
BRANCH   2  22
ATOM     22  O   UNL     1     126.548 127.869 132.518  1.00  0.00    -0.502 OA
ATOM     23  H   UNL     1     125.555 128.043 132.606  1.00  0.00     0.293 HD
ENDBRANCH   2  22
BRANCH   6  24
ATOM     24  O   UNL     1     124.841 122.890 133.361  1.00  0.00    -0.507 OA
ATOM     25  H   UNL     1     124.321 122.061 133.117  1.00  0.00     0.293 HD
ENDBRANCH   6  24
BRANCH   8  26
ATOM     26  O   UNL     1     129.024 120.596 133.726  1.00  0.00    -0.508 OA
ATOM     27  H   UNL     1     129.842 120.367 133.173  1.00  0.00     0.293 HD
ENDBRANCH   8  26
TORSDOF 6
ENDMDL
MODEL 6
REMARK VINA RESULT:    -5.279      1.752      3.172
REMARK INTER + INTRA:          -6.742
REMARK INTER:                  -6.332
REMARK INTRA:                  -0.411
REMARK UNBOUND:                -0.384
REMARK SMILES O=c1c(O)c(-c2ccc(O)cc2O)oc2cc(O)cc(O)c12
REMARK SMILES IDX 5 1 3 2 2 3 1 4 22 5 20 6 19 7 17 8 16 9 15 10 14 11 6 12
REMARK SMILES IDX 8 13 7 14 9 15 11 16 12 17 10 18 13 20 4 22 21 24 18 26
REMARK H PARENT 10 19 13 21 4 23 21 25 18 27
REMARK Flexibility Score: inf
ROOT
ATOM      1  C   UNL     1     130.878 132.775 132.959  1.00  0.00     0.184 A 
ATOM      2  C   UNL     1     132.274 132.820 132.819  1.00  0.00     0.208 A 
ATOM      3  C   UNL     1     132.925 134.062 132.877  1.00  0.00     0.238 A 
ATOM      4  O   UNL     1     134.170 134.102 132.697  1.00  0.00    -0.285 OA
ATOM      5  C   UNL     1     132.171 135.242 133.089  1.00  0.00     0.111 A 
ATOM      6  C   UNL     1     132.728 136.550 133.205  1.00  0.00     0.134 A 
ATOM      7  C   UNL     1     131.877 137.659 133.285  1.00  0.00     0.093 A 
ATOM      8  C   UNL     1     130.492 137.504 133.318  1.00  0.00     0.123 A 
ATOM      9  C   UNL     1     129.936 136.224 133.266  1.00  0.00     0.094 A 
ATOM     10  C   UNL     1     130.758 135.101 133.150  1.00  0.00     0.146 A 
ATOM     11  O   UNL     1     130.191 133.902 133.091  1.00  0.00    -0.451 OA
ENDROOT
BRANCH   1  12
ATOM     12  C   UNL     1     130.135 131.499 132.925  1.00  0.00     0.063 A 
ATOM     13  C   UNL     1     129.262 129.571 134.125  1.00  0.00     0.047 A 
ATOM     14  C   UNL     1     129.955 130.784 134.121  1.00  0.00     0.020 A 
ATOM     15  C   UNL     1     128.752 129.049 132.933  1.00  0.00     0.119 A 
ATOM     16  C   UNL     1     128.948 129.741 131.730  1.00  0.00     0.093 A 
ATOM     17  C   UNL     1     129.648 130.957 131.718  1.00  0.00     0.130 A 
BRANCH  15  18
ATOM     18  O   UNL     1     128.061 127.841 132.952  1.00  0.00    -0.508 OA
ATOM     19  H   UNL     1     127.420 127.609 133.702  1.00  0.00     0.293 HD
ENDBRANCH  15  18
BRANCH  17  20
ATOM     20  O   UNL     1     129.877 131.612 130.507  1.00  0.00    -0.507 OA
ATOM     21  H   UNL     1     130.184 131.112 129.682  1.00  0.00     0.293 HD
ENDBRANCH  17  20
ENDBRANCH   1  12
BRANCH   2  22
ATOM     22  O   UNL     1     132.992 131.642 132.592  1.00  0.00    -0.502 OA
ATOM     23  H   UNL     1     133.264 131.019 133.342  1.00  0.00     0.293 HD
ENDBRANCH   2  22
BRANCH   6  24
ATOM     24  O   UNL     1     134.100 136.811 133.274  1.00  0.00    -0.507 OA
ATOM     25  H   UNL     1     134.505 137.727 133.399  1.00  0.00     0.293 HD
ENDBRANCH   6  24
BRANCH   8  26
ATOM     26  O   UNL     1     129.677 138.629 133.414  1.00  0.00    -0.508 OA
ATOM     27  H   UNL     1     128.670 138.548 133.508  1.00  0.00     0.293 HD
ENDBRANCH   8  26
TORSDOF 6
ENDMDL
MODEL 7
REMARK VINA RESULT:    -5.278      1.675      6.584
REMARK INTER + INTRA:          -6.741
REMARK INTER:                  -6.362
REMARK INTRA:                  -0.379
REMARK UNBOUND:                -0.384
REMARK SMILES O=c1c(O)c(-c2ccc(O)cc2O)oc2cc(O)cc(O)c12
REMARK SMILES IDX 5 1 3 2 2 3 1 4 22 5 20 6 19 7 17 8 16 9 15 10 14 11 6 12
REMARK SMILES IDX 8 13 7 14 9 15 11 16 12 17 10 18 13 20 4 22 21 24 18 26
REMARK H PARENT 10 19 13 21 4 23 21 25 18 27
REMARK Flexibility Score: inf
ROOT
ATOM      1  C   UNL     1     131.239 131.685 132.865  1.00  0.00     0.184 A 
ATOM      2  C   UNL     1     129.850 131.835 132.733  1.00  0.00     0.208 A 
ATOM      3  C   UNL     1     129.036 130.693 132.764  1.00  0.00     0.238 A 
ATOM      4  O   UNL     1     127.797 130.828 132.591  1.00  0.00    -0.285 OA
ATOM      5  C   UNL     1     129.622 129.416 132.944  1.00  0.00     0.111 A 
ATOM      6  C   UNL     1     128.891 128.194 133.032  1.00  0.00     0.134 A 
ATOM      7  C   UNL     1     129.583 126.977 133.081  1.00  0.00     0.093 A 
ATOM      8  C   UNL     1     130.976 126.941 133.110  1.00  0.00     0.123 A 
ATOM      9  C   UNL     1     131.701 128.133 133.085  1.00  0.00     0.094 A 
ATOM     10  C   UNL     1     131.041 129.361 133.000  1.00  0.00     0.146 A 
ATOM     11  O   UNL     1     131.767 130.472 132.966  1.00  0.00    -0.451 OA
ENDROOT
BRANCH   1  12
ATOM     12  C   UNL     1     132.150 132.848 132.857  1.00  0.00     0.063 A 
ATOM     13  C   UNL     1     133.405 134.513 134.111  1.00  0.00     0.047 A 
ATOM     14  C   UNL     1     132.549 133.409 134.082  1.00  0.00     0.020 A 
ATOM     15  C   UNL     1     133.862 135.080 132.919  1.00  0.00     0.119 A 
ATOM     16  C   UNL     1     133.452 134.543 131.691  1.00  0.00     0.093 A 
ATOM     17  C   UNL     1     132.588 133.438 131.654  1.00  0.00     0.130 A 
BRANCH  15  18
ATOM     18  O   UNL     1     134.718 136.177 132.964  1.00  0.00    -0.508 OA
ATOM     19  H   UNL     1     134.634 136.886 133.684  1.00  0.00     0.293 HD
ENDBRANCH  15  18
BRANCH  17  20
ATOM     20  O   UNL     1     132.148 132.945 130.425  1.00  0.00    -0.507 OA
ATOM     21  H   UNL     1     131.168 132.953 130.168  1.00  0.00     0.293 HD
ENDBRANCH  17  20
ENDBRANCH   1  12
BRANCH   2  22
ATOM     22  O   UNL     1     129.300 133.105 132.537  1.00  0.00    -0.502 OA
ATOM     23  H   UNL     1     128.663 133.529 133.201  1.00  0.00     0.293 HD
ENDBRANCH   2  22
BRANCH   6  24
ATOM     24  O   UNL     1     127.496 128.121 133.103  1.00  0.00    -0.507 OA
ATOM     25  H   UNL     1     126.983 127.415 133.608  1.00  0.00     0.293 HD
ENDBRANCH   6  24
BRANCH   8  26
ATOM     26  O   UNL     1     131.630 125.712 133.175  1.00  0.00    -0.508 OA
ATOM     27  H   UNL     1     131.742 125.128 132.353  1.00  0.00     0.293 HD
ENDBRANCH   8  26
TORSDOF 6
ENDMDL
MODEL 8
REMARK VINA RESULT:    -5.013      2.761      8.235
REMARK INTER + INTRA:          -6.422
REMARK INTER:                  -6.021
REMARK INTRA:                  -0.401
REMARK UNBOUND:                -0.384
REMARK SMILES O=c1c(O)c(-c2ccc(O)cc2O)oc2cc(O)cc(O)c12
REMARK SMILES IDX 5 1 3 2 2 3 1 4 22 5 20 6 19 7 17 8 16 9 15 10 14 11 6 12
REMARK SMILES IDX 8 13 7 14 9 15 11 16 12 17 10 18 13 20 4 22 21 24 18 26
REMARK H PARENT 10 19 13 21 4 23 21 25 18 27
REMARK Flexibility Score: inf
ROOT
ATOM      1  C   UNL     1     130.668 128.651 132.366  1.00  0.00     0.184 A 
ATOM      2  C   UNL     1     131.174 127.503 132.995  1.00  0.00     0.208 A 
ATOM      3  C   UNL     1     130.657 126.248 132.639  1.00  0.00     0.238 A 
ATOM      4  O   UNL     1     131.076 125.227 133.245  1.00  0.00    -0.285 OA
ATOM      5  C   UNL     1     129.652 126.157 131.646  1.00  0.00     0.111 A 
ATOM      6  C   UNL     1     129.084 124.935 131.177  1.00  0.00     0.134 A 
ATOM      7  C   UNL     1     128.005 124.972 130.284  1.00  0.00     0.093 A 
ATOM      8  C   UNL     1     127.516 126.182 129.795  1.00  0.00     0.123 A 
ATOM      9  C   UNL     1     128.103 127.382 130.201  1.00  0.00     0.094 A 
ATOM     10  C   UNL     1     129.157 127.380 131.117  1.00  0.00     0.146 A 
ATOM     11  O   UNL     1     129.681 128.542 131.487  1.00  0.00    -0.451 OA
ENDROOT
BRANCH   1  12
ATOM     12  C   UNL     1     131.180 130.000 132.683  1.00  0.00     0.063 A 
ATOM     13  C   UNL     1     131.122 131.959 134.124  1.00  0.00     0.047 A 
ATOM     14  C   UNL     1     130.663 130.680 133.799  1.00  0.00     0.020 A 
ATOM     15  C   UNL     1     132.091 132.581 133.333  1.00  0.00     0.119 A 
ATOM     16  C   UNL     1     132.596 131.922 132.204  1.00  0.00     0.093 A 
ATOM     17  C   UNL     1     132.137 130.639 131.868  1.00  0.00     0.130 A 
BRANCH  15  18
ATOM     18  O   UNL     1     132.541 133.855 133.672  1.00  0.00    -0.508 OA
ATOM     19  H   UNL     1     132.630 134.588 132.977  1.00  0.00     0.293 HD
ENDBRANCH  15  18
BRANCH  17  20
ATOM     20  O   UNL     1     132.612 130.014 130.715  1.00  0.00    -0.507 OA
ATOM     21  H   UNL     1     132.574 129.008 130.601  1.00  0.00     0.293 HD
ENDBRANCH  17  20
ENDBRANCH   1  12
BRANCH   2  22
ATOM     22  O   UNL     1     132.153 127.623 133.986  1.00  0.00    -0.502 OA
ATOM     23  H   UNL     1     132.274 128.469 134.529  1.00  0.00     0.293 HD
ENDBRANCH   2  22
BRANCH   6  24
ATOM     24  O   UNL     1     129.556 123.668 131.531  1.00  0.00    -0.507 OA
ATOM     25  H   UNL     1     129.101 123.047 132.184  1.00  0.00     0.293 HD
ENDBRANCH   6  24
BRANCH   8  26
ATOM     26  O   UNL     1     126.452 126.180 128.896  1.00  0.00    -0.508 OA
ATOM     27  H   UNL     1     125.555 125.772 129.138  1.00  0.00     0.293 HD
ENDBRANCH   8  26
TORSDOF 6
ENDMDL
MODEL 9
REMARK VINA RESULT:    -4.987      2.230      7.533
REMARK INTER + INTRA:          -6.391
REMARK INTER:                  -5.971
REMARK INTRA:                  -0.419
REMARK UNBOUND:                -0.384
REMARK SMILES O=c1c(O)c(-c2ccc(O)cc2O)oc2cc(O)cc(O)c12
REMARK SMILES IDX 5 1 3 2 2 3 1 4 22 5 20 6 19 7 17 8 16 9 15 10 14 11 6 12
REMARK SMILES IDX 8 13 7 14 9 15 11 16 12 17 10 18 13 20 4 22 21 24 18 26
REMARK H PARENT 10 19 13 21 4 23 21 25 18 27
REMARK Flexibility Score: inf
ROOT
ATOM      1  C   UNL     1     130.062 129.587 132.966  1.00  0.00     0.184 A 
ATOM      2  C   UNL     1     128.757 129.716 132.465  1.00  0.00     0.208 A 
ATOM      3  C   UNL     1     127.926 128.587 132.431  1.00  0.00     0.238 A 
ATOM      4  O   UNL     1     126.776 128.696 131.931  1.00  0.00    -0.285 OA
ATOM      5  C   UNL     1     128.406 127.345 132.916  1.00  0.00     0.111 A 
ATOM      6  C   UNL     1     127.638 126.144 132.968  1.00  0.00     0.134 A 
ATOM      7  C   UNL     1     128.256 124.945 133.346  1.00  0.00     0.093 A 
ATOM      8  C   UNL     1     129.594 124.915 133.735  1.00  0.00     0.123 A 
ATOM      9  C   UNL     1     130.340 126.096 133.745  1.00  0.00     0.094 A 
ATOM     10  C   UNL     1     129.762 127.301 133.339  1.00  0.00     0.146 A 
ATOM     11  O   UNL     1     130.507 128.399 133.352  1.00  0.00    -0.451 OA
ENDROOT
BRANCH   1  12
ATOM     12  C   UNL     1     130.981 130.742 133.044  1.00  0.00     0.063 A 
ATOM     13  C   UNL     1     131.607 132.830 134.123  1.00  0.00     0.047 A 
ATOM     14  C   UNL     1     130.761 131.723 134.025  1.00  0.00     0.020 A 
ATOM     15  C   UNL     1     132.676 132.979 133.235  1.00  0.00     0.119 A 
ATOM     16  C   UNL     1     132.891 132.019 132.238  1.00  0.00     0.093 A 
ATOM     17  C   UNL     1     132.041 130.907 132.129  1.00  0.00     0.130 A 
BRANCH  15  18
ATOM     18  O   UNL     1     133.513 134.085 133.348  1.00  0.00    -0.508 OA
ATOM     19  H   UNL     1     134.519 133.984 133.419  1.00  0.00     0.293 HD
ENDBRANCH  15  18
BRANCH  17  20
ATOM     20  O   UNL     1     132.237 129.984 131.101  1.00  0.00    -0.507 OA
ATOM     21  H   UNL     1     132.101 130.233 130.129  1.00  0.00     0.293 HD
ENDBRANCH  17  20
ENDBRANCH   1  12
BRANCH   2  22
ATOM     22  O   UNL     1     128.315 130.949 131.976  1.00  0.00    -0.502 OA
ATOM     23  H   UNL     1     127.341 131.134 131.771  1.00  0.00     0.293 HD
ENDBRANCH   2  22
BRANCH   6  24
ATOM     24  O   UNL     1     126.270 126.079 132.688  1.00  0.00    -0.507 OA
ATOM     25  H   UNL     1     125.845 125.417 132.056  1.00  0.00     0.293 HD
ENDBRANCH   6  24
BRANCH   8  26
ATOM     26  O   UNL     1     130.172 123.707 134.119  1.00  0.00    -0.508 OA
ATOM     27  H   UNL     1     130.998 123.343 133.657  1.00  0.00     0.293 HD
ENDBRANCH   8  26
TORSDOF 6
ENDMDL
