MODEL 1
REMARK VINA RESULT:    -4.232      0.000      0.000
REMARK INTER + INTRA:         -10.631
REMARK INTER:                  -8.190
REMARK INTRA:                  -2.441
REMARK UNBOUND:                -2.441
REMARK SMILES CCCCCCCCCCCCCCCCCC(=O)[O-]
REMARK SMILES IDX 10 1 11 2 12 3 13 4 14 5 15 6 16 7 17 8 18 9 19 10 20 11
REMARK SMILES IDX 9 12 8 13 7 14 6 15 5 16 4 17 3 18 2 19 1 20
REMARK H PARENT
REMARK Flexibility Score: inf
ROOT
ATOM      1  C   UNL     1      12.235   2.317  -2.666  1.00  0.00     0.000 C 
ENDROOT
BRANCH   1   2
ATOM      2  C   UNL     1      12.188   1.507  -1.357  1.00  0.00     0.000 C 
BRANCH   2   3
ATOM      3  C   UNL     1      11.120   1.964  -0.347  1.00  0.00     0.000 C 
BRANCH   3   4
ATOM      4  C   UNL     1       9.760   2.251  -1.001  1.00  0.00     0.000 C 
BRANCH   4   5
ATOM      5  C   UNL     1       8.905   3.163  -0.109  1.00  0.00     0.000 C 
BRANCH   5   6
ATOM      6  C   UNL     1       9.717   3.821   1.016  1.00  0.00     0.000 C 
BRANCH   6   7
ATOM      7  C   UNL     1       9.205   5.228   1.372  1.00  0.00     0.006 C 
BRANCH   7   8
ATOM      8  C   UNL     1      10.219   6.019   2.209  1.00  0.00     0.053 C 
BRANCH   8   9
ATOM      9  C   UNL     1       9.573   7.165   2.925  1.00  0.00     0.041 C 
ATOM     10  O   UNL     1      10.138   8.289   2.967  1.00  0.00    -0.550 OA
ATOM     11  O   UNL     1       8.357   6.982   3.571  1.00  0.00    -0.550 OA
ENDBRANCH   8   9
ENDBRANCH   7   8
ENDBRANCH   6   7
ENDBRANCH   5   6
ENDBRANCH   4   5
ENDBRANCH   3   4
ENDBRANCH   2   3
ENDBRANCH   1   2
BRANCH   1  12
ATOM     12  C   UNL     1      11.683   1.541  -3.871  1.00  0.00     0.000 C 
BRANCH  12  13
ATOM     13  C   UNL     1      11.262   2.499  -4.995  1.00  0.00    -0.000 C 
BRANCH  13  14
ATOM     14  C   UNL     1      10.857   3.891  -4.477  1.00  0.00    -0.000 C 
BRANCH  14  15
ATOM     15  C   UNL     1       9.902   4.673  -5.398  1.00  0.00    -0.000 C 
BRANCH  15  16
ATOM     16  C   UNL     1       8.858   5.540  -4.667  1.00  0.00    -0.000 C 
BRANCH  16  17
ATOM     17  C   UNL     1       8.647   5.142  -3.190  1.00  0.00    -0.000 C 
BRANCH  17  18
ATOM     18  C   UNL     1       8.676   6.358  -2.248  1.00  0.00    -0.000 C 
BRANCH  18  19
ATOM     19  C   UNL     1      10.074   6.986  -2.138  1.00  0.00    -0.003 C 
ATOM     20  C   UNL     1      11.133   5.994  -1.659  1.00  0.00     0.004 C 
ENDBRANCH  18  19
ENDBRANCH  17  18
ENDBRANCH  16  17
ENDBRANCH  15  16
ENDBRANCH  14  15
ENDBRANCH  13  14
ENDBRANCH  12  13
ENDBRANCH   1  12
TORSDOF 16
ENDMDL
MODEL 2
REMARK VINA RESULT:    -4.173      3.334      6.280
REMARK INTER + INTRA:         -10.518
REMARK INTER:                  -7.707
REMARK INTRA:                  -2.811
REMARK UNBOUND:                -2.441
REMARK SMILES CCCCCCCCCCCCCCCCCC(=O)[O-]
REMARK SMILES IDX 10 1 11 2 12 3 13 4 14 5 15 6 16 7 17 8 18 9 19 10 20 11
REMARK SMILES IDX 9 12 8 13 7 14 6 15 5 16 4 17 3 18 2 19 1 20
REMARK H PARENT
REMARK Flexibility Score: inf
ROOT
ATOM      1  C   UNL     1      10.130   6.469   2.781  1.00  0.00     0.000 C 
ENDROOT
BRANCH   1   2
ATOM      2  C   UNL     1      10.112   5.271   1.813  1.00  0.00     0.000 C 
BRANCH   2   3
ATOM      3  C   UNL     1       8.711   4.826   1.355  1.00  0.00     0.000 C 
BRANCH   3   4
ATOM      4  C   UNL     1       8.717   3.469   0.636  1.00  0.00     0.000 C 
BRANCH   4   5
ATOM      5  C   UNL     1      10.152   2.956   0.449  1.00  0.00     0.000 C 
BRANCH   5   6
ATOM      6  C   UNL     1      10.306   2.066  -0.794  1.00  0.00     0.000 C 
BRANCH   6   7
ATOM      7  C   UNL     1      11.777   1.771  -1.133  1.00  0.00     0.006 C 
BRANCH   7   8
ATOM      8  C   UNL     1      12.261   2.568  -2.352  1.00  0.00     0.053 C 
BRANCH   8   9
ATOM      9  C   UNL     1      11.678   2.040  -3.626  1.00  0.00     0.041 C 
ATOM     10  O   UNL     1      11.697   0.805  -3.870  1.00  0.00    -0.550 OA
ATOM     11  O   UNL     1      11.138   2.917  -4.558  1.00  0.00    -0.550 OA
ENDBRANCH   8   9
ENDBRANCH   7   8
ENDBRANCH   6   7
ENDBRANCH   5   6
ENDBRANCH   4   5
ENDBRANCH   3   4
ENDBRANCH   2   3
ENDBRANCH   1   2
BRANCH   1  12
ATOM     12  C   UNL     1       8.726   6.995   3.109  1.00  0.00     0.000 C 
BRANCH  12  13
ATOM     13  C   UNL     1       8.569   8.457   2.665  1.00  0.00    -0.000 C 
BRANCH  13  14
ATOM     14  C   UNL     1       8.000   8.593   1.240  1.00  0.00    -0.000 C 
BRANCH  14  15
ATOM     15  C   UNL     1       9.056   8.809   0.140  1.00  0.00    -0.000 C 
BRANCH  15  16
ATOM     16  C   UNL     1       9.071   7.735  -0.965  1.00  0.00    -0.000 C 
BRANCH  16  17
ATOM     17  C   UNL     1      10.486   7.224  -1.314  1.00  0.00    -0.000 C 
BRANCH  17  18
ATOM     18  C   UNL     1      10.472   5.780  -1.844  1.00  0.00    -0.000 C 
BRANCH  18  19
ATOM     19  C   UNL     1       9.547   5.607  -3.058  1.00  0.00    -0.003 C 
ATOM     20  C   UNL     1       8.496   4.516  -2.852  1.00  0.00     0.004 C 
ENDBRANCH  18  19
ENDBRANCH  17  18
ENDBRANCH  16  17
ENDBRANCH  15  16
ENDBRANCH  14  15
ENDBRANCH  13  14
ENDBRANCH  12  13
ENDBRANCH   1  12
TORSDOF 16
ENDMDL
MODEL 3
REMARK VINA RESULT:    -4.087      1.643      4.456
REMARK INTER + INTRA:         -10.352
REMARK INTER:                  -7.702
REMARK INTRA:                  -2.650
REMARK UNBOUND:                -2.441
REMARK SMILES CCCCCCCCCCCCCCCCCC(=O)[O-]
REMARK SMILES IDX 10 1 11 2 12 3 13 4 14 5 15 6 16 7 17 8 18 9 19 10 20 11
REMARK SMILES IDX 9 12 8 13 7 14 6 15 5 16 4 17 3 18 2 19 1 20
REMARK H PARENT
REMARK Flexibility Score: inf
ROOT
ATOM      1  C   UNL     1       9.604   5.795  -3.750  1.00  0.00     0.000 C 
ENDROOT
BRANCH   1   2
ATOM      2  C   UNL     1       8.104   5.947  -3.434  1.00  0.00     0.000 C 
BRANCH   2   3
ATOM      3  C   UNL     1       7.308   4.629  -3.406  1.00  0.00     0.000 C 
BRANCH   3   4
ATOM      4  C   UNL     1       7.207   4.018  -2.001  1.00  0.00     0.000 C 
BRANCH   4   5
ATOM      5  C   UNL     1       6.944   5.106  -0.949  1.00  0.00     0.000 C 
BRANCH   5   6
ATOM      6  C   UNL     1       7.934   5.048   0.224  1.00  0.00     0.000 C 
BRANCH   6   7
ATOM      7  C   UNL     1       8.509   6.429   0.583  1.00  0.00     0.006 C 
BRANCH   7   8
ATOM      8  C   UNL     1       9.963   6.344   1.065  1.00  0.00     0.053 C 
BRANCH   8   9
ATOM      9  C   UNL     1      10.053   6.364   2.560  1.00  0.00     0.041 C 
ATOM     10  O   UNL     1      11.030   5.827   3.146  1.00  0.00    -0.550 OA
ATOM     11  O   UNL     1       9.042   6.952   3.309  1.00  0.00    -0.550 OA
ENDBRANCH   8   9
ENDBRANCH   7   8
ENDBRANCH   6   7
ENDBRANCH   5   6
ENDBRANCH   4   5
ENDBRANCH   3   4
ENDBRANCH   2   3
ENDBRANCH   1   2
BRANCH   1  12
ATOM     12  C   UNL     1      10.502   6.046  -2.531  1.00  0.00     0.000 C 
BRANCH  12  13
ATOM     13  C   UNL     1      11.145   4.739  -2.043  1.00  0.00    -0.000 C 
BRANCH  13  14
ATOM     14  C   UNL     1      10.914   3.560  -3.007  1.00  0.00    -0.000 C 
BRANCH  14  15
ATOM     15  C   UNL     1      10.428   2.261  -2.336  1.00  0.00    -0.000 C 
BRANCH  15  16
ATOM     16  C   UNL     1      10.217   2.356  -0.813  1.00  0.00    -0.000 C 
BRANCH  16  17
ATOM     17  C   UNL     1      11.271   1.582   0.008  1.00  0.00    -0.000 C 
BRANCH  17  18
ATOM     18  C   UNL     1      12.444   1.093  -0.859  1.00  0.00    -0.000 C 
BRANCH  18  19
ATOM     19  C   UNL     1      13.366   0.119  -0.110  1.00  0.00    -0.003 C 
ATOM     20  C   UNL     1      12.803  -0.306   1.246  1.00  0.00     0.004 C 
ENDBRANCH  18  19
ENDBRANCH  17  18
ENDBRANCH  16  17
ENDBRANCH  15  16
ENDBRANCH  14  15
ENDBRANCH  13  14
ENDBRANCH  12  13
ENDBRANCH   1  12
TORSDOF 16
ENDMDL
MODEL 4
REMARK VINA RESULT:    -3.979      1.232      1.996
REMARK INTER + INTRA:         -10.142
REMARK INTER:                  -7.781
REMARK INTRA:                  -2.361
REMARK UNBOUND:                -2.441
REMARK SMILES CCCCCCCCCCCCCCCCCC(=O)[O-]
REMARK SMILES IDX 10 1 11 2 12 3 13 4 14 5 15 6 16 7 17 8 18 9 19 10 20 11
REMARK SMILES IDX 9 12 8 13 7 14 6 15 5 16 4 17 3 18 2 19 1 20
REMARK H PARENT
REMARK Flexibility Score: inf
ROOT
ATOM      1  C   UNL     1      11.827   1.606  -0.913  1.00  0.00     0.000 C 
ENDROOT
BRANCH   1   2
ATOM      2  C   UNL     1      10.394   2.093  -0.624  1.00  0.00     0.000 C 
BRANCH   2   3
ATOM      3  C   UNL     1      10.236   2.920   0.665  1.00  0.00     0.000 C 
BRANCH   3   4
ATOM      4  C   UNL     1       8.782   3.332   0.939  1.00  0.00     0.000 C 
BRANCH   4   5
ATOM      5  C   UNL     1       8.222   4.169  -0.220  1.00  0.00     0.000 C 
BRANCH   5   6
ATOM      6  C   UNL     1       7.506   5.440   0.259  1.00  0.00     0.000 C 
BRANCH   6   7
ATOM      7  C   UNL     1       7.479   5.563   1.792  1.00  0.00     0.006 C 
BRANCH   7   8
ATOM      8  C   UNL     1       7.901   6.960   2.269  1.00  0.00     0.053 C 
BRANCH   8   9
ATOM      9  C   UNL     1       9.372   7.032   2.538  1.00  0.00     0.041 C 
ATOM     10  O   UNL     1      10.028   5.982   2.768  1.00  0.00    -0.550 OA
ATOM     11  O   UNL     1      10.014   8.263   2.563  1.00  0.00    -0.550 OA
ENDBRANCH   8   9
ENDBRANCH   7   8
ENDBRANCH   6   7
ENDBRANCH   5   6
ENDBRANCH   4   5
ENDBRANCH   3   4
ENDBRANCH   2   3
ENDBRANCH   1   2
BRANCH   1  12
ATOM     12  C   UNL     1      12.291   1.923  -2.343  1.00  0.00     0.000 C 
BRANCH  12  13
ATOM     13  C   UNL     1      11.160   1.683  -3.353  1.00  0.00    -0.000 C 
BRANCH  13  14
ATOM     14  C   UNL     1      11.375   2.429  -4.683  1.00  0.00    -0.000 C 
BRANCH  14  15
ATOM     15  C   UNL     1      10.810   3.862  -4.721  1.00  0.00    -0.000 C 
BRANCH  15  16
ATOM     16  C   UNL     1       9.990   4.270  -3.483  1.00  0.00    -0.000 C 
BRANCH  16  17
ATOM     17  C   UNL     1      10.740   5.226  -2.530  1.00  0.00    -0.000 C 
BRANCH  17  18
ATOM     18  C   UNL     1      10.104   6.626  -2.488  1.00  0.00    -0.000 C 
BRANCH  18  19
ATOM     19  C   UNL     1      10.257   7.302  -1.116  1.00  0.00    -0.003 C 
ATOM     20  C   UNL     1       9.319   8.495  -0.936  1.00  0.00     0.004 C 
ENDBRANCH  18  19
ENDBRANCH  17  18
ENDBRANCH  16  17
ENDBRANCH  15  16
ENDBRANCH  14  15
ENDBRANCH  13  14
ENDBRANCH  12  13
ENDBRANCH   1  12
TORSDOF 16
ENDMDL
MODEL 5
REMARK VINA RESULT:    -3.969      1.446      4.796
REMARK INTER + INTRA:         -10.123
REMARK INTER:                  -7.595
REMARK INTRA:                  -2.528
REMARK UNBOUND:                -2.441
REMARK SMILES CCCCCCCCCCCCCCCCCC(=O)[O-]
REMARK SMILES IDX 10 1 11 2 12 3 13 4 14 5 15 6 16 7 17 8 18 9 19 10 20 11
REMARK SMILES IDX 9 12 8 13 7 14 6 15 5 16 4 17 3 18 2 19 1 20
REMARK H PARENT
REMARK Flexibility Score: inf
ROOT
ATOM      1  C   UNL     1       9.525   5.484  -2.984  1.00  0.00     0.000 C 
ENDROOT
BRANCH   1   2
ATOM      2  C   UNL     1      10.763   6.294  -2.554  1.00  0.00     0.000 C 
BRANCH   2   3
ATOM      3  C   UNL     1      10.938   7.644  -3.274  1.00  0.00     0.000 C 
BRANCH   3   4
ATOM      4  C   UNL     1      10.292   8.815  -2.517  1.00  0.00     0.000 C 
BRANCH   4   5
ATOM      5  C   UNL     1      10.160   8.494  -1.021  1.00  0.00     0.000 C 
BRANCH   5   6
ATOM      6  C   UNL     1       8.710   8.581  -0.522  1.00  0.00     0.000 C 
BRANCH   6   7
ATOM      7  C   UNL     1       8.505   7.875   0.829  1.00  0.00     0.006 C 
BRANCH   7   8
ATOM      8  C   UNL     1       9.803   7.795   1.644  1.00  0.00     0.053 C 
BRANCH   8   9
ATOM      9  C   UNL     1       9.746   6.708   2.673  1.00  0.00     0.041 C 
ATOM     10  O   UNL     1      10.638   5.821   2.710  1.00  0.00    -0.550 OA
ATOM     11  O   UNL     1       8.691   6.661   3.574  1.00  0.00    -0.550 OA
ENDBRANCH   8   9
ENDBRANCH   7   8
ENDBRANCH   6   7
ENDBRANCH   5   6
ENDBRANCH   4   5
ENDBRANCH   3   4
ENDBRANCH   2   3
ENDBRANCH   1   2
BRANCH   1  12
ATOM     12  C   UNL     1       8.819   4.798  -1.805  1.00  0.00     0.000 C 
BRANCH  12  13
ATOM     13  C   UNL     1       9.740   4.729  -0.578  1.00  0.00    -0.000 C 
BRANCH  13  14
ATOM     14  C   UNL     1       9.645   3.386   0.169  1.00  0.00    -0.000 C 
BRANCH  14  15
ATOM     15  C   UNL     1       9.981   2.147  -0.681  1.00  0.00    -0.000 C 
BRANCH  15  16
ATOM     16  C   UNL     1      11.385   1.557  -0.443  1.00  0.00    -0.000 C 
BRANCH  16  17
ATOM     17  C   UNL     1      12.281   1.562  -1.700  1.00  0.00    -0.000 C 
BRANCH  17  18
ATOM     18  C   UNL     1      12.005   2.772  -2.610  1.00  0.00    -0.000 C 
BRANCH  18  19
ATOM     19  C   UNL     1      11.634   2.360  -4.043  1.00  0.00    -0.003 C 
ATOM     20  C   UNL     1      11.352   0.864  -4.175  1.00  0.00     0.004 C 
ENDBRANCH  18  19
ENDBRANCH  17  18
ENDBRANCH  16  17
ENDBRANCH  15  16
ENDBRANCH  14  15
ENDBRANCH  13  14
ENDBRANCH  12  13
ENDBRANCH   1  12
TORSDOF 16
ENDMDL
MODEL 6
REMARK VINA RESULT:    -3.957      3.456      5.663
REMARK INTER + INTRA:         -10.100
REMARK INTER:                  -7.139
REMARK INTRA:                  -2.961
REMARK UNBOUND:                -2.441
REMARK SMILES CCCCCCCCCCCCCCCCCC(=O)[O-]
REMARK SMILES IDX 10 1 11 2 12 3 13 4 14 5 15 6 16 7 17 8 18 9 19 10 20 11
REMARK SMILES IDX 9 12 8 13 7 14 6 15 5 16 4 17 3 18 2 19 1 20
REMARK H PARENT
REMARK Flexibility Score: inf
ROOT
ATOM      1  C   UNL     1       8.155   6.136   1.003  1.00  0.00     0.000 C 
ENDROOT
BRANCH   1   2
ATOM      2  C   UNL     1       9.660   5.817   1.081  1.00  0.00     0.000 C 
BRANCH   2   3
ATOM      3  C   UNL     1       9.997   4.339   1.351  1.00  0.00     0.000 C 
BRANCH   3   4
ATOM      4  C   UNL     1       9.080   3.366   0.595  1.00  0.00     0.000 C 
BRANCH   4   5
ATOM      5  C   UNL     1       9.817   2.731  -0.593  1.00  0.00     0.000 C 
BRANCH   5   6
ATOM      6  C   UNL     1      11.109   2.014  -0.174  1.00  0.00     0.000 C 
BRANCH   6   7
ATOM      7  C   UNL     1      11.871   1.417  -1.371  1.00  0.00     0.006 C 
BRANCH   7   8
ATOM      8  C   UNL     1      12.203   2.476  -2.431  1.00  0.00     0.053 C 
BRANCH   8   9
ATOM      9  C   UNL     1      11.688   2.087  -3.783  1.00  0.00     0.041 C 
ATOM     10  O   UNL     1      11.823   0.906  -4.198  1.00  0.00    -0.550 OA
ATOM     11  O   UNL     1      11.083   3.036  -4.595  1.00  0.00    -0.550 OA
ENDBRANCH   8   9
ENDBRANCH   7   8
ENDBRANCH   6   7
ENDBRANCH   5   6
ENDBRANCH   4   5
ENDBRANCH   3   4
ENDBRANCH   2   3
ENDBRANCH   1   2
BRANCH   1  12
ATOM     12  C   UNL     1       7.817   7.169  -0.081  1.00  0.00     0.000 C 
BRANCH  12  13
ATOM     13  C   UNL     1       6.495   6.820  -0.780  1.00  0.00    -0.000 C 
BRANCH  13  14
ATOM     14  C   UNL     1       6.024   5.383  -0.489  1.00  0.00    -0.000 C 
BRANCH  14  15
ATOM     15  C   UNL     1       6.195   4.396  -1.660  1.00  0.00    -0.000 C 
BRANCH  15  16
ATOM     16  C   UNL     1       6.807   5.003  -2.937  1.00  0.00    -0.000 C 
BRANCH  16  17
ATOM     17  C   UNL     1       8.275   4.590  -3.178  1.00  0.00    -0.000 C 
BRANCH  17  18
ATOM     18  C   UNL     1       9.179   5.796  -3.486  1.00  0.00    -0.000 C 
BRANCH  18  19
ATOM     19  C   UNL     1      10.390   5.882  -2.545  1.00  0.00    -0.003 C 
ATOM     20  C   UNL     1      10.739   7.319  -2.158  1.00  0.00     0.004 C 
ENDBRANCH  18  19
ENDBRANCH  17  18
ENDBRANCH  16  17
ENDBRANCH  15  16
ENDBRANCH  14  15
ENDBRANCH  13  14
ENDBRANCH  12  13
ENDBRANCH   1  12
TORSDOF 16
ENDMDL
MODEL 7
REMARK VINA RESULT:    -3.889      2.587      5.741
REMARK INTER + INTRA:          -9.968
REMARK INTER:                  -7.626
REMARK INTRA:                  -2.342
REMARK UNBOUND:                -2.441
REMARK SMILES CCCCCCCCCCCCCCCCCC(=O)[O-]
REMARK SMILES IDX 10 1 11 2 12 3 13 4 14 5 15 6 16 7 17 8 18 9 19 10 20 11
REMARK SMILES IDX 9 12 8 13 7 14 6 15 5 16 4 17 3 18 2 19 1 20
REMARK H PARENT
REMARK Flexibility Score: inf
ROOT
ATOM      1  C   UNL     1       8.617   3.569   0.987  1.00  0.00     0.000 C 
ENDROOT
BRANCH   1   2
ATOM      2  C   UNL     1      10.058   3.069   0.770  1.00  0.00     0.000 C 
BRANCH   2   3
ATOM      3  C   UNL     1      10.235   2.087  -0.402  1.00  0.00     0.000 C 
BRANCH   3   4
ATOM      4  C   UNL     1      11.676   1.572  -0.540  1.00  0.00     0.000 C 
BRANCH   4   5
ATOM      5  C   UNL     1      12.258   1.937  -1.914  1.00  0.00     0.000 C 
BRANCH   5   6
ATOM      6  C   UNL     1      11.235   1.786  -3.050  1.00  0.00     0.000 C 
BRANCH   6   7
ATOM      7  C   UNL     1      11.108   3.059  -3.905  1.00  0.00     0.006 C 
BRANCH   7   8
ATOM      8  C   UNL     1      10.002   3.992  -3.393  1.00  0.00     0.053 C 
BRANCH   8   9
ATOM      9  C   UNL     1      10.548   5.325  -2.982  1.00  0.00     0.041 C 
ATOM     10  O   UNL     1      10.496   6.304  -3.773  1.00  0.00    -0.550 OA
ATOM     11  O   UNL     1      11.140   5.479  -1.736  1.00  0.00    -0.550 OA
ENDBRANCH   8   9
ENDBRANCH   7   8
ENDBRANCH   6   7
ENDBRANCH   5   6
ENDBRANCH   4   5
ENDBRANCH   3   4
ENDBRANCH   2   3
ENDBRANCH   1   2
BRANCH   1  12
ATOM     12  C   UNL     1       8.027   4.256  -0.253  1.00  0.00     0.000 C 
BRANCH  12  13
ATOM     13  C   UNL     1       7.976   5.779  -0.065  1.00  0.00    -0.000 C 
BRANCH  13  14
ATOM     14  C   UNL     1       6.546   6.311   0.141  1.00  0.00    -0.000 C 
BRANCH  14  15
ATOM     15  C   UNL     1       6.293   6.978   1.506  1.00  0.00    -0.000 C 
BRANCH  15  16
ATOM     16  C   UNL     1       6.649   6.110   2.729  1.00  0.00    -0.000 C 
BRANCH  16  17
ATOM     17  C   UNL     1       7.747   6.723   3.625  1.00  0.00    -0.000 C 
BRANCH  17  18
ATOM     18  C   UNL     1       8.437   7.929   2.963  1.00  0.00    -0.000 C 
BRANCH  18  19
ATOM     19  C   UNL     1       9.938   7.696   2.732  1.00  0.00    -0.003 C 
ATOM     20  C   UNL     1      10.350   6.240   2.941  1.00  0.00     0.004 C 
ENDBRANCH  18  19
ENDBRANCH  17  18
ENDBRANCH  16  17
ENDBRANCH  15  16
ENDBRANCH  14  15
ENDBRANCH  13  14
ENDBRANCH  12  13
ENDBRANCH   1  12
TORSDOF 16
ENDMDL
MODEL 8
REMARK VINA RESULT:    -3.874      3.607      5.963
REMARK INTER + INTRA:          -9.939
REMARK INTER:                  -7.289
REMARK INTRA:                  -2.650
REMARK UNBOUND:                -2.441
REMARK SMILES CCCCCCCCCCCCCCCCCC(=O)[O-]
REMARK SMILES IDX 10 1 11 2 12 3 13 4 14 5 15 6 16 7 17 8 18 9 19 10 20 11
REMARK SMILES IDX 9 12 8 13 7 14 6 15 5 16 4 17 3 18 2 19 1 20
REMARK H PARENT
REMARK Flexibility Score: inf
ROOT
ATOM      1  C   UNL     1      10.258   5.794  -0.700  1.00  0.00     0.000 C 
ENDROOT
BRANCH   1   2
ATOM      2  C   UNL     1       8.947   5.054  -1.031  1.00  0.00     0.000 C 
BRANCH   2   3
ATOM      3  C   UNL     1       8.606   3.885  -0.089  1.00  0.00     0.000 C 
BRANCH   3   4
ATOM      4  C   UNL     1       9.839   3.071   0.328  1.00  0.00     0.000 C 
BRANCH   4   5
ATOM      5  C   UNL     1      10.134   1.961  -0.691  1.00  0.00     0.000 C 
BRANCH   5   6
ATOM      6  C   UNL     1      11.633   1.647  -0.809  1.00  0.00     0.000 C 
BRANCH   6   7
ATOM      7  C   UNL     1      12.301   2.380  -1.985  1.00  0.00     0.006 C 
BRANCH   7   8
ATOM      8  C   UNL     1      11.279   2.850  -3.030  1.00  0.00     0.053 C 
BRANCH   8   9
ATOM      9  C   UNL     1      11.475   2.159  -4.345  1.00  0.00     0.041 C 
ATOM     10  O   UNL     1      11.271   2.777  -5.423  1.00  0.00    -0.550 OA
ATOM     11  O   UNL     1      11.855   0.825  -4.378  1.00  0.00    -0.550 OA
ENDBRANCH   8   9
ENDBRANCH   7   8
ENDBRANCH   6   7
ENDBRANCH   5   6
ENDBRANCH   4   5
ENDBRANCH   3   4
ENDBRANCH   2   3
ENDBRANCH   1   2
BRANCH   1  12
ATOM     12  C   UNL     1      10.900   6.452  -1.929  1.00  0.00     0.000 C 
BRANCH  12  13
ATOM     13  C   UNL     1      10.411   7.898  -2.097  1.00  0.00    -0.000 C 
BRANCH  13  14
ATOM     14  C   UNL     1       9.805   8.480  -0.806  1.00  0.00    -0.000 C 
BRANCH  14  15
ATOM     15  C   UNL     1       8.347   8.960  -0.935  1.00  0.00    -0.000 C 
BRANCH  15  16
ATOM     16  C   UNL     1       7.349   8.269   0.013  1.00  0.00    -0.000 C 
BRANCH  16  17
ATOM     17  C   UNL     1       7.801   8.260   1.490  1.00  0.00    -0.000 C 
BRANCH  17  18
ATOM     18  C   UNL     1       7.844   6.840   2.079  1.00  0.00    -0.000 C 
BRANCH  18  19
ATOM     19  C   UNL     1       9.190   6.518   2.746  1.00  0.00    -0.003 C 
ATOM     20  C   UNL     1      10.104   7.738   2.855  1.00  0.00     0.004 C 
ENDBRANCH  18  19
ENDBRANCH  17  18
ENDBRANCH  16  17
ENDBRANCH  15  16
ENDBRANCH  14  15
ENDBRANCH  13  14
ENDBRANCH  12  13
ENDBRANCH   1  12
TORSDOF 16
ENDMDL
MODEL 9
REMARK VINA RESULT:    -3.857      2.423      5.994
REMARK INTER + INTRA:          -9.906
REMARK INTER:                  -7.645
REMARK INTRA:                  -2.261
REMARK UNBOUND:                -2.441
REMARK SMILES CCCCCCCCCCCCCCCCCC(=O)[O-]
REMARK SMILES IDX 10 1 11 2 12 3 13 4 14 5 15 6 16 7 17 8 18 9 19 10 20 11
REMARK SMILES IDX 9 12 8 13 7 14 6 15 5 16 4 17 3 18 2 19 1 20
REMARK H PARENT
REMARK Flexibility Score: inf
ROOT
ATOM      1  C   UNL     1      10.176   6.147   2.796  1.00  0.00     0.000 C 
ENDROOT
BRANCH   1   2
ATOM      2  C   UNL     1       9.077   7.152   2.403  1.00  0.00     0.000 C 
BRANCH   2   3
ATOM      3  C   UNL     1       9.531   8.622   2.345  1.00  0.00     0.000 C 
BRANCH   3   4
ATOM      4  C   UNL     1      10.033   9.040   0.955  1.00  0.00     0.000 C 
BRANCH   4   5
ATOM      5  C   UNL     1       9.306   8.257  -0.148  1.00  0.00     0.000 C 
BRANCH   5   6
ATOM      6  C   UNL     1      10.170   8.061  -1.403  1.00  0.00     0.000 C 
BRANCH   6   7
ATOM      7  C   UNL     1      10.760   6.644  -1.501  1.00  0.00     0.006 C 
BRANCH   7   8
ATOM      8  C   UNL     1      10.385   5.949  -2.816  1.00  0.00     0.053 C 
BRANCH   8   9
ATOM      9  C   UNL     1       8.912   6.022  -3.080  1.00  0.00     0.041 C 
ATOM     10  O   UNL     1       8.473   6.685  -4.056  1.00  0.00    -0.550 OA
ATOM     11  O   UNL     1       8.022   5.379  -2.230  1.00  0.00    -0.550 OA
ENDBRANCH   8   9
ENDBRANCH   7   8
ENDBRANCH   6   7
ENDBRANCH   5   6
ENDBRANCH   4   5
ENDBRANCH   3   4
ENDBRANCH   2   3
ENDBRANCH   1   2
BRANCH   1  12
ATOM     12  C   UNL     1      10.360   5.026   1.764  1.00  0.00     0.000 C 
BRANCH  12  13
ATOM     13  C   UNL     1       9.023   4.665   1.100  1.00  0.00    -0.000 C 
BRANCH  13  14
ATOM     14  C   UNL     1       9.001   3.232   0.535  1.00  0.00    -0.000 C 
BRANCH  14  15
ATOM     15  C   UNL     1      10.026   2.961  -0.582  1.00  0.00    -0.000 C 
BRANCH  15  16
ATOM     16  C   UNL     1      10.960   1.762  -0.329  1.00  0.00    -0.000 C 
BRANCH  16  17
ATOM     17  C   UNL     1      12.083   1.618  -1.379  1.00  0.00    -0.000 C 
BRANCH  17  18
ATOM     18  C   UNL     1      12.129   2.809  -2.352  1.00  0.00    -0.000 C 
BRANCH  18  19
ATOM     19  C   UNL     1      11.522   2.475  -3.723  1.00  0.00    -0.003 C 
ATOM     20  C   UNL     1      11.554   0.980  -4.037  1.00  0.00     0.004 C 
ENDBRANCH  18  19
ENDBRANCH  17  18
ENDBRANCH  16  17
ENDBRANCH  15  16
ENDBRANCH  14  15
ENDBRANCH  13  14
ENDBRANCH  12  13
ENDBRANCH   1  12
TORSDOF 16
ENDMDL
