MODEL 1
REMARK VINA RESULT:    -3.452      0.000      0.000
REMARK INTER + INTRA:          -9.107
REMARK INTER:                  -6.681
REMARK INTRA:                  -2.425
REMARK UNBOUND:                -2.425
REMARK SMILES CCCCCCCCCCCCCCCCCC(=O)[O-]
REMARK SMILES IDX 10 1 11 2 12 3 13 4 14 5 15 6 16 7 17 8 18 9 19 10 20 11
REMARK SMILES IDX 9 12 8 13 7 14 6 15 5 16 4 17 3 18 2 19 1 20
REMARK H PARENT
REMARK Flexibility Score: inf
ROOT
ATOM      1  C   UNL     1       9.016  18.523  17.544  1.00  0.00     0.000 C 
ENDROOT
BRANCH   1   2
ATOM      2  C   UNL     1       8.358  18.800  16.178  1.00  0.00     0.000 C 
BRANCH   2   3
ATOM      3  C   UNL     1       6.920  19.348  16.249  1.00  0.00     0.000 C 
BRANCH   3   4
ATOM      4  C   UNL     1       6.553  20.049  17.571  1.00  0.00     0.000 C 
BRANCH   4   5
ATOM      5  C   UNL     1       7.014  21.515  17.620  1.00  0.00     0.000 C 
BRANCH   5   6
ATOM      6  C   UNL     1       7.764  21.865  18.917  1.00  0.00     0.000 C 
BRANCH   6   7
ATOM      7  C   UNL     1       7.258  21.148  20.186  1.00  0.00     0.006 C 
BRANCH   7   8
ATOM      8  C   UNL     1       7.901  21.634  21.494  1.00  0.00     0.053 C 
BRANCH   8   9
ATOM      9  C   UNL     1       7.012  21.401  22.676  1.00  0.00     0.041 C 
ATOM     10  O   UNL     1       7.153  22.088  23.722  1.00  0.00    -0.550 OA
ATOM     11  O   UNL     1       6.003  20.448  22.610  1.00  0.00    -0.550 OA
ENDBRANCH   8   9
ENDBRANCH   7   8
ENDBRANCH   6   7
ENDBRANCH   5   6
ENDBRANCH   4   5
ENDBRANCH   3   4
ENDBRANCH   2   3
ENDBRANCH   1   2
BRANCH   1  12
ATOM     12  C   UNL     1      10.386  19.218  17.724  1.00  0.00     0.000 C 
BRANCH  12  13
ATOM     13  C   UNL     1      10.563  20.455  16.823  1.00  0.00    -0.000 C 
BRANCH  13  14
ATOM     14  C   UNL     1      11.915  20.468  16.078  1.00  0.00    -0.000 C 
BRANCH  14  15
ATOM     15  C   UNL     1      12.619  21.839  16.086  1.00  0.00    -0.000 C 
BRANCH  15  16
ATOM     16  C   UNL     1      12.178  22.769  17.236  1.00  0.00    -0.000 C 
BRANCH  16  17
ATOM     17  C   UNL     1      13.244  23.005  18.326  1.00  0.00    -0.000 C 
BRANCH  17  18
ATOM     18  C   UNL     1      12.744  22.896  19.783  1.00  0.00    -0.000 C 
BRANCH  18  19
ATOM     19  C   UNL     1      11.359  22.251  19.955  1.00  0.00    -0.003 C 
ATOM     20  C   UNL     1      11.408  20.932  20.725  1.00  0.00     0.004 C 
ENDBRANCH  18  19
ENDBRANCH  17  18
ENDBRANCH  16  17
ENDBRANCH  15  16
ENDBRANCH  14  15
ENDBRANCH  13  14
ENDBRANCH  12  13
ENDBRANCH   1  12
TORSDOF 16
ENDMDL
MODEL 2
REMARK VINA RESULT:    -3.387      1.538      3.765
REMARK INTER + INTRA:          -8.979
REMARK INTER:                  -6.856
REMARK INTRA:                  -2.123
REMARK UNBOUND:                -2.425
REMARK SMILES CCCCCCCCCCCCCCCCCC(=O)[O-]
REMARK SMILES IDX 10 1 11 2 12 3 13 4 14 5 15 6 16 7 17 8 18 9 19 10 20 11
REMARK SMILES IDX 9 12 8 13 7 14 6 15 5 16 4 17 3 18 2 19 1 20
REMARK H PARENT
REMARK Flexibility Score: inf
ROOT
ATOM      1  C   UNL     1      11.534  21.186  20.190  1.00  0.00     0.000 C 
ENDROOT
BRANCH   1   2
ATOM      2  C   UNL     1      10.094  21.062  20.727  1.00  0.00     0.000 C 
BRANCH   2   3
ATOM      3  C   UNL     1       9.196  22.287  20.467  1.00  0.00     0.000 C 
BRANCH   3   4
ATOM      4  C   UNL     1       7.999  22.032  19.533  1.00  0.00     0.000 C 
BRANCH   4   5
ATOM      5  C   UNL     1       7.079  20.905  20.033  1.00  0.00     0.000 C 
BRANCH   5   6
ATOM      6  C   UNL     1       6.239  21.315  21.256  1.00  0.00     0.000 C 
BRANCH   6   7
ATOM      7  C   UNL     1       6.834  20.927  22.625  1.00  0.00     0.006 C 
BRANCH   7   8
ATOM      8  C   UNL     1       5.823  20.917  23.782  1.00  0.00     0.053 C 
BRANCH   8   9
ATOM      9  C   UNL     1       5.167  19.580  23.942  1.00  0.00     0.041 C 
ATOM     10  O   UNL     1       5.750  18.659  24.573  1.00  0.00    -0.550 OA
ATOM     11  O   UNL     1       3.896  19.363  23.425  1.00  0.00    -0.550 OA
ENDBRANCH   8   9
ENDBRANCH   7   8
ENDBRANCH   6   7
ENDBRANCH   5   6
ENDBRANCH   4   5
ENDBRANCH   3   4
ENDBRANCH   2   3
ENDBRANCH   1   2
BRANCH   1  12
ATOM     12  C   UNL     1      11.949  22.639  19.858  1.00  0.00     0.000 C 
BRANCH  12  13
ATOM     13  C   UNL     1      12.929  22.735  18.674  1.00  0.00    -0.000 C 
BRANCH  13  14
ATOM     14  C   UNL     1      12.222  22.686  17.303  1.00  0.00    -0.000 C 
BRANCH  14  15
ATOM     15  C   UNL     1      12.697  21.533  16.396  1.00  0.00    -0.000 C 
BRANCH  15  16
ATOM     16  C   UNL     1      11.569  20.584  15.938  1.00  0.00    -0.000 C 
BRANCH  16  17
ATOM     17  C   UNL     1      10.201  20.832  16.607  1.00  0.00    -0.000 C 
BRANCH  17  18
ATOM     18  C   UNL     1       9.196  19.663  16.520  1.00  0.00    -0.000 C 
BRANCH  18  19
ATOM     19  C   UNL     1       9.074  18.805  17.791  1.00  0.00    -0.003 C 
ATOM     20  C   UNL     1      10.417  18.250  18.265  1.00  0.00     0.004 C 
ENDBRANCH  18  19
ENDBRANCH  17  18
ENDBRANCH  16  17
ENDBRANCH  15  16
ENDBRANCH  14  15
ENDBRANCH  13  14
ENDBRANCH  12  13
ENDBRANCH   1  12
TORSDOF 16
ENDMDL
MODEL 3
REMARK VINA RESULT:    -3.180      1.660      2.870
REMARK INTER + INTRA:          -8.580
REMARK INTER:                  -6.317
REMARK INTRA:                  -2.262
REMARK UNBOUND:                -2.425
REMARK SMILES CCCCCCCCCCCCCCCCCC(=O)[O-]
REMARK SMILES IDX 10 1 11 2 12 3 13 4 14 5 15 6 16 7 17 8 18 9 19 10 20 11
REMARK SMILES IDX 9 12 8 13 7 14 6 15 5 16 4 17 3 18 2 19 1 20
REMARK H PARENT
REMARK Flexibility Score: inf
ROOT
ATOM      1  C   UNL     1       7.872  19.567  18.093  1.00  0.00     0.000 C 
ENDROOT
BRANCH   1   2
ATOM      2  C   UNL     1       7.391  20.489  19.231  1.00  0.00     0.000 C 
BRANCH   2   3
ATOM      3  C   UNL     1       7.911  21.937  19.158  1.00  0.00     0.000 C 
BRANCH   3   4
ATOM      4  C   UNL     1       8.083  22.638  20.518  1.00  0.00     0.000 C 
BRANCH   4   5
ATOM      5  C   UNL     1       8.172  21.651  21.694  1.00  0.00     0.000 C 
BRANCH   5   6
ATOM      6  C   UNL     1       7.050  21.847  22.728  1.00  0.00     0.000 C 
BRANCH   6   7
ATOM      7  C   UNL     1       6.209  20.590  23.035  1.00  0.00     0.006 C 
BRANCH   7   8
ATOM      8  C   UNL     1       4.696  20.770  22.839  1.00  0.00     0.053 C 
BRANCH   8   9
ATOM      9  C   UNL     1       3.908  20.148  23.950  1.00  0.00     0.041 C 
ATOM     10  O   UNL     1       3.223  20.868  24.723  1.00  0.00    -0.550 OA
ATOM     11  O   UNL     1       3.903  18.768  24.109  1.00  0.00    -0.550 OA
ENDBRANCH   8   9
ENDBRANCH   7   8
ENDBRANCH   6   7
ENDBRANCH   5   6
ENDBRANCH   4   5
ENDBRANCH   3   4
ENDBRANCH   2   3
ENDBRANCH   1   2
BRANCH   1  12
ATOM     12  C   UNL     1       9.207  18.849  18.399  1.00  0.00     0.000 C 
BRANCH  12  13
ATOM     13  C   UNL     1      10.357  19.286  17.473  1.00  0.00    -0.000 C 
BRANCH  13  14
ATOM     14  C   UNL     1       9.881  20.148  16.285  1.00  0.00    -0.000 C 
BRANCH  14  15
ATOM     15  C   UNL     1      10.654  21.472  16.124  1.00  0.00    -0.000 C 
BRANCH  15  16
ATOM     16  C   UNL     1      12.170  21.355  16.393  1.00  0.00    -0.000 C 
BRANCH  16  17
ATOM     17  C   UNL     1      12.713  22.310  17.476  1.00  0.00    -0.000 C 
BRANCH  17  18
ATOM     18  C   UNL     1      11.737  22.634  18.628  1.00  0.00    -0.000 C 
BRANCH  18  19
ATOM     19  C   UNL     1      12.204  22.198  20.027  1.00  0.00    -0.003 C 
ATOM     20  C   UNL     1      11.473  20.957  20.538  1.00  0.00     0.004 C 
ENDBRANCH  18  19
ENDBRANCH  17  18
ENDBRANCH  16  17
ENDBRANCH  15  16
ENDBRANCH  14  15
ENDBRANCH  13  14
ENDBRANCH  12  13
ENDBRANCH   1  12
TORSDOF 16
ENDMDL
MODEL 4
REMARK VINA RESULT:    -3.125      9.007     10.972
REMARK INTER + INTRA:          -8.472
REMARK INTER:                  -6.506
REMARK INTRA:                  -1.967
REMARK UNBOUND:                -2.425
REMARK SMILES CCCCCCCCCCCCCCCCCC(=O)[O-]
REMARK SMILES IDX 10 1 11 2 12 3 13 4 14 5 15 6 16 7 17 8 18 9 19 10 20 11
REMARK SMILES IDX 9 12 8 13 7 14 6 15 5 16 4 17 3 18 2 19 1 20
REMARK H PARENT
REMARK Flexibility Score: inf
ROOT
ATOM      1  C   UNL     1       3.122  15.105  17.156  1.00  0.00     0.000 C 
ENDROOT
BRANCH   1   2
ATOM      2  C   UNL     1       2.909  13.599  17.408  1.00  0.00     0.000 C 
BRANCH   2   3
ATOM      3  C   UNL     1       1.625  13.012  16.793  1.00  0.00     0.000 C 
BRANCH   3   4
ATOM      4  C   UNL     1       0.648  12.380  17.802  1.00  0.00     0.000 C 
BRANCH   4   5
ATOM      5  C   UNL     1       0.581  13.147  19.133  1.00  0.00     0.000 C 
BRANCH   5   6
ATOM      6  C   UNL     1       0.051  12.288  20.295  1.00  0.00     0.000 C 
BRANCH   6   7
ATOM      7  C   UNL     1       0.713  12.551  21.664  1.00  0.00     0.006 C 
BRANCH   7   8
ATOM      8  C   UNL     1       0.547  11.412  22.682  1.00  0.00     0.053 C 
BRANCH   8   9
ATOM      9  C   UNL     1       1.601  11.452  23.744  1.00  0.00     0.041 C 
ATOM     10  O   UNL     1       2.320  10.442  23.964  1.00  0.00    -0.550 OA
ATOM     11  O   UNL     1       1.814  12.618  24.469  1.00  0.00    -0.550 OA
ENDBRANCH   8   9
ENDBRANCH   7   8
ENDBRANCH   6   7
ENDBRANCH   5   6
ENDBRANCH   4   5
ENDBRANCH   3   4
ENDBRANCH   2   3
ENDBRANCH   1   2
BRANCH   1  12
ATOM     12  C   UNL     1       2.075  15.728  16.204  1.00  0.00     0.000 C 
BRANCH  12  13
ATOM     13  C   UNL     1       1.373  16.964  16.798  1.00  0.00    -0.000 C 
BRANCH  13  14
ATOM     14  C   UNL     1       0.612  16.655  18.105  1.00  0.00    -0.000 C 
BRANCH  14  15
ATOM     15  C   UNL     1       1.176  17.380  19.343  1.00  0.00    -0.000 C 
BRANCH  15  16
ATOM     16  C   UNL     1       1.890  16.452  20.349  1.00  0.00    -0.000 C 
BRANCH  16  17
ATOM     17  C   UNL     1       1.140  16.237  21.679  1.00  0.00    -0.000 C 
BRANCH  17  18
ATOM     18  C   UNL     1       2.019  15.827  22.881  1.00  0.00    -0.000 C 
BRANCH  18  19
ATOM     19  C   UNL     1       2.609  16.992  23.691  1.00  0.00    -0.003 C 
ATOM     20  C   UNL     1       4.018  16.704  24.208  1.00  0.00     0.004 C 
ENDBRANCH  18  19
ENDBRANCH  17  18
ENDBRANCH  16  17
ENDBRANCH  15  16
ENDBRANCH  14  15
ENDBRANCH  13  14
ENDBRANCH  12  13
ENDBRANCH   1  12
TORSDOF 16
ENDMDL
MODEL 5
REMARK VINA RESULT:    -3.122      2.305      6.366
REMARK INTER + INTRA:          -8.468
REMARK INTER:                  -6.251
REMARK INTRA:                  -2.217
REMARK UNBOUND:                -2.425
REMARK SMILES CCCCCCCCCCCCCCCCCC(=O)[O-]
REMARK SMILES IDX 10 1 11 2 12 3 13 4 14 5 15 6 16 7 17 8 18 9 19 10 20 11
REMARK SMILES IDX 9 12 8 13 7 14 6 15 5 16 4 17 3 18 2 19 1 20
REMARK H PARENT
REMARK Flexibility Score: inf
ROOT
ATOM      1  C   UNL     1      11.577  21.361  19.763  1.00  0.00     0.000 C 
ENDROOT
BRANCH   1   2
ATOM      2  C   UNL     1      12.581  22.528  19.824  1.00  0.00     0.000 C 
BRANCH   2   3
ATOM      3  C   UNL     1      13.194  22.930  18.469  1.00  0.00     0.000 C 
BRANCH   3   4
ATOM      4  C   UNL     1      12.272  22.734  17.252  1.00  0.00     0.000 C 
BRANCH   4   5
ATOM      5  C   UNL     1      12.722  21.581  16.339  1.00  0.00     0.000 C 
BRANCH   5   6
ATOM      6  C   UNL     1      11.586  20.596  16.013  1.00  0.00     0.000 C 
BRANCH   6   7
ATOM      7  C   UNL     1      10.171  21.063  16.416  1.00  0.00     0.006 C 
BRANCH   7   8
ATOM      8  C   UNL     1       9.036  20.138  15.951  1.00  0.00     0.053 C 
BRANCH   8   9
ATOM      9  C   UNL     1       8.848  18.973  16.873  1.00  0.00     0.041 C 
ATOM     10  O   UNL     1       9.096  19.089  18.101  1.00  0.00    -0.550 OA
ATOM     11  O   UNL     1       8.364  17.768  16.379  1.00  0.00    -0.550 OA
ENDBRANCH   8   9
ENDBRANCH   7   8
ENDBRANCH   6   7
ENDBRANCH   5   6
ENDBRANCH   4   5
ENDBRANCH   3   4
ENDBRANCH   2   3
ENDBRANCH   1   2
BRANCH   1  12
ATOM     12  C   UNL     1      10.147  21.750  20.205  1.00  0.00     0.000 C 
BRANCH  12  13
ATOM     13  C   UNL     1       9.806  21.289  21.635  1.00  0.00    -0.000 C 
BRANCH  13  14
ATOM     14  C   UNL     1       9.261  22.429  22.521  1.00  0.00    -0.000 C 
BRANCH  14  15
ATOM     15  C   UNL     1       7.744  22.662  22.376  1.00  0.00    -0.000 C 
BRANCH  15  16
ATOM     16  C   UNL     1       6.871  21.564  23.020  1.00  0.00    -0.000 C 
BRANCH  16  17
ATOM     17  C   UNL     1       5.972  20.788  22.036  1.00  0.00    -0.000 C 
BRANCH  17  18
ATOM     18  C   UNL     1       5.677  21.501  20.699  1.00  0.00    -0.000 C 
BRANCH  18  19
ATOM     19  C   UNL     1       6.334  20.872  19.459  1.00  0.00    -0.003 C 
ATOM     20  C   UNL     1       6.941  21.910  18.516  1.00  0.00     0.004 C 
ENDBRANCH  18  19
ENDBRANCH  17  18
ENDBRANCH  16  17
ENDBRANCH  15  16
ENDBRANCH  14  15
ENDBRANCH  13  14
ENDBRANCH  12  13
ENDBRANCH   1  12
TORSDOF 16
ENDMDL
MODEL 6
REMARK VINA RESULT:    -3.120      3.829      5.126
REMARK INTER + INTRA:          -8.464
REMARK INTER:                  -6.941
REMARK INTRA:                  -1.522
REMARK UNBOUND:                -2.425
REMARK SMILES CCCCCCCCCCCCCCCCCC(=O)[O-]
REMARK SMILES IDX 10 1 11 2 12 3 13 4 14 5 15 6 16 7 17 8 18 9 19 10 20 11
REMARK SMILES IDX 9 12 8 13 7 14 6 15 5 16 4 17 3 18 2 19 1 20
REMARK H PARENT
REMARK Flexibility Score: inf
ROOT
ATOM      1  C   UNL     1       8.197  19.780  17.741  1.00  0.00     0.000 C 
ENDROOT
BRANCH   1   2
ATOM      2  C   UNL     1       6.787  20.348  17.490  1.00  0.00     0.000 C 
BRANCH   2   3
ATOM      3  C   UNL     1       6.198  20.036  16.101  1.00  0.00     0.000 C 
BRANCH   3   4
ATOM      4  C   UNL     1       5.164  18.895  16.071  1.00  0.00     0.000 C 
BRANCH   4   5
ATOM      5  C   UNL     1       4.108  19.015  17.183  1.00  0.00     0.000 C 
BRANCH   5   6
ATOM      6  C   UNL     1       3.237  17.753  17.321  1.00  0.00     0.000 C 
BRANCH   6   7
ATOM      7  C   UNL     1       3.518  16.641  16.289  1.00  0.00     0.006 C 
BRANCH   7   8
ATOM      8  C   UNL     1       2.386  15.614  16.132  1.00  0.00     0.053 C 
BRANCH   8   9
ATOM      9  C   UNL     1       2.513  14.486  17.108  1.00  0.00     0.041 C 
ATOM     10  O   UNL     1       3.648  14.121  17.513  1.00  0.00    -0.550 OA
ATOM     11  O   UNL     1       1.374  13.860  17.598  1.00  0.00    -0.550 OA
ENDBRANCH   8   9
ENDBRANCH   7   8
ENDBRANCH   6   7
ENDBRANCH   5   6
ENDBRANCH   4   5
ENDBRANCH   3   4
ENDBRANCH   2   3
ENDBRANCH   1   2
BRANCH   1  12
ATOM     12  C   UNL     1       8.965  19.432  16.444  1.00  0.00     0.000 C 
BRANCH  12  13
ATOM     13  C   UNL     1       9.945  20.535  16.003  1.00  0.00    -0.000 C 
BRANCH  13  14
ATOM     14  C   UNL     1      11.412  20.214  16.356  1.00  0.00    -0.000 C 
BRANCH  14  15
ATOM     15  C   UNL     1      12.368  21.414  16.207  1.00  0.00    -0.000 C 
BRANCH  15  16
ATOM     16  C   UNL     1      12.013  22.620  17.102  1.00  0.00    -0.000 C 
BRANCH  16  17
ATOM     17  C   UNL     1      12.959  22.840  18.300  1.00  0.00    -0.000 C 
BRANCH  17  18
ATOM     18  C   UNL     1      12.356  22.543  19.690  1.00  0.00    -0.000 C 
BRANCH  18  19
ATOM     19  C   UNL     1      10.981  21.855  19.676  1.00  0.00    -0.003 C 
ATOM     20  C   UNL     1      11.043  20.391  20.110  1.00  0.00     0.004 C 
ENDBRANCH  18  19
ENDBRANCH  17  18
ENDBRANCH  16  17
ENDBRANCH  15  16
ENDBRANCH  14  15
ENDBRANCH  13  14
ENDBRANCH  12  13
ENDBRANCH   1  12
TORSDOF 16
ENDMDL
MODEL 7
REMARK VINA RESULT:    -3.069      2.342      6.138
REMARK INTER + INTRA:          -8.366
REMARK INTER:                  -5.920
REMARK INTRA:                  -2.446
REMARK UNBOUND:                -2.425
REMARK SMILES CCCCCCCCCCCCCCCCCC(=O)[O-]
REMARK SMILES IDX 10 1 11 2 12 3 13 4 14 5 15 6 16 7 17 8 18 9 19 10 20 11
REMARK SMILES IDX 9 12 8 13 7 14 6 15 5 16 4 17 3 18 2 19 1 20
REMARK H PARENT
REMARK Flexibility Score: inf
ROOT
ATOM      1  C   UNL     1      11.158  20.899  20.275  1.00  0.00     0.000 C 
ENDROOT
BRANCH   1   2
ATOM      2  C   UNL     1      12.230  21.986  20.065  1.00  0.00     0.000 C 
BRANCH   2   3
ATOM      3  C   UNL     1      12.015  22.881  18.830  1.00  0.00     0.000 C 
BRANCH   3   4
ATOM      4  C   UNL     1      13.017  22.661  17.682  1.00  0.00     0.000 C 
BRANCH   4   5
ATOM      5  C   UNL     1      12.438  21.817  16.535  1.00  0.00     0.000 C 
BRANCH   5   6
ATOM      6  C   UNL     1      10.972  22.161  16.218  1.00  0.00     0.000 C 
BRANCH   6   7
ATOM      7  C   UNL     1      10.033  20.949  16.046  1.00  0.00     0.006 C 
BRANCH   7   8
ATOM      8  C   UNL     1      10.391  19.734  16.916  1.00  0.00     0.053 C 
BRANCH   8   9
ATOM      9  C   UNL     1       9.192  18.891  17.223  1.00  0.00     0.041 C 
ATOM     10  O   UNL     1       8.220  18.854  16.424  1.00  0.00    -0.550 OA
ATOM     11  O   UNL     1       9.164  18.118  18.377  1.00  0.00    -0.550 OA
ENDBRANCH   8   9
ENDBRANCH   7   8
ENDBRANCH   6   7
ENDBRANCH   5   6
ENDBRANCH   4   5
ENDBRANCH   3   4
ENDBRANCH   2   3
ENDBRANCH   1   2
BRANCH   1  12
ATOM     12  C   UNL     1      10.184  21.204  21.436  1.00  0.00     0.000 C 
BRANCH  12  13
ATOM     13  C   UNL     1       8.874  21.868  20.973  1.00  0.00    -0.000 C 
BRANCH  13  14
ATOM     14  C   UNL     1       8.651  21.763  19.449  1.00  0.00    -0.000 C 
BRANCH  14  15
ATOM     15  C   UNL     1       7.169  21.816  19.029  1.00  0.00    -0.000 C 
BRANCH  15  16
ATOM     16  C   UNL     1       6.414  20.481  19.208  1.00  0.00    -0.000 C 
BRANCH  16  17
ATOM     17  C   UNL     1       5.240  20.529  20.208  1.00  0.00    -0.000 C 
BRANCH  17  18
ATOM     18  C   UNL     1       5.106  21.837  21.017  1.00  0.00    -0.000 C 
BRANCH  18  19
ATOM     19  C   UNL     1       5.097  21.666  22.545  1.00  0.00    -0.003 C 
ATOM     20  C   UNL     1       6.098  20.619  23.033  1.00  0.00     0.004 C 
ENDBRANCH  18  19
ENDBRANCH  17  18
ENDBRANCH  16  17
ENDBRANCH  15  16
ENDBRANCH  14  15
ENDBRANCH  13  14
ENDBRANCH  12  13
ENDBRANCH   1  12
TORSDOF 16
ENDMDL
MODEL 8
REMARK VINA RESULT:    -3.050     19.641     21.716
REMARK INTER + INTRA:          -8.328
REMARK INTER:                  -6.382
REMARK INTRA:                  -1.946
REMARK UNBOUND:                -2.425
REMARK SMILES CCCCCCCCCCCCCCCCCC(=O)[O-]
REMARK SMILES IDX 10 1 11 2 12 3 13 4 14 5 15 6 16 7 17 8 18 9 19 10 20 11
REMARK SMILES IDX 9 12 8 13 7 14 6 15 5 16 4 17 3 18 2 19 1 20
REMARK H PARENT
REMARK Flexibility Score: inf
ROOT
ATOM      1  C   UNL     1      11.734   4.354  31.993  1.00  0.00     0.000 C 
ENDROOT
BRANCH   1   2
ATOM      2  C   UNL     1      10.475   4.497  31.116  1.00  0.00     0.000 C 
BRANCH   2   3
ATOM      3  C   UNL     1       9.379   3.445  31.375  1.00  0.00     0.000 C 
BRANCH   3   4
ATOM      4  C   UNL     1       8.244   3.902  32.310  1.00  0.00     0.000 C 
BRANCH   4   5
ATOM      5  C   UNL     1       6.956   4.268  31.554  1.00  0.00     0.000 C 
BRANCH   5   6
ATOM      6  C   UNL     1       6.917   3.697  30.125  1.00  0.00     0.000 C 
BRANCH   6   7
ATOM      7  C   UNL     1       6.772   4.744  29.001  1.00  0.00     0.006 C 
BRANCH   7   8
ATOM      8  C   UNL     1       5.974   4.263  27.779  1.00  0.00     0.053 C 
BRANCH   8   9
ATOM      9  C   UNL     1       4.748   5.092  27.550  1.00  0.00     0.041 C 
ATOM     10  O   UNL     1       3.623   4.540  27.425  1.00  0.00    -0.550 OA
ATOM     11  O   UNL     1       4.843   6.477  27.509  1.00  0.00    -0.550 OA
ENDBRANCH   8   9
ENDBRANCH   7   8
ENDBRANCH   6   7
ENDBRANCH   5   6
ENDBRANCH   4   5
ENDBRANCH   3   4
ENDBRANCH   2   3
ENDBRANCH   1   2
BRANCH   1  12
ATOM     12  C   UNL     1      11.840   2.987  32.708  1.00  0.00     0.000 C 
BRANCH  12  13
ATOM     13  C   UNL     1      12.816   2.997  33.899  1.00  0.00    -0.000 C 
BRANCH  13  14
ATOM     14  C   UNL     1      12.099   3.052  35.265  1.00  0.00    -0.000 C 
BRANCH  14  15
ATOM     15  C   UNL     1      12.431   4.308  36.095  1.00  0.00    -0.000 C 
BRANCH  15  16
ATOM     16  C   UNL     1      11.302   5.361  36.125  1.00  0.00    -0.000 C 
BRANCH  16  17
ATOM     17  C   UNL     1      10.076   5.024  35.252  1.00  0.00    -0.000 C 
BRANCH  17  18
ATOM     18  C   UNL     1       8.785   5.801  35.588  1.00  0.00    -0.000 C 
BRANCH  18  19
ATOM     19  C   UNL     1       8.464   6.978  34.653  1.00  0.00    -0.003 C 
ATOM     20  C   UNL     1       9.491   7.147  33.534  1.00  0.00     0.004 C 
ENDBRANCH  18  19
ENDBRANCH  17  18
ENDBRANCH  16  17
ENDBRANCH  15  16
ENDBRANCH  14  15
ENDBRANCH  13  14
ENDBRANCH  12  13
ENDBRANCH   1  12
TORSDOF 16
ENDMDL
MODEL 9
REMARK VINA RESULT:    -3.016     20.534     22.324
REMARK INTER + INTRA:          -8.262
REMARK INTER:                  -5.440
REMARK INTRA:                  -2.821
REMARK UNBOUND:                -2.425
REMARK SMILES CCCCCCCCCCCCCCCCCC(=O)[O-]
REMARK SMILES IDX 10 1 11 2 12 3 13 4 14 5 15 6 16 7 17 8 18 9 19 10 20 11
REMARK SMILES IDX 9 12 8 13 7 14 6 15 5 16 4 17 3 18 2 19 1 20
REMARK H PARENT
REMARK Flexibility Score: inf
ROOT
ATOM      1  C   UNL     1      10.573   4.477  30.485  1.00  0.00     0.000 C 
ENDROOT
BRANCH   1   2
ATOM      2  C   UNL     1       9.446   3.427  30.443  1.00  0.00     0.000 C 
BRANCH   2   3
ATOM      3  C   UNL     1       8.022   4.006  30.348  1.00  0.00     0.000 C 
BRANCH   3   4
ATOM      4  C   UNL     1       7.340   4.286  31.701  1.00  0.00     0.000 C 
BRANCH   4   5
ATOM      5  C   UNL     1       7.440   3.104  32.678  1.00  0.00     0.000 C 
BRANCH   5   6
ATOM      6  C   UNL     1       7.732   3.544  34.124  1.00  0.00     0.000 C 
BRANCH   6   7
ATOM      7  C   UNL     1       6.489   3.764  35.011  1.00  0.00     0.006 C 
BRANCH   7   8
ATOM      8  C   UNL     1       6.308   5.204  35.513  1.00  0.00     0.053 C 
BRANCH   8   9
ATOM      9  C   UNL     1       5.170   5.897  34.831  1.00  0.00     0.041 C 
ATOM     10  O   UNL     1       4.643   6.916  35.350  1.00  0.00    -0.550 OA
ATOM     11  O   UNL     1       4.712   5.437  33.602  1.00  0.00    -0.550 OA
ENDBRANCH   8   9
ENDBRANCH   7   8
ENDBRANCH   6   7
ENDBRANCH   5   6
ENDBRANCH   4   5
ENDBRANCH   3   4
ENDBRANCH   2   3
ENDBRANCH   1   2
BRANCH   1  12
ATOM     12  C   UNL     1      11.483   4.361  31.730  1.00  0.00     0.000 C 
BRANCH  12  13
ATOM     13  C   UNL     1      11.556   2.932  32.300  1.00  0.00    -0.000 C 
BRANCH  13  14
ATOM     14  C   UNL     1      11.300   2.876  33.820  1.00  0.00    -0.000 C 
BRANCH  14  15
ATOM     15  C   UNL     1      12.496   3.344  34.673  1.00  0.00    -0.000 C 
BRANCH  15  16
ATOM     16  C   UNL     1      12.103   4.203  35.894  1.00  0.00    -0.000 C 
BRANCH  16  17
ATOM     17  C   UNL     1      10.585   4.349  36.125  1.00  0.00    -0.000 C 
BRANCH  17  18
ATOM     18  C   UNL     1       9.999   5.749  35.841  1.00  0.00    -0.000 C 
BRANCH  18  19
ATOM     19  C   UNL     1      10.324   6.328  34.454  1.00  0.00    -0.003 C 
ATOM     20  C   UNL     1       9.089   6.863  33.729  1.00  0.00     0.004 C 
ENDBRANCH  18  19
ENDBRANCH  17  18
ENDBRANCH  16  17
ENDBRANCH  15  16
ENDBRANCH  14  15
ENDBRANCH  13  14
ENDBRANCH  12  13
ENDBRANCH   1  12
TORSDOF 16
ENDMDL
