MODEL 1
REMARK VINA RESULT:    -4.619      0.000      0.000
REMARK INTER + INTRA:         -10.850
REMARK INTER:                  -8.669
REMARK INTRA:                  -2.182
REMARK UNBOUND:                -2.182
REMARK SMILES CCCCCCCCC=CCCCCCCCC(=O)[O-]
REMARK SMILES IDX 10 1 9 2 11 3 12 4 13 5 14 6 15 7 16 8 17 9 18 10 19 11
REMARK SMILES IDX 20 12 8 13 7 14 6 15 5 16 4 17 3 18 2 19 1 20
REMARK H PARENT
REMARK Flexibility Score: inf
ROOT
ATOM      1  C   UNL     1     -16.522  -0.353   6.054  1.00  0.00    -0.031 C 
ATOM      2  C   UNL     1     -15.866  -1.161   6.908  1.00  0.00    -0.031 C 
ENDROOT
BRANCH   1   3
ATOM      3  C   UNL     1     -17.121  -0.775   4.734  1.00  0.00     0.027 C 
BRANCH   3   4
ATOM      4  C   UNL     1     -17.079   0.365   3.703  1.00  0.00     0.004 C 
BRANCH   4   5
ATOM      5  C   UNL     1     -17.678   0.002   2.329  1.00  0.00     0.000 C 
BRANCH   5   6
ATOM      6  C   UNL     1     -19.031   0.690   2.045  1.00  0.00     0.000 C 
BRANCH   6   7
ATOM      7  C   UNL     1     -20.113  -0.314   1.614  1.00  0.00     0.000 C 
BRANCH   7   8
ATOM      8  C   UNL     1     -19.936  -1.705   2.251  1.00  0.00     0.006 C 
BRANCH   8   9
ATOM      9  C   UNL     1     -20.778  -1.922   3.522  1.00  0.00     0.053 C 
BRANCH   9  10
ATOM     10  C   UNL     1     -22.194  -1.456   3.365  1.00  0.00     0.041 C 
ATOM     11  O   UNL     1     -22.647  -0.538   4.098  1.00  0.00    -0.550 OA
ATOM     12  O   UNL     1     -23.025  -2.061   2.431  1.00  0.00    -0.550 OA
ENDBRANCH   9  10
ENDBRANCH   8   9
ENDBRANCH   7   8
ENDBRANCH   6   7
ENDBRANCH   5   6
ENDBRANCH   4   5
ENDBRANCH   3   4
ENDBRANCH   1   3
BRANCH   2  13
ATOM     13  C   UNL     1     -15.578  -2.627   6.683  1.00  0.00     0.027 C 
BRANCH  13  14
ATOM     14  C   UNL     1     -14.109  -3.002   6.935  1.00  0.00     0.004 C 
BRANCH  14  15
ATOM     15  C   UNL     1     -13.182  -1.775   6.934  1.00  0.00     0.000 C 
BRANCH  15  16
ATOM     16  C   UNL     1     -12.577  -1.496   5.549  1.00  0.00     0.000 C 
BRANCH  16  17
ATOM     17  C   UNL     1     -12.037  -2.769   4.876  1.00  0.00    -0.000 C 
BRANCH  17  18
ATOM     18  C   UNL     1     -12.636  -3.006   3.479  1.00  0.00    -0.000 C 
BRANCH  18  19
ATOM     19  C   UNL     1     -13.933  -2.211   3.220  1.00  0.00    -0.003 C 
ATOM     20  C   UNL     1     -15.108  -3.117   2.855  1.00  0.00     0.004 C 
ENDBRANCH  18  19
ENDBRANCH  17  18
ENDBRANCH  16  17
ENDBRANCH  15  16
ENDBRANCH  14  15
ENDBRANCH  13  14
ENDBRANCH   2  13
TORSDOF 15
ENDMDL
MODEL 2
REMARK VINA RESULT:    -4.447      2.163      6.236
REMARK INTER + INTRA:         -10.528
REMARK INTER:                  -7.947
REMARK INTRA:                  -2.581
REMARK UNBOUND:                -2.182
REMARK SMILES CCCCCCCCC=CCCCCCCCC(=O)[O-]
REMARK SMILES IDX 10 1 9 2 11 3 12 4 13 5 14 6 15 7 16 8 17 9 18 10 19 11
REMARK SMILES IDX 20 12 8 13 7 14 6 15 5 16 4 17 3 18 2 19 1 20
REMARK H PARENT
REMARK Flexibility Score: inf
ROOT
ATOM      1  C   UNL     1     -15.849  -1.089   7.070  1.00  0.00    -0.031 C 
ATOM      2  C   UNL     1     -16.489  -0.280   6.205  1.00  0.00    -0.031 C 
ENDROOT
BRANCH   1   3
ATOM      3  C   UNL     1     -15.637  -2.573   6.887  1.00  0.00     0.027 C 
BRANCH   3   4
ATOM      4  C   UNL     1     -14.164  -2.964   7.089  1.00  0.00     0.004 C 
BRANCH   4   5
ATOM      5  C   UNL     1     -13.152  -1.920   6.576  1.00  0.00     0.000 C 
BRANCH   5   6
ATOM      6  C   UNL     1     -12.754  -2.119   5.098  1.00  0.00     0.000 C 
BRANCH   6   7
ATOM      7  C   UNL     1     -13.567  -1.220   4.152  1.00  0.00     0.000 C 
BRANCH   7   8
ATOM      8  C   UNL     1     -14.231  -1.996   3.000  1.00  0.00     0.006 C 
BRANCH   8   9
ATOM      9  C   UNL     1     -14.693  -3.413   3.386  1.00  0.00     0.053 C 
BRANCH   9  10
ATOM     10  C   UNL     1     -16.105  -3.696   2.971  1.00  0.00     0.041 C 
ATOM     11  O   UNL     1     -16.462  -3.531   1.775  1.00  0.00    -0.550 OA
ATOM     12  O   UNL     1     -17.037  -4.110   3.914  1.00  0.00    -0.550 OA
ENDBRANCH   9  10
ENDBRANCH   8   9
ENDBRANCH   7   8
ENDBRANCH   6   7
ENDBRANCH   5   6
ENDBRANCH   4   5
ENDBRANCH   3   4
ENDBRANCH   1   3
BRANCH   2  13
ATOM     13  C   UNL     1     -17.144  -0.715   4.915  1.00  0.00     0.027 C 
BRANCH  13  14
ATOM     14  C   UNL     1     -17.033   0.331   3.795  1.00  0.00     0.004 C 
BRANCH  14  15
ATOM     15  C   UNL     1     -17.558  -0.194   2.448  1.00  0.00     0.000 C 
BRANCH  15  16
ATOM     16  C   UNL     1     -18.857   0.504   2.012  1.00  0.00     0.000 C 
BRANCH  16  17
ATOM     17  C   UNL     1     -19.990  -0.493   1.716  1.00  0.00    -0.000 C 
BRANCH  17  18
ATOM     18  C   UNL     1     -19.891  -1.777   2.559  1.00  0.00    -0.000 C 
BRANCH  18  19
ATOM     19  C   UNL     1     -20.992  -1.897   3.633  1.00  0.00    -0.003 C 
ATOM     20  C   UNL     1     -22.123  -0.891   3.423  1.00  0.00     0.004 C 
ENDBRANCH  18  19
ENDBRANCH  17  18
ENDBRANCH  16  17
ENDBRANCH  15  16
ENDBRANCH  14  15
ENDBRANCH  13  14
ENDBRANCH   2  13
TORSDOF 15
ENDMDL
MODEL 3
REMARK VINA RESULT:    -4.361      2.576      7.281
REMARK INTER + INTRA:         -10.367
REMARK INTER:                  -8.276
REMARK INTRA:                  -2.092
REMARK UNBOUND:                -2.182
REMARK SMILES CCCCCCCCC=CCCCCCCCC(=O)[O-]
REMARK SMILES IDX 10 1 9 2 11 3 12 4 13 5 14 6 15 7 16 8 17 9 18 10 19 11
REMARK SMILES IDX 20 12 8 13 7 14 6 15 5 16 4 17 3 18 2 19 1 20
REMARK H PARENT
REMARK Flexibility Score: inf
ROOT
ATOM      1  C   UNL     1     -16.252  -2.277   3.340  1.00  0.00    -0.031 C 
ATOM      2  C   UNL     1     -17.281  -1.506   3.741  1.00  0.00    -0.031 C 
ENDROOT
BRANCH   1   3
ATOM      3  C   UNL     1     -15.035  -1.791   2.590  1.00  0.00     0.027 C 
BRANCH   3   4
ATOM      4  C   UNL     1     -13.759  -2.513   3.053  1.00  0.00     0.004 C 
BRANCH   4   5
ATOM      5  C   UNL     1     -14.003  -3.660   4.053  1.00  0.00     0.000 C 
BRANCH   5   6
ATOM      6  C   UNL     1     -12.986  -3.694   5.214  1.00  0.00     0.000 C 
BRANCH   6   7
ATOM      7  C   UNL     1     -12.375  -2.310   5.491  1.00  0.00     0.000 C 
BRANCH   7   8
ATOM      8  C   UNL     1     -13.046  -1.577   6.667  1.00  0.00     0.006 C 
BRANCH   8   9
ATOM      9  C   UNL     1     -14.281  -0.749   6.265  1.00  0.00     0.053 C 
BRANCH   9  10
ATOM     10  C   UNL     1     -15.543  -1.245   6.904  1.00  0.00     0.041 C 
ATOM     11  O   UNL     1     -16.501  -0.455   7.117  1.00  0.00    -0.550 OA
ATOM     12  O   UNL     1     -15.650  -2.573   7.294  1.00  0.00    -0.550 OA
ENDBRANCH   9  10
ENDBRANCH   8   9
ENDBRANCH   7   8
ENDBRANCH   6   7
ENDBRANCH   5   6
ENDBRANCH   4   5
ENDBRANCH   3   4
ENDBRANCH   1   3
BRANCH   2  13
ATOM     13  C   UNL     1     -17.422  -0.024   3.482  1.00  0.00     0.027 C 
BRANCH  13  14
ATOM     14  C   UNL     1     -17.963   0.298   2.081  1.00  0.00     0.004 C 
BRANCH  14  15
ATOM     15  C   UNL     1     -19.500   0.316   2.035  1.00  0.00     0.000 C 
BRANCH  15  16
ATOM     16  C   UNL     1     -20.074  -0.785   1.129  1.00  0.00     0.000 C 
BRANCH  16  17
ATOM     17  C   UNL     1     -21.185  -1.595   1.818  1.00  0.00    -0.000 C 
BRANCH  17  18
ATOM     18  C   UNL     1     -21.115  -1.519   3.353  1.00  0.00    -0.000 C 
BRANCH  18  19
ATOM     19  C   UNL     1     -22.388  -0.937   4.002  1.00  0.00    -0.003 C 
ATOM     20  C   UNL     1     -23.665  -1.565   3.444  1.00  0.00     0.004 C 
ENDBRANCH  18  19
ENDBRANCH  17  18
ENDBRANCH  16  17
ENDBRANCH  15  16
ENDBRANCH  14  15
ENDBRANCH  13  14
ENDBRANCH   2  13
TORSDOF 15
ENDMDL
MODEL 4
REMARK VINA RESULT:    -4.341      1.140      2.785
REMARK INTER + INTRA:         -10.329
REMARK INTER:                  -8.324
REMARK INTRA:                  -2.005
REMARK UNBOUND:                -2.182
REMARK SMILES CCCCCCCCC=CCCCCCCCC(=O)[O-]
REMARK SMILES IDX 10 1 9 2 11 3 12 4 13 5 14 6 15 7 16 8 17 9 18 10 19 11
REMARK SMILES IDX 20 12 8 13 7 14 6 15 5 16 4 17 3 18 2 19 1 20
REMARK H PARENT
REMARK Flexibility Score: inf
ROOT
ATOM      1  C   UNL     1     -17.366  -1.328   3.628  1.00  0.00    -0.031 C 
ATOM      2  C   UNL     1     -16.369  -2.193   3.362  1.00  0.00    -0.031 C 
ENDROOT
BRANCH   1   3
ATOM      3  C   UNL     1     -17.366   0.141   3.280  1.00  0.00     0.027 C 
BRANCH   3   4
ATOM      4  C   UNL     1     -18.578   0.518   2.412  1.00  0.00     0.004 C 
BRANCH   4   5
ATOM      5  C   UNL     1     -18.886  -0.481   1.279  1.00  0.00     0.000 C 
BRANCH   5   6
ATOM      6  C   UNL     1     -20.332  -1.021   1.308  1.00  0.00     0.000 C 
BRANCH   6   7
ATOM      7  C   UNL     1     -21.091  -0.580   2.570  1.00  0.00     0.000 C 
BRANCH   7   8
ATOM      8  C   UNL     1     -21.274  -1.716   3.594  1.00  0.00     0.006 C 
BRANCH   8   9
ATOM      9  C   UNL     1     -22.351  -1.431   4.657  1.00  0.00     0.053 C 
BRANCH   9  10
ATOM     10  C   UNL     1     -23.731  -1.787   4.193  1.00  0.00     0.041 C 
ATOM     11  O   UNL     1     -24.741  -1.360   4.812  1.00  0.00    -0.550 OA
ATOM     12  O   UNL     1     -23.901  -2.620   3.095  1.00  0.00    -0.550 OA
ENDBRANCH   9  10
ENDBRANCH   8   9
ENDBRANCH   7   8
ENDBRANCH   6   7
ENDBRANCH   5   6
ENDBRANCH   4   5
ENDBRANCH   3   4
ENDBRANCH   1   3
BRANCH   2  13
ATOM     13  C   UNL     1     -15.055  -1.844   2.702  1.00  0.00     0.027 C 
BRANCH  13  14
ATOM     14  C   UNL     1     -13.977  -1.392   3.698  1.00  0.00     0.004 C 
BRANCH  14  15
ATOM     15  C   UNL     1     -13.002  -2.525   4.063  1.00  0.00     0.000 C 
BRANCH  15  16
ATOM     16  C   UNL     1     -12.260  -2.260   5.382  1.00  0.00     0.000 C 
BRANCH  16  17
ATOM     17  C   UNL     1     -13.157  -1.591   6.438  1.00  0.00    -0.000 C 
BRANCH  17  18
ATOM     18  C   UNL     1     -14.057  -2.594   7.179  1.00  0.00    -0.000 C 
BRANCH  18  19
ATOM     19  C   UNL     1     -15.564  -2.364   6.943  1.00  0.00    -0.003 C 
ATOM     20  C   UNL     1     -15.930  -0.880   6.915  1.00  0.00     0.004 C 
ENDBRANCH  18  19
ENDBRANCH  17  18
ENDBRANCH  16  17
ENDBRANCH  15  16
ENDBRANCH  14  15
ENDBRANCH  13  14
ENDBRANCH   2  13
TORSDOF 15
ENDMDL
MODEL 5
REMARK VINA RESULT:    -4.332      1.237      2.602
REMARK INTER + INTRA:         -10.313
REMARK INTER:                  -7.927
REMARK INTRA:                  -2.386
REMARK UNBOUND:                -2.182
REMARK SMILES CCCCCCCCC=CCCCCCCCC(=O)[O-]
REMARK SMILES IDX 10 1 9 2 11 3 12 4 13 5 14 6 15 7 16 8 17 9 18 10 19 11
REMARK SMILES IDX 20 12 8 13 7 14 6 15 5 16 4 17 3 18 2 19 1 20
REMARK H PARENT
REMARK Flexibility Score: inf
ROOT
ATOM      1  C   UNL     1     -15.560  -0.309   3.081  1.00  0.00    -0.031 C 
ATOM      2  C   UNL     1     -14.838  -1.412   2.805  1.00  0.00    -0.031 C 
ENDROOT
BRANCH   1   3
ATOM      3  C   UNL     1     -16.868  -0.286   3.835  1.00  0.00     0.027 C 
BRANCH   3   4
ATOM      4  C   UNL     1     -18.032   0.163   2.936  1.00  0.00     0.004 C 
BRANCH   4   5
ATOM      5  C   UNL     1     -17.875  -0.223   1.452  1.00  0.00     0.000 C 
BRANCH   5   6
ATOM      6  C   UNL     1     -18.710  -1.456   1.043  1.00  0.00     0.000 C 
BRANCH   6   7
ATOM      7  C   UNL     1     -19.352  -2.150   2.255  1.00  0.00     0.000 C 
BRANCH   7   8
ATOM      8  C   UNL     1     -20.883  -2.275   2.141  1.00  0.00     0.006 C 
BRANCH   8   9
ATOM      9  C   UNL     1     -21.654  -1.083   2.736  1.00  0.00     0.053 C 
BRANCH   9  10
ATOM     10  C   UNL     1     -22.194  -1.368   4.105  1.00  0.00     0.041 C 
ATOM     11  O   UNL     1     -22.885  -0.506   4.709  1.00  0.00    -0.550 OA
ATOM     12  O   UNL     1     -21.905  -2.574   4.729  1.00  0.00    -0.550 OA
ENDBRANCH   9  10
ENDBRANCH   8   9
ENDBRANCH   7   8
ENDBRANCH   6   7
ENDBRANCH   5   6
ENDBRANCH   4   5
ENDBRANCH   3   4
ENDBRANCH   1   3
BRANCH   2  13
ATOM     13  C   UNL     1     -15.225  -2.828   3.165  1.00  0.00     0.027 C 
BRANCH  13  14
ATOM     14  C   UNL     1     -14.031  -3.690   3.602  1.00  0.00     0.004 C 
BRANCH  14  15
ATOM     15  C   UNL     1     -12.697  -2.927   3.527  1.00  0.00     0.000 C 
BRANCH  15  16
ATOM     16  C   UNL     1     -11.832  -3.131   4.780  1.00  0.00     0.000 C 
BRANCH  16  17
ATOM     17  C   UNL     1     -12.544  -2.683   6.067  1.00  0.00    -0.000 C 
BRANCH  17  18
ATOM     18  C   UNL     1     -12.938  -1.196   6.044  1.00  0.00    -0.000 C 
BRANCH  18  19
ATOM     19  C   UNL     1     -14.369  -0.927   6.554  1.00  0.00    -0.003 C 
ATOM     20  C   UNL     1     -15.111  -2.215   6.911  1.00  0.00     0.004 C 
ENDBRANCH  18  19
ENDBRANCH  17  18
ENDBRANCH  16  17
ENDBRANCH  15  16
ENDBRANCH  14  15
ENDBRANCH  13  14
ENDBRANCH   2  13
TORSDOF 15
ENDMDL
MODEL 6
REMARK VINA RESULT:    -4.319      1.012      2.084
REMARK INTER + INTRA:         -10.289
REMARK INTER:                  -8.324
REMARK INTRA:                  -1.965
REMARK UNBOUND:                -2.182
REMARK SMILES CCCCCCCCC=CCCCCCCCC(=O)[O-]
REMARK SMILES IDX 10 1 9 2 11 3 12 4 13 5 14 6 15 7 16 8 17 9 18 10 19 11
REMARK SMILES IDX 20 12 8 13 7 14 6 15 5 16 4 17 3 18 2 19 1 20
REMARK H PARENT
REMARK Flexibility Score: inf
ROOT
ATOM      1  C   UNL     1     -16.937   0.223   3.574  1.00  0.00    -0.031 C 
ATOM      2  C   UNL     1     -16.886  -0.408   4.763  1.00  0.00    -0.031 C 
ENDROOT
BRANCH   1   3
ATOM      3  C   UNL     1     -16.747  -0.432   2.227  1.00  0.00     0.027 C 
BRANCH   3   4
ATOM      4  C   UNL     1     -18.038  -0.398   1.393  1.00  0.00     0.004 C 
BRANCH   4   5
ATOM      5  C   UNL     1     -19.142   0.514   1.965  1.00  0.00     0.000 C 
BRANCH   5   6
ATOM      6  C   UNL     1     -20.424  -0.248   2.368  1.00  0.00     0.000 C 
BRANCH   6   7
ATOM      7  C   UNL     1     -20.112  -1.601   3.028  1.00  0.00     0.000 C 
BRANCH   7   8
ATOM      8  C   UNL     1     -21.283  -2.153   3.860  1.00  0.00     0.006 C 
BRANCH   8   9
ATOM      9  C   UNL     1     -22.373  -1.111   4.172  1.00  0.00     0.053 C 
BRANCH   9  10
ATOM     10  C   UNL     1     -23.741  -1.560   3.752  1.00  0.00     0.041 C 
ATOM     11  O   UNL     1     -23.944  -1.966   2.578  1.00  0.00    -0.550 OA
ATOM     12  O   UNL     1     -24.799  -1.497   4.649  1.00  0.00    -0.550 OA
ENDBRANCH   9  10
ENDBRANCH   8   9
ENDBRANCH   7   8
ENDBRANCH   6   7
ENDBRANCH   5   6
ENDBRANCH   4   5
ENDBRANCH   3   4
ENDBRANCH   1   3
BRANCH   2  13
ATOM     13  C   UNL     1     -16.593  -1.876   4.967  1.00  0.00     0.027 C 
BRANCH  13  14
ATOM     14  C   UNL     1     -15.835  -2.168   6.270  1.00  0.00     0.004 C 
BRANCH  14  15
ATOM     15  C   UNL     1     -14.813  -1.070   6.613  1.00  0.00     0.000 C 
BRANCH  15  16
ATOM     16  C   UNL     1     -13.400  -1.632   6.838  1.00  0.00     0.000 C 
BRANCH  16  17
ATOM     17  C   UNL     1     -12.517  -1.527   5.584  1.00  0.00    -0.000 C 
BRANCH  17  18
ATOM     18  C   UNL     1     -11.980  -2.891   5.116  1.00  0.00    -0.000 C 
BRANCH  18  19
ATOM     19  C   UNL     1     -12.766  -3.492   3.933  1.00  0.00    -0.003 C 
ATOM     20  C   UNL     1     -13.495  -2.426   3.115  1.00  0.00     0.004 C 
ENDBRANCH  18  19
ENDBRANCH  17  18
ENDBRANCH  16  17
ENDBRANCH  15  16
ENDBRANCH  14  15
ENDBRANCH  13  14
ENDBRANCH   2  13
TORSDOF 15
ENDMDL
MODEL 7
REMARK VINA RESULT:    -4.301      1.714      2.413
REMARK INTER + INTRA:         -10.254
REMARK INTER:                  -7.400
REMARK INTRA:                  -2.855
REMARK UNBOUND:                -2.182
REMARK SMILES CCCCCCCCC=CCCCCCCCC(=O)[O-]
REMARK SMILES IDX 10 1 9 2 11 3 12 4 13 5 14 6 15 7 16 8 17 9 18 10 19 11
REMARK SMILES IDX 20 12 8 13 7 14 6 15 5 16 4 17 3 18 2 19 1 20
REMARK H PARENT
REMARK Flexibility Score: inf
ROOT
ATOM      1  C   UNL     1     -16.617  -0.016   3.912  1.00  0.00    -0.031 C 
ATOM      2  C   UNL     1     -16.768  -0.721   5.048  1.00  0.00    -0.031 C 
ENDROOT
BRANCH   1   3
ATOM      3  C   UNL     1     -15.690  -0.374   2.776  1.00  0.00     0.027 C 
BRANCH   3   4
ATOM      4  C   UNL     1     -16.445  -1.052   1.620  1.00  0.00     0.004 C 
BRANCH   4   5
ATOM      5  C   UNL     1     -16.237  -2.576   1.531  1.00  0.00     0.000 C 
BRANCH   5   6
ATOM      6  C   UNL     1     -17.556  -3.380   1.535  1.00  0.00     0.000 C 
BRANCH   6   7
ATOM      7  C   UNL     1     -18.144  -3.522   2.948  1.00  0.00     0.000 C 
BRANCH   7   8
ATOM      8  C   UNL     1     -19.627  -3.115   3.029  1.00  0.00     0.006 C 
BRANCH   8   9
ATOM      9  C   UNL     1     -19.850  -1.618   3.311  1.00  0.00     0.053 C 
BRANCH   9  10
ATOM     10  C   UNL     1     -20.189  -0.840   2.076  1.00  0.00     0.041 C 
ATOM     11  O   UNL     1     -19.770   0.339   1.931  1.00  0.00    -0.550 OA
ATOM     12  O   UNL     1     -20.997  -1.406   1.098  1.00  0.00    -0.550 OA
ENDBRANCH   9  10
ENDBRANCH   8   9
ENDBRANCH   7   8
ENDBRANCH   6   7
ENDBRANCH   5   6
ENDBRANCH   4   5
ENDBRANCH   3   4
ENDBRANCH   1   3
BRANCH   2  13
ATOM     13  C   UNL     1     -16.009  -1.977   5.411  1.00  0.00     0.027 C 
BRANCH  13  14
ATOM     14  C   UNL     1     -15.154  -1.825   6.678  1.00  0.00     0.004 C 
BRANCH  14  15
ATOM     15  C   UNL     1     -14.047  -0.769   6.515  1.00  0.00     0.000 C 
BRANCH  15  16
ATOM     16  C   UNL     1     -12.975  -1.194   5.500  1.00  0.00     0.000 C 
BRANCH  16  17
ATOM     17  C   UNL     1     -12.322  -2.539   5.860  1.00  0.00    -0.000 C 
BRANCH  17  18
ATOM     18  C   UNL     1     -12.362  -3.551   4.702  1.00  0.00    -0.000 C 
BRANCH  18  19
ATOM     19  C   UNL     1     -12.996  -2.989   3.412  1.00  0.00    -0.003 C 
ATOM     20  C   UNL     1     -12.213  -3.382   2.160  1.00  0.00     0.004 C 
ENDBRANCH  18  19
ENDBRANCH  17  18
ENDBRANCH  16  17
ENDBRANCH  15  16
ENDBRANCH  14  15
ENDBRANCH  13  14
ENDBRANCH   2  13
TORSDOF 15
ENDMDL
MODEL 8
REMARK VINA RESULT:    -4.258      2.738      7.117
REMARK INTER + INTRA:         -10.173
REMARK INTER:                  -7.983
REMARK INTRA:                  -2.190
REMARK UNBOUND:                -2.182
REMARK SMILES CCCCCCCCC=CCCCCCCCC(=O)[O-]
REMARK SMILES IDX 10 1 9 2 11 3 12 4 13 5 14 6 15 7 16 8 17 9 18 10 19 11
REMARK SMILES IDX 20 12 8 13 7 14 6 15 5 16 4 17 3 18 2 19 1 20
REMARK H PARENT
REMARK Flexibility Score: inf
ROOT
ATOM      1  C   UNL     1     -16.850  -0.741   4.128  1.00  0.00    -0.031 C 
ATOM      2  C   UNL     1     -17.585   0.182   3.478  1.00  0.00    -0.031 C 
ENDROOT
BRANCH   1   3
ATOM      3  C   UNL     1     -16.396  -2.061   3.554  1.00  0.00     0.027 C 
BRANCH   3   4
ATOM      4  C   UNL     1     -14.986  -1.961   2.950  1.00  0.00     0.004 C 
BRANCH   4   5
ATOM      5  C   UNL     1     -14.020  -3.076   3.399  1.00  0.00     0.000 C 
BRANCH   5   6
ATOM      6  C   UNL     1     -12.888  -2.576   4.322  1.00  0.00     0.000 C 
BRANCH   6   7
ATOM      7  C   UNL     1     -13.198  -1.197   4.927  1.00  0.00     0.000 C 
BRANCH   7   8
ATOM      8  C   UNL     1     -13.256  -1.209   6.465  1.00  0.00     0.006 C 
BRANCH   8   9
ATOM      9  C   UNL     1     -13.797  -2.523   7.059  1.00  0.00     0.053 C 
BRANCH   9  10
ATOM     10  C   UNL     1     -15.289  -2.523   7.203  1.00  0.00     0.041 C 
ATOM     11  O   UNL     1     -15.917  -1.437   7.320  1.00  0.00    -0.550 OA
ATOM     12  O   UNL     1     -15.984  -3.724   7.242  1.00  0.00    -0.550 OA
ENDBRANCH   9  10
ENDBRANCH   8   9
ENDBRANCH   7   8
ENDBRANCH   6   7
ENDBRANCH   5   6
ENDBRANCH   4   5
ENDBRANCH   3   4
ENDBRANCH   1   3
BRANCH   2  13
ATOM     13  C   UNL     1     -18.119   0.047   2.072  1.00  0.00     0.027 C 
BRANCH  13  14
ATOM     14  C   UNL     1     -19.651   0.141   1.993  1.00  0.00     0.004 C 
BRANCH  14  15
ATOM     15  C   UNL     1     -20.280  -1.088   1.316  1.00  0.00     0.000 C 
BRANCH  15  16
ATOM     16  C   UNL     1     -19.557  -2.394   1.681  1.00  0.00     0.000 C 
BRANCH  16  17
ATOM     17  C   UNL     1     -19.986  -2.941   3.053  1.00  0.00    -0.000 C 
BRANCH  17  18
ATOM     18  C   UNL     1     -21.501  -2.826   3.294  1.00  0.00    -0.000 C 
BRANCH  18  19
ATOM     19  C   UNL     1     -21.866  -2.029   4.565  1.00  0.00    -0.003 C 
ATOM     20  C   UNL     1     -22.684  -0.777   4.252  1.00  0.00     0.004 C 
ENDBRANCH  18  19
ENDBRANCH  17  18
ENDBRANCH  16  17
ENDBRANCH  15  16
ENDBRANCH  14  15
ENDBRANCH  13  14
ENDBRANCH   2  13
TORSDOF 15
ENDMDL
MODEL 9
REMARK VINA RESULT:    -2.777      0.964      2.566
REMARK INTER + INTRA:          -7.393
REMARK INTER:                  -4.997
REMARK INTRA:                  -2.396
REMARK UNBOUND:                -2.182
REMARK SMILES CCCCCCCCC=CCCCCCCCC(=O)[O-]
REMARK SMILES IDX 10 1 9 2 11 3 12 4 13 5 14 6 15 7 16 8 17 9 18 10 19 11
REMARK SMILES IDX 20 12 8 13 7 14 6 15 5 16 4 17 3 18 2 19 1 20
REMARK H PARENT
REMARK Flexibility Score: inf
ROOT
ATOM      1  C   UNL     1     -16.864  -2.076   3.660  1.00  0.00    -0.031 C 
ATOM      2  C   UNL     1     -15.807  -2.619   3.029  1.00  0.00    -0.031 C 
ENDROOT
BRANCH   1   3
ATOM      3  C   UNL     1     -16.856  -0.767   4.413  1.00  0.00     0.027 C 
BRANCH   3   4
ATOM      4  C   UNL     1     -17.497   0.363   3.591  1.00  0.00     0.004 C 
BRANCH   4   5
ATOM      5  C   UNL     1     -17.772   0.003   2.118  1.00  0.00     0.000 C 
BRANCH   5   6
ATOM      6  C   UNL     1     -19.241   0.217   1.693  1.00  0.00     0.000 C 
BRANCH   6   7
ATOM      7  C   UNL     1     -19.878  -1.067   1.138  1.00  0.00     0.000 C 
BRANCH   7   8
ATOM      8  C   UNL     1     -21.142  -1.496   1.905  1.00  0.00     0.006 C 
BRANCH   8   9
ATOM      9  C   UNL     1     -20.881  -1.887   3.371  1.00  0.00     0.053 C 
BRANCH   9  10
ATOM     10  C   UNL     1     -22.072  -1.659   4.253  1.00  0.00     0.041 C 
ATOM     11  O   UNL     1     -22.893  -0.743   3.988  1.00  0.00    -0.550 OA
ATOM     12  O   UNL     1     -22.256  -2.439   5.387  1.00  0.00    -0.550 OA
ENDBRANCH   9  10
ENDBRANCH   8   9
ENDBRANCH   7   8
ENDBRANCH   6   7
ENDBRANCH   5   6
ENDBRANCH   4   5
ENDBRANCH   3   4
ENDBRANCH   1   3
BRANCH   2  13
ATOM     13  C   UNL     1     -14.412  -2.039   2.991  1.00  0.00     0.027 C 
BRANCH  13  14
ATOM     14  C   UNL     1     -13.325  -3.046   3.393  1.00  0.00     0.004 C 
BRANCH  14  15
ATOM     15  C   UNL     1     -12.642  -2.675   4.721  1.00  0.00     0.000 C 
BRANCH  15  16
ATOM     16  C   UNL     1     -12.931  -1.226   5.144  1.00  0.00     0.000 C 
BRANCH  16  17
ATOM     17  C   UNL     1     -13.614  -1.140   6.519  1.00  0.00    -0.000 C 
BRANCH  17  18
ATOM     18  C   UNL     1     -13.971  -2.520   7.096  1.00  0.00    -0.000 C 
BRANCH  18  19
ATOM     19  C   UNL     1     -15.489  -2.776   7.195  1.00  0.00    -0.003 C 
ATOM     20  C   UNL     1     -15.893  -4.125   6.602  1.00  0.00     0.004 C 
ENDBRANCH  18  19
ENDBRANCH  17  18
ENDBRANCH  16  17
ENDBRANCH  15  16
ENDBRANCH  14  15
ENDBRANCH  13  14
ENDBRANCH   2  13
TORSDOF 15
ENDMDL
