MODEL 1
REMARK VINA RESULT:    -7.746      0.000      0.000
REMARK INTER + INTRA:          -9.644
REMARK INTER:                  -9.331
REMARK INTRA:                  -0.313
REMARK UNBOUND:                -0.313
REMARK SMILES O=c1c(O)c(-c2ccc(O)c(O)c2)oc2cc(O)cc(O)c12
REMARK SMILES IDX 5 1 3 2 2 3 1 4 22 5 20 6 19 7 17 8 16 9 15 10 14 11 6 12
REMARK SMILES IDX 7 13 8 14 9 15 13 16 11 17 10 18 12 20 4 22 21 24 18 26
REMARK H PARENT 10 19 12 21 4 23 21 25 18 27
REMARK Flexibility Score: inf
ROOT
ATOM      1  C   UNL     1      15.324 -48.018  70.364  1.00  0.00     0.180 A 
ATOM      2  C   UNL     1      15.316 -48.738  69.157  1.00  0.00     0.208 A 
ATOM      3  C   UNL     1      16.517 -48.883  68.443  1.00  0.00     0.238 A 
ATOM      4  O   UNL     1      16.494 -49.482  67.337  1.00  0.00    -0.285 OA
ATOM      5  C   UNL     1      17.712 -48.321  68.954  1.00  0.00     0.111 A 
ATOM      6  C   UNL     1      18.993 -48.441  68.335  1.00  0.00     0.134 A 
ATOM      7  C   UNL     1      20.082 -47.734  68.858  1.00  0.00     0.093 A 
ATOM      8  C   UNL     1      19.951 -46.965  70.017  1.00  0.00     0.123 A 
ATOM      9  C   UNL     1      18.718 -46.890  70.662  1.00  0.00     0.094 A 
ATOM     10  C   UNL     1      17.605 -47.554  70.143  1.00  0.00     0.146 A 
ATOM     11  O   UNL     1      16.447 -47.447  70.782  1.00  0.00    -0.452 OA
ENDROOT
BRANCH   1  12
ATOM     12  C   UNL     1      14.104 -47.844  71.184  1.00  0.00     0.025 A 
ATOM     13  C   UNL     1      13.652 -48.856  72.049  1.00  0.00     0.016 A 
ATOM     14  C   UNL     1      12.511 -48.659  72.832  1.00  0.00     0.051 A 
ATOM     15  C   UNL     1      11.813 -47.446  72.772  1.00  0.00     0.157 A 
ATOM     16  C   UNL     1      13.412 -46.622  71.144  1.00  0.00     0.062 A 
ATOM     17  C   UNL     1      12.268 -46.422  71.927  1.00  0.00     0.158 A 
BRANCH  15  18
ATOM     18  O   UNL     1      10.674 -47.255  73.553  1.00  0.00    -0.504 OA
ATOM     19  H   UNL     1       9.766 -47.595  73.261  1.00  0.00     0.293 HD
ENDBRANCH  15  18
BRANCH  17  20
ATOM     20  O   UNL     1      11.601 -45.200  71.849  1.00  0.00    -0.504 OA
ATOM     21  H   UNL     1      11.428 -44.629  72.668  1.00  0.00     0.293 HD
ENDBRANCH  17  20
ENDBRANCH   1  12
BRANCH   2  22
ATOM     22  O   UNL     1      14.121 -49.266  68.660  1.00  0.00    -0.502 OA
ATOM     23  H   UNL     1      13.921 -50.259  68.666  1.00  0.00     0.293 HD
ENDBRANCH   2  22
BRANCH   6  24
ATOM     24  O   UNL     1      19.252 -49.256  67.228  1.00  0.00    -0.507 OA
ATOM     25  H   UNL     1      19.938 -49.058  66.517  1.00  0.00     0.293 HD
ENDBRANCH   6  24
BRANCH   8  26
ATOM     26  O   UNL     1      21.044 -46.277  70.540  1.00  0.00    -0.508 OA
ATOM     27  H   UNL     1      21.981 -46.421  70.184  1.00  0.00     0.293 HD
ENDBRANCH   8  26
TORSDOF 6
ENDMDL
MODEL 2
REMARK VINA RESULT:    -7.491      2.330      6.701
REMARK INTER + INTRA:          -9.337
REMARK INTER:                  -9.002
REMARK INTRA:                  -0.335
REMARK UNBOUND:                -0.313
REMARK SMILES O=c1c(O)c(-c2ccc(O)c(O)c2)oc2cc(O)cc(O)c12
REMARK SMILES IDX 5 1 3 2 2 3 1 4 22 5 20 6 19 7 17 8 16 9 15 10 14 11 6 12
REMARK SMILES IDX 7 13 8 14 9 15 13 16 11 17 10 18 12 20 4 22 21 24 18 26
REMARK H PARENT 10 19 12 21 4 23 21 25 18 27
REMARK Flexibility Score: inf
ROOT
ATOM      1  C   UNL     1      16.237 -47.350  70.511  1.00  0.00     0.180 A 
ATOM      2  C   UNL     1      16.763 -48.425  71.248  1.00  0.00     0.208 A 
ATOM      3  C   UNL     1      15.917 -49.135  72.115  1.00  0.00     0.238 A 
ATOM      4  O   UNL     1      16.406 -50.061  72.813  1.00  0.00    -0.285 OA
ATOM      5  C   UNL     1      14.552 -48.774  72.220  1.00  0.00     0.111 A 
ATOM      6  C   UNL     1      13.596 -49.449  73.036  1.00  0.00     0.134 A 
ATOM      7  C   UNL     1      12.304 -48.925  73.164  1.00  0.00     0.093 A 
ATOM      8  C   UNL     1      11.915 -47.786  72.454  1.00  0.00     0.123 A 
ATOM      9  C   UNL     1      12.825 -47.154  71.609  1.00  0.00     0.094 A 
ATOM     10  C   UNL     1      14.131 -47.633  71.489  1.00  0.00     0.146 A 
ATOM     11  O   UNL     1      14.969 -46.994  70.681  1.00  0.00    -0.452 OA
ENDROOT
BRANCH   1  12
ATOM     12  C   UNL     1      17.060 -46.570  69.559  1.00  0.00     0.025 A 
ATOM     13  C   UNL     1      17.182 -46.951  68.212  1.00  0.00     0.016 A 
ATOM     14  C   UNL     1      17.944 -46.185  67.326  1.00  0.00     0.051 A 
ATOM     15  C   UNL     1      18.586 -45.022  67.770  1.00  0.00     0.157 A 
ATOM     16  C   UNL     1      17.689 -45.391  69.994  1.00  0.00     0.062 A 
ATOM     17  C   UNL     1      18.455 -44.622  69.109  1.00  0.00     0.158 A 
BRANCH  15  18
ATOM     18  O   UNL     1      19.349 -44.262  66.884  1.00  0.00    -0.504 OA
ATOM     19  H   UNL     1      19.816 -43.413  67.179  1.00  0.00     0.293 HD
ENDBRANCH  15  18
BRANCH  17  20
ATOM     20  O   UNL     1      19.074 -43.465  69.581  1.00  0.00    -0.504 OA
ATOM     21  H   UNL     1      20.078 -43.405  69.704  1.00  0.00     0.293 HD
ENDBRANCH  17  20
ENDBRANCH   1  12
BRANCH   2  22
ATOM     22  O   UNL     1      18.119 -48.751  71.146  1.00  0.00    -0.502 OA
ATOM     23  H   UNL     1      18.585 -49.354  71.812  1.00  0.00     0.293 HD
ENDBRANCH   2  22
BRANCH   6  24
ATOM     24  O   UNL     1      13.854 -50.644  73.714  1.00  0.00    -0.507 OA
ATOM     25  H   UNL     1      13.237 -51.441  73.730  1.00  0.00     0.293 HD
ENDBRANCH   6  24
BRANCH   8  26
ATOM     26  O   UNL     1      10.623 -47.280  72.575  1.00  0.00    -0.508 OA
ATOM     27  H   UNL     1      10.176 -47.178  73.479  1.00  0.00     0.293 HD
ENDBRANCH   8  26
TORSDOF 6
ENDMDL
MODEL 3
REMARK VINA RESULT:    -7.458      1.299      2.902
REMARK INTER + INTRA:          -9.297
REMARK INTER:                  -8.984
REMARK INTRA:                  -0.313
REMARK UNBOUND:                -0.313
REMARK SMILES O=c1c(O)c(-c2ccc(O)c(O)c2)oc2cc(O)cc(O)c12
REMARK SMILES IDX 5 1 3 2 2 3 1 4 22 5 20 6 19 7 17 8 16 9 15 10 14 11 6 12
REMARK SMILES IDX 7 13 8 14 9 15 13 16 11 17 10 18 12 20 4 22 21 24 18 26
REMARK H PARENT 10 19 12 21 4 23 21 25 18 27
REMARK Flexibility Score: inf
ROOT
ATOM      1  C   UNL     1      15.502 -47.810  70.354  1.00  0.00     0.180 A 
ATOM      2  C   UNL     1      16.751 -47.585  70.958  1.00  0.00     0.208 A 
ATOM      3  C   UNL     1      17.914 -47.685  70.177  1.00  0.00     0.238 A 
ATOM      4  O   UNL     1      19.032 -47.536  70.735  1.00  0.00    -0.285 OA
ATOM      5  C   UNL     1      17.812 -47.991  68.799  1.00  0.00     0.111 A 
ATOM      6  C   UNL     1      18.920 -48.078  67.904  1.00  0.00     0.134 A 
ATOM      7  C   UNL     1      18.715 -48.517  66.590  1.00  0.00     0.093 A 
ATOM      8  C   UNL     1      17.432 -48.809  66.120  1.00  0.00     0.123 A 
ATOM      9  C   UNL     1      16.337 -48.670  66.970  1.00  0.00     0.094 A 
ATOM     10  C   UNL     1      16.514 -48.269  68.296  1.00  0.00     0.146 A 
ATOM     11  O   UNL     1      15.444 -48.160  69.074  1.00  0.00    -0.452 OA
ENDROOT
BRANCH   1  12
ATOM     12  C   UNL     1      14.232 -47.697  71.106  1.00  0.00     0.025 A 
ATOM     13  C   UNL     1      13.732 -48.770  71.864  1.00  0.00     0.016 A 
ATOM     14  C   UNL     1      12.543 -48.633  72.586  1.00  0.00     0.051 A 
ATOM     15  C   UNL     1      11.844 -47.420  72.571  1.00  0.00     0.157 A 
ATOM     16  C   UNL     1      13.538 -46.476  71.112  1.00  0.00     0.062 A 
ATOM     17  C   UNL     1      12.346 -46.336  71.833  1.00  0.00     0.158 A 
BRANCH  15  18
ATOM     18  O   UNL     1      10.657 -47.287  73.291  1.00  0.00    -0.504 OA
ATOM     19  H   UNL     1       9.876 -47.917  73.148  1.00  0.00     0.293 HD
ENDBRANCH  15  18
BRANCH  17  20
ATOM     20  O   UNL     1      11.678 -45.112  71.804  1.00  0.00    -0.504 OA
ATOM     21  H   UNL     1      10.784 -44.976  72.260  1.00  0.00     0.293 HD
ENDBRANCH  17  20
ENDBRANCH   1  12
BRANCH   2  22
ATOM     22  O   UNL     1      16.830 -47.305  72.325  1.00  0.00    -0.502 OA
ATOM     23  H   UNL     1      17.595 -46.779  72.730  1.00  0.00     0.293 HD
ENDBRANCH   2  22
BRANCH   6  24
ATOM     24  O   UNL     1      20.229 -47.722  68.246  1.00  0.00    -0.507 OA
ATOM     25  H   UNL     1      20.887 -48.329  68.709  1.00  0.00     0.293 HD
ENDBRANCH   6  24
BRANCH   8  26
ATOM     26  O   UNL     1      17.235 -49.230  64.808  1.00  0.00    -0.508 OA
ATOM     27  H   UNL     1      17.966 -49.153  64.111  1.00  0.00     0.293 HD
ENDBRANCH   8  26
TORSDOF 6
ENDMDL
MODEL 4
REMARK VINA RESULT:    -7.307      1.957      7.068
REMARK INTER + INTRA:          -9.115
REMARK INTER:                  -8.799
REMARK INTRA:                  -0.316
REMARK UNBOUND:                -0.313
REMARK SMILES O=c1c(O)c(-c2ccc(O)c(O)c2)oc2cc(O)cc(O)c12
REMARK SMILES IDX 5 1 3 2 2 3 1 4 22 5 20 6 19 7 17 8 16 9 15 10 14 11 6 12
REMARK SMILES IDX 7 13 8 14 9 15 13 16 11 17 10 18 12 20 4 22 21 24 18 26
REMARK H PARENT 10 19 12 21 4 23 21 25 18 27
REMARK Flexibility Score: inf
ROOT
ATOM      1  C   UNL     1      17.268 -47.625  69.380  1.00  0.00     0.180 A 
ATOM      2  C   UNL     1      17.351 -48.588  70.401  1.00  0.00     0.208 A 
ATOM      3  C   UNL     1      16.262 -48.749  71.274  1.00  0.00     0.238 A 
ATOM      4  O   UNL     1      16.362 -49.574  72.219  1.00  0.00    -0.285 OA
ATOM      5  C   UNL     1      15.099 -47.960  71.103  1.00  0.00     0.111 A 
ATOM      6  C   UNL     1      13.921 -48.068  71.902  1.00  0.00     0.134 A 
ATOM      7  C   UNL     1      12.881 -47.147  71.728  1.00  0.00     0.093 A 
ATOM      8  C   UNL     1      12.948 -46.164  70.738  1.00  0.00     0.123 A 
ATOM      9  C   UNL     1      14.069 -46.088  69.914  1.00  0.00     0.094 A 
ATOM     10  C   UNL     1      15.138 -46.969  70.087  1.00  0.00     0.146 A 
ATOM     11  O   UNL     1      16.191 -46.855  69.287  1.00  0.00    -0.452 OA
ENDROOT
BRANCH   1  12
ATOM     12  C   UNL     1      18.365 -47.414  68.408  1.00  0.00     0.025 A 
ATOM     13  C   UNL     1      18.350 -48.026  67.142  1.00  0.00     0.016 A 
ATOM     14  C   UNL     1      19.384 -47.792  66.232  1.00  0.00     0.051 A 
ATOM     15  C   UNL     1      20.439 -46.935  66.566  1.00  0.00     0.157 A 
ATOM     16  C   UNL     1      19.415 -46.538  68.729  1.00  0.00     0.062 A 
ATOM     17  C   UNL     1      20.453 -46.303  67.819  1.00  0.00     0.158 A 
BRANCH  15  18
ATOM     18  O   UNL     1      21.470 -46.706  65.655  1.00  0.00    -0.504 OA
ATOM     19  H   UNL     1      21.408 -45.976  64.956  1.00  0.00     0.293 HD
ENDBRANCH  15  18
BRANCH  17  20
ATOM     20  O   UNL     1      21.485 -45.437  68.180  1.00  0.00    -0.504 OA
ATOM     21  H   UNL     1      22.346 -45.771  68.596  1.00  0.00     0.293 HD
ENDBRANCH  17  20
ENDBRANCH   1  12
BRANCH   2  22
ATOM     22  O   UNL     1      18.516 -49.341  70.566  1.00  0.00    -0.502 OA
ATOM     23  H   UNL     1      18.560 -50.329  70.351  1.00  0.00     0.293 HD
ENDBRANCH   2  22
BRANCH   6  24
ATOM     24  O   UNL     1      13.715 -49.071  72.855  1.00  0.00    -0.507 OA
ATOM     25  H   UNL     1      14.334 -49.267  73.625  1.00  0.00     0.293 HD
ENDBRANCH   6  24
BRANCH   8  26
ATOM     26  O   UNL     1      11.902 -45.261  70.561  1.00  0.00    -0.508 OA
ATOM     27  H   UNL     1      11.701 -44.854  69.656  1.00  0.00     0.293 HD
ENDBRANCH   8  26
TORSDOF 6
ENDMDL
MODEL 5
REMARK VINA RESULT:    -7.292      5.315      7.909
REMARK INTER + INTRA:          -9.097
REMARK INTER:                  -8.770
REMARK INTRA:                  -0.327
REMARK UNBOUND:                -0.313
REMARK SMILES O=c1c(O)c(-c2ccc(O)c(O)c2)oc2cc(O)cc(O)c12
REMARK SMILES IDX 5 1 3 2 2 3 1 4 22 5 20 6 19 7 17 8 16 9 15 10 14 11 6 12
REMARK SMILES IDX 7 13 8 14 9 15 13 16 11 17 10 18 12 20 4 22 21 24 18 26
REMARK H PARENT 10 19 12 21 4 23 21 25 18 27
REMARK Flexibility Score: inf
ROOT
ATOM      1  C   UNL     1      20.387 -46.490  68.053  1.00  0.00     0.180 A 
ATOM      2  C   UNL     1      19.463 -45.813  67.238  1.00  0.00     0.208 A 
ATOM      3  C   UNL     1      18.443 -46.547  66.610  1.00  0.00     0.238 A 
ATOM      4  O   UNL     1      17.652 -45.945  65.839  1.00  0.00    -0.285 OA
ATOM      5  C   UNL     1      18.350 -47.944  66.819  1.00  0.00     0.111 A 
ATOM      6  C   UNL     1      17.333 -48.780  66.266  1.00  0.00     0.134 A 
ATOM      7  C   UNL     1      17.414 -50.168  66.431  1.00  0.00     0.093 A 
ATOM      8  C   UNL     1      18.438 -50.745  67.186  1.00  0.00     0.123 A 
ATOM      9  C   UNL     1      19.402 -49.932  67.779  1.00  0.00     0.094 A 
ATOM     10  C   UNL     1      19.368 -48.547  67.601  1.00  0.00     0.146 A 
ATOM     11  O   UNL     1      20.312 -47.811  68.176  1.00  0.00    -0.452 OA
ENDROOT
BRANCH   1  12
ATOM     12  C   UNL     1      21.474 -45.783  68.767  1.00  0.00     0.025 A 
ATOM     13  C   UNL     1      21.308 -45.326  70.086  1.00  0.00     0.016 A 
ATOM     14  C   UNL     1      22.356 -44.682  70.748  1.00  0.00     0.051 A 
ATOM     15  C   UNL     1      23.588 -44.496  70.109  1.00  0.00     0.157 A 
ATOM     16  C   UNL     1      22.718 -45.613  68.138  1.00  0.00     0.062 A 
ATOM     17  C   UNL     1      23.770 -44.967  68.798  1.00  0.00     0.158 A 
BRANCH  15  18
ATOM     18  O   UNL     1      24.632 -43.852  70.772  1.00  0.00    -0.504 OA
ATOM     19  H   UNL     1      25.380 -43.393  70.265  1.00  0.00     0.293 HD
ENDBRANCH  15  18
BRANCH  17  20
ATOM     20  O   UNL     1      24.987 -44.805  68.136  1.00  0.00    -0.504 OA
ATOM     21  H   UNL     1      25.649 -45.565  68.035  1.00  0.00     0.293 HD
ENDBRANCH  17  20
ENDBRANCH   1  12
BRANCH   2  22
ATOM     22  O   UNL     1      19.587 -44.437  67.028  1.00  0.00    -0.502 OA
ATOM     23  H   UNL     1      19.679 -43.777  67.790  1.00  0.00     0.293 HD
ENDBRANCH   2  22
BRANCH   6  24
ATOM     24  O   UNL     1      16.218 -48.298  65.573  1.00  0.00    -0.507 OA
ATOM     25  H   UNL     1      15.279 -48.647  65.683  1.00  0.00     0.293 HD
ENDBRANCH   6  24
BRANCH   8  26
ATOM     26  O   UNL     1      18.502 -52.125  67.359  1.00  0.00    -0.508 OA
ATOM     27  H   UNL     1      18.052 -52.762  66.712  1.00  0.00     0.293 HD
ENDBRANCH   8  26
TORSDOF 6
ENDMDL
MODEL 6
REMARK VINA RESULT:    -7.183      2.635      4.649
REMARK INTER + INTRA:          -8.966
REMARK INTER:                  -8.645
REMARK INTRA:                  -0.322
REMARK UNBOUND:                -0.313
REMARK SMILES O=c1c(O)c(-c2ccc(O)c(O)c2)oc2cc(O)cc(O)c12
REMARK SMILES IDX 5 1 3 2 2 3 1 4 22 5 20 6 19 7 17 8 16 9 15 10 14 11 6 12
REMARK SMILES IDX 7 13 8 14 9 15 13 16 11 17 10 18 12 20 4 22 21 24 18 26
REMARK H PARENT 10 19 12 21 4 23 21 25 18 27
REMARK Flexibility Score: inf
ROOT
ATOM      1  C   UNL     1      19.286 -46.777  69.510  1.00  0.00     0.180 A 
ATOM      2  C   UNL     1      19.514 -47.179  68.183  1.00  0.00     0.208 A 
ATOM      3  C   UNL     1      20.742 -46.862  67.577  1.00  0.00     0.238 A 
ATOM      4  O   UNL     1      20.920 -47.177  66.372  1.00  0.00    -0.285 OA
ATOM      5  C   UNL     1      21.730 -46.165  68.312  1.00  0.00     0.111 A 
ATOM      6  C   UNL     1      23.024 -45.828  67.812  1.00  0.00     0.134 A 
ATOM      7  C   UNL     1      23.873 -45.021  68.579  1.00  0.00     0.093 A 
ATOM      8  C   UNL     1      23.501 -44.595  69.857  1.00  0.00     0.123 A 
ATOM      9  C   UNL     1      22.263 -44.968  70.377  1.00  0.00     0.094 A 
ATOM     10  C   UNL     1      21.380 -45.742  69.620  1.00  0.00     0.146 A 
ATOM     11  O   UNL     1      20.207 -46.066  70.150  1.00  0.00    -0.452 OA
ENDROOT
BRANCH   1  12
ATOM     12  C   UNL     1      18.028 -47.095  70.223  1.00  0.00     0.025 A 
ATOM     13  C   UNL     1      16.905 -46.253  70.139  1.00  0.00     0.016 A 
ATOM     14  C   UNL     1      15.720 -46.587  70.801  1.00  0.00     0.051 A 
ATOM     15  C   UNL     1      15.636 -47.770  71.546  1.00  0.00     0.157 A 
ATOM     16  C   UNL     1      17.931 -48.291  70.953  1.00  0.00     0.062 A 
ATOM     17  C   UNL     1      16.746 -48.627  71.619  1.00  0.00     0.158 A 
BRANCH  15  18
ATOM     18  O   UNL     1      14.453 -48.099  72.207  1.00  0.00    -0.504 OA
ATOM     19  H   UNL     1      13.852 -47.387  72.605  1.00  0.00     0.293 HD
ENDBRANCH  15  18
BRANCH  17  20
ATOM     20  O   UNL     1      16.692 -49.817  72.345  1.00  0.00    -0.504 OA
ATOM     21  H   UNL     1      17.451 -50.488  72.334  1.00  0.00     0.293 HD
ENDBRANCH  17  20
ENDBRANCH   1  12
BRANCH   2  22
ATOM     22  O   UNL     1      18.516 -47.848  67.469  1.00  0.00    -0.502 OA
ATOM     23  H   UNL     1      17.531 -47.650  67.596  1.00  0.00     0.293 HD
ENDBRANCH   2  22
BRANCH   6  24
ATOM     24  O   UNL     1      23.529 -46.278  66.588  1.00  0.00    -0.507 OA
ATOM     25  H   UNL     1      24.369 -46.825  66.480  1.00  0.00     0.293 HD
ENDBRANCH   6  24
BRANCH   8  26
ATOM     26  O   UNL     1      24.357 -43.806  70.620  1.00  0.00    -0.508 OA
ATOM     27  H   UNL     1      24.784 -42.968  70.243  1.00  0.00     0.293 HD
ENDBRANCH   8  26
TORSDOF 6
ENDMDL
MODEL 7
REMARK VINA RESULT:    -7.029      2.069      3.262
REMARK INTER + INTRA:          -8.781
REMARK INTER:                  -8.553
REMARK INTRA:                  -0.228
REMARK UNBOUND:                -0.313
REMARK SMILES O=c1c(O)c(-c2ccc(O)c(O)c2)oc2cc(O)cc(O)c12
REMARK SMILES IDX 5 1 3 2 2 3 1 4 22 5 20 6 19 7 17 8 16 9 15 10 14 11 6 12
REMARK SMILES IDX 7 13 8 14 9 15 13 16 11 17 10 18 12 20 4 22 21 24 18 26
REMARK H PARENT 10 19 12 21 4 23 21 25 18 27
REMARK Flexibility Score: inf
ROOT
ATOM      1  C   UNL     1      17.811 -47.699  69.999  1.00  0.00     0.180 A 
ATOM      2  C   UNL     1      18.253 -48.473  68.912  1.00  0.00     0.208 A 
ATOM      3  C   UNL     1      19.427 -48.094  68.240  1.00  0.00     0.238 A 
ATOM      4  O   UNL     1      19.789 -48.759  67.235  1.00  0.00    -0.285 OA
ATOM      5  C   UNL     1      20.152 -46.959  68.674  1.00  0.00     0.111 A 
ATOM      6  C   UNL     1      21.376 -46.508  68.093  1.00  0.00     0.134 A 
ATOM      7  C   UNL     1      21.937 -45.297  68.518  1.00  0.00     0.093 A 
ATOM      8  C   UNL     1      21.355 -44.555  69.548  1.00  0.00     0.123 A 
ATOM      9  C   UNL     1      20.192 -45.018  70.162  1.00  0.00     0.094 A 
ATOM     10  C   UNL     1      19.589 -46.203  69.735  1.00  0.00     0.146 A 
ATOM     11  O   UNL     1      18.477 -46.602  70.340  1.00  0.00    -0.452 OA
ENDROOT
BRANCH   1  12
ATOM     12  C   UNL     1      16.597 -48.049  70.772  1.00  0.00     0.025 A 
ATOM     13  C   UNL     1      15.311 -47.901  70.223  1.00  0.00     0.016 A 
ATOM     14  C   UNL     1      14.182 -48.261  70.963  1.00  0.00     0.051 A 
ATOM     15  C   UNL     1      14.320 -48.784  72.254  1.00  0.00     0.157 A 
ATOM     16  C   UNL     1      16.731 -48.595  72.059  1.00  0.00     0.062 A 
ATOM     17  C   UNL     1      15.601 -48.955  72.803  1.00  0.00     0.158 A 
BRANCH  15  18
ATOM     18  O   UNL     1      13.190 -49.140  72.990  1.00  0.00    -0.504 OA
ATOM     19  H   UNL     1      13.265 -49.525  73.924  1.00  0.00     0.293 HD
ENDBRANCH  15  18
BRANCH  17  20
ATOM     20  O   UNL     1      15.773 -49.482  74.083  1.00  0.00    -0.504 OA
ATOM     21  H   UNL     1      15.923 -50.471  74.241  1.00  0.00     0.293 HD
ENDBRANCH  17  20
ENDBRANCH   1  12
BRANCH   2  22
ATOM     22  O   UNL     1      17.510 -49.577  68.487  1.00  0.00    -0.502 OA
ATOM     23  H   UNL     1      17.033 -50.194  69.133  1.00  0.00     0.293 HD
ENDBRANCH   2  22
BRANCH   6  24
ATOM     24  O   UNL     1      22.087 -47.219  67.123  1.00  0.00    -0.507 OA
ATOM     25  H   UNL     1      21.669 -47.817  66.427  1.00  0.00     0.293 HD
ENDBRANCH   6  24
BRANCH   8  26
ATOM     26  O   UNL     1      21.928 -43.360  69.975  1.00  0.00    -0.508 OA
ATOM     27  H   UNL     1      22.340 -42.706  69.320  1.00  0.00     0.293 HD
ENDBRANCH   8  26
TORSDOF 6
ENDMDL
MODEL 8
REMARK VINA RESULT:    -6.955      2.359      6.806
REMARK INTER + INTRA:          -8.691
REMARK INTER:                  -8.368
REMARK INTRA:                  -0.323
REMARK UNBOUND:                -0.313
REMARK SMILES O=c1c(O)c(-c2ccc(O)c(O)c2)oc2cc(O)cc(O)c12
REMARK SMILES IDX 5 1 3 2 2 3 1 4 22 5 20 6 19 7 17 8 16 9 15 10 14 11 6 12
REMARK SMILES IDX 7 13 8 14 9 15 13 16 11 17 10 18 12 20 4 22 21 24 18 26
REMARK H PARENT 10 19 12 21 4 23 21 25 18 27
REMARK Flexibility Score: inf
ROOT
ATOM      1  C   UNL     1      15.362 -46.405  69.903  1.00  0.00     0.180 A 
ATOM      2  C   UNL     1      14.132 -45.747  69.732  1.00  0.00     0.208 A 
ATOM      3  C   UNL     1      13.022 -46.175  70.480  1.00  0.00     0.238 A 
ATOM      4  O   UNL     1      11.911 -45.618  70.284  1.00  0.00    -0.285 OA
ATOM      5  C   UNL     1      13.161 -47.241  71.400  1.00  0.00     0.111 A 
ATOM      6  C   UNL     1      12.115 -47.729  72.239  1.00  0.00     0.134 A 
ATOM      7  C   UNL     1      12.329 -48.875  73.016  1.00  0.00     0.093 A 
ATOM      8  C   UNL     1      13.574 -49.509  73.035  1.00  0.00     0.123 A 
ATOM      9  C   UNL     1      14.619 -49.005  72.264  1.00  0.00     0.094 A 
ATOM     10  C   UNL     1      14.425 -47.886  71.451  1.00  0.00     0.146 A 
ATOM     11  O   UNL     1      15.444 -47.445  70.725  1.00  0.00    -0.452 OA
ENDROOT
BRANCH   1  12
ATOM     12  C   UNL     1      16.581 -45.996  69.169  1.00  0.00     0.025 A 
ATOM     13  C   UNL     1      16.914 -46.563  67.927  1.00  0.00     0.016 A 
ATOM     14  C   UNL     1      18.057 -46.143  67.241  1.00  0.00     0.051 A 
ATOM     15  C   UNL     1      18.877 -45.144  67.779  1.00  0.00     0.157 A 
ATOM     16  C   UNL     1      17.395 -44.978  69.694  1.00  0.00     0.062 A 
ATOM     17  C   UNL     1      18.542 -44.556  69.010  1.00  0.00     0.158 A 
BRANCH  15  18
ATOM     18  O   UNL     1      20.018 -44.729  67.093  1.00  0.00    -0.504 OA
ATOM     19  H   UNL     1      20.902 -44.592  67.568  1.00  0.00     0.293 HD
ENDBRANCH  15  18
BRANCH  17  20
ATOM     20  O   UNL     1      19.332 -43.552  69.569  1.00  0.00    -0.504 OA
ATOM     21  H   UNL     1      18.933 -42.701  69.946  1.00  0.00     0.293 HD
ENDBRANCH  17  20
ENDBRANCH   1  12
BRANCH   2  22
ATOM     22  O   UNL     1      14.011 -44.711  68.802  1.00  0.00    -0.502 OA
ATOM     23  H   UNL     1      14.146 -44.853  67.809  1.00  0.00     0.293 HD
ENDBRANCH   2  22
BRANCH   6  24
ATOM     24  O   UNL     1      10.865 -47.115  72.365  1.00  0.00    -0.507 OA
ATOM     25  H   UNL     1      10.670 -46.325  72.959  1.00  0.00     0.293 HD
ENDBRANCH   6  24
BRANCH   8  26
ATOM     26  O   UNL     1      13.783 -50.639  73.822  1.00  0.00    -0.508 OA
ATOM     27  H   UNL     1      14.494 -51.323  73.590  1.00  0.00     0.293 HD
ENDBRANCH   8  26
TORSDOF 6
ENDMDL
MODEL 9
REMARK VINA RESULT:    -6.951      1.902      6.879
REMARK INTER + INTRA:          -8.687
REMARK INTER:                  -8.363
REMARK INTRA:                  -0.324
REMARK UNBOUND:                -0.313
REMARK SMILES O=c1c(O)c(-c2ccc(O)c(O)c2)oc2cc(O)cc(O)c12
REMARK SMILES IDX 5 1 3 2 2 3 1 4 22 5 20 6 19 7 17 8 16 9 15 10 14 11 6 12
REMARK SMILES IDX 7 13 8 14 9 15 13 16 11 17 10 18 12 20 4 22 21 24 18 26
REMARK H PARENT 10 19 12 21 4 23 21 25 18 27
REMARK Flexibility Score: inf
ROOT
ATOM      1  C   UNL     1      16.545 -47.162  70.102  1.00  0.00     0.180 A 
ATOM      2  C   UNL     1      15.394 -46.453  69.716  1.00  0.00     0.208 A 
ATOM      3  C   UNL     1      14.172 -46.744  70.345  1.00  0.00     0.238 A 
ATOM      4  O   UNL     1      13.136 -46.145  69.958  1.00  0.00    -0.285 OA
ATOM      5  C   UNL     1      14.120 -47.726  71.363  1.00  0.00     0.111 A 
ATOM      6  C   UNL     1      12.946 -48.073  72.095  1.00  0.00     0.134 A 
ATOM      7  C   UNL     1      12.980 -49.152  72.988  1.00  0.00     0.093 A 
ATOM      8  C   UNL     1      14.166 -49.853  73.224  1.00  0.00     0.123 A 
ATOM      9  C   UNL     1      15.332 -49.483  72.557  1.00  0.00     0.094 A 
ATOM     10  C   UNL     1      15.319 -48.436  71.634  1.00  0.00     0.146 A 
ATOM     11  O   UNL     1      16.450 -48.124  71.013  1.00  0.00    -0.452 OA
ENDROOT
BRANCH   1  12
ATOM     12  C   UNL     1      17.872 -46.895  69.503  1.00  0.00     0.025 A 
ATOM     13  C   UNL     1      18.780 -46.004  70.101  1.00  0.00     0.016 A 
ATOM     14  C   UNL     1      20.037 -45.786  69.530  1.00  0.00     0.051 A 
ATOM     15  C   UNL     1      20.410 -46.463  68.363  1.00  0.00     0.157 A 
ATOM     16  C   UNL     1      18.260 -47.587  68.344  1.00  0.00     0.062 A 
ATOM     17  C   UNL     1      19.518 -47.370  67.769  1.00  0.00     0.158 A 
BRANCH  15  18
ATOM     18  O   UNL     1      21.664 -46.241  67.795  1.00  0.00    -0.504 OA
ATOM     19  H   UNL     1      22.436 -45.876  68.339  1.00  0.00     0.293 HD
ENDBRANCH  15  18
BRANCH  17  20
ATOM     20  O   UNL     1      19.861 -48.067  66.610  1.00  0.00    -0.504 OA
ATOM     21  H   UNL     1      20.822 -48.153  66.300  1.00  0.00     0.293 HD
ENDBRANCH  17  20
ENDBRANCH   1  12
BRANCH   2  22
ATOM     22  O   UNL     1      15.464 -45.503  68.693  1.00  0.00    -0.502 OA
ATOM     23  H   UNL     1      14.824 -45.501  67.908  1.00  0.00     0.293 HD
ENDBRANCH   2  22
BRANCH   6  24
ATOM     24  O   UNL     1      11.735 -47.379  72.002  1.00  0.00    -0.507 OA
ATOM     25  H   UNL     1      11.617 -46.400  72.213  1.00  0.00     0.293 HD
ENDBRANCH   6  24
BRANCH   8  26
ATOM     26  O   UNL     1      14.196 -50.914  74.125  1.00  0.00    -0.508 OA
ATOM     27  H   UNL     1      14.045 -51.869  73.824  1.00  0.00     0.293 HD
ENDBRANCH   8  26
TORSDOF 6
ENDMDL
