MODEL 1
REMARK VINA RESULT:    -4.752      0.000      0.000
REMARK INTER + INTRA:         -16.094
REMARK INTER:                 -12.531
REMARK INTRA:                  -3.563
REMARK UNBOUND:                -3.563
REMARK SMILES CCCCCCCCCCCCCCCCCCCCCCCCCCCCCC(=O)[O-]
REMARK SMILES IDX 16 1 17 2 18 3 19 4 20 5 21 6 22 7 23 8 24 9 25 10 26 11
REMARK SMILES IDX 27 12 28 13 29 14 30 15 31 16 32 17 15 18 14 19 13 20 12 21
REMARK SMILES IDX 11 22 10 23 9 24 8 25 7 26 6 27 5 28 4 29 3 30 2 31 1 32
REMARK H PARENT
REMARK Flexibility Score: inf
ROOT
ATOM      1  C   UNL     1      64.783  30.408  24.037  1.00  0.00     0.000 C 
ENDROOT
BRANCH   1   2
ATOM      2  C   UNL     1      64.889  31.632  23.114  1.00  0.00     0.000 C 
BRANCH   2   3
ATOM      3  C   UNL     1      66.253  31.739  22.412  1.00  0.00     0.000 C 
BRANCH   3   4
ATOM      4  C   UNL     1      66.331  32.808  21.304  1.00  0.00     0.000 C 
BRANCH   4   5
ATOM      5  C   UNL     1      65.105  33.745  21.250  1.00  0.00     0.000 C 
BRANCH   5   6
ATOM      6  C   UNL     1      64.984  34.475  19.902  1.00  0.00     0.000 C 
BRANCH   6   7
ATOM      7  C   UNL     1      65.226  33.553  18.695  1.00  0.00     0.000 C 
BRANCH   7   8
ATOM      8  C   UNL     1      64.093  33.596  17.649  1.00  0.00     0.000 C 
BRANCH   8   9
ATOM      9  C   UNL     1      62.709  33.720  18.305  1.00  0.00     0.000 C 
BRANCH   9  10
ATOM     10  C   UNL     1      61.639  34.083  17.270  1.00  0.00     0.000 C 
BRANCH  10  11
ATOM     11  C   UNL     1      61.979  33.482  15.899  1.00  0.00     0.000 C 
BRANCH  11  12
ATOM     12  C   UNL     1      60.750  33.337  14.986  1.00  0.00     0.000 C 
BRANCH  12  13
ATOM     13  C   UNL     1      61.035  32.747  13.591  1.00  0.00     0.006 C 
BRANCH  13  14
ATOM     14  C   UNL     1      59.933  31.804  13.071  1.00  0.00     0.053 C 
BRANCH  14  15
ATOM     15  C   UNL     1      60.476  30.732  12.171  1.00  0.00     0.041 C 
ATOM     16  O   UNL     1      61.681  30.757  11.809  1.00  0.00    -0.550 OA
ATOM     17  O   UNL     1      59.658  29.687  11.760  1.00  0.00    -0.550 OA
ENDBRANCH  14  15
ENDBRANCH  13  14
ENDBRANCH  12  13
ENDBRANCH  11  12
ENDBRANCH  10  11
ENDBRANCH   9  10
ENDBRANCH   8   9
ENDBRANCH   7   8
ENDBRANCH   6   7
ENDBRANCH   5   6
ENDBRANCH   4   5
ENDBRANCH   3   4
ENDBRANCH   2   3
ENDBRANCH   1   2
BRANCH   1  18
ATOM     18  C   UNL     1      66.134  30.107  24.705  1.00  0.00     0.000 C 
BRANCH  18  19
ATOM     19  C   UNL     1      65.986  29.528  26.122  1.00  0.00     0.000 C 
BRANCH  19  20
ATOM     20  C   UNL     1      65.216  30.421  27.111  1.00  0.00     0.000 C 
BRANCH  20  21
ATOM     21  C   UNL     1      64.071  29.677  27.821  1.00  0.00     0.000 C 
BRANCH  21  22
ATOM     22  C   UNL     1      62.718  29.878  27.117  1.00  0.00     0.000 C 
BRANCH  22  23
ATOM     23  C   UNL     1      61.701  28.786  27.494  1.00  0.00     0.000 C 
BRANCH  23  24
ATOM     24  C   UNL     1      61.088  28.101  26.262  1.00  0.00    -0.000 C 
BRANCH  24  25
ATOM     25  C   UNL     1      61.490  28.782  24.942  1.00  0.00    -0.000 C 
BRANCH  25  26
ATOM     26  C   UNL     1      62.416  27.891  24.087  1.00  0.00    -0.000 C 
BRANCH  26  27
ATOM     27  C   UNL     1      62.750  26.540  24.743  1.00  0.00    -0.000 C 
BRANCH  27  28
ATOM     28  C   UNL     1      64.172  26.493  25.319  1.00  0.00    -0.000 C 
BRANCH  28  29
ATOM     29  C   UNL     1      65.128  25.762  24.368  1.00  0.00    -0.000 C 
BRANCH  29  30
ATOM     30  C   UNL     1      65.994  26.756  23.587  1.00  0.00    -0.000 C 
BRANCH  30  31
ATOM     31  C   UNL     1      65.541  26.853  22.126  1.00  0.00    -0.003 C 
ATOM     32  C   UNL     1      66.101  28.105  21.458  1.00  0.00     0.004 C 
ENDBRANCH  30  31
ENDBRANCH  29  30
ENDBRANCH  28  29
ENDBRANCH  27  28
ENDBRANCH  26  27
ENDBRANCH  25  26
ENDBRANCH  24  25
ENDBRANCH  23  24
ENDBRANCH  22  23
ENDBRANCH  21  22
ENDBRANCH  20  21
ENDBRANCH  19  20
ENDBRANCH  18  19
ENDBRANCH   1  18
TORSDOF 28
ENDMDL
MODEL 2
REMARK VINA RESULT:    -4.752      3.146      9.676
REMARK INTER + INTRA:         -16.093
REMARK INTER:                 -12.150
REMARK INTRA:                  -3.944
REMARK UNBOUND:                -3.563
REMARK SMILES CCCCCCCCCCCCCCCCCCCCCCCCCCCCCC(=O)[O-]
REMARK SMILES IDX 16 1 17 2 18 3 19 4 20 5 21 6 22 7 23 8 24 9 25 10 26 11
REMARK SMILES IDX 27 12 28 13 29 14 30 15 31 16 32 17 15 18 14 19 13 20 12 21
REMARK SMILES IDX 11 22 10 23 9 24 8 25 7 26 6 27 5 28 4 29 3 30 2 31 1 32
REMARK H PARENT
REMARK Flexibility Score: inf
ROOT
ATOM      1  C   UNL     1      61.767  27.871  24.940  1.00  0.00     0.000 C 
ENDROOT
BRANCH   1   2
ATOM      2  C   UNL     1      60.615  27.089  25.590  1.00  0.00     0.000 C 
BRANCH   2   3
ATOM      3  C   UNL     1      60.627  27.167  27.126  1.00  0.00     0.000 C 
BRANCH   3   4
ATOM      4  C   UNL     1      62.009  26.964  27.776  1.00  0.00     0.000 C 
BRANCH   4   5
ATOM      5  C   UNL     1      62.318  27.960  28.915  1.00  0.00     0.000 C 
BRANCH   5   6
ATOM      6  C   UNL     1      61.779  29.371  28.624  1.00  0.00     0.000 C 
BRANCH   6   7
ATOM      7  C   UNL     1      62.878  30.447  28.630  1.00  0.00     0.000 C 
BRANCH   7   8
ATOM      8  C   UNL     1      64.307  29.869  28.643  1.00  0.00     0.000 C 
BRANCH   8   9
ATOM      9  C   UNL     1      65.263  30.676  27.753  1.00  0.00     0.000 C 
BRANCH   9  10
ATOM     10  C   UNL     1      65.958  29.773  26.728  1.00  0.00     0.000 C 
BRANCH  10  11
ATOM     11  C   UNL     1      65.071  28.573  26.369  1.00  0.00     0.000 C 
BRANCH  11  12
ATOM     12  C   UNL     1      65.645  27.723  25.223  1.00  0.00     0.000 C 
BRANCH  12  13
ATOM     13  C   UNL     1      64.918  26.389  24.966  1.00  0.00     0.006 C 
BRANCH  13  14
ATOM     14  C   UNL     1      65.344  25.681  23.666  1.00  0.00     0.053 C 
BRANCH  14  15
ATOM     15  C   UNL     1      64.823  26.373  22.440  1.00  0.00     0.041 C 
ATOM     16  O   UNL     1      63.629  26.768  22.393  1.00  0.00    -0.550 OA
ATOM     17  O   UNL     1      65.667  26.612  21.362  1.00  0.00    -0.550 OA
ENDBRANCH  14  15
ENDBRANCH  13  14
ENDBRANCH  12  13
ENDBRANCH  11  12
ENDBRANCH  10  11
ENDBRANCH   9  10
ENDBRANCH   8   9
ENDBRANCH   7   8
ENDBRANCH   6   7
ENDBRANCH   5   6
ENDBRANCH   4   5
ENDBRANCH   3   4
ENDBRANCH   2   3
ENDBRANCH   1   2
BRANCH   1  18
ATOM     18  C   UNL     1      61.474  29.380  24.943  1.00  0.00     0.000 C 
BRANCH  18  19
ATOM     19  C   UNL     1      62.750  30.239  24.908  1.00  0.00     0.000 C 
BRANCH  19  20
ATOM     20  C   UNL     1      63.565  30.136  23.606  1.00  0.00     0.000 C 
BRANCH  20  21
ATOM     21  C   UNL     1      64.679  31.194  23.516  1.00  0.00     0.000 C 
BRANCH  21  22
ATOM     22  C   UNL     1      66.020  30.593  23.059  1.00  0.00     0.000 C 
BRANCH  22  23
ATOM     23  C   UNL     1      67.029  31.679  22.643  1.00  0.00     0.000 C 
BRANCH  23  24
ATOM     24  C   UNL     1      66.937  32.027  21.149  1.00  0.00    -0.000 C 
BRANCH  24  25
ATOM     25  C   UNL     1      66.714  33.530  20.902  1.00  0.00    -0.000 C 
BRANCH  25  26
ATOM     26  C   UNL     1      65.222  33.869  20.693  1.00  0.00    -0.000 C 
BRANCH  26  27
ATOM     27  C   UNL     1      64.932  34.589  19.366  1.00  0.00    -0.000 C 
BRANCH  27  28
ATOM     28  C   UNL     1      64.040  33.768  18.425  1.00  0.00    -0.000 C 
BRANCH  28  29
ATOM     29  C   UNL     1      63.504  34.634  17.278  1.00  0.00    -0.000 C 
BRANCH  29  30
ATOM     30  C   UNL     1      62.077  34.224  16.899  1.00  0.00    -0.000 C 
BRANCH  30  31
ATOM     31  C   UNL     1      62.083  33.207  15.752  1.00  0.00    -0.003 C 
ATOM     32  C   UNL     1      60.754  33.214  15.004  1.00  0.00     0.004 C 
ENDBRANCH  30  31
ENDBRANCH  29  30
ENDBRANCH  28  29
ENDBRANCH  27  28
ENDBRANCH  26  27
ENDBRANCH  25  26
ENDBRANCH  24  25
ENDBRANCH  23  24
ENDBRANCH  22  23
ENDBRANCH  21  22
ENDBRANCH  20  21
ENDBRANCH  19  20
ENDBRANCH  18  19
ENDBRANCH   1  18
TORSDOF 28
ENDMDL
MODEL 3
REMARK VINA RESULT:    -4.743      1.242      1.456
REMARK INTER + INTRA:         -16.070
REMARK INTER:                 -12.443
REMARK INTRA:                  -3.627
REMARK UNBOUND:                -3.563
REMARK SMILES CCCCCCCCCCCCCCCCCCCCCCCCCCCCCC(=O)[O-]
REMARK SMILES IDX 16 1 17 2 18 3 19 4 20 5 21 6 22 7 23 8 24 9 25 10 26 11
REMARK SMILES IDX 27 12 28 13 29 14 30 15 31 16 32 17 15 18 14 19 13 20 12 21
REMARK SMILES IDX 11 22 10 23 9 24 8 25 7 26 6 27 5 28 4 29 3 30 2 31 1 32
REMARK H PARENT
REMARK Flexibility Score: inf
ROOT
ATOM      1  C   UNL     1      64.053  30.317  23.664  1.00  0.00     0.000 C 
ENDROOT
BRANCH   1   2
ATOM      2  C   UNL     1      65.306  31.153  23.360  1.00  0.00     0.000 C 
BRANCH   2   3
ATOM      3  C   UNL     1      65.022  32.347  22.433  1.00  0.00     0.000 C 
BRANCH   3   4
ATOM      4  C   UNL     1      66.180  32.727  21.490  1.00  0.00     0.000 C 
BRANCH   4   5
ATOM      5  C   UNL     1      65.872  33.933  20.574  1.00  0.00     0.000 C 
BRANCH   5   6
ATOM      6  C   UNL     1      64.362  34.178  20.414  1.00  0.00     0.000 C 
BRANCH   6   7
ATOM      7  C   UNL     1      63.837  33.802  19.018  1.00  0.00     0.000 C 
BRANCH   7   8
ATOM      8  C   UNL     1      62.298  33.756  18.930  1.00  0.00     0.000 C 
BRANCH   8   9
ATOM      9  C   UNL     1      61.792  34.084  17.518  1.00  0.00     0.000 C 
BRANCH   9  10
ATOM     10  C   UNL     1      62.880  33.831  16.469  1.00  0.00     0.000 C 
BRANCH  10  11
ATOM     11  C   UNL     1      62.292  33.150  15.226  1.00  0.00     0.000 C 
BRANCH  11  12
ATOM     12  C   UNL     1      60.758  33.057  15.260  1.00  0.00     0.000 C 
BRANCH  12  13
ATOM     13  C   UNL     1      60.180  31.643  15.058  1.00  0.00     0.006 C 
BRANCH  13  14
ATOM     14  C   UNL     1      61.239  30.524  15.068  1.00  0.00     0.053 C 
BRANCH  14  15
ATOM     15  C   UNL     1      61.108  29.604  13.889  1.00  0.00     0.041 C 
ATOM     16  O   UNL     1      62.005  28.756  13.644  1.00  0.00    -0.550 OA
ATOM     17  O   UNL     1      59.979  29.661  13.081  1.00  0.00    -0.550 OA
ENDBRANCH  14  15
ENDBRANCH  13  14
ENDBRANCH  12  13
ENDBRANCH  11  12
ENDBRANCH  10  11
ENDBRANCH   9  10
ENDBRANCH   8   9
ENDBRANCH   7   8
ENDBRANCH   6   7
ENDBRANCH   5   6
ENDBRANCH   4   5
ENDBRANCH   3   4
ENDBRANCH   2   3
ENDBRANCH   1   2
BRANCH   1  18
ATOM     18  C   UNL     1      63.714  30.363  25.161  1.00  0.00     0.000 C 
BRANCH  18  19
ATOM     19  C   UNL     1      64.960  30.302  26.062  1.00  0.00     0.000 C 
BRANCH  19  20
ATOM     20  C   UNL     1      64.731  29.666  27.444  1.00  0.00     0.000 C 
BRANCH  20  21
ATOM     21  C   UNL     1      63.301  29.883  27.971  1.00  0.00     0.000 C 
BRANCH  21  22
ATOM     22  C   UNL     1      62.866  28.781  28.951  1.00  0.00     0.000 C 
BRANCH  22  23
ATOM     23  C   UNL     1      61.787  27.863  28.348  1.00  0.00     0.000 C 
BRANCH  23  24
ATOM     24  C   UNL     1      61.145  28.458  27.085  1.00  0.00    -0.000 C 
BRANCH  24  25
ATOM     25  C   UNL     1      60.820  27.392  26.024  1.00  0.00    -0.000 C 
BRANCH  25  26
ATOM     26  C   UNL     1      61.739  27.504  24.788  1.00  0.00    -0.000 C 
BRANCH  26  27
ATOM     27  C   UNL     1      62.793  26.388  24.700  1.00  0.00    -0.000 C 
BRANCH  27  28
ATOM     28  C   UNL     1      64.005  26.640  25.609  1.00  0.00    -0.000 C 
BRANCH  28  29
ATOM     29  C   UNL     1      65.285  26.818  24.783  1.00  0.00    -0.000 C 
BRANCH  29  30
ATOM     30  C   UNL     1      65.293  25.880  23.572  1.00  0.00    -0.000 C 
BRANCH  30  31
ATOM     31  C   UNL     1      65.853  26.586  22.332  1.00  0.00    -0.003 C 
ATOM     32  C   UNL     1      66.638  27.835  22.718  1.00  0.00     0.004 C 
ENDBRANCH  30  31
ENDBRANCH  29  30
ENDBRANCH  28  29
ENDBRANCH  27  28
ENDBRANCH  26  27
ENDBRANCH  25  26
ENDBRANCH  24  25
ENDBRANCH  23  24
ENDBRANCH  22  23
ENDBRANCH  21  22
ENDBRANCH  20  21
ENDBRANCH  19  20
ENDBRANCH  18  19
ENDBRANCH   1  18
TORSDOF 28
ENDMDL
MODEL 4
REMARK VINA RESULT:    -4.667      1.263      2.187
REMARK INTER + INTRA:         -15.869
REMARK INTER:                 -13.047
REMARK INTRA:                  -2.821
REMARK UNBOUND:                -3.563
REMARK SMILES CCCCCCCCCCCCCCCCCCCCCCCCCCCCCC(=O)[O-]
REMARK SMILES IDX 16 1 17 2 18 3 19 4 20 5 21 6 22 7 23 8 24 9 25 10 26 11
REMARK SMILES IDX 27 12 28 13 29 14 30 15 31 16 32 17 15 18 14 19 13 20 12 21
REMARK SMILES IDX 11 22 10 23 9 24 8 25 7 26 6 27 5 28 4 29 3 30 2 31 1 32
REMARK H PARENT
REMARK Flexibility Score: inf
ROOT
ATOM      1  C   UNL     1      65.857  30.547  23.136  1.00  0.00     0.000 C 
ENDROOT
BRANCH   1   2
ATOM      2  C   UNL     1      66.683  31.697  22.538  1.00  0.00     0.000 C 
BRANCH   2   3
ATOM      3  C   UNL     1      65.819  32.745  21.817  1.00  0.00     0.000 C 
BRANCH   3   4
ATOM      4  C   UNL     1      66.601  33.729  20.925  1.00  0.00     0.000 C 
BRANCH   4   5
ATOM      5  C   UNL     1      65.711  34.763  20.201  1.00  0.00     0.000 C 
BRANCH   5   6
ATOM      6  C   UNL     1      64.623  34.100  19.340  1.00  0.00     0.000 C 
BRANCH   6   7
ATOM      7  C   UNL     1      64.820  34.338  17.833  1.00  0.00     0.000 C 
BRANCH   7   8
ATOM      8  C   UNL     1      64.131  33.281  16.946  1.00  0.00     0.000 C 
BRANCH   8   9
ATOM      9  C   UNL     1      62.798  33.788  16.377  1.00  0.00     0.000 C 
BRANCH   9  10
ATOM     10  C   UNL     1      62.418  33.028  15.102  1.00  0.00     0.000 C 
BRANCH  10  11
ATOM     11  C   UNL     1      60.941  33.252  14.752  1.00  0.00     0.000 C 
BRANCH  11  12
ATOM     12  C   UNL     1      60.548  32.655  13.391  1.00  0.00     0.000 C 
BRANCH  12  13
ATOM     13  C   UNL     1      59.530  31.500  13.448  1.00  0.00     0.006 C 
BRANCH  13  14
ATOM     14  C   UNL     1      60.155  30.102  13.286  1.00  0.00     0.053 C 
BRANCH  14  15
ATOM     15  C   UNL     1      59.882  29.507  11.935  1.00  0.00     0.041 C 
ATOM     16  O   UNL     1      59.289  28.401  11.837  1.00  0.00    -0.550 OA
ATOM     17  O   UNL     1      60.254  30.191  10.784  1.00  0.00    -0.550 OA
ENDBRANCH  14  15
ENDBRANCH  13  14
ENDBRANCH  12  13
ENDBRANCH  11  12
ENDBRANCH  10  11
ENDBRANCH   9  10
ENDBRANCH   8   9
ENDBRANCH   7   8
ENDBRANCH   6   7
ENDBRANCH   5   6
ENDBRANCH   4   5
ENDBRANCH   3   4
ENDBRANCH   2   3
ENDBRANCH   1   2
BRANCH   1  18
ATOM     18  C   UNL     1      66.746  29.608  23.965  1.00  0.00     0.000 C 
BRANCH  18  19
ATOM     19  C   UNL     1      66.839  30.020  25.445  1.00  0.00     0.000 C 
BRANCH  19  20
ATOM     20  C   UNL     1      65.814  29.344  26.372  1.00  0.00     0.000 C 
BRANCH  20  21
ATOM     21  C   UNL     1      64.674  30.289  26.791  1.00  0.00     0.000 C 
BRANCH  21  22
ATOM     22  C   UNL     1      64.156  29.988  28.208  1.00  0.00     0.000 C 
BRANCH  22  23
ATOM     23  C   UNL     1      62.711  30.479  28.413  1.00  0.00     0.000 C 
BRANCH  23  24
ATOM     24  C   UNL     1      61.681  29.345  28.288  1.00  0.00    -0.000 C 
BRANCH  24  25
ATOM     25  C   UNL     1      62.332  27.951  28.246  1.00  0.00    -0.000 C 
BRANCH  25  26
ATOM     26  C   UNL     1      61.846  27.119  27.040  1.00  0.00    -0.000 C 
BRANCH  26  27
ATOM     27  C   UNL     1      60.847  27.865  26.139  1.00  0.00    -0.000 C 
BRANCH  27  28
ATOM     28  C   UNL     1      61.268  27.873  24.662  1.00  0.00    -0.000 C 
BRANCH  28  29
ATOM     29  C   UNL     1      62.717  28.352  24.505  1.00  0.00    -0.000 C 
BRANCH  29  30
ATOM     30  C   UNL     1      63.400  27.656  23.323  1.00  0.00    -0.000 C 
BRANCH  30  31
ATOM     31  C   UNL     1      63.857  26.244  23.704  1.00  0.00    -0.003 C 
ATOM     32  C   UNL     1      64.884  26.284  24.831  1.00  0.00     0.004 C 
ENDBRANCH  30  31
ENDBRANCH  29  30
ENDBRANCH  28  29
ENDBRANCH  27  28
ENDBRANCH  26  27
ENDBRANCH  25  26
ENDBRANCH  24  25
ENDBRANCH  23  24
ENDBRANCH  22  23
ENDBRANCH  21  22
ENDBRANCH  20  21
ENDBRANCH  19  20
ENDBRANCH  18  19
ENDBRANCH   1  18
TORSDOF 28
ENDMDL
MODEL 5
REMARK VINA RESULT:    -4.655      1.200      2.797
REMARK INTER + INTRA:         -15.837
REMARK INTER:                 -12.675
REMARK INTRA:                  -3.162
REMARK UNBOUND:                -3.563
REMARK SMILES CCCCCCCCCCCCCCCCCCCCCCCCCCCCCC(=O)[O-]
REMARK SMILES IDX 16 1 17 2 18 3 19 4 20 5 21 6 22 7 23 8 24 9 25 10 26 11
REMARK SMILES IDX 27 12 28 13 29 14 30 15 31 16 32 17 15 18 14 19 13 20 12 21
REMARK SMILES IDX 11 22 10 23 9 24 8 25 7 26 6 27 5 28 4 29 3 30 2 31 1 32
REMARK H PARENT
REMARK Flexibility Score: inf
ROOT
ATOM      1  C   UNL     1      64.124  32.432  22.976  1.00  0.00     0.000 C 
ENDROOT
BRANCH   1   2
ATOM      2  C   UNL     1      64.981  33.078  21.877  1.00  0.00     0.000 C 
BRANCH   2   3
ATOM      3  C   UNL     1      64.149  33.876  20.858  1.00  0.00     0.000 C 
BRANCH   3   4
ATOM      4  C   UNL     1      64.789  34.015  19.464  1.00  0.00     0.000 C 
BRANCH   4   5
ATOM      5  C   UNL     1      63.766  34.134  18.313  1.00  0.00     0.000 C 
BRANCH   5   6
ATOM      6  C   UNL     1      62.325  33.867  18.780  1.00  0.00     0.000 C 
BRANCH   6   7
ATOM      7  C   UNL     1      61.287  34.049  17.659  1.00  0.00     0.000 C 
BRANCH   7   8
ATOM      8  C   UNL     1      61.685  33.367  16.334  1.00  0.00     0.000 C 
BRANCH   8   9
ATOM      9  C   UNL     1      60.593  33.509  15.263  1.00  0.00     0.000 C 
BRANCH   9  10
ATOM     10  C   UNL     1      60.403  32.198  14.492  1.00  0.00     0.000 C 
BRANCH  10  11
ATOM     11  C   UNL     1      61.618  31.910  13.599  1.00  0.00     0.000 C 
BRANCH  11  12
ATOM     12  C   UNL     1      62.308  30.578  13.936  1.00  0.00     0.000 C 
BRANCH  12  13
ATOM     13  C   UNL     1      61.993  29.413  12.978  1.00  0.00     0.006 C 
BRANCH  13  14
ATOM     14  C   UNL     1      60.834  28.512  13.444  1.00  0.00     0.053 C 
BRANCH  14  15
ATOM     15  C   UNL     1      59.616  28.652  12.578  1.00  0.00     0.041 C 
ATOM     16  O   UNL     1      59.593  29.498  11.646  1.00  0.00    -0.550 OA
ATOM     17  O   UNL     1      58.518  27.824  12.779  1.00  0.00    -0.550 OA
ENDBRANCH  14  15
ENDBRANCH  13  14
ENDBRANCH  12  13
ENDBRANCH  11  12
ENDBRANCH  10  11
ENDBRANCH   9  10
ENDBRANCH   8   9
ENDBRANCH   7   8
ENDBRANCH   6   7
ENDBRANCH   5   6
ENDBRANCH   4   5
ENDBRANCH   3   4
ENDBRANCH   2   3
ENDBRANCH   1   2
BRANCH   1  18
ATOM     18  C   UNL     1      64.568  30.984  23.237  1.00  0.00     0.000 C 
BRANCH  18  19
ATOM     19  C   UNL     1      66.092  30.798  23.143  1.00  0.00     0.000 C 
BRANCH  19  20
ATOM     20  C   UNL     1      66.669  29.703  24.058  1.00  0.00     0.000 C 
BRANCH  20  21
ATOM     21  C   UNL     1      66.663  30.104  25.544  1.00  0.00     0.000 C 
BRANCH  21  22
ATOM     22  C   UNL     1      65.624  29.315  26.358  1.00  0.00     0.000 C 
BRANCH  22  23
ATOM     23  C   UNL     1      64.725  30.238  27.200  1.00  0.00     0.000 C 
BRANCH  23  24
ATOM     24  C   UNL     1      63.336  30.440  26.574  1.00  0.00    -0.000 C 
BRANCH  24  25
ATOM     25  C   UNL     1      62.483  29.160  26.593  1.00  0.00    -0.000 C 
BRANCH  25  26
ATOM     26  C   UNL     1      61.882  28.842  25.207  1.00  0.00    -0.000 C 
BRANCH  26  27
ATOM     27  C   UNL     1      62.845  28.089  24.274  1.00  0.00    -0.000 C 
BRANCH  27  28
ATOM     28  C   UNL     1      62.764  26.565  24.437  1.00  0.00    -0.000 C 
BRANCH  28  29
ATOM     29  C   UNL     1      63.956  26.032  25.240  1.00  0.00    -0.000 C 
BRANCH  29  30
ATOM     30  C   UNL     1      65.280  26.354  24.538  1.00  0.00    -0.000 C 
BRANCH  30  31
ATOM     31  C   UNL     1      65.359  25.666  23.171  1.00  0.00    -0.003 C 
ATOM     32  C   UNL     1      65.805  26.643  22.088  1.00  0.00     0.004 C 
ENDBRANCH  30  31
ENDBRANCH  29  30
ENDBRANCH  28  29
ENDBRANCH  27  28
ENDBRANCH  26  27
ENDBRANCH  25  26
ENDBRANCH  24  25
ENDBRANCH  23  24
ENDBRANCH  22  23
ENDBRANCH  21  22
ENDBRANCH  20  21
ENDBRANCH  19  20
ENDBRANCH  18  19
ENDBRANCH   1  18
TORSDOF 28
ENDMDL
MODEL 6
REMARK VINA RESULT:    -4.598      2.671      9.480
REMARK INTER + INTRA:         -15.687
REMARK INTER:                 -12.590
REMARK INTRA:                  -3.097
REMARK UNBOUND:                -3.563
REMARK SMILES CCCCCCCCCCCCCCCCCCCCCCCCCCCCCC(=O)[O-]
REMARK SMILES IDX 16 1 17 2 18 3 19 4 20 5 21 6 22 7 23 8 24 9 25 10 26 11
REMARK SMILES IDX 27 12 28 13 29 14 30 15 31 16 32 17 15 18 14 19 13 20 12 21
REMARK SMILES IDX 11 22 10 23 9 24 8 25 7 26 6 27 5 28 4 29 3 30 2 31 1 32
REMARK H PARENT
REMARK Flexibility Score: inf
ROOT
ATOM      1  C   UNL     1      65.652  30.425  23.201  1.00  0.00     0.000 C 
ENDROOT
BRANCH   1   2
ATOM      2  C   UNL     1      67.021  30.034  23.778  1.00  0.00     0.000 C 
BRANCH   2   3
ATOM      3  C   UNL     1      66.996  29.831  25.302  1.00  0.00     0.000 C 
BRANCH   3   4
ATOM      4  C   UNL     1      65.771  29.064  25.835  1.00  0.00     0.000 C 
BRANCH   4   5
ATOM      5  C   UNL     1      65.092  29.733  27.050  1.00  0.00     0.000 C 
BRANCH   5   6
ATOM      6  C   UNL     1      63.560  29.768  26.921  1.00  0.00     0.000 C 
BRANCH   6   7
ATOM      7  C   UNL     1      63.084  30.125  25.502  1.00  0.00     0.000 C 
BRANCH   7   8
ATOM      8  C   UNL     1      61.876  29.291  25.029  1.00  0.00     0.000 C 
BRANCH   8   9
ATOM      9  C   UNL     1      62.291  28.184  24.049  1.00  0.00     0.000 C 
BRANCH   9  10
ATOM     10  C   UNL     1      62.590  26.876  24.789  1.00  0.00     0.000 C 
BRANCH  10  11
ATOM     11  C   UNL     1      63.978  26.339  24.410  1.00  0.00     0.000 C 
BRANCH  11  12
ATOM     12  C   UNL     1      64.388  26.696  22.972  1.00  0.00     0.000 C 
BRANCH  12  13
ATOM     13  C   UNL     1      65.905  26.705  22.704  1.00  0.00     0.006 C 
BRANCH  13  14
ATOM     14  C   UNL     1      66.317  26.004  21.396  1.00  0.00     0.053 C 
BRANCH  14  15
ATOM     15  C   UNL     1      66.430  26.960  20.245  1.00  0.00     0.041 C 
ATOM     16  O   UNL     1      66.670  28.179  20.453  1.00  0.00    -0.550 OA
ATOM     17  O   UNL     1      66.303  26.500  18.940  1.00  0.00    -0.550 OA
ENDBRANCH  14  15
ENDBRANCH  13  14
ENDBRANCH  12  13
ENDBRANCH  11  12
ENDBRANCH  10  11
ENDBRANCH   9  10
ENDBRANCH   8   9
ENDBRANCH   7   8
ENDBRANCH   6   7
ENDBRANCH   5   6
ENDBRANCH   4   5
ENDBRANCH   3   4
ENDBRANCH   2   3
ENDBRANCH   1   2
BRANCH   1  18
ATOM     18  C   UNL     1      65.672  31.867  22.670  1.00  0.00     0.000 C 
BRANCH  18  19
ATOM     19  C   UNL     1      67.031  32.266  22.070  1.00  0.00     0.000 C 
BRANCH  19  20
ATOM     20  C   UNL     1      66.951  33.168  20.826  1.00  0.00     0.000 C 
BRANCH  20  21
ATOM     21  C   UNL     1      65.585  33.862  20.680  1.00  0.00     0.000 C 
BRANCH  21  22
ATOM     22  C   UNL     1      65.676  35.168  19.872  1.00  0.00     0.000 C 
BRANCH  22  23
ATOM     23  C   UNL     1      64.872  35.095  18.561  1.00  0.00     0.000 C 
BRANCH  23  24
ATOM     24  C   UNL     1      64.100  33.774  18.415  1.00  0.00    -0.000 C 
BRANCH  24  25
ATOM     25  C   UNL     1      63.210  33.740  17.160  1.00  0.00    -0.000 C 
BRANCH  25  26
ATOM     26  C   UNL     1      61.767  34.201  17.459  1.00  0.00    -0.000 C 
BRANCH  26  27
ATOM     27  C   UNL     1      60.850  34.197  16.225  1.00  0.00    -0.000 C 
BRANCH  27  28
ATOM     28  C   UNL     1      61.296  33.191  15.154  1.00  0.00    -0.000 C 
BRANCH  28  29
ATOM     29  C   UNL     1      60.091  32.635  14.385  1.00  0.00    -0.000 C 
BRANCH  29  30
ATOM     30  C   UNL     1      60.458  32.343  12.926  1.00  0.00    -0.000 C 
BRANCH  30  31
ATOM     31  C   UNL     1      60.102  30.902  12.546  1.00  0.00    -0.003 C 
ATOM     32  C   UNL     1      60.909  29.901  13.367  1.00  0.00     0.004 C 
ENDBRANCH  30  31
ENDBRANCH  29  30
ENDBRANCH  28  29
ENDBRANCH  27  28
ENDBRANCH  26  27
ENDBRANCH  25  26
ENDBRANCH  24  25
ENDBRANCH  23  24
ENDBRANCH  22  23
ENDBRANCH  21  22
ENDBRANCH  20  21
ENDBRANCH  19  20
ENDBRANCH  18  19
ENDBRANCH   1  18
TORSDOF 28
ENDMDL
MODEL 7
REMARK VINA RESULT:    -4.545      4.034     11.880
REMARK INTER + INTRA:         -15.547
REMARK INTER:                 -13.141
REMARK INTRA:                  -2.406
REMARK UNBOUND:                -3.563
REMARK SMILES CCCCCCCCCCCCCCCCCCCCCCCCCCCCCC(=O)[O-]
REMARK SMILES IDX 16 1 17 2 18 3 19 4 20 5 21 6 22 7 23 8 24 9 25 10 26 11
REMARK SMILES IDX 27 12 28 13 29 14 30 15 31 16 32 17 15 18 14 19 13 20 12 21
REMARK SMILES IDX 11 22 10 23 9 24 8 25 7 26 6 27 5 28 4 29 3 30 2 31 1 32
REMARK H PARENT
REMARK Flexibility Score: inf
ROOT
ATOM      1  C   UNL     1      63.650  33.829  15.930  1.00  0.00     0.000 C 
ENDROOT
BRANCH   1   2
ATOM      2  C   UNL     1      64.553  33.173  16.986  1.00  0.00     0.000 C 
BRANCH   2   3
ATOM      3  C   UNL     1      64.387  33.789  18.385  1.00  0.00     0.000 C 
BRANCH   3   4
ATOM      4  C   UNL     1      65.703  34.038  19.146  1.00  0.00     0.000 C 
BRANCH   4   5
ATOM      5  C   UNL     1      65.620  33.737  20.659  1.00  0.00     0.000 C 
BRANCH   5   6
ATOM      6  C   UNL     1      66.778  32.851  21.146  1.00  0.00     0.000 C 
BRANCH   6   7
ATOM      7  C   UNL     1      66.409  31.999  22.373  1.00  0.00     0.000 C 
BRANCH   7   8
ATOM      8  C   UNL     1      66.817  30.518  22.241  1.00  0.00     0.000 C 
BRANCH   8   9
ATOM      9  C   UNL     1      65.822  29.582  22.943  1.00  0.00     0.000 C 
BRANCH   9  10
ATOM     10  C   UNL     1      66.551  28.571  23.834  1.00  0.00     0.000 C 
BRANCH  10  11
ATOM     11  C   UNL     1      65.552  27.759  24.669  1.00  0.00     0.000 C 
BRANCH  11  12
ATOM     12  C   UNL     1      65.253  26.374  24.070  1.00  0.00     0.000 C 
BRANCH  12  13
ATOM     13  C   UNL     1      63.848  25.817  24.372  1.00  0.00     0.006 C 
BRANCH  13  14
ATOM     14  C   UNL     1      63.214  26.376  25.659  1.00  0.00     0.053 C 
BRANCH  14  15
ATOM     15  C   UNL     1      61.960  27.154  25.387  1.00  0.00     0.041 C 
ATOM     16  O   UNL     1      61.857  27.848  24.342  1.00  0.00    -0.550 OA
ATOM     17  O   UNL     1      60.891  27.087  26.272  1.00  0.00    -0.550 OA
ENDBRANCH  14  15
ENDBRANCH  13  14
ENDBRANCH  12  13
ENDBRANCH  11  12
ENDBRANCH  10  11
ENDBRANCH   9  10
ENDBRANCH   8   9
ENDBRANCH   7   8
ENDBRANCH   6   7
ENDBRANCH   5   6
ENDBRANCH   4   5
ENDBRANCH   3   4
ENDBRANCH   2   3
ENDBRANCH   1   2
BRANCH   1  18
ATOM     18  C   UNL     1      64.351  33.879  14.564  1.00  0.00     0.000 C 
BRANCH  18  19
ATOM     19  C   UNL     1      64.252  32.553  13.789  1.00  0.00     0.000 C 
BRANCH  19  20
ATOM     20  C   UNL     1      64.140  32.702  12.262  1.00  0.00     0.000 C 
BRANCH  20  21
ATOM     21  C   UNL     1      63.611  31.430  11.576  1.00  0.00     0.000 C 
BRANCH  21  22
ATOM     22  C   UNL     1      64.159  31.265  10.148  1.00  0.00     0.000 C 
BRANCH  22  23
ATOM     23  C   UNL     1      63.527  30.066   9.419  1.00  0.00     0.000 C 
BRANCH  23  24
ATOM     24  C   UNL     1      62.984  29.006  10.390  1.00  0.00    -0.000 C 
BRANCH  24  25
ATOM     25  C   UNL     1      61.534  28.598  10.076  1.00  0.00    -0.000 C 
BRANCH  25  26
ATOM     26  C   UNL     1      60.701  28.383  11.358  1.00  0.00    -0.000 C 
BRANCH  26  27
ATOM     27  C   UNL     1      61.513  28.537  12.655  1.00  0.00    -0.000 C 
BRANCH  27  28
ATOM     28  C   UNL     1      60.956  29.628  13.581  1.00  0.00    -0.000 C 
BRANCH  28  29
ATOM     29  C   UNL     1      60.153  30.666  12.787  1.00  0.00    -0.000 C 
BRANCH  29  30
ATOM     30  C   UNL     1      59.595  31.753  13.713  1.00  0.00    -0.000 C 
BRANCH  30  31
ATOM     31  C   UNL     1      60.540  32.957  13.781  1.00  0.00    -0.003 C 
ATOM     32  C   UNL     1      60.317  33.760  15.059  1.00  0.00     0.004 C 
ENDBRANCH  30  31
ENDBRANCH  29  30
ENDBRANCH  28  29
ENDBRANCH  27  28
ENDBRANCH  26  27
ENDBRANCH  25  26
ENDBRANCH  24  25
ENDBRANCH  23  24
ENDBRANCH  22  23
ENDBRANCH  21  22
ENDBRANCH  20  21
ENDBRANCH  19  20
ENDBRANCH  18  19
ENDBRANCH   1  18
TORSDOF 28
ENDMDL
MODEL 8
REMARK VINA RESULT:    -4.541      3.766     10.973
REMARK INTER + INTRA:         -15.537
REMARK INTER:                 -11.871
REMARK INTRA:                  -3.666
REMARK UNBOUND:                -3.563
REMARK SMILES CCCCCCCCCCCCCCCCCCCCCCCCCCCCCC(=O)[O-]
REMARK SMILES IDX 16 1 17 2 18 3 19 4 20 5 21 6 22 7 23 8 24 9 25 10 26 11
REMARK SMILES IDX 27 12 28 13 29 14 30 15 31 16 32 17 15 18 14 19 13 20 12 21
REMARK SMILES IDX 11 22 10 23 9 24 8 25 7 26 6 27 5 28 4 29 3 30 2 31 1 32
REMARK H PARENT
REMARK Flexibility Score: inf
ROOT
ATOM      1  C   UNL     1      61.637  33.480  16.925  1.00  0.00     0.000 C 
ENDROOT
BRANCH   1   2
ATOM      2  C   UNL     1      61.285  33.901  18.360  1.00  0.00     0.000 C 
BRANCH   2   3
ATOM      3  C   UNL     1      62.482  33.817  19.322  1.00  0.00     0.000 C 
BRANCH   3   4
ATOM      4  C   UNL     1      63.864  33.796  18.639  1.00  0.00     0.000 C 
BRANCH   4   5
ATOM      5  C   UNL     1      64.977  34.490  19.455  1.00  0.00     0.000 C 
BRANCH   5   6
ATOM      6  C   UNL     1      65.205  33.823  20.822  1.00  0.00     0.000 C 
BRANCH   6   7
ATOM      7  C   UNL     1      66.534  33.051  20.900  1.00  0.00     0.000 C 
BRANCH   7   8
ATOM      8  C   UNL     1      66.745  32.321  22.242  1.00  0.00     0.000 C 
BRANCH   8   9
ATOM      9  C   UNL     1      66.768  30.795  22.071  1.00  0.00     0.000 C 
BRANCH   9  10
ATOM     10  C   UNL     1      65.743  30.122  22.989  1.00  0.00     0.000 C 
BRANCH  10  11
ATOM     11  C   UNL     1      66.274  28.778  23.506  1.00  0.00     0.000 C 
BRANCH  11  12
ATOM     12  C   UNL     1      65.994  28.557  25.002  1.00  0.00     0.000 C 
BRANCH  12  13
ATOM     13  C   UNL     1      64.976  27.445  25.323  1.00  0.00     0.006 C 
BRANCH  13  14
ATOM     14  C   UNL     1      63.977  27.161  24.185  1.00  0.00     0.053 C 
BRANCH  14  15
ATOM     15  C   UNL     1      62.595  27.655  24.500  1.00  0.00     0.041 C 
ATOM     16  O   UNL     1      62.204  28.770  24.066  1.00  0.00    -0.550 OA
ATOM     17  O   UNL     1      61.726  26.867  25.247  1.00  0.00    -0.550 OA
ENDBRANCH  14  15
ENDBRANCH  13  14
ENDBRANCH  12  13
ENDBRANCH  11  12
ENDBRANCH  10  11
ENDBRANCH   9  10
ENDBRANCH   8   9
ENDBRANCH   7   8
ENDBRANCH   6   7
ENDBRANCH   5   6
ENDBRANCH   4   5
ENDBRANCH   3   4
ENDBRANCH   2   3
ENDBRANCH   1   2
BRANCH   1  18
ATOM     18  C   UNL     1      60.741  34.202  15.907  1.00  0.00     0.000 C 
BRANCH  18  19
ATOM     19  C   UNL     1      60.404  33.334  14.682  1.00  0.00     0.000 C 
BRANCH  19  20
ATOM     20  C   UNL     1      60.016  31.880  15.005  1.00  0.00     0.000 C 
BRANCH  20  21
ATOM     21  C   UNL     1      59.612  31.079  13.755  1.00  0.00     0.000 C 
BRANCH  21  22
ATOM     22  C   UNL     1      60.304  31.594  12.481  1.00  0.00     0.000 C 
BRANCH  22  23
ATOM     23  C   UNL     1      60.415  30.504  11.401  1.00  0.00     0.000 C 
BRANCH  23  24
ATOM     24  C   UNL     1      61.874  30.157  11.062  1.00  0.00    -0.000 C 
BRANCH  24  25
ATOM     25  C   UNL     1      62.261  28.730  11.490  1.00  0.00    -0.000 C 
BRANCH  25  26
ATOM     26  C   UNL     1      62.412  28.604  13.021  1.00  0.00    -0.000 C 
BRANCH  26  27
ATOM     27  C   UNL     1      63.559  29.450  13.600  1.00  0.00    -0.000 C 
BRANCH  27  28
ATOM     28  C   UNL     1      63.137  30.263  14.832  1.00  0.00    -0.000 C 
BRANCH  28  29
ATOM     29  C   UNL     1      63.834  31.629  14.856  1.00  0.00    -0.000 C 
BRANCH  29  30
ATOM     30  C   UNL     1      63.803  32.286  13.472  1.00  0.00    -0.000 C 
BRANCH  30  31
ATOM     31  C   UNL     1      64.403  33.695  13.519  1.00  0.00    -0.003 C 
ATOM     32  C   UNL     1      64.675  34.130  14.956  1.00  0.00     0.004 C 
ENDBRANCH  30  31
ENDBRANCH  29  30
ENDBRANCH  28  29
ENDBRANCH  27  28
ENDBRANCH  26  27
ENDBRANCH  25  26
ENDBRANCH  24  25
ENDBRANCH  23  24
ENDBRANCH  22  23
ENDBRANCH  21  22
ENDBRANCH  20  21
ENDBRANCH  19  20
ENDBRANCH  18  19
ENDBRANCH   1  18
TORSDOF 28
ENDMDL
MODEL 9
REMARK VINA RESULT:    -4.421      1.437      3.522
REMARK INTER + INTRA:         -15.220
REMARK INTER:                 -12.217
REMARK INTRA:                  -3.003
REMARK UNBOUND:                -3.563
REMARK SMILES CCCCCCCCCCCCCCCCCCCCCCCCCCCCCC(=O)[O-]
REMARK SMILES IDX 16 1 17 2 18 3 19 4 20 5 21 6 22 7 23 8 24 9 25 10 26 11
REMARK SMILES IDX 27 12 28 13 29 14 30 15 31 16 32 17 15 18 14 19 13 20 12 21
REMARK SMILES IDX 11 22 10 23 9 24 8 25 7 26 6 27 5 28 4 29 3 30 2 31 1 32
REMARK H PARENT
REMARK Flexibility Score: inf
ROOT
ATOM      1  C   UNL     1      66.484  32.795  21.017  1.00  0.00     0.000 C 
ENDROOT
BRANCH   1   2
ATOM      2  C   UNL     1      65.295  33.752  20.833  1.00  0.00     0.000 C 
BRANCH   2   3
ATOM      3  C   UNL     1      65.628  34.961  19.943  1.00  0.00     0.000 C 
BRANCH   3   4
ATOM      4  C   UNL     1      65.098  34.870  18.499  1.00  0.00     0.000 C 
BRANCH   4   5
ATOM      5  C   UNL     1      63.945  33.858  18.318  1.00  0.00     0.000 C 
BRANCH   5   6
ATOM      6  C   UNL     1      64.004  33.139  16.960  1.00  0.00     0.000 C 
BRANCH   6   7
ATOM      7  C   UNL     1      63.194  33.854  15.864  1.00  0.00     0.000 C 
BRANCH   7   8
ATOM      8  C   UNL     1      62.614  32.898  14.803  1.00  0.00     0.000 C 
BRANCH   8   9
ATOM      9  C   UNL     1      61.122  32.615  15.037  1.00  0.00     0.000 C 
BRANCH   9  10
ATOM     10  C   UNL     1      60.791  31.143  14.770  1.00  0.00     0.000 C 
BRANCH  10  11
ATOM     11  C   UNL     1      62.051  30.272  14.877  1.00  0.00     0.000 C 
BRANCH  11  12
ATOM     12  C   UNL     1      62.151  29.220  13.759  1.00  0.00     0.000 C 
BRANCH  12  13
ATOM     13  C   UNL     1      61.982  29.765  12.328  1.00  0.00     0.006 C 
BRANCH  13  14
ATOM     14  C   UNL     1      61.481  28.720  11.313  1.00  0.00     0.053 C 
BRANCH  14  15
ATOM     15  C   UNL     1      59.983  28.654  11.252  1.00  0.00     0.041 C 
ATOM     16  O   UNL     1      59.304  28.637  12.312  1.00  0.00    -0.550 OA
ATOM     17  O   UNL     1      59.335  28.646  10.023  1.00  0.00    -0.550 OA
ENDBRANCH  14  15
ENDBRANCH  13  14
ENDBRANCH  12  13
ENDBRANCH  11  12
ENDBRANCH  10  11
ENDBRANCH   9  10
ENDBRANCH   8   9
ENDBRANCH   7   8
ENDBRANCH   6   7
ENDBRANCH   5   6
ENDBRANCH   4   5
ENDBRANCH   3   4
ENDBRANCH   2   3
ENDBRANCH   1   2
BRANCH   1  18
ATOM     18  C   UNL     1      66.400  32.072  22.370  1.00  0.00     0.000 C 
BRANCH  18  19
ATOM     19  C   UNL     1      66.756  30.578  22.274  1.00  0.00     0.000 C 
BRANCH  19  20
ATOM     20  C   UNL     1      65.758  29.629  22.961  1.00  0.00     0.000 C 
BRANCH  20  21
ATOM     21  C   UNL     1      64.760  30.368  23.869  1.00  0.00     0.000 C 
BRANCH  21  22
ATOM     22  C   UNL     1      65.003  30.083  25.361  1.00  0.00     0.000 C 
BRANCH  22  23
ATOM     23  C   UNL     1      63.789  30.459  26.229  1.00  0.00     0.000 C 
BRANCH  23  24
ATOM     24  C   UNL     1      63.787  29.736  27.585  1.00  0.00    -0.000 C 
BRANCH  24  25
ATOM     25  C   UNL     1      62.378  29.307  28.028  1.00  0.00    -0.000 C 
BRANCH  25  26
ATOM     26  C   UNL     1      62.036  27.872  27.570  1.00  0.00    -0.000 C 
BRANCH  26  27
ATOM     27  C   UNL     1      60.792  27.791  26.670  1.00  0.00    -0.000 C 
BRANCH  27  28
ATOM     28  C   UNL     1      61.070  27.095  25.330  1.00  0.00    -0.000 C 
BRANCH  28  29
ATOM     29  C   UNL     1      61.902  27.992  24.405  1.00  0.00    -0.000 C 
BRANCH  29  30
ATOM     30  C   UNL     1      62.998  27.187  23.699  1.00  0.00    -0.000 C 
BRANCH  30  31
ATOM     31  C   UNL     1      63.488  26.032  24.581  1.00  0.00    -0.003 C 
ATOM     32  C   UNL     1      64.773  26.407  25.313  1.00  0.00     0.004 C 
ENDBRANCH  30  31
ENDBRANCH  29  30
ENDBRANCH  28  29
ENDBRANCH  27  28
ENDBRANCH  26  27
ENDBRANCH  25  26
ENDBRANCH  24  25
ENDBRANCH  23  24
ENDBRANCH  22  23
ENDBRANCH  21  22
ENDBRANCH  20  21
ENDBRANCH  19  20
ENDBRANCH  18  19
ENDBRANCH   1  18
TORSDOF 28
ENDMDL
