MODEL 1
REMARK VINA RESULT:    -5.560      0.000      0.000
REMARK INTER + INTRA:         -17.396
REMARK INTER:                 -14.660
REMARK INTRA:                  -2.736
REMARK UNBOUND:                -2.736
REMARK SMILES CCCCCCCCCCCCCCCCCCCCCCCCCCCCCC(=O)[O-]
REMARK SMILES IDX 16 1 17 2 18 3 19 4 20 5 21 6 22 7 23 8 24 9 25 10 26 11
REMARK SMILES IDX 27 12 28 13 29 14 30 15 31 16 32 17 15 18 14 19 13 20 12 21
REMARK SMILES IDX 11 22 10 23 9 24 8 25 7 26 6 27 5 28 4 29 3 30 2 31 1 32
REMARK H PARENT
REMARK Flexibility Score: inf
ROOT
ATOM      1  C   UNL     1     -18.549  25.109   1.392  1.00  0.00     0.000 C 
ENDROOT
BRANCH   1   2
ATOM      2  C   UNL     1     -19.323  24.625   0.153  1.00  0.00     0.000 C 
BRANCH   2   3
ATOM      3  C   UNL     1     -18.432  23.991  -0.937  1.00  0.00     0.000 C 
BRANCH   3   4
ATOM      4  C   UNL     1     -19.225  23.082  -1.895  1.00  0.00     0.000 C 
BRANCH   4   5
ATOM      5  C   UNL     1     -20.594  22.672  -1.330  1.00  0.00     0.000 C 
BRANCH   5   6
ATOM      6  C   UNL     1     -20.587  21.263  -0.712  1.00  0.00     0.000 C 
BRANCH   6   7
ATOM      7  C   UNL     1     -20.986  21.274   0.774  1.00  0.00     0.000 C 
BRANCH   7   8
ATOM      8  C   UNL     1     -22.232  22.135   1.044  1.00  0.00     0.000 C 
BRANCH   8   9
ATOM      9  C   UNL     1     -23.536  21.469   0.565  1.00  0.00     0.000 C 
BRANCH   9  10
ATOM     10  C   UNL     1     -24.467  22.380  -0.255  1.00  0.00     0.000 C 
BRANCH  10  11
ATOM     11  C   UNL     1     -25.933  21.919  -0.226  1.00  0.00     0.000 C 
BRANCH  11  12
ATOM     12  C   UNL     1     -26.673  22.350  -1.496  1.00  0.00     0.000 C 
BRANCH  12  13
ATOM     13  C   UNL     1     -26.088  23.657  -2.054  1.00  0.00     0.006 C 
BRANCH  13  14
ATOM     14  C   UNL     1     -26.478  23.893  -3.519  1.00  0.00     0.053 C 
BRANCH  14  15
ATOM     15  C   UNL     1     -25.389  24.576  -4.291  1.00  0.00     0.041 C 
ATOM     16  O   UNL     1     -25.199  25.814  -4.157  1.00  0.00    -0.550 OA
ATOM     17  O   UNL     1     -24.589  23.846  -5.162  1.00  0.00    -0.550 OA
ENDBRANCH  14  15
ENDBRANCH  13  14
ENDBRANCH  12  13
ENDBRANCH  11  12
ENDBRANCH  10  11
ENDBRANCH   9  10
ENDBRANCH   8   9
ENDBRANCH   7   8
ENDBRANCH   6   7
ENDBRANCH   5   6
ENDBRANCH   4   5
ENDBRANCH   3   4
ENDBRANCH   2   3
ENDBRANCH   1   2
BRANCH   1  18
ATOM     18  C   UNL     1     -17.096  25.506   1.080  1.00  0.00     0.000 C 
BRANCH  18  19
ATOM     19  C   UNL     1     -16.875  27.025   1.154  1.00  0.00     0.000 C 
BRANCH  19  20
ATOM     20  C   UNL     1     -16.478  27.628  -0.205  1.00  0.00     0.000 C 
BRANCH  20  21
ATOM     21  C   UNL     1     -17.195  28.958  -0.490  1.00  0.00     0.000 C 
BRANCH  21  22
ATOM     22  C   UNL     1     -18.457  28.775  -1.345  1.00  0.00     0.000 C 
BRANCH  22  23
ATOM     23  C   UNL     1     -19.137  30.122  -1.620  1.00  0.00     0.000 C 
BRANCH  23  24
ATOM     24  C   UNL     1     -18.092  31.228  -1.828  1.00  0.00    -0.000 C 
BRANCH  24  25
ATOM     25  C   UNL     1     -18.217  32.372  -0.805  1.00  0.00    -0.000 C 
BRANCH  25  26
ATOM     26  C   UNL     1     -16.975  33.278  -0.683  1.00  0.00    -0.000 C 
BRANCH  26  27
ATOM     27  C   UNL     1     -16.281  33.253   0.691  1.00  0.00    -0.000 C 
BRANCH  27  28
ATOM     28  C   UNL     1     -16.645  32.014   1.522  1.00  0.00    -0.000 C 
BRANCH  28  29
ATOM     29  C   UNL     1     -15.581  30.915   1.366  1.00  0.00    -0.000 C 
BRANCH  29  30
ATOM     30  C   UNL     1     -15.164  30.304   2.720  1.00  0.00    -0.000 C 
BRANCH  30  31
ATOM     31  C   UNL     1     -16.345  29.748   3.535  1.00  0.00    -0.003 C 
ATOM     32  C   UNL     1     -16.017  29.563   5.016  1.00  0.00     0.004 C 
ENDBRANCH  30  31
ENDBRANCH  29  30
ENDBRANCH  28  29
ENDBRANCH  27  28
ENDBRANCH  26  27
ENDBRANCH  25  26
ENDBRANCH  24  25
ENDBRANCH  23  24
ENDBRANCH  22  23
ENDBRANCH  21  22
ENDBRANCH  20  21
ENDBRANCH  19  20
ENDBRANCH  18  19
ENDBRANCH   1  18
TORSDOF 28
ENDMDL
MODEL 2
REMARK VINA RESULT:    -5.481      3.438     11.153
REMARK INTER + INTRA:         -17.189
REMARK INTER:                 -14.882
REMARK INTRA:                  -2.306
REMARK UNBOUND:                -2.736
REMARK SMILES CCCCCCCCCCCCCCCCCCCCCCCCCCCCCC(=O)[O-]
REMARK SMILES IDX 16 1 17 2 18 3 19 4 20 5 21 6 22 7 23 8 24 9 25 10 26 11
REMARK SMILES IDX 27 12 28 13 29 14 30 15 31 16 32 17 15 18 14 19 13 20 12 21
REMARK SMILES IDX 11 22 10 23 9 24 8 25 7 26 6 27 5 28 4 29 3 30 2 31 1 32
REMARK H PARENT
REMARK Flexibility Score: inf
ROOT
ATOM      1  C   UNL     1     -16.731  25.966   1.376  1.00  0.00     0.000 C 
ENDROOT
BRANCH   1   2
ATOM      2  C   UNL     1     -16.586  27.496   1.287  1.00  0.00     0.000 C 
BRANCH   2   3
ATOM      3  C   UNL     1     -16.214  28.010  -0.121  1.00  0.00     0.000 C 
BRANCH   3   4
ATOM      4  C   UNL     1     -17.033  29.248  -0.534  1.00  0.00     0.000 C 
BRANCH   4   5
ATOM      5  C   UNL     1     -18.433  28.887  -1.056  1.00  0.00     0.000 C 
BRANCH   5   6
ATOM      6  C   UNL     1     -19.094  30.038  -1.835  1.00  0.00     0.000 C 
BRANCH   6   7
ATOM      7  C   UNL     1     -18.124  31.202  -2.097  1.00  0.00     0.000 C 
BRANCH   7   8
ATOM      8  C   UNL     1     -18.336  32.377  -1.126  1.00  0.00     0.000 C 
BRANCH   8   9
ATOM      9  C   UNL     1     -17.027  33.112  -0.781  1.00  0.00     0.000 C 
BRANCH   9  10
ATOM     10  C   UNL     1     -16.671  33.138   0.716  1.00  0.00     0.000 C 
BRANCH  10  11
ATOM     11  C   UNL     1     -15.997  31.842   1.194  1.00  0.00     0.000 C 
BRANCH  11  12
ATOM     12  C   UNL     1     -16.492  31.442   2.587  1.00  0.00     0.000 C 
BRANCH  12  13
ATOM     13  C   UNL     1     -15.663  30.278   3.150  1.00  0.00     0.006 C 
BRANCH  13  14
ATOM     14  C   UNL     1     -15.596  30.295   4.683  1.00  0.00     0.053 C 
BRANCH  14  15
ATOM     15  C   UNL     1     -16.943  30.513   5.305  1.00  0.00     0.041 C 
ATOM     16  O   UNL     1     -17.808  29.598   5.280  1.00  0.00    -0.550 OA
ATOM     17  O   UNL     1     -17.243  31.730   5.906  1.00  0.00    -0.550 OA
ENDBRANCH  14  15
ENDBRANCH  13  14
ENDBRANCH  12  13
ENDBRANCH  11  12
ENDBRANCH  10  11
ENDBRANCH   9  10
ENDBRANCH   8   9
ENDBRANCH   7   8
ENDBRANCH   6   7
ENDBRANCH   5   6
ENDBRANCH   4   5
ENDBRANCH   3   4
ENDBRANCH   2   3
ENDBRANCH   1   2
BRANCH   1  18
ATOM     18  C   UNL     1     -17.463  25.356   0.168  1.00  0.00     0.000 C 
BRANCH  18  19
ATOM     19  C   UNL     1     -18.967  25.175   0.424  1.00  0.00     0.000 C 
BRANCH  19  20
ATOM     20  C   UNL     1     -19.353  23.701   0.643  1.00  0.00     0.000 C 
BRANCH  20  21
ATOM     21  C   UNL     1     -19.145  22.845  -0.618  1.00  0.00     0.000 C 
BRANCH  21  22
ATOM     22  C   UNL     1     -20.453  22.600  -1.385  1.00  0.00     0.000 C 
BRANCH  22  23
ATOM     23  C   UNL     1     -21.222  21.411  -0.799  1.00  0.00     0.000 C 
BRANCH  23  24
ATOM     24  C   UNL     1     -22.142  21.866   0.343  1.00  0.00    -0.000 C 
BRANCH  24  25
ATOM     25  C   UNL     1     -23.019  23.073  -0.037  1.00  0.00    -0.000 C 
BRANCH  25  26
ATOM     26  C   UNL     1     -24.508  22.751  -0.275  1.00  0.00    -0.000 C 
BRANCH  26  27
ATOM     27  C   UNL     1     -25.190  23.587  -1.373  1.00  0.00    -0.000 C 
BRANCH  27  28
ATOM     28  C   UNL     1     -26.342  22.841  -2.063  1.00  0.00    -0.000 C 
BRANCH  28  29
ATOM     29  C   UNL     1     -26.919  23.671  -3.221  1.00  0.00    -0.000 C 
BRANCH  29  30
ATOM     30  C   UNL     1     -26.442  23.167  -4.599  1.00  0.00    -0.000 C 
BRANCH  30  31
ATOM     31  C   UNL     1     -25.286  23.991  -5.191  1.00  0.00    -0.003 C 
ATOM     32  C   UNL     1     -25.150  25.375  -4.557  1.00  0.00     0.004 C 
ENDBRANCH  30  31
ENDBRANCH  29  30
ENDBRANCH  28  29
ENDBRANCH  27  28
ENDBRANCH  26  27
ENDBRANCH  25  26
ENDBRANCH  24  25
ENDBRANCH  23  24
ENDBRANCH  22  23
ENDBRANCH  21  22
ENDBRANCH  20  21
ENDBRANCH  19  20
ENDBRANCH  18  19
ENDBRANCH   1  18
TORSDOF 28
ENDMDL
MODEL 3
REMARK VINA RESULT:    -5.429      0.805      2.083
REMARK INTER + INTRA:         -17.051
REMARK INTER:                 -14.331
REMARK INTRA:                  -2.720
REMARK UNBOUND:                -2.736
REMARK SMILES CCCCCCCCCCCCCCCCCCCCCCCCCCCCCC(=O)[O-]
REMARK SMILES IDX 16 1 17 2 18 3 19 4 20 5 21 6 22 7 23 8 24 9 25 10 26 11
REMARK SMILES IDX 27 12 28 13 29 14 30 15 31 16 32 17 15 18 14 19 13 20 12 21
REMARK SMILES IDX 11 22 10 23 9 24 8 25 7 26 6 27 5 28 4 29 3 30 2 31 1 32
REMARK H PARENT
REMARK Flexibility Score: inf
ROOT
ATOM      1  C   UNL     1     -16.690  26.920   1.228  1.00  0.00     0.000 C 
ENDROOT
BRANCH   1   2
ATOM      2  C   UNL     1     -17.539  25.643   1.363  1.00  0.00     0.000 C 
BRANCH   2   3
ATOM      3  C   UNL     1     -18.410  25.333   0.127  1.00  0.00     0.000 C 
BRANCH   3   4
ATOM      4  C   UNL     1     -18.507  23.824  -0.166  1.00  0.00     0.000 C 
BRANCH   4   5
ATOM      5  C   UNL     1     -18.895  23.525  -1.623  1.00  0.00     0.000 C 
BRANCH   5   6
ATOM      6  C   UNL     1     -20.080  22.550  -1.737  1.00  0.00     0.000 C 
BRANCH   6   7
ATOM      7  C   UNL     1     -20.679  22.194  -0.366  1.00  0.00     0.000 C 
BRANCH   7   8
ATOM      8  C   UNL     1     -22.079  22.799  -0.158  1.00  0.00     0.000 C 
BRANCH   8   9
ATOM      9  C   UNL     1     -23.177  21.729  -0.007  1.00  0.00     0.000 C 
BRANCH   9  10
ATOM     10  C   UNL     1     -24.222  22.021   1.084  1.00  0.00     0.000 C 
BRANCH  10  11
ATOM     11  C   UNL     1     -25.663  22.015   0.551  1.00  0.00     0.000 C 
BRANCH  11  12
ATOM     12  C   UNL     1     -25.693  21.743  -0.957  1.00  0.00     0.000 C 
BRANCH  12  13
ATOM     13  C   UNL     1     -26.493  22.829  -1.693  1.00  0.00     0.006 C 
BRANCH  13  14
ATOM     14  C   UNL     1     -25.626  24.036  -2.074  1.00  0.00     0.053 C 
BRANCH  14  15
ATOM     15  C   UNL     1     -25.618  24.283  -3.552  1.00  0.00     0.041 C 
ATOM     16  O   UNL     1     -25.283  25.411  -4.004  1.00  0.00    -0.550 OA
ATOM     17  O   UNL     1     -25.985  23.270  -4.429  1.00  0.00    -0.550 OA
ENDBRANCH  14  15
ENDBRANCH  13  14
ENDBRANCH  12  13
ENDBRANCH  11  12
ENDBRANCH  10  11
ENDBRANCH   9  10
ENDBRANCH   8   9
ENDBRANCH   7   8
ENDBRANCH   6   7
ENDBRANCH   5   6
ENDBRANCH   4   5
ENDBRANCH   3   4
ENDBRANCH   2   3
ENDBRANCH   1   2
BRANCH   1  18
ATOM     18  C   UNL     1     -16.634  27.458  -0.213  1.00  0.00     0.000 C 
BRANCH  18  19
ATOM     19  C   UNL     1     -17.319  28.826  -0.355  1.00  0.00     0.000 C 
BRANCH  19  20
ATOM     20  C   UNL     1     -18.450  28.811  -1.399  1.00  0.00     0.000 C 
BRANCH  20  21
ATOM     21  C   UNL     1     -19.039  30.210  -1.648  1.00  0.00     0.000 C 
BRANCH  21  22
ATOM     22  C   UNL     1     -17.959  31.300  -1.716  1.00  0.00     0.000 C 
BRANCH  22  23
ATOM     23  C   UNL     1     -18.197  32.380  -0.654  1.00  0.00     0.000 C 
BRANCH  23  24
ATOM     24  C   UNL     1     -17.003  33.345  -0.581  1.00  0.00    -0.000 C 
BRANCH  24  25
ATOM     25  C   UNL     1     -16.337  33.371   0.806  1.00  0.00    -0.000 C 
BRANCH  25  26
ATOM     26  C   UNL     1     -16.510  32.085   1.639  1.00  0.00    -0.000 C 
BRANCH  26  27
ATOM     27  C   UNL     1     -15.539  30.943   1.287  1.00  0.00    -0.000 C 
BRANCH  27  28
ATOM     28  C   UNL     1     -15.177  30.072   2.499  1.00  0.00    -0.000 C 
BRANCH  28  29
ATOM     29  C   UNL     1     -16.367  29.951   3.464  1.00  0.00    -0.000 C 
BRANCH  29  30
ATOM     30  C   UNL     1     -15.958  29.361   4.831  1.00  0.00    -0.000 C 
BRANCH  30  31
ATOM     31  C   UNL     1     -16.556  30.114   6.031  1.00  0.00    -0.003 C 
ATOM     32  C   UNL     1     -17.094  31.496   5.665  1.00  0.00     0.004 C 
ENDBRANCH  30  31
ENDBRANCH  29  30
ENDBRANCH  28  29
ENDBRANCH  27  28
ENDBRANCH  26  27
ENDBRANCH  25  26
ENDBRANCH  24  25
ENDBRANCH  23  24
ENDBRANCH  22  23
ENDBRANCH  21  22
ENDBRANCH  20  21
ENDBRANCH  19  20
ENDBRANCH  18  19
ENDBRANCH   1  18
TORSDOF 28
ENDMDL
MODEL 4
REMARK VINA RESULT:    -5.340      3.466     11.232
REMARK INTER + INTRA:         -16.816
REMARK INTER:                 -14.479
REMARK INTRA:                  -2.337
REMARK UNBOUND:                -2.736
REMARK SMILES CCCCCCCCCCCCCCCCCCCCCCCCCCCCCC(=O)[O-]
REMARK SMILES IDX 16 1 17 2 18 3 19 4 20 5 21 6 22 7 23 8 24 9 25 10 26 11
REMARK SMILES IDX 27 12 28 13 29 14 30 15 31 16 32 17 15 18 14 19 13 20 12 21
REMARK SMILES IDX 11 22 10 23 9 24 8 25 7 26 6 27 5 28 4 29 3 30 2 31 1 32
REMARK H PARENT
REMARK Flexibility Score: inf
ROOT
ATOM      1  C   UNL     1     -17.947  24.664  -0.517  1.00  0.00     0.000 C 
ENDROOT
BRANCH   1   2
ATOM      2  C   UNL     1     -17.981  25.593   0.710  1.00  0.00     0.000 C 
BRANCH   2   3
ATOM      3  C   UNL     1     -16.600  26.152   1.113  1.00  0.00     0.000 C 
BRANCH   3   4
ATOM      4  C   UNL     1     -16.373  27.590   0.608  1.00  0.00     0.000 C 
BRANCH   4   5
ATOM      5  C   UNL     1     -17.514  28.091  -0.292  1.00  0.00     0.000 C 
BRANCH   5   6
ATOM      6  C   UNL     1     -17.277  29.518  -0.818  1.00  0.00     0.000 C 
BRANCH   6   7
ATOM      7  C   UNL     1     -18.542  30.129  -1.443  1.00  0.00     0.000 C 
BRANCH   7   8
ATOM      8  C   UNL     1     -18.297  31.538  -2.012  1.00  0.00     0.000 C 
BRANCH   8   9
ATOM      9  C   UNL     1     -18.204  32.618  -0.918  1.00  0.00     0.000 C 
BRANCH   9  10
ATOM     10  C   UNL     1     -16.814  33.258  -0.753  1.00  0.00     0.000 C 
BRANCH  10  11
ATOM     11  C   UNL     1     -16.339  33.292   0.707  1.00  0.00     0.000 C 
BRANCH  11  12
ATOM     12  C   UNL     1     -16.788  32.037   1.464  1.00  0.00     0.000 C 
BRANCH  12  13
ATOM     13  C   UNL     1     -15.584  31.151   1.817  1.00  0.00     0.006 C 
BRANCH  13  14
ATOM     14  C   UNL     1     -15.924  30.103   2.886  1.00  0.00     0.053 C 
BRANCH  14  15
ATOM     15  C   UNL     1     -16.460  30.726   4.139  1.00  0.00     0.041 C 
ATOM     16  O   UNL     1     -17.394  30.168   4.774  1.00  0.00    -0.550 OA
ATOM     17  O   UNL     1     -15.932  31.926   4.602  1.00  0.00    -0.550 OA
ENDBRANCH  14  15
ENDBRANCH  13  14
ENDBRANCH  12  13
ENDBRANCH  11  12
ENDBRANCH  10  11
ENDBRANCH   9  10
ENDBRANCH   8   9
ENDBRANCH   7   8
ENDBRANCH   6   7
ENDBRANCH   5   6
ENDBRANCH   4   5
ENDBRANCH   3   4
ENDBRANCH   2   3
ENDBRANCH   1   2
BRANCH   1  18
ATOM     18  C   UNL     1     -18.936  23.490  -0.415  1.00  0.00     0.000 C 
BRANCH  18  19
ATOM     19  C   UNL     1     -18.348  22.179  -0.961  1.00  0.00     0.000 C 
BRANCH  19  20
ATOM     20  C   UNL     1     -19.269  21.508  -1.996  1.00  0.00     0.000 C 
BRANCH  20  21
ATOM     21  C   UNL     1     -20.754  21.828  -1.757  1.00  0.00     0.000 C 
BRANCH  21  22
ATOM     22  C   UNL     1     -21.393  20.909  -0.706  1.00  0.00     0.000 C 
BRANCH  22  23
ATOM     23  C   UNL     1     -22.053  21.724   0.412  1.00  0.00     0.000 C 
BRANCH  23  24
ATOM     24  C   UNL     1     -22.861  22.894  -0.170  1.00  0.00    -0.000 C 
BRANCH  24  25
ATOM     25  C   UNL     1     -24.368  22.788   0.124  1.00  0.00    -0.000 C 
BRANCH  25  26
ATOM     26  C   UNL     1     -25.081  21.593  -0.541  1.00  0.00    -0.000 C 
BRANCH  26  27
ATOM     27  C   UNL     1     -26.550  21.841  -0.926  1.00  0.00    -0.000 C 
BRANCH  27  28
ATOM     28  C   UNL     1     -26.720  22.263  -2.393  1.00  0.00    -0.000 C 
BRANCH  28  29
ATOM     29  C   UNL     1     -26.821  23.791  -2.517  1.00  0.00    -0.000 C 
BRANCH  29  30
ATOM     30  C   UNL     1     -25.492  24.433  -2.968  1.00  0.00    -0.000 C 
BRANCH  30  31
ATOM     31  C   UNL     1     -25.559  25.073  -4.365  1.00  0.00    -0.003 C 
ATOM     32  C   UNL     1     -25.482  24.051  -5.498  1.00  0.00     0.004 C 
ENDBRANCH  30  31
ENDBRANCH  29  30
ENDBRANCH  28  29
ENDBRANCH  27  28
ENDBRANCH  26  27
ENDBRANCH  25  26
ENDBRANCH  24  25
ENDBRANCH  23  24
ENDBRANCH  22  23
ENDBRANCH  21  22
ENDBRANCH  20  21
ENDBRANCH  19  20
ENDBRANCH  18  19
ENDBRANCH   1  18
TORSDOF 28
ENDMDL
MODEL 5
REMARK VINA RESULT:    -4.843      1.037      3.282
REMARK INTER + INTRA:         -15.506
REMARK INTER:                 -13.210
REMARK INTRA:                  -2.296
REMARK UNBOUND:                -2.736
REMARK SMILES CCCCCCCCCCCCCCCCCCCCCCCCCCCCCC(=O)[O-]
REMARK SMILES IDX 16 1 17 2 18 3 19 4 20 5 21 6 22 7 23 8 24 9 25 10 26 11
REMARK SMILES IDX 27 12 28 13 29 14 30 15 31 16 32 17 15 18 14 19 13 20 12 21
REMARK SMILES IDX 11 22 10 23 9 24 8 25 7 26 6 27 5 28 4 29 3 30 2 31 1 32
REMARK H PARENT
REMARK Flexibility Score: inf
ROOT
ATOM      1  C   UNL     1     -18.255  26.005   0.200  1.00  0.00     0.000 C 
ENDROOT
BRANCH   1   2
ATOM      2  C   UNL     1     -19.351  24.966   0.497  1.00  0.00     0.000 C 
BRANCH   2   3
ATOM      3  C   UNL     1     -19.129  23.603  -0.192  1.00  0.00     0.000 C 
BRANCH   3   4
ATOM      4  C   UNL     1     -19.538  22.415   0.699  1.00  0.00     0.000 C 
BRANCH   4   5
ATOM      5  C   UNL     1     -20.124  21.242  -0.104  1.00  0.00     0.000 C 
BRANCH   5   6
ATOM      6  C   UNL     1     -21.525  21.543  -0.663  1.00  0.00     0.000 C 
BRANCH   6   7
ATOM      7  C   UNL     1     -22.420  22.267   0.357  1.00  0.00     0.000 C 
BRANCH   7   8
ATOM      8  C   UNL     1     -23.563  23.052  -0.312  1.00  0.00     0.000 C 
BRANCH   8   9
ATOM      9  C   UNL     1     -24.957  22.586   0.147  1.00  0.00     0.000 C 
BRANCH   9  10
ATOM     10  C   UNL     1     -25.636  21.559  -0.777  1.00  0.00     0.000 C 
BRANCH  10  11
ATOM     11  C   UNL     1     -26.869  22.125  -1.498  1.00  0.00     0.000 C 
BRANCH  11  12
ATOM     12  C   UNL     1     -27.035  21.497  -2.886  1.00  0.00     0.000 C 
BRANCH  12  13
ATOM     13  C   UNL     1     -26.744  22.525  -3.990  1.00  0.00     0.006 C 
BRANCH  13  14
ATOM     14  C   UNL     1     -26.331  23.890  -3.423  1.00  0.00     0.053 C 
BRANCH  14  15
ATOM     15  C   UNL     1     -25.374  24.611  -4.323  1.00  0.00     0.041 C 
ATOM     16  O   UNL     1     -24.637  23.963  -5.113  1.00  0.00    -0.550 OA
ATOM     17  O   UNL     1     -25.292  25.998  -4.285  1.00  0.00    -0.550 OA
ENDBRANCH  14  15
ENDBRANCH  13  14
ENDBRANCH  12  13
ENDBRANCH  11  12
ENDBRANCH  10  11
ENDBRANCH   9  10
ENDBRANCH   8   9
ENDBRANCH   7   8
ENDBRANCH   6   7
ENDBRANCH   5   6
ENDBRANCH   4   5
ENDBRANCH   3   4
ENDBRANCH   2   3
ENDBRANCH   1   2
BRANCH   1  18
ATOM     18  C   UNL     1     -16.834  25.418   0.259  1.00  0.00     0.000 C 
BRANCH  18  19
ATOM     19  C   UNL     1     -15.924  26.180   1.235  1.00  0.00     0.000 C 
BRANCH  19  20
ATOM     20  C   UNL     1     -16.645  27.358   1.913  1.00  0.00     0.000 C 
BRANCH  20  21
ATOM     21  C   UNL     1     -15.921  27.838   3.182  1.00  0.00     0.000 C 
BRANCH  21  22
ATOM     22  C   UNL     1     -16.483  29.164   3.715  1.00  0.00     0.000 C 
BRANCH  22  23
ATOM     23  C   UNL     1     -15.424  30.271   3.667  1.00  0.00     0.000 C 
BRANCH  23  24
ATOM     24  C   UNL     1     -14.834  30.399   2.254  1.00  0.00    -0.000 C 
BRANCH  24  25
ATOM     25  C   UNL     1     -15.867  30.864   1.212  1.00  0.00    -0.000 C 
BRANCH  25  26
ATOM     26  C   UNL     1     -16.679  32.113   1.609  1.00  0.00    -0.000 C 
BRANCH  26  27
ATOM     27  C   UNL     1     -16.318  33.398   0.842  1.00  0.00    -0.000 C 
BRANCH  27  28
ATOM     28  C   UNL     1     -16.648  33.312  -0.656  1.00  0.00    -0.000 C 
BRANCH  28  29
ATOM     29  C   UNL     1     -18.130  32.969  -0.873  1.00  0.00    -0.000 C 
BRANCH  29  30
ATOM     30  C   UNL     1     -18.334  31.927  -1.994  1.00  0.00    -0.000 C 
BRANCH  30  31
ATOM     31  C   UNL     1     -18.468  30.484  -1.477  1.00  0.00    -0.003 C 
ATOM     32  C   UNL     1     -19.356  29.610  -2.361  1.00  0.00     0.004 C 
ENDBRANCH  30  31
ENDBRANCH  29  30
ENDBRANCH  28  29
ENDBRANCH  27  28
ENDBRANCH  26  27
ENDBRANCH  25  26
ENDBRANCH  24  25
ENDBRANCH  23  24
ENDBRANCH  22  23
ENDBRANCH  21  22
ENDBRANCH  20  21
ENDBRANCH  19  20
ENDBRANCH  18  19
ENDBRANCH   1  18
TORSDOF 28
ENDMDL
MODEL 6
REMARK VINA RESULT:    -4.674      2.224     10.827
REMARK INTER + INTRA:         -15.061
REMARK INTER:                 -13.093
REMARK INTRA:                  -1.968
REMARK UNBOUND:                -2.736
REMARK SMILES CCCCCCCCCCCCCCCCCCCCCCCCCCCCCC(=O)[O-]
REMARK SMILES IDX 16 1 17 2 18 3 19 4 20 5 21 6 22 7 23 8 24 9 25 10 26 11
REMARK SMILES IDX 27 12 28 13 29 14 30 15 31 16 32 17 15 18 14 19 13 20 12 21
REMARK SMILES IDX 11 22 10 23 9 24 8 25 7 26 6 27 5 28 4 29 3 30 2 31 1 32
REMARK H PARENT
REMARK Flexibility Score: inf
ROOT
ATOM      1  C   UNL     1     -19.142  24.663   0.857  1.00  0.00     0.000 C 
ENDROOT
BRANCH   1   2
ATOM      2  C   UNL     1     -18.539  25.893   0.154  1.00  0.00     0.000 C 
BRANCH   2   3
ATOM      3  C   UNL     1     -16.996  25.897   0.111  1.00  0.00     0.000 C 
BRANCH   3   4
ATOM      4  C   UNL     1     -16.366  26.286   1.462  1.00  0.00     0.000 C 
BRANCH   4   5
ATOM      5  C   UNL     1     -16.641  27.748   1.847  1.00  0.00     0.000 C 
BRANCH   5   6
ATOM      6  C   UNL     1     -16.038  28.752   0.848  1.00  0.00     0.000 C 
BRANCH   6   7
ATOM      7  C   UNL     1     -15.229  29.858   1.545  1.00  0.00     0.000 C 
BRANCH   7   8
ATOM      8  C   UNL     1     -15.960  30.445   2.766  1.00  0.00     0.000 C 
BRANCH   8   9
ATOM      9  C   UNL     1     -16.165  31.968   2.666  1.00  0.00     0.000 C 
BRANCH   9  10
ATOM     10  C   UNL     1     -17.041  32.430   1.487  1.00  0.00     0.000 C 
BRANCH  10  11
ATOM     11  C   UNL     1     -16.262  33.251   0.447  1.00  0.00     0.000 C 
BRANCH  11  12
ATOM     12  C   UNL     1     -17.009  33.300  -0.890  1.00  0.00     0.000 C 
BRANCH  12  13
ATOM     13  C   UNL     1     -18.325  32.511  -0.811  1.00  0.00     0.006 C 
BRANCH  13  14
ATOM     14  C   UNL     1     -18.132  31.020  -1.119  1.00  0.00     0.053 C 
BRANCH  14  15
ATOM     15  C   UNL     1     -18.551  30.672  -2.515  1.00  0.00     0.041 C 
ATOM     16  O   UNL     1     -18.190  31.392  -3.483  1.00  0.00    -0.550 OA
ATOM     17  O   UNL     1     -19.345  29.554  -2.745  1.00  0.00    -0.550 OA
ENDBRANCH  14  15
ENDBRANCH  13  14
ENDBRANCH  12  13
ENDBRANCH  11  12
ENDBRANCH  10  11
ENDBRANCH   9  10
ENDBRANCH   8   9
ENDBRANCH   7   8
ENDBRANCH   6   7
ENDBRANCH   5   6
ENDBRANCH   4   5
ENDBRANCH   3   4
ENDBRANCH   2   3
ENDBRANCH   1   2
BRANCH   1  18
ATOM     18  C   UNL     1     -18.754  23.333   0.188  1.00  0.00     0.000 C 
BRANCH  18  19
ATOM     19  C   UNL     1     -18.794  23.414  -1.346  1.00  0.00     0.000 C 
BRANCH  19  20
ATOM     20  C   UNL     1     -19.891  22.522  -1.955  1.00  0.00     0.000 C 
BRANCH  20  21
ATOM     21  C   UNL     1     -20.168  21.271  -1.106  1.00  0.00     0.000 C 
BRANCH  21  22
ATOM     22  C   UNL     1     -21.668  21.040  -0.870  1.00  0.00     0.000 C 
BRANCH  22  23
ATOM     23  C   UNL     1     -22.122  21.667   0.453  1.00  0.00     0.000 C 
BRANCH  23  24
ATOM     24  C   UNL     1     -23.323  20.906   1.034  1.00  0.00    -0.000 C 
BRANCH  24  25
ATOM     25  C   UNL     1     -24.490  21.832   1.422  1.00  0.00    -0.000 C 
BRANCH  25  26
ATOM     26  C   UNL     1     -25.415  22.241   0.258  1.00  0.00    -0.000 C 
BRANCH  26  27
ATOM     27  C   UNL     1     -25.878  21.083  -0.646  1.00  0.00    -0.000 C 
BRANCH  27  28
ATOM     28  C   UNL     1     -27.035  21.478  -1.575  1.00  0.00    -0.000 C 
BRANCH  28  29
ATOM     29  C   UNL     1     -26.803  22.871  -2.182  1.00  0.00    -0.000 C 
BRANCH  29  30
ATOM     30  C   UNL     1     -26.690  22.831  -3.720  1.00  0.00    -0.000 C 
BRANCH  30  31
ATOM     31  C   UNL     1     -26.462  24.213  -4.357  1.00  0.00    -0.003 C 
ATOM     32  C   UNL     1     -25.116  24.330  -5.071  1.00  0.00     0.004 C 
ENDBRANCH  30  31
ENDBRANCH  29  30
ENDBRANCH  28  29
ENDBRANCH  27  28
ENDBRANCH  26  27
ENDBRANCH  25  26
ENDBRANCH  24  25
ENDBRANCH  23  24
ENDBRANCH  22  23
ENDBRANCH  21  22
ENDBRANCH  20  21
ENDBRANCH  19  20
ENDBRANCH  18  19
ENDBRANCH   1  18
TORSDOF 28
ENDMDL
MODEL 7
REMARK VINA RESULT:    -4.432      1.302      3.568
REMARK INTER + INTRA:         -14.424
REMARK INTER:                 -12.388
REMARK INTRA:                  -2.036
REMARK UNBOUND:                -2.736
REMARK SMILES CCCCCCCCCCCCCCCCCCCCCCCCCCCCCC(=O)[O-]
REMARK SMILES IDX 16 1 17 2 18 3 19 4 20 5 21 6 22 7 23 8 24 9 25 10 26 11
REMARK SMILES IDX 27 12 28 13 29 14 30 15 31 16 32 17 15 18 14 19 13 20 12 21
REMARK SMILES IDX 11 22 10 23 9 24 8 25 7 26 6 27 5 28 4 29 3 30 2 31 1 32
REMARK H PARENT
REMARK Flexibility Score: inf
ROOT
ATOM      1  C   UNL     1     -17.619  27.093  -0.992  1.00  0.00     0.000 C 
ENDROOT
BRANCH   1   2
ATOM      2  C   UNL     1     -16.426  26.774  -0.073  1.00  0.00     0.000 C 
BRANCH   2   3
ATOM      3  C   UNL     1     -16.819  26.494   1.394  1.00  0.00     0.000 C 
BRANCH   3   4
ATOM      4  C   UNL     1     -17.567  25.158   1.562  1.00  0.00     0.000 C 
BRANCH   4   5
ATOM      5  C   UNL     1     -18.713  24.987   0.553  1.00  0.00     0.000 C 
BRANCH   5   6
ATOM      6  C   UNL     1     -18.893  23.529   0.095  1.00  0.00     0.000 C 
BRANCH   6   7
ATOM      7  C   UNL     1     -19.158  23.418  -1.416  1.00  0.00     0.000 C 
BRANCH   7   8
ATOM      8  C   UNL     1     -19.958  22.155  -1.784  1.00  0.00     0.000 C 
BRANCH   8   9
ATOM      9  C   UNL     1     -19.800  21.024  -0.751  1.00  0.00     0.000 C 
BRANCH   9  10
ATOM     10  C   UNL     1     -20.917  20.948   0.306  1.00  0.00     0.000 C 
BRANCH  10  11
ATOM     11  C   UNL     1     -22.151  21.785  -0.065  1.00  0.00     0.000 C 
BRANCH  11  12
ATOM     12  C   UNL     1     -23.441  20.979   0.115  1.00  0.00     0.000 C 
BRANCH  12  13
ATOM     13  C   UNL     1     -24.668  21.903   0.118  1.00  0.00     0.006 C 
BRANCH  13  14
ATOM     14  C   UNL     1     -24.350  23.298  -0.436  1.00  0.00     0.053 C 
BRANCH  14  15
ATOM     15  C   UNL     1     -25.259  23.679  -1.565  1.00  0.00     0.041 C 
ATOM     16  O   UNL     1     -25.693  22.798  -2.354  1.00  0.00    -0.550 OA
ATOM     17  O   UNL     1     -25.622  25.009  -1.749  1.00  0.00    -0.550 OA
ENDBRANCH  14  15
ENDBRANCH  13  14
ENDBRANCH  12  13
ENDBRANCH  11  12
ENDBRANCH  10  11
ENDBRANCH   9  10
ENDBRANCH   8   9
ENDBRANCH   7   8
ENDBRANCH   6   7
ENDBRANCH   5   6
ENDBRANCH   4   5
ENDBRANCH   3   4
ENDBRANCH   2   3
ENDBRANCH   1   2
BRANCH   1  18
ATOM     18  C   UNL     1     -18.323  28.413  -0.633  1.00  0.00     0.000 C 
BRANCH  18  19
ATOM     19  C   UNL     1     -17.637  29.634  -1.265  1.00  0.00     0.000 C 
BRANCH  19  20
ATOM     20  C   UNL     1     -18.581  30.426  -2.188  1.00  0.00     0.000 C 
BRANCH  20  21
ATOM     21  C   UNL     1     -18.495  31.943  -1.954  1.00  0.00     0.000 C 
BRANCH  21  22
ATOM     22  C   UNL     1     -18.007  32.294  -0.541  1.00  0.00     0.000 C 
BRANCH  22  23
ATOM     23  C   UNL     1     -16.936  33.390  -0.583  1.00  0.00     0.000 C 
BRANCH  23  24
ATOM     24  C   UNL     1     -16.242  33.527   0.781  1.00  0.00    -0.000 C 
BRANCH  24  25
ATOM     25  C   UNL     1     -16.494  32.323   1.706  1.00  0.00    -0.000 C 
BRANCH  25  26
ATOM     26  C   UNL     1     -15.441  31.200   1.618  1.00  0.00    -0.000 C 
BRANCH  26  27
ATOM     27  C   UNL     1     -15.969  29.784   1.916  1.00  0.00    -0.000 C 
BRANCH  27  28
ATOM     28  C   UNL     1     -16.252  29.555   3.408  1.00  0.00    -0.000 C 
BRANCH  28  29
ATOM     29  C   UNL     1     -15.125  30.135   4.278  1.00  0.00    -0.000 C 
BRANCH  29  30
ATOM     30  C   UNL     1     -15.569  30.367   5.737  1.00  0.00    -0.000 C 
BRANCH  30  31
ATOM     31  C   UNL     1     -16.552  31.539   5.903  1.00  0.00    -0.003 C 
ATOM     32  C   UNL     1     -15.887  32.907   5.755  1.00  0.00     0.004 C 
ENDBRANCH  30  31
ENDBRANCH  29  30
ENDBRANCH  28  29
ENDBRANCH  27  28
ENDBRANCH  26  27
ENDBRANCH  25  26
ENDBRANCH  24  25
ENDBRANCH  23  24
ENDBRANCH  22  23
ENDBRANCH  21  22
ENDBRANCH  20  21
ENDBRANCH  19  20
ENDBRANCH  18  19
ENDBRANCH   1  18
TORSDOF 28
ENDMDL
MODEL 8
REMARK VINA RESULT:    -4.388      3.491     10.819
REMARK INTER + INTRA:         -14.306
REMARK INTER:                 -11.973
REMARK INTRA:                  -2.332
REMARK UNBOUND:                -2.736
REMARK SMILES CCCCCCCCCCCCCCCCCCCCCCCCCCCCCC(=O)[O-]
REMARK SMILES IDX 16 1 17 2 18 3 19 4 20 5 21 6 22 7 23 8 24 9 25 10 26 11
REMARK SMILES IDX 27 12 28 13 29 14 30 15 31 16 32 17 15 18 14 19 13 20 12 21
REMARK SMILES IDX 11 22 10 23 9 24 8 25 7 26 6 27 5 28 4 29 3 30 2 31 1 32
REMARK H PARENT
REMARK Flexibility Score: inf
ROOT
ATOM      1  C   UNL     1     -20.456  21.053   1.178  1.00  0.00     0.000 C 
ENDROOT
BRANCH   1   2
ATOM      2  C   UNL     1     -21.518  22.048   0.676  1.00  0.00     0.000 C 
BRANCH   2   3
ATOM      3  C   UNL     1     -20.939  23.238  -0.119  1.00  0.00     0.000 C 
BRANCH   3   4
ATOM      4  C   UNL     1     -20.278  22.801  -1.440  1.00  0.00     0.000 C 
BRANCH   4   5
ATOM      5  C   UNL     1     -18.830  23.300  -1.574  1.00  0.00     0.000 C 
BRANCH   5   6
ATOM      6  C   UNL     1     -18.437  24.296  -0.469  1.00  0.00     0.000 C 
BRANCH   6   7
ATOM      7  C   UNL     1     -17.955  25.642  -1.038  1.00  0.00     0.000 C 
BRANCH   7   8
ATOM      8  C   UNL     1     -17.765  26.710   0.054  1.00  0.00     0.000 C 
BRANCH   8   9
ATOM      9  C   UNL     1     -17.095  26.155   1.324  1.00  0.00     0.000 C 
BRANCH   9  10
ATOM     10  C   UNL     1     -16.390  27.207   2.199  1.00  0.00     0.000 C 
BRANCH  10  11
ATOM     11  C   UNL     1     -16.078  28.507   1.441  1.00  0.00     0.000 C 
BRANCH  11  12
ATOM     12  C   UNL     1     -15.958  29.693   2.402  1.00  0.00     0.000 C 
BRANCH  12  13
ATOM     13  C   UNL     1     -15.726  31.002   1.631  1.00  0.00     0.006 C 
BRANCH  13  14
ATOM     14  C   UNL     1     -16.742  31.199   0.497  1.00  0.00     0.053 C 
BRANCH  14  15
ATOM     15  C   UNL     1     -16.981  32.648   0.198  1.00  0.00     0.041 C 
ATOM     16  O   UNL     1     -17.802  32.983  -0.697  1.00  0.00    -0.550 OA
ATOM     17  O   UNL     1     -16.292  33.628   0.903  1.00  0.00    -0.550 OA
ENDBRANCH  14  15
ENDBRANCH  13  14
ENDBRANCH  12  13
ENDBRANCH  11  12
ENDBRANCH  10  11
ENDBRANCH   9  10
ENDBRANCH   8   9
ENDBRANCH   7   8
ENDBRANCH   6   7
ENDBRANCH   5   6
ENDBRANCH   4   5
ENDBRANCH   3   4
ENDBRANCH   2   3
ENDBRANCH   1   2
BRANCH   1  18
ATOM     18  C   UNL     1     -20.073  21.271   2.652  1.00  0.00     0.000 C 
BRANCH  18  19
ATOM     19  C   UNL     1     -21.172  21.996   3.444  1.00  0.00     0.000 C 
BRANCH  19  20
ATOM     20  C   UNL     1     -21.383  21.394   4.845  1.00  0.00     0.000 C 
BRANCH  20  21
ATOM     21  C   UNL     1     -22.866  21.131   5.154  1.00  0.00     0.000 C 
BRANCH  21  22
ATOM     22  C   UNL     1     -23.738  21.118   3.891  1.00  0.00     0.000 C 
BRANCH  22  23
ATOM     23  C   UNL     1     -25.017  21.938   4.095  1.00  0.00     0.000 C 
BRANCH  23  24
ATOM     24  C   UNL     1     -25.772  22.110   2.768  1.00  0.00    -0.000 C 
BRANCH  24  25
ATOM     25  C   UNL     1     -24.931  21.706   1.543  1.00  0.00    -0.000 C 
BRANCH  25  26
ATOM     26  C   UNL     1     -25.744  21.240   0.318  1.00  0.00    -0.000 C 
BRANCH  26  27
ATOM     27  C   UNL     1     -25.554  22.088  -0.953  1.00  0.00    -0.000 C 
BRANCH  27  28
ATOM     28  C   UNL     1     -26.859  22.738  -1.437  1.00  0.00    -0.000 C 
BRANCH  28  29
ATOM     29  C   UNL     1     -26.578  23.800  -2.513  1.00  0.00    -0.000 C 
BRANCH  29  30
ATOM     30  C   UNL     1     -26.612  23.214  -3.940  1.00  0.00    -0.000 C 
BRANCH  30  31
ATOM     31  C   UNL     1     -26.282  24.242  -5.036  1.00  0.00    -0.003 C 
ATOM     32  C   UNL     1     -25.205  25.241  -4.617  1.00  0.00     0.004 C 
ENDBRANCH  30  31
ENDBRANCH  29  30
ENDBRANCH  28  29
ENDBRANCH  27  28
ENDBRANCH  26  27
ENDBRANCH  25  26
ENDBRANCH  24  25
ENDBRANCH  23  24
ENDBRANCH  22  23
ENDBRANCH  21  22
ENDBRANCH  20  21
ENDBRANCH  19  20
ENDBRANCH  18  19
ENDBRANCH   1  18
TORSDOF 28
ENDMDL
