MODEL 1
REMARK VINA RESULT:    -4.109      0.000      0.000
REMARK INTER + INTRA:         -10.356
REMARK INTER:                  -7.951
REMARK INTRA:                  -2.405
REMARK UNBOUND:                -2.405
REMARK SMILES CCCCCCCCCCCCCCCCCC(=O)[O-]
REMARK SMILES IDX 10 1 11 2 12 3 13 4 14 5 15 6 16 7 17 8 18 9 19 10 20 11
REMARK SMILES IDX 9 12 8 13 7 14 6 15 5 16 4 17 3 18 2 19 1 20
REMARK H PARENT
REMARK Flexibility Score: inf
ROOT
ATOM      1  C   UNL     1     185.343 184.147 200.733  1.00  0.00     0.000 C 
ENDROOT
BRANCH   1   2
ATOM      2  C   UNL     1     185.055 183.849 199.253  1.00  0.00     0.000 C 
BRANCH   2   3
ATOM      3  C   UNL     1     184.511 185.074 198.501  1.00  0.00     0.000 C 
BRANCH   3   4
ATOM      4  C   UNL     1     183.366 185.772 199.255  1.00  0.00     0.000 C 
BRANCH   4   5
ATOM      5  C   UNL     1     183.395 187.306 199.075  1.00  0.00     0.000 C 
BRANCH   5   6
ATOM      6  C   UNL     1     184.158 188.046 200.189  1.00  0.00     0.000 C 
BRANCH   6   7
ATOM      7  C   UNL     1     185.472 188.717 199.742  1.00  0.00     0.006 C 
BRANCH   7   8
ATOM      8  C   UNL     1     186.628 187.736 199.491  1.00  0.00     0.053 C 
BRANCH   8   9
ATOM      9  C   UNL     1     187.921 188.243 200.053  1.00  0.00     0.041 C 
ATOM     10  O   UNL     1     188.454 189.282 199.581  1.00  0.00    -0.550 OA
ATOM     11  O   UNL     1     188.522 187.584 201.118  1.00  0.00    -0.550 OA
ENDBRANCH   8   9
ENDBRANCH   7   8
ENDBRANCH   6   7
ENDBRANCH   5   6
ENDBRANCH   4   5
ENDBRANCH   3   4
ENDBRANCH   2   3
ENDBRANCH   1   2
BRANCH   1  12
ATOM     12  C   UNL     1     185.047 182.922 201.607  1.00  0.00     0.000 C 
BRANCH  12  13
ATOM     13  C   UNL     1     184.085 181.959 200.893  1.00  0.00    -0.000 C 
BRANCH  13  14
ATOM     14  C   UNL     1     183.138 181.237 201.867  1.00  0.00    -0.000 C 
BRANCH  14  15
ATOM     15  C   UNL     1     181.690 181.745 201.765  1.00  0.00    -0.000 C 
BRANCH  15  16
ATOM     16  C   UNL     1     181.526 182.883 200.742  1.00  0.00    -0.000 C 
BRANCH  16  17
ATOM     17  C   UNL     1     180.642 184.059 201.205  1.00  0.00    -0.000 C 
BRANCH  17  18
ATOM     18  C   UNL     1     181.339 185.081 202.125  1.00  0.00    -0.000 C 
BRANCH  18  19
ATOM     19  C   UNL     1     180.856 186.533 201.958  1.00  0.00    -0.003 C 
ATOM     20  C   UNL     1     179.969 186.728 200.730  1.00  0.00     0.004 C 
ENDBRANCH  18  19
ENDBRANCH  17  18
ENDBRANCH  16  17
ENDBRANCH  15  16
ENDBRANCH  14  15
ENDBRANCH  13  14
ENDBRANCH  12  13
ENDBRANCH   1  12
TORSDOF 16
ENDMDL
MODEL 2
REMARK VINA RESULT:    -4.043      1.736      3.764
REMARK INTER + INTRA:         -10.229
REMARK INTER:                  -8.040
REMARK INTRA:                  -2.189
REMARK UNBOUND:                -2.405
REMARK SMILES CCCCCCCCCCCCCCCCCC(=O)[O-]
REMARK SMILES IDX 10 1 11 2 12 3 13 4 14 5 15 6 16 7 17 8 18 9 19 10 20 11
REMARK SMILES IDX 9 12 8 13 7 14 6 15 5 16 4 17 3 18 2 19 1 20
REMARK H PARENT
REMARK Flexibility Score: inf
ROOT
ATOM      1  C   UNL     1     181.015 184.218 202.060  1.00  0.00     0.000 C 
ENDROOT
BRANCH   1   2
ATOM      2  C   UNL     1     180.459 185.648 201.968  1.00  0.00     0.000 C 
BRANCH   2   3
ATOM      3  C   UNL     1     181.460 186.628 201.338  1.00  0.00     0.000 C 
BRANCH   3   4
ATOM      4  C   UNL     1     180.951 187.225 200.014  1.00  0.00     0.000 C 
BRANCH   4   5
ATOM      5  C   UNL     1     182.100 187.764 199.135  1.00  0.00     0.000 C 
BRANCH   5   6
ATOM      6  C   UNL     1     182.445 189.242 199.402  1.00  0.00     0.000 C 
BRANCH   6   7
ATOM      7  C   UNL     1     183.238 189.938 198.279  1.00  0.00     0.006 C 
BRANCH   7   8
ATOM      8  C   UNL     1     184.143 188.996 197.468  1.00  0.00     0.053 C 
BRANCH   8   9
ATOM      9  C   UNL     1     185.515 188.895 198.058  1.00  0.00     0.041 C 
ATOM     10  O   UNL     1     185.916 189.757 198.885  1.00  0.00    -0.550 OA
ATOM     11  O   UNL     1     186.341 187.831 197.719  1.00  0.00    -0.550 OA
ENDBRANCH   8   9
ENDBRANCH   7   8
ENDBRANCH   6   7
ENDBRANCH   5   6
ENDBRANCH   4   5
ENDBRANCH   3   4
ENDBRANCH   2   3
ENDBRANCH   1   2
BRANCH   1  12
ATOM     12  C   UNL     1     180.626 183.397 200.824  1.00  0.00     0.000 C 
BRANCH  12  13
ATOM     13  C   UNL     1     181.280 182.006 200.861  1.00  0.00    -0.000 C 
BRANCH  13  14
ATOM     14  C   UNL     1     182.281 181.853 202.017  1.00  0.00    -0.000 C 
BRANCH  14  15
ATOM     15  C   UNL     1     183.710 181.568 201.526  1.00  0.00    -0.000 C 
BRANCH  15  16
ATOM     16  C   UNL     1     184.745 182.554 202.095  1.00  0.00    -0.000 C 
BRANCH  16  17
ATOM     17  C   UNL     1     185.324 183.558 201.077  1.00  0.00    -0.000 C 
BRANCH  17  18
ATOM     18  C   UNL     1     184.318 184.589 200.527  1.00  0.00    -0.000 C 
BRANCH  18  19
ATOM     19  C   UNL     1     183.895 184.362 199.065  1.00  0.00    -0.003 C 
ATOM     20  C   UNL     1     184.668 183.229 198.392  1.00  0.00     0.004 C 
ENDBRANCH  18  19
ENDBRANCH  17  18
ENDBRANCH  16  17
ENDBRANCH  15  16
ENDBRANCH  14  15
ENDBRANCH  13  14
ENDBRANCH  12  13
ENDBRANCH   1  12
TORSDOF 16
ENDMDL
MODEL 3
REMARK VINA RESULT:    -3.890      2.905      5.028
REMARK INTER + INTRA:          -9.933
REMARK INTER:                  -7.751
REMARK INTRA:                  -2.182
REMARK UNBOUND:                -2.405
REMARK SMILES CCCCCCCCCCCCCCCCCC(=O)[O-]
REMARK SMILES IDX 10 1 11 2 12 3 13 4 14 5 15 6 16 7 17 8 18 9 19 10 20 11
REMARK SMILES IDX 9 12 8 13 7 14 6 15 5 16 4 17 3 18 2 19 1 20
REMARK H PARENT
REMARK Flexibility Score: inf
ROOT
ATOM      1  C   UNL     1     182.364 183.570 201.846  1.00  0.00     0.000 C 
ENDROOT
BRANCH   1   2
ATOM      2  C   UNL     1     180.973 183.727 201.214  1.00  0.00     0.000 C 
BRANCH   2   3
ATOM      3  C   UNL     1     180.001 184.504 202.115  1.00  0.00     0.000 C 
BRANCH   3   4
ATOM      4  C   UNL     1     179.699 185.916 201.583  1.00  0.00     0.000 C 
BRANCH   4   5
ATOM      5  C   UNL     1     180.688 186.971 202.125  1.00  0.00     0.000 C 
BRANCH   5   6
ATOM      6  C   UNL     1     181.647 187.528 201.056  1.00  0.00     0.000 C 
BRANCH   6   7
ATOM      7  C   UNL     1     181.100 187.504 199.616  1.00  0.00     0.006 C 
BRANCH   7   8
ATOM      8  C   UNL     1     181.313 188.811 198.837  1.00  0.00     0.053 C 
BRANCH   8   9
ATOM      9  C   UNL     1     180.938 190.013 199.649  1.00  0.00     0.041 C 
ATOM     10  O   UNL     1     181.789 190.912 199.882  1.00  0.00    -0.550 OA
ATOM     11  O   UNL     1     179.640 190.155 200.122  1.00  0.00    -0.550 OA
ENDBRANCH   8   9
ENDBRANCH   7   8
ENDBRANCH   6   7
ENDBRANCH   5   6
ENDBRANCH   4   5
ENDBRANCH   3   4
ENDBRANCH   2   3
ENDBRANCH   1   2
BRANCH   1  12
ATOM     12  C   UNL     1     182.767 182.091 201.926  1.00  0.00     0.000 C 
BRANCH  12  13
ATOM     13  C   UNL     1     184.175 181.875 201.347  1.00  0.00    -0.000 C 
BRANCH  13  14
ATOM     14  C   UNL     1     185.166 182.971 201.773  1.00  0.00    -0.000 C 
BRANCH  14  15
ATOM     15  C   UNL     1     185.854 183.641 200.572  1.00  0.00    -0.000 C 
BRANCH  15  16
ATOM     16  C   UNL     1     185.047 183.506 199.269  1.00  0.00    -0.000 C 
BRANCH  16  17
ATOM     17  C   UNL     1     184.203 184.740 198.888  1.00  0.00    -0.000 C 
BRANCH  17  18
ATOM     18  C   UNL     1     184.775 186.094 199.353  1.00  0.00    -0.000 C 
BRANCH  18  19
ATOM     19  C   UNL     1     184.589 187.250 198.354  1.00  0.00    -0.003 C 
ATOM     20  C   UNL     1     185.668 187.280 197.272  1.00  0.00     0.004 C 
ENDBRANCH  18  19
ENDBRANCH  17  18
ENDBRANCH  16  17
ENDBRANCH  15  16
ENDBRANCH  14  15
ENDBRANCH  13  14
ENDBRANCH  12  13
ENDBRANCH   1  12
TORSDOF 16
ENDMDL
MODEL 4
REMARK VINA RESULT:    -3.875      1.399      2.119
REMARK INTER + INTRA:          -9.904
REMARK INTER:                  -7.786
REMARK INTRA:                  -2.117
REMARK UNBOUND:                -2.405
REMARK SMILES CCCCCCCCCCCCCCCCCC(=O)[O-]
REMARK SMILES IDX 10 1 11 2 12 3 13 4 14 5 15 6 16 7 17 8 18 9 19 10 20 11
REMARK SMILES IDX 9 12 8 13 7 14 6 15 5 16 4 17 3 18 2 19 1 20
REMARK H PARENT
REMARK Flexibility Score: inf
ROOT
ATOM      1  C   UNL     1     184.475 182.779 199.091  1.00  0.00     0.000 C 
ENDROOT
BRANCH   1   2
ATOM      2  C   UNL     1     185.192 183.345 200.327  1.00  0.00     0.000 C 
BRANCH   2   3
ATOM      3  C   UNL     1     185.383 184.868 200.250  1.00  0.00     0.000 C 
BRANCH   3   4
ATOM      4  C   UNL     1     184.048 185.632 200.217  1.00  0.00     0.000 C 
BRANCH   4   5
ATOM      5  C   UNL     1     183.867 186.440 198.913  1.00  0.00     0.000 C 
BRANCH   5   6
ATOM      6  C   UNL     1     185.019 186.258 197.907  1.00  0.00     0.000 C 
BRANCH   6   7
ATOM      7  C   UNL     1     185.823 187.537 197.601  1.00  0.00     0.006 C 
BRANCH   7   8
ATOM      8  C   UNL     1     186.790 187.958 198.718  1.00  0.00     0.053 C 
BRANCH   8   9
ATOM      9  C   UNL     1     186.458 189.312 199.264  1.00  0.00     0.041 C 
ATOM     10  O   UNL     1     185.274 189.740 199.224  1.00  0.00    -0.550 OA
ATOM     11  O   UNL     1     187.450 190.090 199.847  1.00  0.00    -0.550 OA
ENDBRANCH   8   9
ENDBRANCH   7   8
ENDBRANCH   6   7
ENDBRANCH   5   6
ENDBRANCH   4   5
ENDBRANCH   3   4
ENDBRANCH   2   3
ENDBRANCH   1   2
BRANCH   1  12
ATOM     12  C   UNL     1     183.121 182.167 199.474  1.00  0.00     0.000 C 
BRANCH  12  13
ATOM     13  C   UNL     1     183.145 181.643 200.918  1.00  0.00    -0.000 C 
BRANCH  13  14
ATOM     14  C   UNL     1     181.969 182.168 201.759  1.00  0.00    -0.000 C 
BRANCH  14  15
ATOM     15  C   UNL     1     181.304 183.405 201.133  1.00  0.00    -0.000 C 
BRANCH  15  16
ATOM     16  C   UNL     1     180.407 184.167 202.125  1.00  0.00    -0.000 C 
BRANCH  16  17
ATOM     17  C   UNL     1     180.327 185.691 201.899  1.00  0.00    -0.000 C 
BRANCH  17  18
ATOM     18  C   UNL     1     180.326 186.137 200.424  1.00  0.00    -0.000 C 
BRANCH  18  19
ATOM     19  C   UNL     1     180.511 187.649 200.206  1.00  0.00    -0.003 C 
ATOM     20  C   UNL     1     179.382 188.274 199.386  1.00  0.00     0.004 C 
ENDBRANCH  18  19
ENDBRANCH  17  18
ENDBRANCH  16  17
ENDBRANCH  15  16
ENDBRANCH  14  15
ENDBRANCH  13  14
ENDBRANCH  12  13
ENDBRANCH   1  12
TORSDOF 16
ENDMDL
MODEL 5
REMARK VINA RESULT:    -3.866      1.047      3.483
REMARK INTER + INTRA:          -9.888
REMARK INTER:                  -7.572
REMARK INTRA:                  -2.316
REMARK UNBOUND:                -2.405
REMARK SMILES CCCCCCCCCCCCCCCCCC(=O)[O-]
REMARK SMILES IDX 10 1 11 2 12 3 13 4 14 5 15 6 16 7 17 8 18 9 19 10 20 11
REMARK SMILES IDX 9 12 8 13 7 14 6 15 5 16 4 17 3 18 2 19 1 20
REMARK H PARENT
REMARK Flexibility Score: inf
ROOT
ATOM      1  C   UNL     1     181.867 185.959 201.895  1.00  0.00     0.000 C 
ENDROOT
BRANCH   1   2
ATOM      2  C   UNL     1     181.274 187.340 201.575  1.00  0.00     0.000 C 
BRANCH   2   3
ATOM      3  C   UNL     1     180.560 187.373 200.215  1.00  0.00     0.000 C 
BRANCH   3   4
ATOM      4  C   UNL     1     181.338 188.172 199.156  1.00  0.00     0.000 C 
BRANCH   4   5
ATOM      5  C   UNL     1     182.703 187.531 198.824  1.00  0.00     0.000 C 
BRANCH   5   6
ATOM      6  C   UNL     1     183.909 188.411 199.202  1.00  0.00     0.000 C 
BRANCH   6   7
ATOM      7  C   UNL     1     184.988 187.706 200.047  1.00  0.00     0.006 C 
BRANCH   7   8
ATOM      8  C   UNL     1     186.333 187.519 199.326  1.00  0.00     0.053 C 
BRANCH   8   9
ATOM      9  C   UNL     1     187.479 188.033 200.140  1.00  0.00     0.041 C 
ATOM     10  O   UNL     1     187.582 189.264 200.385  1.00  0.00    -0.550 OA
ATOM     11  O   UNL     1     188.418 187.148 200.657  1.00  0.00    -0.550 OA
ENDBRANCH   8   9
ENDBRANCH   7   8
ENDBRANCH   6   7
ENDBRANCH   5   6
ENDBRANCH   4   5
ENDBRANCH   3   4
ENDBRANCH   2   3
ENDBRANCH   1   2
BRANCH   1  12
ATOM     12  C   UNL     1     181.156 184.858 201.098  1.00  0.00     0.000 C 
BRANCH  12  13
ATOM     13  C   UNL     1     181.358 183.485 201.759  1.00  0.00    -0.000 C 
BRANCH  13  14
ATOM     14  C   UNL     1     181.245 182.323 200.757  1.00  0.00    -0.000 C 
BRANCH  14  15
ATOM     15  C   UNL     1     182.247 181.194 201.050  1.00  0.00    -0.000 C 
BRANCH  15  16
ATOM     16  C   UNL     1     183.668 181.514 200.556  1.00  0.00    -0.000 C 
BRANCH  16  17
ATOM     17  C   UNL     1     183.742 182.266 199.211  1.00  0.00    -0.000 C 
BRANCH  17  18
ATOM     18  C   UNL     1     184.612 183.539 199.218  1.00  0.00    -0.000 C 
BRANCH  18  19
ATOM     19  C   UNL     1     184.925 184.098 200.617  1.00  0.00    -0.003 C 
ATOM     20  C   UNL     1     186.402 183.971 200.991  1.00  0.00     0.004 C 
ENDBRANCH  18  19
ENDBRANCH  17  18
ENDBRANCH  16  17
ENDBRANCH  15  16
ENDBRANCH  14  15
ENDBRANCH  13  14
ENDBRANCH  12  13
ENDBRANCH   1  12
TORSDOF 16
ENDMDL
MODEL 6
REMARK VINA RESULT:    -3.825      2.507      4.556
REMARK INTER + INTRA:          -9.807
REMARK INTER:                  -7.486
REMARK INTRA:                  -2.321
REMARK UNBOUND:                -2.405
REMARK SMILES CCCCCCCCCCCCCCCCCC(=O)[O-]
REMARK SMILES IDX 10 1 11 2 12 3 13 4 14 5 15 6 16 7 17 8 18 9 19 10 20 11
REMARK SMILES IDX 9 12 8 13 7 14 6 15 5 16 4 17 3 18 2 19 1 20
REMARK H PARENT
REMARK Flexibility Score: inf
ROOT
ATOM      1  C   UNL     1     181.179 183.124 200.713  1.00  0.00     0.000 C 
ENDROOT
BRANCH   1   2
ATOM      2  C   UNL     1     180.695 184.416 201.391  1.00  0.00     0.000 C 
BRANCH   2   3
ATOM      3  C   UNL     1     181.830 185.171 202.097  1.00  0.00     0.000 C 
BRANCH   3   4
ATOM      4  C   UNL     1     181.808 186.682 201.808  1.00  0.00     0.000 C 
BRANCH   4   5
ATOM      5  C   UNL     1     180.813 187.048 200.685  1.00  0.00     0.000 C 
BRANCH   5   6
ATOM      6  C   UNL     1     181.488 187.605 199.417  1.00  0.00     0.000 C 
BRANCH   6   7
ATOM      7  C   UNL     1     181.422 189.137 199.265  1.00  0.00     0.006 C 
BRANCH   7   8
ATOM      8  C   UNL     1     182.376 189.906 200.192  1.00  0.00     0.053 C 
BRANCH   8   9
ATOM      9  C   UNL     1     182.780 191.225 199.608  1.00  0.00     0.041 C 
ATOM     10  O   UNL     1     182.346 192.298 200.104  1.00  0.00    -0.550 OA
ATOM     11  O   UNL     1     183.662 191.269 198.536  1.00  0.00    -0.550 OA
ENDBRANCH   8   9
ENDBRANCH   7   8
ENDBRANCH   6   7
ENDBRANCH   5   6
ENDBRANCH   4   5
ENDBRANCH   3   4
ENDBRANCH   2   3
ENDBRANCH   1   2
BRANCH   1  12
ATOM     12  C   UNL     1     182.079 182.314 201.656  1.00  0.00     0.000 C 
BRANCH  12  13
ATOM     13  C   UNL     1     183.367 181.874 200.941  1.00  0.00    -0.000 C 
BRANCH  13  14
ATOM     14  C   UNL     1     183.231 181.892 199.410  1.00  0.00    -0.000 C 
BRANCH  14  15
ATOM     15  C   UNL     1     184.351 182.696 198.728  1.00  0.00    -0.000 C 
BRANCH  15  16
ATOM     16  C   UNL     1     184.933 183.795 199.634  1.00  0.00    -0.000 C 
BRANCH  16  17
ATOM     17  C   UNL     1     184.333 185.202 199.427  1.00  0.00    -0.000 C 
BRANCH  17  18
ATOM     18  C   UNL     1     185.278 186.373 199.760  1.00  0.00    -0.000 C 
BRANCH  18  19
ATOM     19  C   UNL     1     185.118 187.608 198.856  1.00  0.00    -0.003 C 
ATOM     20  C   UNL     1     185.561 187.352 197.416  1.00  0.00     0.004 C 
ENDBRANCH  18  19
ENDBRANCH  17  18
ENDBRANCH  16  17
ENDBRANCH  15  16
ENDBRANCH  14  15
ENDBRANCH  13  14
ENDBRANCH  12  13
ENDBRANCH   1  12
TORSDOF 16
ENDMDL
MODEL 7
REMARK VINA RESULT:    -3.810      3.908      5.853
REMARK INTER + INTRA:          -9.779
REMARK INTER:                  -7.013
REMARK INTRA:                  -2.767
REMARK UNBOUND:                -2.405
REMARK SMILES CCCCCCCCCCCCCCCCCC(=O)[O-]
REMARK SMILES IDX 10 1 11 2 12 3 13 4 14 5 15 6 16 7 17 8 18 9 19 10 20 11
REMARK SMILES IDX 9 12 8 13 7 14 6 15 5 16 4 17 3 18 2 19 1 20
REMARK H PARENT
REMARK Flexibility Score: inf
ROOT
ATOM      1  C   UNL     1     183.230 188.572 201.039  1.00  0.00     0.000 C 
ENDROOT
BRANCH   1   2
ATOM      2  C   UNL     1     181.794 188.701 200.509  1.00  0.00     0.000 C 
BRANCH   2   3
ATOM      3  C   UNL     1     181.647 188.173 199.073  1.00  0.00     0.000 C 
BRANCH   3   4
ATOM      4  C   UNL     1     180.607 188.959 198.256  1.00  0.00     0.000 C 
BRANCH   4   5
ATOM      5  C   UNL     1     180.778 190.487 198.404  1.00  0.00     0.000 C 
BRANCH   5   6
ATOM      6  C   UNL     1     182.010 191.046 197.669  1.00  0.00     0.000 C 
BRANCH   6   7
ATOM      7  C   UNL     1     182.887 192.001 198.502  1.00  0.00     0.006 C 
BRANCH   7   8
ATOM      8  C   UNL     1     182.247 192.456 199.823  1.00  0.00     0.053 C 
BRANCH   8   9
ATOM      9  C   UNL     1     181.736 193.861 199.740  1.00  0.00     0.041 C 
ATOM     10  O   UNL     1     180.944 194.196 198.819  1.00  0.00    -0.550 OA
ATOM     11  O   UNL     1     182.109 194.794 200.700  1.00  0.00    -0.550 OA
ENDBRANCH   8   9
ENDBRANCH   7   8
ENDBRANCH   6   7
ENDBRANCH   5   6
ENDBRANCH   4   5
ENDBRANCH   3   4
ENDBRANCH   2   3
ENDBRANCH   1   2
BRANCH   1  12
ATOM     12  C   UNL     1     184.251 188.946 199.955  1.00  0.00     0.000 C 
BRANCH  12  13
ATOM     13  C   UNL     1     185.649 188.417 200.313  1.00  0.00    -0.000 C 
BRANCH  13  14
ATOM     14  C   UNL     1     186.115 187.291 199.375  1.00  0.00    -0.000 C 
BRANCH  14  15
ATOM     15  C   UNL     1     185.000 186.813 198.429  1.00  0.00    -0.000 C 
BRANCH  15  16
ATOM     16  C   UNL     1     184.574 185.359 198.694  1.00  0.00    -0.000 C 
BRANCH  16  17
ATOM     17  C   UNL     1     185.016 184.784 200.056  1.00  0.00    -0.000 C 
BRANCH  17  18
ATOM     18  C   UNL     1     183.870 184.304 200.969  1.00  0.00    -0.000 C 
BRANCH  18  19
ATOM     19  C   UNL     1     182.497 184.929 200.664  1.00  0.00    -0.003 C 
ATOM     20  C   UNL     1     181.690 185.234 201.926  1.00  0.00     0.004 C 
ENDBRANCH  18  19
ENDBRANCH  17  18
ENDBRANCH  16  17
ENDBRANCH  15  16
ENDBRANCH  14  15
ENDBRANCH  13  14
ENDBRANCH  12  13
ENDBRANCH   1  12
TORSDOF 16
ENDMDL
MODEL 8
REMARK VINA RESULT:    -3.776     10.951     14.060
REMARK INTER + INTRA:          -9.713
REMARK INTER:                  -7.137
REMARK INTRA:                  -2.576
REMARK UNBOUND:                -2.405
REMARK SMILES CCCCCCCCCCCCCCCCCC(=O)[O-]
REMARK SMILES IDX 10 1 11 2 12 3 13 4 14 5 15 6 16 7 17 8 18 9 19 10 20 11
REMARK SMILES IDX 9 12 8 13 7 14 6 15 5 16 4 17 3 18 2 19 1 20
REMARK H PARENT
REMARK Flexibility Score: inf
ROOT
ATOM      1  C   UNL     1     195.737 192.247 199.788  1.00  0.00     0.000 C 
ENDROOT
BRANCH   1   2
ATOM      2  C   UNL     1     194.543 192.621 200.681  1.00  0.00     0.000 C 
BRANCH   2   3
ATOM      3  C   UNL     1     193.623 193.663 200.027  1.00  0.00     0.000 C 
BRANCH   3   4
ATOM      4  C   UNL     1     194.233 194.277 198.754  1.00  0.00     0.000 C 
BRANCH   4   5
ATOM      5  C   UNL     1     194.603 195.765 198.941  1.00  0.00     0.000 C 
BRANCH   5   6
ATOM      6  C   UNL     1     194.618 196.220 200.413  1.00  0.00     0.000 C 
BRANCH   6   7
ATOM      7  C   UNL     1     195.984 196.100 201.116  1.00  0.00     0.006 C 
BRANCH   7   8
ATOM      8  C   UNL     1     197.188 196.086 200.160  1.00  0.00     0.053 C 
BRANCH   8   9
ATOM      9  C   UNL     1     198.154 197.189 200.463  1.00  0.00     0.041 C 
ATOM     10  O   UNL     1     198.374 197.532 201.655  1.00  0.00    -0.550 OA
ATOM     11  O   UNL     1     198.837 197.818 199.429  1.00  0.00    -0.550 OA
ENDBRANCH   8   9
ENDBRANCH   7   8
ENDBRANCH   6   7
ENDBRANCH   5   6
ENDBRANCH   4   5
ENDBRANCH   3   4
ENDBRANCH   2   3
ENDBRANCH   1   2
BRANCH   1  12
ATOM     12  C   UNL     1     196.932 191.787 200.633  1.00  0.00     0.000 C 
BRANCH  12  13
ATOM     13  C   UNL     1     197.317 190.338 200.296  1.00  0.00    -0.000 C 
BRANCH  13  14
ATOM     14  C   UNL     1     196.251 189.323 200.740  1.00  0.00    -0.000 C 
BRANCH  14  15
ATOM     15  C   UNL     1     195.978 188.250 199.672  1.00  0.00    -0.000 C 
BRANCH  15  16
ATOM     16  C   UNL     1     195.891 188.830 198.250  1.00  0.00    -0.000 C 
BRANCH  16  17
ATOM     17  C   UNL     1     194.472 188.877 197.646  1.00  0.00    -0.000 C 
BRANCH  17  18
ATOM     18  C   UNL     1     193.863 190.287 197.510  1.00  0.00    -0.000 C 
BRANCH  18  19
ATOM     19  C   UNL     1     192.539 190.493 198.267  1.00  0.00    -0.003 C 
ATOM     20  C   UNL     1     192.482 189.722 199.585  1.00  0.00     0.004 C 
ENDBRANCH  18  19
ENDBRANCH  17  18
ENDBRANCH  16  17
ENDBRANCH  15  16
ENDBRANCH  14  15
ENDBRANCH  13  14
ENDBRANCH  12  13
ENDBRANCH   1  12
TORSDOF 16
ENDMDL
MODEL 9
REMARK VINA RESULT:    -3.775      1.722      3.413
REMARK INTER + INTRA:          -9.712
REMARK INTER:                  -7.468
REMARK INTRA:                  -2.244
REMARK UNBOUND:                -2.405
REMARK SMILES CCCCCCCCCCCCCCCCCC(=O)[O-]
REMARK SMILES IDX 10 1 11 2 12 3 13 4 14 5 15 6 16 7 17 8 18 9 19 10 20 11
REMARK SMILES IDX 9 12 8 13 7 14 6 15 5 16 4 17 3 18 2 19 1 20
REMARK H PARENT
REMARK Flexibility Score: inf
ROOT
ATOM      1  C   UNL     1     182.046 181.673 199.763  1.00  0.00     0.000 C 
ENDROOT
BRANCH   1   2
ATOM      2  C   UNL     1     183.475 181.829 200.307  1.00  0.00     0.000 C 
BRANCH   2   3
ATOM      3  C   UNL     1     184.407 182.543 199.317  1.00  0.00     0.000 C 
BRANCH   3   4
ATOM      4  C   UNL     1     184.773 183.968 199.768  1.00  0.00     0.000 C 
BRANCH   4   5
ATOM      5  C   UNL     1     184.409 185.030 198.708  1.00  0.00     0.000 C 
BRANCH   5   6
ATOM      6  C   UNL     1     183.356 186.047 199.185  1.00  0.00     0.000 C 
BRANCH   6   7
ATOM      7  C   UNL     1     183.650 187.512 198.810  1.00  0.00     0.006 C 
BRANCH   7   8
ATOM      8  C   UNL     1     184.939 188.076 199.427  1.00  0.00     0.053 C 
BRANCH   8   9
ATOM      9  C   UNL     1     185.776 188.793 198.413  1.00  0.00     0.041 C 
ATOM     10  O   UNL     1     186.773 188.223 197.895  1.00  0.00    -0.550 OA
ATOM     11  O   UNL     1     185.437 190.081 198.016  1.00  0.00    -0.550 OA
ENDBRANCH   8   9
ENDBRANCH   7   8
ENDBRANCH   6   7
ENDBRANCH   5   6
ENDBRANCH   4   5
ENDBRANCH   3   4
ENDBRANCH   2   3
ENDBRANCH   1   2
BRANCH   1  12
ATOM     12  C   UNL     1     181.056 182.521 200.572  1.00  0.00     0.000 C 
BRANCH  12  13
ATOM     13  C   UNL     1     181.731 183.114 201.819  1.00  0.00    -0.000 C 
BRANCH  13  14
ATOM     14  C   UNL     1     181.355 184.586 202.054  1.00  0.00    -0.000 C 
BRANCH  14  15
ATOM     15  C   UNL     1     180.275 185.081 201.077  1.00  0.00    -0.000 C 
BRANCH  15  16
ATOM     16  C   UNL     1     179.708 186.459 201.461  1.00  0.00    -0.000 C 
BRANCH  16  17
ATOM     17  C   UNL     1     179.997 187.592 200.455  1.00  0.00    -0.000 C 
BRANCH  17  18
ATOM     18  C   UNL     1     180.954 188.690 200.960  1.00  0.00    -0.000 C 
BRANCH  18  19
ATOM     19  C   UNL     1     181.109 189.895 200.016  1.00  0.00    -0.003 C 
ATOM     20  C   UNL     1     182.385 190.694 200.277  1.00  0.00     0.004 C 
ENDBRANCH  18  19
ENDBRANCH  17  18
ENDBRANCH  16  17
ENDBRANCH  15  16
ENDBRANCH  14  15
ENDBRANCH  13  14
ENDBRANCH  12  13
ENDBRANCH   1  12
TORSDOF 16
ENDMDL
