MODEL 1
REMARK VINA RESULT:    -5.005      0.000      0.000
REMARK INTER + INTRA:         -15.649
REMARK INTER:                 -12.612
REMARK INTRA:                  -3.037
REMARK UNBOUND:                -3.037
REMARK SMILES CCCCCCCCCCCCCCCCCCCCCCCCCCCC(=O)[O-]
REMARK SMILES IDX 15 1 16 2 17 3 18 4 19 5 20 6 21 7 22 8 23 9 24 10 25 11
REMARK SMILES IDX 26 12 27 13 28 14 29 15 30 16 14 17 13 18 12 19 11 20 10 21
REMARK SMILES IDX 9 22 8 23 7 24 6 25 5 26 4 27 3 28 2 29 1 30
REMARK H PARENT
REMARK Flexibility Score: inf
ROOT
ATOM      1  C   UNL     1      63.982  31.098  23.753  1.00  0.00     0.000 C 
ENDROOT
BRANCH   1   2
ATOM      2  C   UNL     1      64.121  32.334  22.841  1.00  0.00     0.000 C 
BRANCH   2   3
ATOM      3  C   UNL     1      65.443  32.409  22.059  1.00  0.00     0.000 C 
BRANCH   3   4
ATOM      4  C   UNL     1      65.358  33.306  20.814  1.00  0.00     0.000 C 
BRANCH   4   5
ATOM      5  C   UNL     1      63.955  33.901  20.584  1.00  0.00     0.000 C 
BRANCH   5   6
ATOM      6  C   UNL     1      63.327  33.633  19.202  1.00  0.00     0.000 C 
BRANCH   6   7
ATOM      7  C   UNL     1      61.797  33.472  19.250  1.00  0.00     0.000 C 
BRANCH   7   8
ATOM      8  C   UNL     1      61.099  34.040  18.000  1.00  0.00     0.000 C 
BRANCH   8   9
ATOM      9  C   UNL     1      61.108  33.123  16.761  1.00  0.00     0.000 C 
BRANCH   9  10
ATOM     10  C   UNL     1      62.225  33.415  15.742  1.00  0.00     0.000 C 
BRANCH  10  11
ATOM     11  C   UNL     1      61.889  33.026  14.290  1.00  0.00     0.000 C 
BRANCH  11  12
ATOM     12  C   UNL     1      60.479  32.419  14.123  1.00  0.00     0.006 C 
BRANCH  12  13
ATOM     13  C   UNL     1      60.171  32.049  12.664  1.00  0.00     0.053 C 
BRANCH  13  14
ATOM     14  C   UNL     1      60.189  30.563  12.470  1.00  0.00     0.041 C 
ATOM     15  O   UNL     1      60.457  30.073  11.340  1.00  0.00    -0.550 OA
ATOM     16  O   UNL     1      59.916  29.717  13.539  1.00  0.00    -0.550 OA
ENDBRANCH  13  14
ENDBRANCH  12  13
ENDBRANCH  11  12
ENDBRANCH  10  11
ENDBRANCH   9  10
ENDBRANCH   8   9
ENDBRANCH   7   8
ENDBRANCH   6   7
ENDBRANCH   5   6
ENDBRANCH   4   5
ENDBRANCH   3   4
ENDBRANCH   2   3
ENDBRANCH   1   2
BRANCH   1  17
ATOM     17  C   UNL     1      65.183  30.136  23.667  1.00  0.00     0.000 C 
BRANCH  17  18
ATOM     18  C   UNL     1      65.851  29.882  25.031  1.00  0.00     0.000 C 
BRANCH  18  19
ATOM     19  C   UNL     1      65.005  29.077  26.035  1.00  0.00     0.000 C 
BRANCH  19  20
ATOM     20  C   UNL     1      64.570  29.906  27.256  1.00  0.00     0.000 C 
BRANCH  20  21
ATOM     21  C   UNL     1      63.077  30.273  27.220  1.00  0.00     0.000 C 
BRANCH  21  22
ATOM     22  C   UNL     1      62.358  29.992  28.552  1.00  0.00    -0.000 C 
BRANCH  22  23
ATOM     23  C   UNL     1      61.327  28.855  28.446  1.00  0.00    -0.000 C 
BRANCH  23  24
ATOM     24  C   UNL     1      61.913  27.431  28.326  1.00  0.00    -0.000 C 
BRANCH  24  25
ATOM     25  C   UNL     1      61.788  26.779  26.934  1.00  0.00    -0.000 C 
BRANCH  25  26
ATOM     26  C   UNL     1      60.384  26.891  26.297  1.00  0.00    -0.000 C 
BRANCH  26  27
ATOM     27  C   UNL     1      60.355  27.720  24.998  1.00  0.00    -0.000 C 
BRANCH  27  28
ATOM     28  C   UNL     1      61.700  28.361  24.603  1.00  0.00    -0.000 C 
BRANCH  28  29
ATOM     29  C   UNL     1      62.307  27.831  23.291  1.00  0.00    -0.003 C 
ATOM     30  C   UNL     1      63.410  26.798  23.521  1.00  0.00     0.004 C 
ENDBRANCH  28  29
ENDBRANCH  27  28
ENDBRANCH  26  27
ENDBRANCH  25  26
ENDBRANCH  24  25
ENDBRANCH  23  24
ENDBRANCH  22  23
ENDBRANCH  21  22
ENDBRANCH  20  21
ENDBRANCH  19  20
ENDBRANCH  18  19
ENDBRANCH  17  18
ENDBRANCH   1  17
TORSDOF 26
ENDMDL
MODEL 2
REMARK VINA RESULT:    -4.909      6.119     10.851
REMARK INTER + INTRA:         -15.406
REMARK INTER:                 -11.476
REMARK INTRA:                  -3.930
REMARK UNBOUND:                -3.037
REMARK SMILES CCCCCCCCCCCCCCCCCCCCCCCCCCCC(=O)[O-]
REMARK SMILES IDX 15 1 16 2 17 3 18 4 19 5 20 6 21 7 22 8 23 9 24 10 25 11
REMARK SMILES IDX 26 12 27 13 28 14 29 15 30 16 14 17 13 18 12 19 11 20 10 21
REMARK SMILES IDX 9 22 8 23 7 24 6 25 5 26 4 27 3 28 2 29 1 30
REMARK H PARENT
REMARK Flexibility Score: inf
ROOT
ATOM      1  C   UNL     1      59.696  28.364  13.007  1.00  0.00     0.000 C 
ENDROOT
BRANCH   1   2
ATOM      2  C   UNL     1      59.494  29.376  11.860  1.00  0.00     0.000 C 
BRANCH   2   3
ATOM      3  C   UNL     1      59.290  28.743  10.474  1.00  0.00     0.000 C 
BRANCH   3   4
ATOM      4  C   UNL     1      60.280  29.265   9.420  1.00  0.00     0.000 C 
BRANCH   4   5
ATOM      5  C   UNL     1      61.308  28.209   8.972  1.00  0.00     0.000 C 
BRANCH   5   6
ATOM      6  C   UNL     1      62.788  28.552   9.236  1.00  0.00     0.000 C 
BRANCH   6   7
ATOM      7  C   UNL     1      63.042  30.061   9.402  1.00  0.00     0.000 C 
BRANCH   7   8
ATOM      8  C   UNL     1      64.514  30.386   9.720  1.00  0.00     0.000 C 
BRANCH   8   9
ATOM      9  C   UNL     1      64.874  31.885   9.725  1.00  0.00     0.000 C 
BRANCH   9  10
ATOM     10  C   UNL     1      64.776  32.574  11.098  1.00  0.00     0.000 C 
BRANCH  10  11
ATOM     11  C   UNL     1      66.036  33.356  11.517  1.00  0.00     0.000 C 
BRANCH  11  12
ATOM     12  C   UNL     1      65.736  34.785  12.022  1.00  0.00     0.006 C 
BRANCH  12  13
ATOM     13  C   UNL     1      66.599  35.170  13.233  1.00  0.00     0.053 C 
BRANCH  13  14
ATOM     14  C   UNL     1      66.054  34.574  14.495  1.00  0.00     0.041 C 
ATOM     15  O   UNL     1      66.316  33.379  14.798  1.00  0.00    -0.550 OA
ATOM     16  O   UNL     1      65.261  35.341  15.342  1.00  0.00    -0.550 OA
ENDBRANCH  13  14
ENDBRANCH  12  13
ENDBRANCH  11  12
ENDBRANCH  10  11
ENDBRANCH   9  10
ENDBRANCH   8   9
ENDBRANCH   7   8
ENDBRANCH   6   7
ENDBRANCH   5   6
ENDBRANCH   4   5
ENDBRANCH   3   4
ENDBRANCH   2   3
ENDBRANCH   1   2
BRANCH   1  17
ATOM     17  C   UNL     1      61.041  28.531  13.740  1.00  0.00     0.000 C 
BRANCH  17  18
ATOM     18  C   UNL     1      62.245  28.606  12.781  1.00  0.00     0.000 C 
BRANCH  18  19
ATOM     19  C   UNL     1      63.387  29.532  13.236  1.00  0.00     0.000 C 
BRANCH  19  20
ATOM     20  C   UNL     1      63.045  30.331  14.505  1.00  0.00     0.000 C 
BRANCH  20  21
ATOM     21  C   UNL     1      63.122  31.852  14.285  1.00  0.00     0.000 C 
BRANCH  21  22
ATOM     22  C   UNL     1      61.912  32.407  13.512  1.00  0.00    -0.000 C 
BRANCH  22  23
ATOM     23  C   UNL     1      60.567  32.027  14.156  1.00  0.00    -0.000 C 
BRANCH  23  24
ATOM     24  C   UNL     1      60.413  32.394  15.648  1.00  0.00    -0.000 C 
BRANCH  24  25
ATOM     25  C   UNL     1      60.430  33.903  15.964  1.00  0.00    -0.000 C 
BRANCH  25  26
ATOM     26  C   UNL     1      60.895  34.253  17.396  1.00  0.00    -0.000 C 
BRANCH  26  27
ATOM     27  C   UNL     1      61.848  33.210  18.013  1.00  0.00    -0.000 C 
BRANCH  27  28
ATOM     28  C   UNL     1      63.340  33.416  17.686  1.00  0.00    -0.000 C 
BRANCH  28  29
ATOM     29  C   UNL     1      64.269  33.465  18.913  1.00  0.00    -0.003 C 
ATOM     30  C   UNL     1      63.514  33.701  20.220  1.00  0.00     0.004 C 
ENDBRANCH  28  29
ENDBRANCH  27  28
ENDBRANCH  26  27
ENDBRANCH  25  26
ENDBRANCH  24  25
ENDBRANCH  23  24
ENDBRANCH  22  23
ENDBRANCH  21  22
ENDBRANCH  20  21
ENDBRANCH  19  20
ENDBRANCH  18  19
ENDBRANCH  17  18
ENDBRANCH   1  17
TORSDOF 26
ENDMDL
MODEL 3
REMARK VINA RESULT:    -4.864      6.323     10.640
REMARK INTER + INTRA:         -15.293
REMARK INTER:                 -10.563
REMARK INTRA:                  -4.730
REMARK UNBOUND:                -3.037
REMARK SMILES CCCCCCCCCCCCCCCCCCCCCCCCCCCC(=O)[O-]
REMARK SMILES IDX 15 1 16 2 17 3 18 4 19 5 20 6 21 7 22 8 23 9 24 10 25 11
REMARK SMILES IDX 26 12 27 13 28 14 29 15 30 16 14 17 13 18 12 19 11 20 10 21
REMARK SMILES IDX 9 22 8 23 7 24 6 25 5 26 4 27 3 28 2 29 1 30
REMARK H PARENT
REMARK Flexibility Score: inf
ROOT
ATOM      1  C   UNL     1      59.402  28.807  12.803  1.00  0.00     0.000 C 
ENDROOT
BRANCH   1   2
ATOM      2  C   UNL     1      59.757  28.486  11.336  1.00  0.00     0.000 C 
BRANCH   2   3
ATOM      3  C   UNL     1      59.717  29.695  10.387  1.00  0.00     0.000 C 
BRANCH   3   4
ATOM      4  C   UNL     1      60.704  29.575   9.215  1.00  0.00     0.000 C 
BRANCH   4   5
ATOM      5  C   UNL     1      61.583  28.311   9.283  1.00  0.00     0.000 C 
BRANCH   5   6
ATOM      6  C   UNL     1      63.083  28.546   9.548  1.00  0.00     0.000 C 
BRANCH   6   7
ATOM      7  C   UNL     1      63.628  29.819   8.876  1.00  0.00     0.000 C 
BRANCH   7   8
ATOM      8  C   UNL     1      64.759  30.482   9.683  1.00  0.00     0.000 C 
BRANCH   8   9
ATOM      9  C   UNL     1      64.468  31.912  10.179  1.00  0.00     0.000 C 
BRANCH   9  10
ATOM     10  C   UNL     1      64.110  32.024  11.672  1.00  0.00     0.000 C 
BRANCH  10  11
ATOM     11  C   UNL     1      62.643  31.699  12.009  1.00  0.00     0.000 C 
BRANCH  11  12
ATOM     12  C   UNL     1      62.000  32.696  12.998  1.00  0.00     0.006 C 
BRANCH  12  13
ATOM     13  C   UNL     1      60.674  32.177  13.573  1.00  0.00     0.053 C 
BRANCH  13  14
ATOM     14  C   UNL     1      60.619  32.367  15.058  1.00  0.00     0.041 C 
ATOM     15  O   UNL     1      60.448  31.377  15.819  1.00  0.00    -0.550 OA
ATOM     16  O   UNL     1      60.762  33.638  15.603  1.00  0.00    -0.550 OA
ENDBRANCH  13  14
ENDBRANCH  12  13
ENDBRANCH  11  12
ENDBRANCH  10  11
ENDBRANCH   9  10
ENDBRANCH   8   9
ENDBRANCH   7   8
ENDBRANCH   6   7
ENDBRANCH   5   6
ENDBRANCH   4   5
ENDBRANCH   3   4
ENDBRANCH   2   3
ENDBRANCH   1   2
BRANCH   1  17
ATOM     17  C   UNL     1      60.569  28.568  13.781  1.00  0.00     0.000 C 
BRANCH  17  18
ATOM     18  C   UNL     1      61.818  27.981  13.096  1.00  0.00     0.000 C 
BRANCH  18  19
ATOM     19  C   UNL     1      63.101  28.818  13.245  1.00  0.00     0.000 C 
BRANCH  19  20
ATOM     20  C   UNL     1      63.200  29.529  14.606  1.00  0.00     0.000 C 
BRANCH  20  21
ATOM     21  C   UNL     1      64.591  30.136  14.856  1.00  0.00     0.000 C 
BRANCH  21  22
ATOM     22  C   UNL     1      64.530  31.593  15.348  1.00  0.00    -0.000 C 
BRANCH  22  23
ATOM     23  C   UNL     1      65.734  32.431  14.883  1.00  0.00    -0.000 C 
BRANCH  23  24
ATOM     24  C   UNL     1      65.443  33.921  14.605  1.00  0.00    -0.000 C 
BRANCH  24  25
ATOM     25  C   UNL     1      64.486  34.606  15.601  1.00  0.00    -0.000 C 
BRANCH  25  26
ATOM     26  C   UNL     1      65.157  35.086  16.909  1.00  0.00    -0.000 C 
BRANCH  26  27
ATOM     27  C   UNL     1      64.307  34.843  18.170  1.00  0.00    -0.000 C 
BRANCH  27  28
ATOM     28  C   UNL     1      63.237  33.742  18.033  1.00  0.00    -0.000 C 
BRANCH  28  29
ATOM     29  C   UNL     1      62.426  33.466  19.313  1.00  0.00    -0.003 C 
ATOM     30  C   UNL     1      60.921  33.634  19.110  1.00  0.00     0.004 C 
ENDBRANCH  28  29
ENDBRANCH  27  28
ENDBRANCH  26  27
ENDBRANCH  25  26
ENDBRANCH  24  25
ENDBRANCH  23  24
ENDBRANCH  22  23
ENDBRANCH  21  22
ENDBRANCH  20  21
ENDBRANCH  19  20
ENDBRANCH  18  19
ENDBRANCH  17  18
ENDBRANCH   1  17
TORSDOF 26
ENDMDL
MODEL 4
REMARK VINA RESULT:    -4.830      1.521      2.941
REMARK INTER + INTRA:         -15.208
REMARK INTER:                 -12.002
REMARK INTRA:                  -3.206
REMARK UNBOUND:                -3.037
REMARK SMILES CCCCCCCCCCCCCCCCCCCCCCCCCCCC(=O)[O-]
REMARK SMILES IDX 15 1 16 2 17 3 18 4 19 5 20 6 21 7 22 8 23 9 24 10 25 11
REMARK SMILES IDX 26 12 27 13 28 14 29 15 30 16 14 17 13 18 12 19 11 20 10 21
REMARK SMILES IDX 9 22 8 23 7 24 6 25 5 26 4 27 3 28 2 29 1 30
REMARK H PARENT
REMARK Flexibility Score: inf
ROOT
ATOM      1  C   UNL     1      65.585  32.350  22.219  1.00  0.00     0.000 C 
ENDROOT
BRANCH   1   2
ATOM      2  C   UNL     1      64.076  32.599  22.423  1.00  0.00     0.000 C 
BRANCH   2   3
ATOM      3  C   UNL     1      63.450  33.596  21.435  1.00  0.00     0.000 C 
BRANCH   3   4
ATOM      4  C   UNL     1      64.495  34.363  20.609  1.00  0.00     0.000 C 
BRANCH   4   5
ATOM      5  C   UNL     1      64.494  33.982  19.116  1.00  0.00     0.000 C 
BRANCH   5   6
ATOM      6  C   UNL     1      63.219  33.288  18.598  1.00  0.00     0.000 C 
BRANCH   6   7
ATOM      7  C   UNL     1      62.518  34.065  17.470  1.00  0.00     0.000 C 
BRANCH   7   8
ATOM      8  C   UNL     1      61.012  33.756  17.378  1.00  0.00     0.000 C 
BRANCH   8   9
ATOM      9  C   UNL     1      60.369  33.995  15.998  1.00  0.00     0.000 C 
BRANCH   9  10
ATOM     10  C   UNL     1      60.682  32.922  14.939  1.00  0.00     0.000 C 
BRANCH  10  11
ATOM     11  C   UNL     1      60.587  31.470  15.445  1.00  0.00     0.000 C 
BRANCH  11  12
ATOM     12  C   UNL     1      61.753  30.574  14.974  1.00  0.00     0.006 C 
BRANCH  12  13
ATOM     13  C   UNL     1      61.264  29.314  14.244  1.00  0.00     0.053 C 
BRANCH  13  14
ATOM     14  C   UNL     1      60.515  29.670  12.997  1.00  0.00     0.041 C 
ATOM     15  O   UNL     1      61.068  30.358  12.097  1.00  0.00    -0.550 OA
ATOM     16  O   UNL     1      59.205  29.237  12.823  1.00  0.00    -0.550 OA
ENDBRANCH  13  14
ENDBRANCH  12  13
ENDBRANCH  11  12
ENDBRANCH  10  11
ENDBRANCH   9  10
ENDBRANCH   8   9
ENDBRANCH   7   8
ENDBRANCH   6   7
ENDBRANCH   5   6
ENDBRANCH   4   5
ENDBRANCH   3   4
ENDBRANCH   2   3
ENDBRANCH   1   2
BRANCH   1  17
ATOM     17  C   UNL     1      66.085  31.049  22.876  1.00  0.00     0.000 C 
BRANCH  17  18
ATOM     18  C   UNL     1      66.779  30.100  21.880  1.00  0.00     0.000 C 
BRANCH  18  19
ATOM     19  C   UNL     1      66.459  28.606  22.068  1.00  0.00     0.000 C 
BRANCH  19  20
ATOM     20  C   UNL     1      66.111  28.244  23.522  1.00  0.00     0.000 C 
BRANCH  20  21
ATOM     21  C   UNL     1      65.215  26.998  23.623  1.00  0.00     0.000 C 
BRANCH  21  22
ATOM     22  C   UNL     1      64.874  26.621  25.076  1.00  0.00    -0.000 C 
BRANCH  22  23
ATOM     23  C   UNL     1      63.523  25.893  25.202  1.00  0.00    -0.000 C 
BRANCH  23  24
ATOM     24  C   UNL     1      62.425  26.654  25.974  1.00  0.00    -0.000 C 
BRANCH  24  25
ATOM     25  C   UNL     1      61.323  27.291  25.103  1.00  0.00    -0.000 C 
BRANCH  25  26
ATOM     26  C   UNL     1      61.312  28.837  25.113  1.00  0.00    -0.000 C 
BRANCH  26  27
ATOM     27  C   UNL     1      62.564  29.472  24.478  1.00  0.00    -0.000 C 
BRANCH  27  28
ATOM     28  C   UNL     1      63.288  30.509  25.358  1.00  0.00    -0.000 C 
BRANCH  28  29
ATOM     29  C   UNL     1      63.778  29.974  26.716  1.00  0.00    -0.003 C 
ATOM     30  C   UNL     1      65.300  29.847  26.790  1.00  0.00     0.004 C 
ENDBRANCH  28  29
ENDBRANCH  27  28
ENDBRANCH  26  27
ENDBRANCH  25  26
ENDBRANCH  24  25
ENDBRANCH  23  24
ENDBRANCH  22  23
ENDBRANCH  21  22
ENDBRANCH  20  21
ENDBRANCH  19  20
ENDBRANCH  18  19
ENDBRANCH  17  18
ENDBRANCH   1  17
TORSDOF 26
ENDMDL
MODEL 5
REMARK VINA RESULT:    -4.819      1.447      3.346
REMARK INTER + INTRA:         -15.180
REMARK INTER:                 -12.520
REMARK INTRA:                  -2.660
REMARK UNBOUND:                -3.037
REMARK SMILES CCCCCCCCCCCCCCCCCCCCCCCCCCCC(=O)[O-]
REMARK SMILES IDX 15 1 16 2 17 3 18 4 19 5 20 6 21 7 22 8 23 9 24 10 25 11
REMARK SMILES IDX 26 12 27 13 28 14 29 15 30 16 14 17 13 18 12 19 11 20 10 21
REMARK SMILES IDX 9 22 8 23 7 24 6 25 5 26 4 27 3 28 2 29 1 30
REMARK H PARENT
REMARK Flexibility Score: inf
ROOT
ATOM      1  C   UNL     1      64.118  33.440  21.597  1.00  0.00     0.000 C 
ENDROOT
BRANCH   1   2
ATOM      2  C   UNL     1      62.678  33.547  21.056  1.00  0.00     0.000 C 
BRANCH   2   3
ATOM      3  C   UNL     1      62.559  33.458  19.526  1.00  0.00     0.000 C 
BRANCH   3   4
ATOM      4  C   UNL     1      61.106  33.523  19.028  1.00  0.00     0.000 C 
BRANCH   4   5
ATOM      5  C   UNL     1      60.962  34.197  17.650  1.00  0.00     0.000 C 
BRANCH   5   6
ATOM      6  C   UNL     1      61.361  33.338  16.434  1.00  0.00     0.000 C 
BRANCH   6   7
ATOM      7  C   UNL     1      60.281  33.295  15.339  1.00  0.00     0.000 C 
BRANCH   7   8
ATOM      8  C   UNL     1      60.229  31.941  14.605  1.00  0.00     0.000 C 
BRANCH   8   9
ATOM      9  C   UNL     1      60.587  31.986  13.107  1.00  0.00     0.000 C 
BRANCH   9  10
ATOM     10  C   UNL     1      61.991  31.460  12.756  1.00  0.00     0.000 C 
BRANCH  10  11
ATOM     11  C   UNL     1      62.281  30.027  13.241  1.00  0.00     0.000 C 
BRANCH  11  12
ATOM     12  C   UNL     1      61.609  28.935  12.380  1.00  0.00     0.006 C 
BRANCH  12  13
ATOM     13  C   UNL     1      60.500  28.192  13.141  1.00  0.00     0.053 C 
BRANCH  13  14
ATOM     14  C   UNL     1      59.177  28.348  12.455  1.00  0.00     0.041 C 
ATOM     15  O   UNL     1      58.156  27.761  12.902  1.00  0.00    -0.550 OA
ATOM     16  O   UNL     1      59.070  29.148  11.323  1.00  0.00    -0.550 OA
ENDBRANCH  13  14
ENDBRANCH  12  13
ENDBRANCH  11  12
ENDBRANCH  10  11
ENDBRANCH   9  10
ENDBRANCH   8   9
ENDBRANCH   7   8
ENDBRANCH   6   7
ENDBRANCH   5   6
ENDBRANCH   4   5
ENDBRANCH   3   4
ENDBRANCH   2   3
ENDBRANCH   1   2
BRANCH   1  17
ATOM     17  C   UNL     1      64.295  32.330  22.652  1.00  0.00     0.000 C 
BRANCH  17  18
ATOM     18  C   UNL     1      65.672  31.645  22.580  1.00  0.00     0.000 C 
BRANCH  18  19
ATOM     19  C   UNL     1      65.734  30.233  23.191  1.00  0.00     0.000 C 
BRANCH  19  20
ATOM     20  C   UNL     1      66.154  30.235  24.671  1.00  0.00     0.000 C 
BRANCH  20  21
ATOM     21  C   UNL     1      66.019  28.850  25.325  1.00  0.00     0.000 C 
BRANCH  21  22
ATOM     22  C   UNL     1      64.887  28.786  26.366  1.00  0.00    -0.000 C 
BRANCH  22  23
ATOM     23  C   UNL     1      64.224  30.153  26.611  1.00  0.00    -0.000 C 
BRANCH  23  24
ATOM     24  C   UNL     1      62.724  30.241  26.258  1.00  0.00    -0.000 C 
BRANCH  24  25
ATOM     25  C   UNL     1      62.013  28.889  26.043  1.00  0.00    -0.000 C 
BRANCH  25  26
ATOM     26  C   UNL     1      61.464  28.674  24.614  1.00  0.00    -0.000 C 
BRANCH  26  27
ATOM     27  C   UNL     1      62.541  28.267  23.589  1.00  0.00    -0.000 C 
BRANCH  27  28
ATOM     28  C   UNL     1      63.151  26.869  23.805  1.00  0.00    -0.000 C 
BRANCH  28  29
ATOM     29  C   UNL     1      64.201  26.453  22.757  1.00  0.00    -0.003 C 
ATOM     30  C   UNL     1      65.401  25.735  23.373  1.00  0.00     0.004 C 
ENDBRANCH  28  29
ENDBRANCH  27  28
ENDBRANCH  26  27
ENDBRANCH  25  26
ENDBRANCH  24  25
ENDBRANCH  23  24
ENDBRANCH  22  23
ENDBRANCH  21  22
ENDBRANCH  20  21
ENDBRANCH  19  20
ENDBRANCH  18  19
ENDBRANCH  17  18
ENDBRANCH   1  17
TORSDOF 26
ENDMDL
MODEL 6
REMARK VINA RESULT:    -4.814      3.232     10.187
REMARK INTER + INTRA:         -15.168
REMARK INTER:                 -12.512
REMARK INTRA:                  -2.656
REMARK UNBOUND:                -3.037
REMARK SMILES CCCCCCCCCCCCCCCCCCCCCCCCCCCC(=O)[O-]
REMARK SMILES IDX 15 1 16 2 17 3 18 4 19 5 20 6 21 7 22 8 23 9 24 10 25 11
REMARK SMILES IDX 26 12 27 13 28 14 29 15 30 16 14 17 13 18 12 19 11 20 10 21
REMARK SMILES IDX 9 22 8 23 7 24 6 25 5 26 4 27 3 28 2 29 1 30
REMARK H PARENT
REMARK Flexibility Score: inf
ROOT
ATOM      1  C   UNL     1      63.677  30.034  24.059  1.00  0.00     0.000 C 
ENDROOT
BRANCH   1   2
ATOM      2  C   UNL     1      63.336  30.335  25.533  1.00  0.00     0.000 C 
BRANCH   2   3
ATOM      3  C   UNL     1      64.198  29.580  26.558  1.00  0.00     0.000 C 
BRANCH   3   4
ATOM      4  C   UNL     1      63.676  29.710  27.998  1.00  0.00     0.000 C 
BRANCH   4   5
ATOM      5  C   UNL     1      62.194  30.124  28.076  1.00  0.00     0.000 C 
BRANCH   5   6
ATOM      6  C   UNL     1      61.204  29.016  28.487  1.00  0.00     0.000 C 
BRANCH   6   7
ATOM      7  C   UNL     1      61.782  27.598  28.339  1.00  0.00     0.000 C 
BRANCH   7   8
ATOM      8  C   UNL     1      61.047  26.763  27.272  1.00  0.00     0.000 C 
BRANCH   8   9
ATOM      9  C   UNL     1      60.972  27.400  25.870  1.00  0.00     0.000 C 
BRANCH   9  10
ATOM     10  C   UNL     1      62.084  26.966  24.898  1.00  0.00     0.000 C 
BRANCH  10  11
ATOM     11  C   UNL     1      63.180  26.083  25.524  1.00  0.00     0.000 C 
BRANCH  11  12
ATOM     12  C   UNL     1      64.541  26.181  24.801  1.00  0.00     0.006 C 
BRANCH  12  13
ATOM     13  C   UNL     1      64.386  26.492  23.304  1.00  0.00     0.053 C 
BRANCH  13  14
ATOM     14  C   UNL     1      65.671  26.259  22.569  1.00  0.00     0.041 C 
ATOM     15  O   UNL     1      66.437  27.225  22.306  1.00  0.00    -0.550 OA
ATOM     16  O   UNL     1      66.027  24.972  22.179  1.00  0.00    -0.550 OA
ENDBRANCH  13  14
ENDBRANCH  12  13
ENDBRANCH  11  12
ENDBRANCH  10  11
ENDBRANCH   9  10
ENDBRANCH   8   9
ENDBRANCH   7   8
ENDBRANCH   6   7
ENDBRANCH   5   6
ENDBRANCH   4   5
ENDBRANCH   3   4
ENDBRANCH   2   3
ENDBRANCH   1   2
BRANCH   1  17
ATOM     17  C   UNL     1      64.931  30.778  23.557  1.00  0.00     0.000 C 
BRANCH  17  18
ATOM     18  C   UNL     1      64.596  32.036  22.735  1.00  0.00     0.000 C 
BRANCH  18  19
ATOM     19  C   UNL     1      65.773  32.634  21.944  1.00  0.00     0.000 C 
BRANCH  19  20
ATOM     20  C   UNL     1      65.321  33.531  20.779  1.00  0.00     0.000 C 
BRANCH  20  21
ATOM     21  C   UNL     1      63.791  33.659  20.690  1.00  0.00     0.000 C 
BRANCH  21  22
ATOM     22  C   UNL     1      63.262  33.532  19.250  1.00  0.00    -0.000 C 
BRANCH  22  23
ATOM     23  C   UNL     1      61.726  33.581  19.172  1.00  0.00    -0.000 C 
BRANCH  23  24
ATOM     24  C   UNL     1      61.131  33.647  17.750  1.00  0.00    -0.000 C 
BRANCH  24  25
ATOM     25  C   UNL     1      62.147  33.897  16.617  1.00  0.00    -0.000 C 
BRANCH  25  26
ATOM     26  C   UNL     1      61.841  33.142  15.303  1.00  0.00    -0.000 C 
BRANCH  26  27
ATOM     27  C   UNL     1      60.355  33.175  14.899  1.00  0.00    -0.000 C 
BRANCH  27  28
ATOM     28  C   UNL     1      60.028  32.484  13.561  1.00  0.00    -0.000 C 
BRANCH  28  29
ATOM     29  C   UNL     1      59.613  31.006  13.682  1.00  0.00    -0.003 C 
ATOM     30  C   UNL     1      59.758  30.239  12.368  1.00  0.00     0.004 C 
ENDBRANCH  28  29
ENDBRANCH  27  28
ENDBRANCH  26  27
ENDBRANCH  25  26
ENDBRANCH  24  25
ENDBRANCH  23  24
ENDBRANCH  22  23
ENDBRANCH  21  22
ENDBRANCH  20  21
ENDBRANCH  19  20
ENDBRANCH  18  19
ENDBRANCH  17  18
ENDBRANCH   1  17
TORSDOF 26
ENDMDL
MODEL 7
REMARK VINA RESULT:    -4.798      1.240      3.232
REMARK INTER + INTRA:         -15.128
REMARK INTER:                 -13.069
REMARK INTRA:                  -2.059
REMARK UNBOUND:                -3.037
REMARK SMILES CCCCCCCCCCCCCCCCCCCCCCCCCCCC(=O)[O-]
REMARK SMILES IDX 15 1 16 2 17 3 18 4 19 5 20 6 21 7 22 8 23 9 24 10 25 11
REMARK SMILES IDX 26 12 27 13 28 14 29 15 30 16 14 17 13 18 12 19 11 20 10 21
REMARK SMILES IDX 9 22 8 23 7 24 6 25 5 26 4 27 3 28 2 29 1 30
REMARK H PARENT
REMARK Flexibility Score: inf
ROOT
ATOM      1  C   UNL     1      64.163  32.551  22.500  1.00  0.00     0.000 C 
ENDROOT
BRANCH   1   2
ATOM      2  C   UNL     1      63.360  33.504  21.590  1.00  0.00     0.000 C 
BRANCH   2   3
ATOM      3  C   UNL     1      64.084  33.922  20.300  1.00  0.00     0.000 C 
BRANCH   3   4
ATOM      4  C   UNL     1      63.341  33.495  19.024  1.00  0.00     0.000 C 
BRANCH   4   5
ATOM      5  C   UNL     1      61.808  33.547  19.164  1.00  0.00     0.000 C 
BRANCH   5   6
ATOM      6  C   UNL     1      61.038  34.099  17.948  1.00  0.00     0.000 C 
BRANCH   6   7
ATOM      7  C   UNL     1      61.526  33.526  16.606  1.00  0.00     0.000 C 
BRANCH   7   8
ATOM      8  C   UNL     1      60.413  33.464  15.543  1.00  0.00     0.000 C 
BRANCH   8   9
ATOM      9  C   UNL     1      59.857  32.057  15.247  1.00  0.00     0.000 C 
BRANCH   9  10
ATOM     10  C   UNL     1      59.606  31.756  13.758  1.00  0.00     0.000 C 
BRANCH  10  11
ATOM     11  C   UNL     1      60.879  31.671  12.895  1.00  0.00     0.000 C 
BRANCH  11  12
ATOM     12  C   UNL     1      61.095  30.286  12.246  1.00  0.00     0.006 C 
BRANCH  12  13
ATOM     13  C   UNL     1      60.313  29.176  12.966  1.00  0.00     0.053 C 
BRANCH  13  14
ATOM     14  C   UNL     1      59.246  28.607  12.081  1.00  0.00     0.041 C 
ATOM     15  O   UNL     1      59.298  28.778  10.833  1.00  0.00    -0.550 OA
ATOM     16  O   UNL     1      58.196  27.882  12.633  1.00  0.00    -0.550 OA
ENDBRANCH  13  14
ENDBRANCH  12  13
ENDBRANCH  11  12
ENDBRANCH  10  11
ENDBRANCH   9  10
ENDBRANCH   8   9
ENDBRANCH   7   8
ENDBRANCH   6   7
ENDBRANCH   5   6
ENDBRANCH   4   5
ENDBRANCH   3   4
ENDBRANCH   2   3
ENDBRANCH   1   2
BRANCH   1  17
ATOM     17  C   UNL     1      65.622  32.355  22.044  1.00  0.00     0.000 C 
BRANCH  17  18
ATOM     18  C   UNL     1      66.263  31.074  22.609  1.00  0.00     0.000 C 
BRANCH  18  19
ATOM     19  C   UNL     1      65.480  30.399  23.750  1.00  0.00     0.000 C 
BRANCH  19  20
ATOM     20  C   UNL     1      65.156  28.922  23.466  1.00  0.00     0.000 C 
BRANCH  20  21
ATOM     21  C   UNL     1      65.487  28.004  24.655  1.00  0.00     0.000 C 
BRANCH  21  22
ATOM     22  C   UNL     1      64.890  26.593  24.508  1.00  0.00    -0.000 C 
BRANCH  22  23
ATOM     23  C   UNL     1      63.644  26.378  25.385  1.00  0.00    -0.000 C 
BRANCH  23  24
ATOM     24  C   UNL     1      62.340  27.015  24.861  1.00  0.00    -0.000 C 
BRANCH  24  25
ATOM     25  C   UNL     1      61.311  27.403  25.942  1.00  0.00    -0.000 C 
BRANCH  25  26
ATOM     26  C   UNL     1      61.555  26.752  27.323  1.00  0.00    -0.000 C 
BRANCH  26  27
ATOM     27  C   UNL     1      62.011  27.747  28.408  1.00  0.00    -0.000 C 
BRANCH  27  28
ATOM     28  C   UNL     1      61.497  29.188  28.228  1.00  0.00    -0.000 C 
BRANCH  28  29
ATOM     29  C   UNL     1      62.599  30.258  28.116  1.00  0.00    -0.003 C 
ATOM     30  C   UNL     1      63.840  29.757  27.379  1.00  0.00     0.004 C 
ENDBRANCH  28  29
ENDBRANCH  27  28
ENDBRANCH  26  27
ENDBRANCH  25  26
ENDBRANCH  24  25
ENDBRANCH  23  24
ENDBRANCH  22  23
ENDBRANCH  21  22
ENDBRANCH  20  21
ENDBRANCH  19  20
ENDBRANCH  18  19
ENDBRANCH  17  18
ENDBRANCH   1  17
TORSDOF 26
ENDMDL
MODEL 8
REMARK VINA RESULT:    -4.796      1.485      2.255
REMARK INTER + INTRA:         -15.124
REMARK INTER:                 -12.061
REMARK INTRA:                  -3.062
REMARK UNBOUND:                -3.037
REMARK SMILES CCCCCCCCCCCCCCCCCCCCCCCCCCCC(=O)[O-]
REMARK SMILES IDX 15 1 16 2 17 3 18 4 19 5 20 6 21 7 22 8 23 9 24 10 25 11
REMARK SMILES IDX 26 12 27 13 28 14 29 15 30 16 14 17 13 18 12 19 11 20 10 21
REMARK SMILES IDX 9 22 8 23 7 24 6 25 5 26 4 27 3 28 2 29 1 30
REMARK H PARENT
REMARK Flexibility Score: inf
ROOT
ATOM      1  C   UNL     1      65.215  31.873  22.755  1.00  0.00     0.000 C 
ENDROOT
BRANCH   1   2
ATOM      2  C   UNL     1      63.761  32.380  22.856  1.00  0.00     0.000 C 
BRANCH   2   3
ATOM      3  C   UNL     1      63.409  33.517  21.885  1.00  0.00     0.000 C 
BRANCH   3   4
ATOM      4  C   UNL     1      64.150  33.416  20.542  1.00  0.00     0.000 C 
BRANCH   4   5
ATOM      5  C   UNL     1      63.223  33.555  19.320  1.00  0.00     0.000 C 
BRANCH   5   6
ATOM      6  C   UNL     1      61.710  33.566  19.618  1.00  0.00     0.000 C 
BRANCH   6   7
ATOM      7  C   UNL     1      60.852  33.942  18.398  1.00  0.00     0.000 C 
BRANCH   7   8
ATOM      8  C   UNL     1      61.640  33.890  17.075  1.00  0.00     0.000 C 
BRANCH   8   9
ATOM      9  C   UNL     1      60.867  33.332  15.865  1.00  0.00     0.000 C 
BRANCH   9  10
ATOM     10  C   UNL     1      61.679  32.405  14.943  1.00  0.00     0.000 C 
BRANCH  10  11
ATOM     11  C   UNL     1      61.258  32.439  13.461  1.00  0.00     0.000 C 
BRANCH  11  12
ATOM     12  C   UNL     1      60.738  31.083  12.936  1.00  0.00     0.006 C 
BRANCH  12  13
ATOM     13  C   UNL     1      60.836  29.971  13.991  1.00  0.00     0.053 C 
BRANCH  13  14
ATOM     14  C   UNL     1      61.060  28.636  13.348  1.00  0.00     0.041 C 
ATOM     15  O   UNL     1      62.187  28.345  12.865  1.00  0.00    -0.550 OA
ATOM     16  O   UNL     1      60.025  27.709  13.288  1.00  0.00    -0.550 OA
ENDBRANCH  13  14
ENDBRANCH  12  13
ENDBRANCH  11  12
ENDBRANCH  10  11
ENDBRANCH   9  10
ENDBRANCH   8   9
ENDBRANCH   7   8
ENDBRANCH   6   7
ENDBRANCH   5   6
ENDBRANCH   4   5
ENDBRANCH   3   4
ENDBRANCH   2   3
ENDBRANCH   1   2
BRANCH   1  17
ATOM     17  C   UNL     1      65.364  30.374  23.082  1.00  0.00     0.000 C 
BRANCH  17  18
ATOM     18  C   UNL     1      66.549  30.077  24.019  1.00  0.00     0.000 C 
BRANCH  18  19
ATOM     19  C   UNL     1      66.233  29.139  25.198  1.00  0.00     0.000 C 
BRANCH  19  20
ATOM     20  C   UNL     1      65.827  29.894  26.476  1.00  0.00     0.000 C 
BRANCH  20  21
ATOM     21  C   UNL     1      64.375  29.608  26.895  1.00  0.00     0.000 C 
BRANCH  21  22
ATOM     22  C   UNL     1      63.349  30.437  26.103  1.00  0.00    -0.000 C 
BRANCH  22  23
ATOM     23  C   UNL     1      62.081  29.639  25.750  1.00  0.00    -0.000 C 
BRANCH  23  24
ATOM     24  C   UNL     1      62.199  28.707  24.525  1.00  0.00    -0.000 C 
BRANCH  24  25
ATOM     25  C   UNL     1      61.784  27.242  24.765  1.00  0.00    -0.000 C 
BRANCH  25  26
ATOM     26  C   UNL     1      62.662  26.487  25.789  1.00  0.00    -0.000 C 
BRANCH  26  27
ATOM     27  C   UNL     1      64.085  26.181  25.283  1.00  0.00    -0.000 C 
BRANCH  27  28
ATOM     28  C   UNL     1      64.157  25.565  23.872  1.00  0.00    -0.000 C 
BRANCH  28  29
ATOM     29  C   UNL     1      65.508  25.748  23.156  1.00  0.00    -0.003 C 
ATOM     30  C   UNL     1      65.455  26.798  22.047  1.00  0.00     0.004 C 
ENDBRANCH  28  29
ENDBRANCH  27  28
ENDBRANCH  26  27
ENDBRANCH  25  26
ENDBRANCH  24  25
ENDBRANCH  23  24
ENDBRANCH  22  23
ENDBRANCH  21  22
ENDBRANCH  20  21
ENDBRANCH  19  20
ENDBRANCH  18  19
ENDBRANCH  17  18
ENDBRANCH   1  17
TORSDOF 26
ENDMDL
MODEL 9
REMARK VINA RESULT:    -4.719      1.602      2.899
REMARK INTER + INTRA:         -14.929
REMARK INTER:                 -11.977
REMARK INTRA:                  -2.952
REMARK UNBOUND:                -3.037
REMARK SMILES CCCCCCCCCCCCCCCCCCCCCCCCCCCC(=O)[O-]
REMARK SMILES IDX 15 1 16 2 17 3 18 4 19 5 20 6 21 7 22 8 23 9 24 10 25 11
REMARK SMILES IDX 26 12 27 13 28 14 29 15 30 16 14 17 13 18 12 19 11 20 10 21
REMARK SMILES IDX 9 22 8 23 7 24 6 25 5 26 4 27 3 28 2 29 1 30
REMARK H PARENT
REMARK Flexibility Score: inf
ROOT
ATOM      1  C   UNL     1      63.312  30.073  25.229  1.00  0.00     0.000 C 
ENDROOT
BRANCH   1   2
ATOM      2  C   UNL     1      63.718  30.628  23.847  1.00  0.00     0.000 C 
BRANCH   2   3
ATOM      3  C   UNL     1      65.219  30.529  23.531  1.00  0.00     0.000 C 
BRANCH   3   4
ATOM      4  C   UNL     1      65.731  31.690  22.663  1.00  0.00     0.000 C 
BRANCH   4   5
ATOM      5  C   UNL     1      64.636  32.710  22.299  1.00  0.00     0.000 C 
BRANCH   5   6
ATOM      6  C   UNL     1      64.768  33.377  20.915  1.00  0.00     0.000 C 
BRANCH   6   7
ATOM      7  C   UNL     1      63.416  33.780  20.302  1.00  0.00     0.000 C 
BRANCH   7   8
ATOM      8  C   UNL     1      63.355  33.539  18.782  1.00  0.00     0.000 C 
BRANCH   8   9
ATOM      9  C   UNL     1      61.958  33.674  18.145  1.00  0.00     0.000 C 
BRANCH   9  10
ATOM     10  C   UNL     1      61.910  33.446  16.624  1.00  0.00     0.000 C 
BRANCH  10  11
ATOM     11  C   UNL     1      60.587  33.860  15.952  1.00  0.00     0.000 C 
BRANCH  11  12
ATOM     12  C   UNL     1      60.204  32.976  14.744  1.00  0.00     0.006 C 
BRANCH  12  13
ATOM     13  C   UNL     1      61.388  32.141  14.233  1.00  0.00     0.053 C 
BRANCH  13  14
ATOM     14  C   UNL     1      60.997  30.705  14.053  1.00  0.00     0.041 C 
ATOM     15  O   UNL     1      60.270  30.362  13.082  1.00  0.00    -0.550 OA
ATOM     16  O   UNL     1      61.442  29.744  14.953  1.00  0.00    -0.550 OA
ENDBRANCH  13  14
ENDBRANCH  12  13
ENDBRANCH  11  12
ENDBRANCH  10  11
ENDBRANCH   9  10
ENDBRANCH   8   9
ENDBRANCH   7   8
ENDBRANCH   6   7
ENDBRANCH   5   6
ENDBRANCH   4   5
ENDBRANCH   3   4
ENDBRANCH   2   3
ENDBRANCH   1   2
BRANCH   1  17
ATOM     17  C   UNL     1      64.431  30.182  26.283  1.00  0.00     0.000 C 
BRANCH  17  18
ATOM     18  C   UNL     1      63.893  30.388  27.712  1.00  0.00     0.000 C 
BRANCH  18  19
ATOM     19  C   UNL     1      63.246  29.147  28.354  1.00  0.00     0.000 C 
BRANCH  19  20
ATOM     20  C   UNL     1      61.787  29.382  28.780  1.00  0.00     0.000 C 
BRANCH  20  21
ATOM     21  C   UNL     1      60.784  28.609  27.906  1.00  0.00     0.000 C 
BRANCH  21  22
ATOM     22  C   UNL     1      61.358  27.289  27.361  1.00  0.00    -0.000 C 
BRANCH  22  23
ATOM     23  C   UNL     1      61.106  27.107  25.853  1.00  0.00    -0.000 C 
BRANCH  23  24
ATOM     24  C   UNL     1      62.285  26.524  25.045  1.00  0.00    -0.000 C 
BRANCH  24  25
ATOM     25  C   UNL     1      63.605  26.360  25.824  1.00  0.00    -0.000 C 
BRANCH  25  26
ATOM     26  C   UNL     1      64.871  26.756  25.030  1.00  0.00    -0.000 C 
BRANCH  26  27
ATOM     27  C   UNL     1      64.648  26.843  23.507  1.00  0.00    -0.000 C 
BRANCH  27  28
ATOM     28  C   UNL     1      65.933  26.803  22.657  1.00  0.00    -0.000 C 
BRANCH  28  29
ATOM     29  C   UNL     1      65.985  25.669  21.617  1.00  0.00    -0.003 C 
ATOM     30  C   UNL     1      65.960  26.182  20.178  1.00  0.00     0.004 C 
ENDBRANCH  28  29
ENDBRANCH  27  28
ENDBRANCH  26  27
ENDBRANCH  25  26
ENDBRANCH  24  25
ENDBRANCH  23  24
ENDBRANCH  22  23
ENDBRANCH  21  22
ENDBRANCH  20  21
ENDBRANCH  19  20
ENDBRANCH  18  19
ENDBRANCH  17  18
ENDBRANCH   1  17
TORSDOF 26
ENDMDL
