MODEL 1
REMARK VINA RESULT:     7.973      0.000      0.000
REMARK INTER + INTRA:          10.285
REMARK INTER:                  10.536
REMARK INTRA:                  -0.251
REMARK UNBOUND:                -0.251
REMARK SMILES CC[C@@H](C=C[C@@H](C)[C@H]1CC[C@@H]2[C@H]3CC=C4C[C@@H](O)CC[C@@]4(C)[C@H]3CC[C@@]21C)C(C)C
REMARK SMILES IDX 6 1 7 2 5 3 4 4 3 5 2 6 1 7 28 8 29 9 30 10 8 11 9 12 26 13
REMARK SMILES IDX 10 14 11 15 25 16 27 17 12 18 24 19 23 20 13 21 21 22 14 23
REMARK SMILES IDX 15 24 20 25 22 26 16 27 19 28 17 29 18 30
REMARK H PARENT 18 31
REMARK Flexibility Score: inf
ROOT
ATOM      1  C   UNL     1       5.731  76.845   3.045  1.00  0.00     0.012 C 
ATOM      2  C   UNL     1       4.875  76.048   2.049  1.00  0.00     0.012 C 
ENDROOT
BRANCH   1   3
ATOM      3  C   UNL     1       4.783  77.607   3.951  1.00  0.00    -0.028 C 
ATOM      4  C   UNL     1       4.540  77.216   5.212  1.00  0.00    -0.027 C 
BRANCH   4   5
ATOM      5  C   UNL     1       3.576  77.976   6.102  1.00  0.00     0.014 C 
BRANCH   5   6
ATOM      6  C   UNL     1       3.861  77.712   7.605  1.00  0.00     0.004 C 
ATOM      7  C   UNL     1       3.884  78.945   8.511  1.00  0.00     0.004 C 
ENDBRANCH   5   6
BRANCH   5   8
ATOM      8  C   UNL     1       2.092  77.815   5.631  1.00  0.00    -0.011 C 
ATOM      9  C   UNL     1       1.038  77.953   6.749  1.00  0.00     0.008 C 
ATOM     10  C   UNL     1       1.749  78.729   4.444  1.00  0.00     0.008 C 
ENDBRANCH   5   8
ENDBRANCH   4   5
ENDBRANCH   1   3
BRANCH   1  11
ATOM     11  C   UNL     1       6.730  77.833   2.349  1.00  0.00     0.002 C 
ATOM     12  C   UNL     1       6.020  79.111   1.901  1.00  0.00     0.005 C 
ATOM     13  C   UNL     1       7.961  78.353   3.168  1.00  0.00    -0.026 C 
ATOM     14  C   UNL     1       7.113  80.124   1.633  1.00  0.00     0.005 C 
ATOM     15  C   UNL     1       8.313  79.739   2.522  1.00  0.00    -0.001 C 
ATOM     16  C   UNL     1       9.168  77.375   3.117  1.00  0.00     0.007 C 
ATOM     17  C   UNL     1       7.596  78.588   4.657  1.00  0.00     0.012 C 
ATOM     18  C   UNL     1       9.645  79.788   1.713  1.00  0.00     0.000 C 
ATOM     19  C   UNL     1       9.834  77.224   1.741  1.00  0.00     0.005 C 
ATOM     20  C   UNL     1       9.853  78.511   0.860  1.00  0.00     0.003 C 
ATOM     21  C   UNL     1      10.880  80.124   2.591  1.00  0.00     0.031 C 
ATOM     22  C   UNL     1      11.156  78.651  -0.008  1.00  0.00    -0.008 C 
ATOM     23  C   UNL     1      12.198  79.580   2.077  1.00  0.00    -0.027 C 
ATOM     24  C   UNL     1      12.343  78.893   0.921  1.00  0.00    -0.065 C 
ATOM     25  C   UNL     1      11.398  77.363  -0.855  1.00  0.00     0.014 C 
ATOM     26  C   UNL     1      11.021  79.856  -0.986  1.00  0.00     0.016 C 
ATOM     27  C   UNL     1      13.673  78.237   0.616  1.00  0.00     0.063 C 
ATOM     28  C   UNL     1      12.751  77.339  -1.604  1.00  0.00     0.033 C 
ATOM     29  C   UNL     1      13.894  78.113  -0.896  1.00  0.00     0.118 C 
BRANCH  29  30
ATOM     30  O   UNL     1      15.122  77.473  -1.126  1.00  0.00    -0.393 OA
ATOM     31  H   UNL     1      15.666  78.092  -1.680  1.00  0.00     0.210 HD
ENDBRANCH  29  30
ENDBRANCH   1  11
TORSDOF 6
ENDMDL
