MODEL 1
REMARK VINA RESULT:    -4.932      0.000      0.000
REMARK INTER + INTRA:         -10.948
REMARK INTER:                  -8.968
REMARK INTRA:                  -1.980
REMARK UNBOUND:                -1.980
REMARK SMILES CCCCCCCCCCCCCCCC(=O)[O-]
REMARK SMILES IDX 9 1 10 2 11 3 12 4 13 5 14 6 15 7 16 8 17 9 18 10 8 11 7 12
REMARK SMILES IDX 6 13 5 14 4 15 3 16 2 17 1 18
REMARK H PARENT
REMARK Flexibility Score: inf
ROOT
ATOM      1  C   UNL     1      45.785 -14.089 -38.145  1.00  0.00     0.000 C 
ENDROOT
BRANCH   1   2
ATOM      2  C   UNL     1      45.849 -14.353 -36.626  1.00  0.00     0.000 C 
BRANCH   2   3
ATOM      3  C   UNL     1      47.192 -13.951 -35.991  1.00  0.00     0.000 C 
BRANCH   3   4
ATOM      4  C   UNL     1      47.020 -13.112 -34.714  1.00  0.00     0.000 C 
BRANCH   4   5
ATOM      5  C   UNL     1      47.476 -13.856 -33.450  1.00  0.00     0.000 C 
BRANCH   5   6
ATOM      6  C   UNL     1      46.431 -13.801 -32.322  1.00  0.00     0.006 C 
BRANCH   6   7
ATOM      7  C   UNL     1      44.995 -13.820 -32.863  1.00  0.00     0.053 C 
BRANCH   7   8
ATOM      8  C   UNL     1      44.099 -12.896 -32.097  1.00  0.00     0.041 C 
ATOM      9  O   UNL     1      43.955 -13.038 -30.854  1.00  0.00    -0.550 OA
ATOM     10  O   UNL     1      43.400 -11.895 -32.760  1.00  0.00    -0.550 OA
ENDBRANCH   7   8
ENDBRANCH   6   7
ENDBRANCH   5   6
ENDBRANCH   4   5
ENDBRANCH   3   4
ENDBRANCH   2   3
ENDBRANCH   1   2
BRANCH   1  11
ATOM     11  C   UNL     1      46.860 -13.090 -38.607  1.00  0.00     0.000 C 
BRANCH  11  12
ATOM     12  C   UNL     1      46.299 -12.009 -39.544  1.00  0.00    -0.000 C 
BRANCH  12  13
ATOM     13  C   UNL     1      44.927 -12.384 -40.129  1.00  0.00    -0.000 C 
BRANCH  13  14
ATOM     14  C   UNL     1      43.909 -11.224 -40.046  1.00  0.00    -0.000 C 
BRANCH  14  15
ATOM     15  C   UNL     1      43.031 -11.265 -38.782  1.00  0.00    -0.000 C 
BRANCH  15  16
ATOM     16  C   UNL     1      43.602 -10.490 -37.580  1.00  0.00    -0.000 C 
BRANCH  16  17
ATOM     17  C   UNL     1      43.774 -11.354 -36.311  1.00  0.00    -0.003 C 
ATOM     18  C   UNL     1      42.742 -12.475 -36.208  1.00  0.00     0.004 C 
ENDBRANCH  16  17
ENDBRANCH  15  16
ENDBRANCH  14  15
ENDBRANCH  13  14
ENDBRANCH  12  13
ENDBRANCH  11  12
ENDBRANCH   1  11
TORSDOF 14
ENDMDL
MODEL 2
REMARK VINA RESULT:    -4.908      3.181      5.904
REMARK INTER + INTRA:         -10.905
REMARK INTER:                  -8.740
REMARK INTRA:                  -2.165
REMARK UNBOUND:                -1.980
REMARK SMILES CCCCCCCCCCCCCCCC(=O)[O-]
REMARK SMILES IDX 9 1 10 2 11 3 12 4 13 5 14 6 15 7 16 8 17 9 18 10 8 11 7 12
REMARK SMILES IDX 6 13 5 14 4 15 3 16 2 17 1 18
REMARK H PARENT
REMARK Flexibility Score: inf
ROOT
ATOM      1  C   UNL     1      47.063 -13.135 -34.174  1.00  0.00     0.000 C 
ENDROOT
BRANCH   1   2
ATOM      2  C   UNL     1      47.813 -13.175 -35.522  1.00  0.00     0.000 C 
BRANCH   2   3
ATOM      3  C   UNL     1      47.322 -14.290 -36.461  1.00  0.00     0.000 C 
BRANCH   3   4
ATOM      4  C   UNL     1      46.444 -13.761 -37.607  1.00  0.00     0.000 C 
BRANCH   4   5
ATOM      5  C   UNL     1      47.218 -12.853 -38.576  1.00  0.00     0.000 C 
BRANCH   5   6
ATOM      6  C   UNL     1      46.291 -11.946 -39.404  1.00  0.00     0.006 C 
BRANCH   6   7
ATOM      7  C   UNL     1      45.194 -12.742 -40.123  1.00  0.00     0.053 C 
BRANCH   7   8
ATOM      8  C   UNL     1      44.276 -11.850 -40.901  1.00  0.00     0.041 C 
ATOM      9  O   UNL     1      43.691 -12.283 -41.929  1.00  0.00    -0.550 OA
ATOM     10  O   UNL     1      44.089 -10.531 -40.508  1.00  0.00    -0.550 OA
ENDBRANCH   7   8
ENDBRANCH   6   7
ENDBRANCH   5   6
ENDBRANCH   4   5
ENDBRANCH   3   4
ENDBRANCH   2   3
ENDBRANCH   1   2
BRANCH   1  11
ATOM     11  C   UNL     1      46.796 -14.544 -33.615  1.00  0.00     0.000 C 
BRANCH  11  12
ATOM     12  C   UNL     1      45.323 -14.759 -33.236  1.00  0.00    -0.000 C 
BRANCH  12  13
ATOM     13  C   UNL     1      44.468 -15.235 -34.423  1.00  0.00    -0.000 C 
BRANCH  13  14
ATOM     14  C   UNL     1      43.396 -14.200 -34.835  1.00  0.00    -0.000 C 
BRANCH  14  15
ATOM     15  C   UNL     1      43.315 -12.987 -33.890  1.00  0.00    -0.000 C 
BRANCH  15  16
ATOM     16  C   UNL     1      43.479 -11.622 -34.582  1.00  0.00    -0.000 C 
BRANCH  16  17
ATOM     17  C   UNL     1      44.207 -11.700 -35.942  1.00  0.00    -0.003 C 
ATOM     18  C   UNL     1      43.510 -10.898 -37.039  1.00  0.00     0.004 C 
ENDBRANCH  16  17
ENDBRANCH  15  16
ENDBRANCH  14  15
ENDBRANCH  13  14
ENDBRANCH  12  13
ENDBRANCH  11  12
ENDBRANCH   1  11
TORSDOF 14
ENDMDL
MODEL 3
REMARK VINA RESULT:    -4.890      1.070      4.051
REMARK INTER + INTRA:         -10.871
REMARK INTER:                  -8.851
REMARK INTRA:                  -2.021
REMARK UNBOUND:                -1.980
REMARK SMILES CCCCCCCCCCCCCCCC(=O)[O-]
REMARK SMILES IDX 9 1 10 2 11 3 12 4 13 5 14 6 15 7 16 8 17 9 18 10 8 11 7 12
REMARK SMILES IDX 6 13 5 14 4 15 3 16 2 17 1 18
REMARK H PARENT
REMARK Flexibility Score: inf
ROOT
ATOM      1  C   UNL     1      42.473 -10.963 -40.137  1.00  0.00     0.000 C 
ENDROOT
BRANCH   1   2
ATOM      2  C   UNL     1      41.966 -10.639 -38.716  1.00  0.00     0.000 C 
BRANCH   2   3
ATOM      3  C   UNL     1      43.084 -10.209 -37.751  1.00  0.00     0.000 C 
BRANCH   3   4
ATOM      4  C   UNL     1      43.476 -11.318 -36.760  1.00  0.00     0.000 C 
BRANCH   4   5
ATOM      5  C   UNL     1      42.310 -12.265 -36.439  1.00  0.00     0.000 C 
BRANCH   5   6
ATOM      6  C   UNL     1      42.340 -12.768 -34.986  1.00  0.00     0.006 C 
BRANCH   6   7
ATOM      7  C   UNL     1      43.441 -12.088 -34.161  1.00  0.00     0.053 C 
BRANCH   7   8
ATOM      8  C   UNL     1      43.829 -12.906 -32.968  1.00  0.00     0.041 C 
ATOM      9  O   UNL     1      43.875 -12.378 -31.825  1.00  0.00    -0.550 OA
ATOM     10  O   UNL     1      44.170 -14.244 -33.121  1.00  0.00    -0.550 OA
ENDBRANCH   7   8
ENDBRANCH   6   7
ENDBRANCH   5   6
ENDBRANCH   4   5
ENDBRANCH   3   4
ENDBRANCH   2   3
ENDBRANCH   1   2
BRANCH   1  11
ATOM     11  C   UNL     1      44.009 -10.927 -40.228  1.00  0.00     0.000 C 
BRANCH  11  12
ATOM     12  C   UNL     1      44.629 -12.329 -40.312  1.00  0.00    -0.000 C 
BRANCH  12  13
ATOM     13  C   UNL     1      46.132 -12.335 -39.988  1.00  0.00    -0.000 C 
BRANCH  13  14
ATOM     14  C   UNL     1      46.423 -12.738 -38.524  1.00  0.00    -0.000 C 
BRANCH  14  15
ATOM     15  C   UNL     1      45.633 -13.975 -38.058  1.00  0.00    -0.000 C 
BRANCH  15  16
ATOM     16  C   UNL     1      45.746 -14.278 -36.553  1.00  0.00    -0.000 C 
BRANCH  16  17
ATOM     17  C   UNL     1      47.132 -13.948 -35.956  1.00  0.00    -0.003 C 
ATOM     18  C   UNL     1      47.064 -12.933 -34.816  1.00  0.00     0.004 C 
ENDBRANCH  16  17
ENDBRANCH  15  16
ENDBRANCH  14  15
ENDBRANCH  13  14
ENDBRANCH  12  13
ENDBRANCH  11  12
ENDBRANCH   1  11
TORSDOF 14
ENDMDL
MODEL 4
REMARK VINA RESULT:    -4.889      2.805      4.979
REMARK INTER + INTRA:         -10.869
REMARK INTER:                  -8.697
REMARK INTRA:                  -2.173
REMARK UNBOUND:                -1.980
REMARK SMILES CCCCCCCCCCCCCCCC(=O)[O-]
REMARK SMILES IDX 9 1 10 2 11 3 12 4 13 5 14 6 15 7 16 8 17 9 18 10 8 11 7 12
REMARK SMILES IDX 6 13 5 14 4 15 3 16 2 17 1 18
REMARK H PARENT
REMARK Flexibility Score: inf
ROOT
ATOM      1  C   UNL     1      44.925 -15.355 -32.575  1.00  0.00     0.000 C 
ENDROOT
BRANCH   1   2
ATOM      2  C   UNL     1      46.446 -15.143 -32.726  1.00  0.00     0.000 C 
BRANCH   2   3
ATOM      3  C   UNL     1      46.886 -13.686 -32.497  1.00  0.00     0.000 C 
BRANCH   3   4
ATOM      4  C   UNL     1      47.734 -13.130 -33.653  1.00  0.00     0.000 C 
BRANCH   4   5
ATOM      5  C   UNL     1      47.699 -14.030 -34.898  1.00  0.00     0.000 C 
BRANCH   5   6
ATOM      6  C   UNL     1      47.484 -13.233 -36.197  1.00  0.00     0.006 C 
BRANCH   6   7
ATOM      7  C   UNL     1      46.719 -14.044 -37.252  1.00  0.00     0.053 C 
BRANCH   7   8
ATOM      8  C   UNL     1      46.516 -13.263 -38.515  1.00  0.00     0.041 C 
ATOM      9  O   UNL     1      47.499 -12.732 -39.097  1.00  0.00    -0.550 OA
ATOM     10  O   UNL     1      45.238 -13.097 -39.034  1.00  0.00    -0.550 OA
ENDBRANCH   7   8
ENDBRANCH   6   7
ENDBRANCH   5   6
ENDBRANCH   4   5
ENDBRANCH   3   4
ENDBRANCH   2   3
ENDBRANCH   1   2
BRANCH   1  11
ATOM     11  C   UNL     1      44.229 -15.556 -33.933  1.00  0.00     0.000 C 
BRANCH  11  12
ATOM     12  C   UNL     1      43.966 -14.230 -34.663  1.00  0.00    -0.000 C 
BRANCH  12  13
ATOM     13  C   UNL     1      43.451 -13.127 -33.723  1.00  0.00    -0.000 C 
BRANCH  13  14
ATOM     14  C   UNL     1      43.394 -11.742 -34.408  1.00  0.00    -0.000 C 
BRANCH  14  15
ATOM     15  C   UNL     1      44.314 -11.624 -35.637  1.00  0.00    -0.000 C 
BRANCH  15  16
ATOM     16  C   UNL     1      43.701 -10.863 -36.826  1.00  0.00    -0.000 C 
BRANCH  16  17
ATOM     17  C   UNL     1      42.446 -11.543 -37.417  1.00  0.00    -0.003 C 
ATOM     18  C   UNL     1      42.128 -11.078 -38.836  1.00  0.00     0.004 C 
ENDBRANCH  16  17
ENDBRANCH  15  16
ENDBRANCH  14  15
ENDBRANCH  13  14
ENDBRANCH  12  13
ENDBRANCH  11  12
ENDBRANCH   1  11
TORSDOF 14
ENDMDL
MODEL 5
REMARK VINA RESULT:    -4.857      2.864      6.435
REMARK INTER + INTRA:         -10.812
REMARK INTER:                  -8.824
REMARK INTRA:                  -1.988
REMARK UNBOUND:                -1.980
REMARK SMILES CCCCCCCCCCCCCCCC(=O)[O-]
REMARK SMILES IDX 9 1 10 2 11 3 12 4 13 5 14 6 15 7 16 8 17 9 18 10 8 11 7 12
REMARK SMILES IDX 6 13 5 14 4 15 3 16 2 17 1 18
REMARK H PARENT
REMARK Flexibility Score: inf
ROOT
ATOM      1  C   UNL     1      43.718 -10.941 -36.846  1.00  0.00     0.000 C 
ENDROOT
BRANCH   1   2
ATOM      2  C   UNL     1      42.269 -11.347 -37.191  1.00  0.00     0.000 C 
BRANCH   2   3
ATOM      3  C   UNL     1      41.806 -10.847 -38.570  1.00  0.00     0.000 C 
BRANCH   3   4
ATOM      4  C   UNL     1      42.964 -10.314 -39.431  1.00  0.00     0.000 C 
BRANCH   4   5
ATOM      5  C   UNL     1      43.073 -11.029 -40.786  1.00  0.00     0.000 C 
BRANCH   5   6
ATOM      6  C   UNL     1      44.082 -12.191 -40.761  1.00  0.00     0.006 C 
BRANCH   6   7
ATOM      7  C   UNL     1      45.370 -11.823 -40.011  1.00  0.00     0.053 C 
BRANCH   7   8
ATOM      8  C   UNL     1      46.037 -13.029 -39.424  1.00  0.00     0.041 C 
ATOM      9  O   UNL     1      45.506 -14.166 -39.539  1.00  0.00    -0.550 OA
ATOM     10  O   UNL     1      47.230 -12.895 -38.726  1.00  0.00    -0.550 OA
ENDBRANCH   7   8
ENDBRANCH   6   7
ENDBRANCH   5   6
ENDBRANCH   4   5
ENDBRANCH   3   4
ENDBRANCH   2   3
ENDBRANCH   1   2
BRANCH   1  11
ATOM     11  C   UNL     1      44.489 -12.077 -36.151  1.00  0.00     0.000 C 
BRANCH  11  12
ATOM     12  C   UNL     1      43.803 -13.442 -36.312  1.00  0.00    -0.000 C 
BRANCH  12  13
ATOM     13  C   UNL     1      44.777 -14.620 -36.140  1.00  0.00    -0.000 C 
BRANCH  13  14
ATOM     14  C   UNL     1      46.133 -14.187 -35.538  1.00  0.00    -0.000 C 
BRANCH  14  15
ATOM     15  C   UNL     1      46.179 -14.269 -34.002  1.00  0.00    -0.000 C 
BRANCH  15  16
ATOM     16  C   UNL     1      45.089 -15.155 -33.373  1.00  0.00    -0.000 C 
BRANCH  16  17
ATOM     17  C   UNL     1      44.325 -14.472 -32.217  1.00  0.00    -0.003 C 
ATOM     18  C   UNL     1      43.968 -13.017 -32.515  1.00  0.00     0.004 C 
ENDBRANCH  16  17
ENDBRANCH  15  16
ENDBRANCH  14  15
ENDBRANCH  13  14
ENDBRANCH  12  13
ENDBRANCH  11  12
ENDBRANCH   1  11
TORSDOF 14
ENDMDL
MODEL 6
REMARK VINA RESULT:    -4.857      5.270      8.971
REMARK INTER + INTRA:         -10.811
REMARK INTER:                  -8.960
REMARK INTRA:                  -1.851
REMARK UNBOUND:                -1.980
REMARK SMILES CCCCCCCCCCCCCCCC(=O)[O-]
REMARK SMILES IDX 9 1 10 2 11 3 12 4 13 5 14 6 15 7 16 8 17 9 18 10 8 11 7 12
REMARK SMILES IDX 6 13 5 14 4 15 3 16 2 17 1 18
REMARK H PARENT
REMARK Flexibility Score: inf
ROOT
ATOM      1  C   UNL     1      41.173 -10.062 -40.037  1.00  0.00     0.000 C 
ENDROOT
BRANCH   1   2
ATOM      2  C   UNL     1      41.567  -8.684 -40.610  1.00  0.00     0.000 C 
BRANCH   2   3
ATOM      3  C   UNL     1      40.746  -8.278 -41.845  1.00  0.00     0.000 C 
BRANCH   3   4
ATOM      4  C   UNL     1      41.375  -8.758 -43.164  1.00  0.00     0.000 C 
BRANCH   4   5
ATOM      5  C   UNL     1      40.386  -9.540 -44.043  1.00  0.00     0.000 C 
BRANCH   5   6
ATOM      6  C   UNL     1      40.324 -11.033 -43.677  1.00  0.00     0.006 C 
BRANCH   6   7
ATOM      7  C   UNL     1      40.744 -11.933 -44.847  1.00  0.00     0.053 C 
BRANCH   7   8
ATOM      8  C   UNL     1      42.232 -11.964 -45.020  1.00  0.00     0.041 C 
ATOM      9  O   UNL     1      42.736 -11.933 -46.174  1.00  0.00    -0.550 OA
ATOM     10  O   UNL     1      43.061 -12.056 -43.910  1.00  0.00    -0.550 OA
ENDBRANCH   7   8
ENDBRANCH   6   7
ENDBRANCH   5   6
ENDBRANCH   4   5
ENDBRANCH   3   4
ENDBRANCH   2   3
ENDBRANCH   1   2
BRANCH   1  11
ATOM     11  C   UNL     1      42.120 -11.180 -40.509  1.00  0.00     0.000 C 
BRANCH  11  12
ATOM     12  C   UNL     1      43.542 -10.671 -40.787  1.00  0.00    -0.000 C 
BRANCH  12  13
ATOM     13  C   UNL     1      44.626 -11.674 -40.357  1.00  0.00    -0.000 C 
BRANCH  13  14
ATOM     14  C   UNL     1      45.151 -11.405 -38.928  1.00  0.00    -0.000 C 
BRANCH  14  15
ATOM     15  C   UNL     1      45.035 -12.620 -37.990  1.00  0.00    -0.000 C 
BRANCH  15  16
ATOM     16  C   UNL     1      44.330 -12.332 -36.652  1.00  0.00    -0.000 C 
BRANCH  16  17
ATOM     17  C   UNL     1      43.206 -11.277 -36.758  1.00  0.00    -0.003 C 
ATOM     18  C   UNL     1      41.818 -11.896 -36.900  1.00  0.00     0.004 C 
ENDBRANCH  16  17
ENDBRANCH  15  16
ENDBRANCH  14  15
ENDBRANCH  13  14
ENDBRANCH  12  13
ENDBRANCH  11  12
ENDBRANCH   1  11
TORSDOF 14
ENDMDL
MODEL 7
REMARK VINA RESULT:    -4.820      3.048      6.164
REMARK INTER + INTRA:         -10.744
REMARK INTER:                  -8.654
REMARK INTRA:                  -2.090
REMARK UNBOUND:                -1.980
REMARK SMILES CCCCCCCCCCCCCCCC(=O)[O-]
REMARK SMILES IDX 9 1 10 2 11 3 12 4 13 5 14 6 15 7 16 8 17 9 18 10 8 11 7 12
REMARK SMILES IDX 6 13 5 14 4 15 3 16 2 17 1 18
REMARK H PARENT
REMARK Flexibility Score: inf
ROOT
ATOM      1  C   UNL     1      47.650 -14.229 -35.777  1.00  0.00     0.000 C 
ENDROOT
BRANCH   1   2
ATOM      2  C   UNL     1      46.711 -14.381 -36.993  1.00  0.00     0.000 C 
BRANCH   2   3
ATOM      3  C   UNL     1      46.889 -13.274 -38.045  1.00  0.00     0.000 C 
BRANCH   3   4
ATOM      4  C   UNL     1      45.782 -13.283 -39.114  1.00  0.00     0.000 C 
BRANCH   4   5
ATOM      5  C   UNL     1      45.547 -11.898 -39.735  1.00  0.00     0.000 C 
BRANCH   5   6
ATOM      6  C   UNL     1      44.149 -11.762 -40.364  1.00  0.00     0.006 C 
BRANCH   6   7
ATOM      7  C   UNL     1      43.240 -10.824 -39.559  1.00  0.00     0.053 C 
BRANCH   7   8
ATOM      8  C   UNL     1      41.939 -10.573 -40.257  1.00  0.00     0.041 C 
ATOM      9  O   UNL     1      41.862 -10.679 -41.510  1.00  0.00    -0.550 OA
ATOM     10  O   UNL     1      40.819 -10.192 -39.529  1.00  0.00    -0.550 OA
ENDBRANCH   7   8
ENDBRANCH   6   7
ENDBRANCH   5   6
ENDBRANCH   4   5
ENDBRANCH   3   4
ENDBRANCH   2   3
ENDBRANCH   1   2
BRANCH   1  11
ATOM     11  C   UNL     1      47.269 -13.027 -34.896  1.00  0.00     0.000 C 
BRANCH  11  12
ATOM     12  C   UNL     1      46.858 -13.443 -33.475  1.00  0.00    -0.000 C 
BRANCH  12  13
ATOM     13  C   UNL     1      46.136 -14.800 -33.439  1.00  0.00    -0.000 C 
BRANCH  13  14
ATOM     14  C   UNL     1      44.605 -14.654 -33.285  1.00  0.00    -0.000 C 
BRANCH  14  15
ATOM     15  C   UNL     1      43.841 -14.739 -34.619  1.00  0.00    -0.000 C 
BRANCH  15  16
ATOM     16  C   UNL     1      42.996 -13.497 -34.954  1.00  0.00    -0.000 C 
BRANCH  16  17
ATOM     17  C   UNL     1      43.441 -12.773 -36.244  1.00  0.00    -0.003 C 
ATOM     18  C   UNL     1      44.188 -11.469 -35.970  1.00  0.00     0.004 C 
ENDBRANCH  16  17
ENDBRANCH  15  16
ENDBRANCH  14  15
ENDBRANCH  13  14
ENDBRANCH  12  13
ENDBRANCH  11  12
ENDBRANCH   1  11
TORSDOF 14
ENDMDL
MODEL 8
REMARK VINA RESULT:    -4.814      1.940      3.223
REMARK INTER + INTRA:         -10.734
REMARK INTER:                  -8.829
REMARK INTRA:                  -1.905
REMARK UNBOUND:                -1.980
REMARK SMILES CCCCCCCCCCCCCCCC(=O)[O-]
REMARK SMILES IDX 9 1 10 2 11 3 12 4 13 5 14 6 15 7 16 8 17 9 18 10 8 11 7 12
REMARK SMILES IDX 6 13 5 14 4 15 3 16 2 17 1 18
REMARK H PARENT
REMARK Flexibility Score: inf
ROOT
ATOM      1  C   UNL     1      44.104 -11.948 -36.488  1.00  0.00     0.000 C 
ENDROOT
BRANCH   1   2
ATOM      2  C   UNL     1      42.707 -12.568 -36.271  1.00  0.00     0.000 C 
BRANCH   2   3
ATOM      3  C   UNL     1      42.435 -12.967 -34.811  1.00  0.00     0.000 C 
BRANCH   3   4
ATOM      4  C   UNL     1      43.242 -12.131 -33.803  1.00  0.00     0.000 C 
BRANCH   4   5
ATOM      5  C   UNL     1      43.960 -12.996 -32.756  1.00  0.00     0.000 C 
BRANCH   5   6
ATOM      6  C   UNL     1      44.851 -14.076 -33.393  1.00  0.00     0.006 C 
BRANCH   6   7
ATOM      7  C   UNL     1      46.176 -13.501 -33.912  1.00  0.00     0.053 C 
BRANCH   7   8
ATOM      8  C   UNL     1      47.323 -13.846 -33.012  1.00  0.00     0.041 C 
ATOM      9  O   UNL     1      47.261 -14.858 -32.264  1.00  0.00    -0.550 OA
ATOM     10  O   UNL     1      48.450 -13.034 -32.977  1.00  0.00    -0.550 OA
ENDBRANCH   7   8
ENDBRANCH   6   7
ENDBRANCH   5   6
ENDBRANCH   4   5
ENDBRANCH   3   4
ENDBRANCH   2   3
ENDBRANCH   1   2
BRANCH   1  11
ATOM     11  C   UNL     1      44.985 -12.808 -37.411  1.00  0.00     0.000 C 
BRANCH  11  12
ATOM     12  C   UNL     1      45.451 -12.046 -38.661  1.00  0.00    -0.000 C 
BRANCH  12  13
ATOM     13  C   UNL     1      45.152 -12.804 -39.965  1.00  0.00    -0.000 C 
BRANCH  13  14
ATOM     14  C   UNL     1      44.271 -11.987 -40.938  1.00  0.00    -0.000 C 
BRANCH  14  15
ATOM     15  C   UNL     1      43.597 -10.768 -40.283  1.00  0.00    -0.000 C 
BRANCH  15  16
ATOM     16  C   UNL     1      42.102 -10.953 -39.967  1.00  0.00    -0.000 C 
BRANCH  16  17
ATOM     17  C   UNL     1      41.625 -10.153 -38.735  1.00  0.00    -0.003 C 
ATOM     18  C   UNL     1      42.599  -9.050 -38.326  1.00  0.00     0.004 C 
ENDBRANCH  16  17
ENDBRANCH  15  16
ENDBRANCH  14  15
ENDBRANCH  13  14
ENDBRANCH  12  13
ENDBRANCH  11  12
ENDBRANCH   1  11
TORSDOF 14
ENDMDL
MODEL 9
REMARK VINA RESULT:    -4.791      2.938      6.734
REMARK INTER + INTRA:         -10.692
REMARK INTER:                  -8.747
REMARK INTRA:                  -1.945
REMARK UNBOUND:                -1.980
REMARK SMILES CCCCCCCCCCCCCCCC(=O)[O-]
REMARK SMILES IDX 9 1 10 2 11 3 12 4 13 5 14 6 15 7 16 8 17 9 18 10 8 11 7 12
REMARK SMILES IDX 6 13 5 14 4 15 3 16 2 17 1 18
REMARK H PARENT
REMARK Flexibility Score: inf
ROOT
ATOM      1  C   UNL     1      44.148 -11.509 -36.302  1.00  0.00     0.000 C 
ENDROOT
BRANCH   1   2
ATOM      2  C   UNL     1      43.346 -10.548 -37.205  1.00  0.00     0.000 C 
BRANCH   2   3
ATOM      3  C   UNL     1      42.051 -11.166 -37.759  1.00  0.00     0.000 C 
BRANCH   3   4
ATOM      4  C   UNL     1      41.892 -10.958 -39.274  1.00  0.00     0.000 C 
BRANCH   4   5
ATOM      5  C   UNL     1      43.028 -10.118 -39.879  1.00  0.00     0.000 C 
BRANCH   5   6
ATOM      6  C   UNL     1      43.806 -10.875 -40.969  1.00  0.00     0.006 C 
BRANCH   6   7
ATOM      7  C   UNL     1      44.000 -12.357 -40.618  1.00  0.00     0.053 C 
BRANCH   7   8
ATOM      8  C   UNL     1      45.269 -12.589 -39.858  1.00  0.00     0.041 C 
ATOM      9  O   UNL     1      45.620 -13.759 -39.552  1.00  0.00    -0.550 OA
ATOM     10  O   UNL     1      46.051 -11.511 -39.463  1.00  0.00    -0.550 OA
ENDBRANCH   7   8
ENDBRANCH   6   7
ENDBRANCH   5   6
ENDBRANCH   4   5
ENDBRANCH   3   4
ENDBRANCH   2   3
ENDBRANCH   1   2
BRANCH   1  11
ATOM     11  C   UNL     1      43.380 -12.812 -36.013  1.00  0.00     0.000 C 
BRANCH  11  12
ATOM     12  C   UNL     1      42.804 -12.855 -34.590  1.00  0.00    -0.000 C 
BRANCH  12  13
ATOM     13  C   UNL     1      43.877 -13.136 -33.524  1.00  0.00    -0.000 C 
BRANCH  13  14
ATOM     14  C   UNL     1      44.397 -14.590 -33.574  1.00  0.00    -0.000 C 
BRANCH  14  15
ATOM     15  C   UNL     1      45.916 -14.693 -33.806  1.00  0.00    -0.000 C 
BRANCH  15  16
ATOM     16  C   UNL     1      46.661 -13.347 -33.785  1.00  0.00    -0.000 C 
BRANCH  16  17
ATOM     17  C   UNL     1      47.573 -13.124 -35.011  1.00  0.00    -0.003 C 
ATOM     18  C   UNL     1      47.089 -13.861 -36.258  1.00  0.00     0.004 C 
ENDBRANCH  16  17
ENDBRANCH  15  16
ENDBRANCH  14  15
ENDBRANCH  13  14
ENDBRANCH  12  13
ENDBRANCH  11  12
ENDBRANCH   1  11
TORSDOF 14
ENDMDL
