MODEL 1
REMARK VINA RESULT:    -6.280      0.000      0.000
REMARK INTER + INTRA:         -12.058
REMARK INTER:                 -11.420
REMARK INTRA:                  -0.638
REMARK UNBOUND:                -0.638
REMARK SMILES CCCCCCCCCCCCCCCC(=O)[O-]
REMARK SMILES IDX 9 1 10 2 11 3 12 4 13 5 14 6 15 7 16 8 17 9 18 10 8 11 7 12
REMARK SMILES IDX 6 13 5 14 4 15 3 16 2 17 1 18
REMARK H PARENT
REMARK Flexibility Score: inf
ROOT
ATOM      1  C   UNL     1      94.224 123.421 123.975  1.00  0.00     0.000 C 
ENDROOT
BRANCH   1   2
ATOM      2  C   UNL     1      95.759 123.384 123.905  1.00  0.00     0.000 C 
BRANCH   2   3
ATOM      3  C   UNL     1      96.415 124.600 124.579  1.00  0.00     0.000 C 
BRANCH   3   4
ATOM      4  C   UNL     1      97.136 124.232 125.887  1.00  0.00     0.000 C 
BRANCH   4   5
ATOM      5  C   UNL     1      98.051 125.359 126.395  1.00  0.00     0.000 C 
BRANCH   5   6
ATOM      6  C   UNL     1      98.039 126.593 125.473  1.00  0.00     0.006 C 
BRANCH   6   7
ATOM      7  C   UNL     1      99.210 127.541 125.762  1.00  0.00     0.053 C 
BRANCH   7   8
ATOM      8  C   UNL     1      98.936 128.416 126.948  1.00  0.00     0.041 C 
ATOM      9  O   UNL     1      99.887 128.968 127.561  1.00  0.00    -0.550 OA
ATOM     10  O   UNL     1      97.629 128.641 127.359  1.00  0.00    -0.550 OA
ENDBRANCH   7   8
ENDBRANCH   6   7
ENDBRANCH   5   6
ENDBRANCH   4   5
ENDBRANCH   3   4
ENDBRANCH   2   3
ENDBRANCH   1   2
BRANCH   1  11
ATOM     11  C   UNL     1      93.604 122.600 122.835  1.00  0.00     0.000 C 
BRANCH  11  12
ATOM     12  C   UNL     1      94.464 121.389 122.430  1.00  0.00    -0.000 C 
BRANCH  12  13
ATOM     13  C   UNL     1      94.928 121.384 120.960  1.00  0.00    -0.000 C 
BRANCH  13  14
ATOM     14  C   UNL     1      93.814 121.119 119.929  1.00  0.00    -0.000 C 
BRANCH  14  15
ATOM     15  C   UNL     1      94.334 120.935 118.487  1.00  0.00    -0.000 C 
BRANCH  15  16
ATOM     16  C   UNL     1      93.225 121.121 117.438  1.00  0.00    -0.000 C 
BRANCH  16  17
ATOM     17  C   UNL     1      92.285 122.289 117.774  1.00  0.00    -0.003 C 
ATOM     18  C   UNL     1      92.576 123.541 116.946  1.00  0.00     0.004 C 
ENDBRANCH  16  17
ENDBRANCH  15  16
ENDBRANCH  14  15
ENDBRANCH  13  14
ENDBRANCH  12  13
ENDBRANCH  11  12
ENDBRANCH   1  11
TORSDOF 14
ENDMDL
MODEL 2
REMARK VINA RESULT:    -6.204      1.595      2.154
REMARK INTER + INTRA:         -11.920
REMARK INTER:                 -11.368
REMARK INTRA:                  -0.552
REMARK UNBOUND:                -0.638
REMARK SMILES CCCCCCCCCCCCCCCC(=O)[O-]
REMARK SMILES IDX 9 1 10 2 11 3 12 4 13 5 14 6 15 7 16 8 17 9 18 10 8 11 7 12
REMARK SMILES IDX 6 13 5 14 4 15 3 16 2 17 1 18
REMARK H PARENT
REMARK Flexibility Score: inf
ROOT
ATOM      1  C   UNL     1      96.476 122.782 123.812  1.00  0.00     0.000 C 
ENDROOT
BRANCH   1   2
ATOM      2  C   UNL     1      96.150 124.194 124.327  1.00  0.00     0.000 C 
BRANCH   2   3
ATOM      3  C   UNL     1      96.920 124.551 125.610  1.00  0.00     0.000 C 
BRANCH   3   4
ATOM      4  C   UNL     1      97.746 125.841 125.463  1.00  0.00     0.000 C 
BRANCH   4   5
ATOM      5  C   UNL     1      99.082 125.776 126.222  1.00  0.00     0.000 C 
BRANCH   5   6
ATOM      6  C   UNL     1      99.843 127.114 126.198  1.00  0.00     0.006 C 
BRANCH   6   7
ATOM      7  C   UNL     1     100.513 127.373 124.842  1.00  0.00     0.053 C 
BRANCH   7   8
ATOM      8  C   UNL     1     101.055 128.767 124.747  1.00  0.00     0.041 C 
ATOM      9  O   UNL     1     100.789 129.612 125.641  1.00  0.00    -0.550 OA
ATOM     10  O   UNL     1     101.874 129.124 123.684  1.00  0.00    -0.550 OA
ENDBRANCH   7   8
ENDBRANCH   6   7
ENDBRANCH   5   6
ENDBRANCH   4   5
ENDBRANCH   3   4
ENDBRANCH   2   3
ENDBRANCH   1   2
BRANCH   1  11
ATOM     11  C   UNL     1      95.840 122.542 122.435  1.00  0.00     0.000 C 
BRANCH  11  12
ATOM     12  C   UNL     1      94.409 121.978 122.525  1.00  0.00    -0.000 C 
BRANCH  12  13
ATOM     13  C   UNL     1      93.931 121.221 121.272  1.00  0.00    -0.000 C 
BRANCH  13  14
ATOM     14  C   UNL     1      94.917 121.235 120.088  1.00  0.00    -0.000 C 
BRANCH  14  15
ATOM     15  C   UNL     1      94.237 121.079 118.711  1.00  0.00    -0.000 C 
BRANCH  15  16
ATOM     16  C   UNL     1      92.908 121.849 118.624  1.00  0.00    -0.000 C 
BRANCH  16  17
ATOM     17  C   UNL     1      91.998 121.329 117.501  1.00  0.00    -0.003 C 
ATOM     18  C   UNL     1      92.776 120.911 116.253  1.00  0.00     0.004 C 
ENDBRANCH  16  17
ENDBRANCH  15  16
ENDBRANCH  14  15
ENDBRANCH  13  14
ENDBRANCH  12  13
ENDBRANCH  11  12
ENDBRANCH   1  11
TORSDOF 14
ENDMDL
MODEL 3
REMARK VINA RESULT:    -5.946      1.385      2.203
REMARK INTER + INTRA:         -11.451
REMARK INTER:                 -10.810
REMARK INTRA:                  -0.641
REMARK UNBOUND:                -0.638
REMARK SMILES CCCCCCCCCCCCCCCC(=O)[O-]
REMARK SMILES IDX 9 1 10 2 11 3 12 4 13 5 14 6 15 7 16 8 17 9 18 10 8 11 7 12
REMARK SMILES IDX 6 13 5 14 4 15 3 16 2 17 1 18
REMARK H PARENT
REMARK Flexibility Score: inf
ROOT
ATOM      1  C   UNL     1      96.425 124.455 124.328  1.00  0.00     0.000 C 
ENDROOT
BRANCH   1   2
ATOM      2  C   UNL     1      96.919 124.256 125.770  1.00  0.00     0.000 C 
BRANCH   2   3
ATOM      3  C   UNL     1      97.988 125.282 126.180  1.00  0.00     0.000 C 
BRANCH   3   4
ATOM      4  C   UNL     1      97.971 126.539 125.293  1.00  0.00     0.000 C 
BRANCH   4   5
ATOM      5  C   UNL     1      97.964 127.840 126.112  1.00  0.00     0.000 C 
BRANCH   5   6
ATOM      6  C   UNL     1      98.922 127.788 127.316  1.00  0.00     0.006 C 
BRANCH   6   7
ATOM      7  C   UNL     1      99.803 129.040 127.409  1.00  0.00     0.053 C 
BRANCH   7   8
ATOM      8  C   UNL     1     100.698 129.180 126.216  1.00  0.00     0.041 C 
ATOM      9  O   UNL     1     100.936 130.317 125.731  1.00  0.00    -0.550 OA
ATOM     10  O   UNL     1     101.289 128.055 125.655  1.00  0.00    -0.550 OA
ENDBRANCH   7   8
ENDBRANCH   6   7
ENDBRANCH   5   6
ENDBRANCH   4   5
ENDBRANCH   3   4
ENDBRANCH   2   3
ENDBRANCH   1   2
BRANCH   1  11
ATOM     11  C   UNL     1      95.282 123.483 124.002  1.00  0.00     0.000 C 
BRANCH  11  12
ATOM     12  C   UNL     1      95.604 122.552 122.819  1.00  0.00    -0.000 C 
BRANCH  12  13
ATOM     13  C   UNL     1      94.541 121.474 122.533  1.00  0.00    -0.000 C 
BRANCH  13  14
ATOM     14  C   UNL     1      93.899 121.550 121.135  1.00  0.00    -0.000 C 
BRANCH  14  15
ATOM     15  C   UNL     1      94.870 121.203 119.986  1.00  0.00    -0.000 C 
BRANCH  15  16
ATOM     16  C   UNL     1      94.140 120.974 118.651  1.00  0.00    -0.000 C 
BRANCH  16  17
ATOM     17  C   UNL     1      92.783 121.693 118.591  1.00  0.00    -0.003 C 
ATOM     18  C   UNL     1      92.563 122.435 117.272  1.00  0.00     0.004 C 
ENDBRANCH  16  17
ENDBRANCH  15  16
ENDBRANCH  14  15
ENDBRANCH  13  14
ENDBRANCH  12  13
ENDBRANCH  11  12
ENDBRANCH   1  11
TORSDOF 14
ENDMDL
MODEL 4
REMARK VINA RESULT:    -5.942      4.748      9.808
REMARK INTER + INTRA:         -11.443
REMARK INTER:                 -10.895
REMARK INTRA:                  -0.548
REMARK UNBOUND:                -0.638
REMARK SMILES CCCCCCCCCCCCCCCC(=O)[O-]
REMARK SMILES IDX 9 1 10 2 11 3 12 4 13 5 14 6 15 7 16 8 17 9 18 10 8 11 7 12
REMARK SMILES IDX 6 13 5 14 4 15 3 16 2 17 1 18
REMARK H PARENT
REMARK Flexibility Score: inf
ROOT
ATOM      1  C   UNL     1      96.248 124.517 124.272  1.00  0.00     0.000 C 
ENDROOT
BRANCH   1   2
ATOM      2  C   UNL     1      95.151 123.542 123.816  1.00  0.00     0.000 C 
BRANCH   2   3
ATOM      3  C   UNL     1      95.688 122.426 122.903  1.00  0.00     0.000 C 
BRANCH   3   4
ATOM      4  C   UNL     1      94.568 121.699 122.139  1.00  0.00     0.000 C 
BRANCH   4   5
ATOM      5  C   UNL     1      94.990 121.298 120.715  1.00  0.00     0.000 C 
BRANCH   5   6
ATOM      6  C   UNL     1      93.786 121.020 119.796  1.00  0.00     0.006 C 
BRANCH   6   7
ATOM      7  C   UNL     1      94.164 121.094 118.311  1.00  0.00     0.053 C 
BRANCH   7   8
ATOM      8  C   UNL     1      92.952 121.179 117.434  1.00  0.00     0.041 C 
ATOM      9  O   UNL     1      93.030 120.875 116.214  1.00  0.00    -0.550 OA
ATOM     10  O   UNL     1      91.732 121.570 117.969  1.00  0.00    -0.550 OA
ENDBRANCH   7   8
ENDBRANCH   6   7
ENDBRANCH   5   6
ENDBRANCH   4   5
ENDBRANCH   3   4
ENDBRANCH   2   3
ENDBRANCH   1   2
BRANCH   1  11
ATOM     11  C   UNL     1      96.903 124.032 125.574  1.00  0.00     0.000 C 
BRANCH  11  12
ATOM     12  C   UNL     1      97.868 125.066 126.182  1.00  0.00    -0.000 C 
BRANCH  12  13
ATOM     13  C   UNL     1      98.006 126.375 125.381  1.00  0.00    -0.000 C 
BRANCH  13  14
ATOM     14  C   UNL     1      98.262 127.634 126.232  1.00  0.00    -0.000 C 
BRANCH  14  15
ATOM     15  C   UNL     1      99.701 128.181 126.113  1.00  0.00    -0.000 C 
BRANCH  15  16
ATOM     16  C   UNL     1     100.611 127.259 125.283  1.00  0.00    -0.000 C 
BRANCH  16  17
ATOM     17  C   UNL     1     101.819 128.001 124.691  1.00  0.00    -0.003 C 
ATOM     18  C   UNL     1     101.414 129.137 123.751  1.00  0.00     0.004 C 
ENDBRANCH  16  17
ENDBRANCH  15  16
ENDBRANCH  14  15
ENDBRANCH  13  14
ENDBRANCH  12  13
ENDBRANCH  11  12
ENDBRANCH   1  11
TORSDOF 14
ENDMDL
MODEL 5
REMARK VINA RESULT:    -5.870      4.584      9.815
REMARK INTER + INTRA:         -11.313
REMARK INTER:                 -10.625
REMARK INTRA:                  -0.688
REMARK UNBOUND:                -0.638
REMARK SMILES CCCCCCCCCCCCCCCC(=O)[O-]
REMARK SMILES IDX 9 1 10 2 11 3 12 4 13 5 14 6 15 7 16 8 17 9 18 10 8 11 7 12
REMARK SMILES IDX 6 13 5 14 4 15 3 16 2 17 1 18
REMARK H PARENT
REMARK Flexibility Score: inf
ROOT
ATOM      1  C   UNL     1      95.070 123.823 124.238  1.00  0.00     0.000 C 
ENDROOT
BRANCH   1   2
ATOM      2  C   UNL     1      95.160 122.794 123.100  1.00  0.00     0.000 C 
BRANCH   2   3
ATOM      3  C   UNL     1      93.779 122.340 122.598  1.00  0.00     0.000 C 
BRANCH   3   4
ATOM      4  C   UNL     1      93.873 121.229 121.538  1.00  0.00     0.000 C 
BRANCH   4   5
ATOM      5  C   UNL     1      95.011 121.467 120.532  1.00  0.00     0.000 C 
BRANCH   5   6
ATOM      6  C   UNL     1      94.597 121.155 119.083  1.00  0.00     0.006 C 
BRANCH   6   7
ATOM      7  C   UNL     1      93.102 121.403 118.843  1.00  0.00     0.053 C 
BRANCH   7   8
ATOM      8  C   UNL     1      92.845 121.971 117.481  1.00  0.00     0.041 C 
ATOM      9  O   UNL     1      92.763 123.217 117.319  1.00  0.00    -0.550 OA
ATOM     10  O   UNL     1      92.721 121.126 116.386  1.00  0.00    -0.550 OA
ENDBRANCH   7   8
ENDBRANCH   6   7
ENDBRANCH   5   6
ENDBRANCH   4   5
ENDBRANCH   3   4
ENDBRANCH   2   3
ENDBRANCH   1   2
BRANCH   1  11
ATOM     11  C   UNL     1      96.415 124.535 124.440  1.00  0.00     0.000 C 
BRANCH  11  12
ATOM     12  C   UNL     1      97.092 124.175 125.776  1.00  0.00    -0.000 C 
BRANCH  12  13
ATOM     13  C   UNL     1      98.082 125.228 126.307  1.00  0.00    -0.000 C 
BRANCH  13  14
ATOM     14  C   UNL     1      98.103 126.554 125.522  1.00  0.00    -0.000 C 
BRANCH  14  15
ATOM     15  C   UNL     1      97.978 127.807 126.416  1.00  0.00    -0.000 C 
BRANCH  15  16
ATOM     16  C   UNL     1      98.371 127.524 127.877  1.00  0.00    -0.000 C 
BRANCH  16  17
ATOM     17  C   UNL     1      97.425 128.198 128.882  1.00  0.00    -0.003 C 
ATOM     18  C   UNL     1      97.319 129.709 128.675  1.00  0.00     0.004 C 
ENDBRANCH  16  17
ENDBRANCH  15  16
ENDBRANCH  14  15
ENDBRANCH  13  14
ENDBRANCH  12  13
ENDBRANCH  11  12
ENDBRANCH   1  11
TORSDOF 14
ENDMDL
MODEL 6
REMARK VINA RESULT:    -5.792      1.246      1.821
REMARK INTER + INTRA:         -11.170
REMARK INTER:                 -10.490
REMARK INTRA:                  -0.680
REMARK UNBOUND:                -0.638
REMARK SMILES CCCCCCCCCCCCCCCC(=O)[O-]
REMARK SMILES IDX 9 1 10 2 11 3 12 4 13 5 14 6 15 7 16 8 17 9 18 10 8 11 7 12
REMARK SMILES IDX 6 13 5 14 4 15 3 16 2 17 1 18
REMARK H PARENT
REMARK Flexibility Score: inf
ROOT
ATOM      1  C   UNL     1      95.444 123.768 124.382  1.00  0.00     0.000 C 
ENDROOT
BRANCH   1   2
ATOM      2  C   UNL     1      96.599 124.585 124.983  1.00  0.00     0.000 C 
BRANCH   2   3
ATOM      3  C   UNL     1      97.213 123.921 126.226  1.00  0.00     0.000 C 
BRANCH   3   4
ATOM      4  C   UNL     1      98.565 124.542 126.622  1.00  0.00     0.000 C 
BRANCH   4   5
ATOM      5  C   UNL     1      98.448 125.495 127.823  1.00  0.00     0.000 C 
BRANCH   5   6
ATOM      6  C   UNL     1      98.561 126.976 127.418  1.00  0.00     0.006 C 
BRANCH   6   7
ATOM      7  C   UNL     1      97.495 127.844 128.098  1.00  0.00     0.053 C 
BRANCH   7   8
ATOM      8  C   UNL     1      97.968 129.252 128.296  1.00  0.00     0.041 C 
ATOM      9  O   UNL     1      99.126 129.588 127.934  1.00  0.00    -0.550 OA
ATOM     10  O   UNL     1      97.120 130.198 128.856  1.00  0.00    -0.550 OA
ENDBRANCH   7   8
ENDBRANCH   6   7
ENDBRANCH   5   6
ENDBRANCH   4   5
ENDBRANCH   3   4
ENDBRANCH   2   3
ENDBRANCH   1   2
BRANCH   1  11
ATOM     11  C   UNL     1      95.873 123.100 123.068  1.00  0.00     0.000 C 
BRANCH  11  12
ATOM     12  C   UNL     1      95.011 121.876 122.707  1.00  0.00    -0.000 C 
BRANCH  12  13
ATOM     13  C   UNL     1      93.561 122.200 122.300  1.00  0.00    -0.000 C 
BRANCH  13  14
ATOM     14  C   UNL     1      93.124 121.627 120.939  1.00  0.00    -0.000 C 
BRANCH  14  15
ATOM     15  C   UNL     1      94.247 120.876 120.192  1.00  0.00    -0.000 C 
BRANCH  15  16
ATOM     16  C   UNL     1      94.226 121.149 118.678  1.00  0.00    -0.000 C 
BRANCH  16  17
ATOM     17  C   UNL     1      92.878 121.712 118.200  1.00  0.00    -0.003 C 
ATOM     18  C   UNL     1      92.512 121.252 116.788  1.00  0.00     0.004 C 
ENDBRANCH  16  17
ENDBRANCH  15  16
ENDBRANCH  14  15
ENDBRANCH  13  14
ENDBRANCH  12  13
ENDBRANCH  11  12
ENDBRANCH   1  11
TORSDOF 14
ENDMDL
MODEL 7
REMARK VINA RESULT:    -5.455      4.369      9.810
REMARK INTER + INTRA:         -10.558
REMARK INTER:                  -9.522
REMARK INTRA:                  -1.036
REMARK UNBOUND:                -0.638
REMARK SMILES CCCCCCCCCCCCCCCC(=O)[O-]
REMARK SMILES IDX 9 1 10 2 11 3 12 4 13 5 14 6 15 7 16 8 17 9 18 10 8 11 7 12
REMARK SMILES IDX 6 13 5 14 4 15 3 16 2 17 1 18
REMARK H PARENT
REMARK Flexibility Score: inf
ROOT
ATOM      1  C   UNL     1      96.898 124.200 125.879  1.00  0.00     0.000 C 
ENDROOT
BRANCH   1   2
ATOM      2  C   UNL     1      96.341 124.635 124.513  1.00  0.00     0.000 C 
BRANCH   2   3
ATOM      3  C   UNL     1      95.454 123.560 123.863  1.00  0.00     0.000 C 
BRANCH   3   4
ATOM      4  C   UNL     1      96.272 122.403 123.265  1.00  0.00     0.000 C 
BRANCH   4   5
ATOM      5  C   UNL     1      96.124 122.303 121.737  1.00  0.00     0.000 C 
BRANCH   5   6
ATOM      6  C   UNL     1      94.839 121.569 121.313  1.00  0.00     0.006 C 
BRANCH   6   7
ATOM      7  C   UNL     1      94.986 120.890 119.945  1.00  0.00     0.053 C 
BRANCH   7   8
ATOM      8  C   UNL     1      93.856 121.241 119.026  1.00  0.00     0.041 C 
ATOM      9  O   UNL     1      93.881 120.875 117.822  1.00  0.00    -0.550 OA
ATOM     10  O   UNL     1      92.764 121.951 119.507  1.00  0.00    -0.550 OA
ENDBRANCH   7   8
ENDBRANCH   6   7
ENDBRANCH   5   6
ENDBRANCH   4   5
ENDBRANCH   3   4
ENDBRANCH   2   3
ENDBRANCH   1   2
BRANCH   1  11
ATOM     11  C   UNL     1      98.127 125.039 126.260  1.00  0.00     0.000 C 
BRANCH  11  12
ATOM     12  C   UNL     1      98.202 126.376 125.499  1.00  0.00    -0.000 C 
BRANCH  12  13
ATOM     13  C   UNL     1      98.719 127.566 126.329  1.00  0.00    -0.000 C 
BRANCH  13  14
ATOM     14  C   UNL     1      97.625 128.393 127.031  1.00  0.00    -0.000 C 
BRANCH  14  15
ATOM     15  C   UNL     1      98.050 128.944 128.409  1.00  0.00    -0.000 C 
BRANCH  15  16
ATOM     16  C   UNL     1      97.114 128.482 129.538  1.00  0.00    -0.000 C 
BRANCH  16  17
ATOM     17  C   UNL     1      96.690 127.012 129.388  1.00  0.00    -0.003 C 
ATOM     18  C   UNL     1      97.752 126.035 129.891  1.00  0.00     0.004 C 
ENDBRANCH  16  17
ENDBRANCH  15  16
ENDBRANCH  14  15
ENDBRANCH  13  14
ENDBRANCH  12  13
ENDBRANCH  11  12
ENDBRANCH   1  11
TORSDOF 14
ENDMDL
MODEL 8
REMARK VINA RESULT:    -5.398      4.220      9.752
REMARK INTER + INTRA:         -10.454
REMARK INTER:                  -9.238
REMARK INTRA:                  -1.216
REMARK UNBOUND:                -0.638
REMARK SMILES CCCCCCCCCCCCCCCC(=O)[O-]
REMARK SMILES IDX 9 1 10 2 11 3 12 4 13 5 14 6 15 7 16 8 17 9 18 10 8 11 7 12
REMARK SMILES IDX 6 13 5 14 4 15 3 16 2 17 1 18
REMARK H PARENT
REMARK Flexibility Score: inf
ROOT
ATOM      1  C   UNL     1      98.331 126.320 125.738  1.00  0.00     0.000 C 
ENDROOT
BRANCH   1   2
ATOM      2  C   UNL     1      97.717 125.170 126.553  1.00  0.00     0.000 C 
BRANCH   2   3
ATOM      3  C   UNL     1      97.123 124.064 125.666  1.00  0.00     0.000 C 
BRANCH   3   4
ATOM      4  C   UNL     1      96.429 124.622 124.410  1.00  0.00     0.000 C 
BRANCH   4   5
ATOM      5  C   UNL     1      95.221 123.775 123.978  1.00  0.00     0.000 C 
BRANCH   5   6
ATOM      6  C   UNL     1      95.598 122.673 122.972  1.00  0.00     0.006 C 
BRANCH   6   7
ATOM      7  C   UNL     1      94.457 121.670 122.758  1.00  0.00     0.053 C 
BRANCH   7   8
ATOM      8  C   UNL     1      94.114 121.520 121.307  1.00  0.00     0.041 C 
ATOM      9  O   UNL     1      92.921 121.631 120.922  1.00  0.00    -0.550 OA
ATOM     10  O   UNL     1      95.118 121.281 120.377  1.00  0.00    -0.550 OA
ENDBRANCH   7   8
ENDBRANCH   6   7
ENDBRANCH   5   6
ENDBRANCH   4   5
ENDBRANCH   3   4
ENDBRANCH   2   3
ENDBRANCH   1   2
BRANCH   1  11
ATOM     11  C   UNL     1      99.828 126.468 126.044  1.00  0.00     0.000 C 
BRANCH  11  12
ATOM     12  C   UNL     1     100.561 127.372 125.035  1.00  0.00    -0.000 C 
BRANCH  12  13
ATOM     13  C   UNL     1     100.647 128.857 125.437  1.00  0.00    -0.000 C 
BRANCH  13  14
ATOM     14  C   UNL     1     100.913 129.111 126.933  1.00  0.00    -0.000 C 
BRANCH  14  15
ATOM     15  C   UNL     1      99.795 129.910 127.636  1.00  0.00    -0.000 C 
BRANCH  15  16
ATOM     16  C   UNL     1      99.004 129.052 128.639  1.00  0.00    -0.000 C 
BRANCH  16  17
ATOM     17  C   UNL     1      97.494 129.058 128.356  1.00  0.00    -0.003 C 
ATOM     18  C   UNL     1      96.777 127.840 128.941  1.00  0.00     0.004 C 
ENDBRANCH  16  17
ENDBRANCH  15  16
ENDBRANCH  14  15
ENDBRANCH  13  14
ENDBRANCH  12  13
ENDBRANCH  11  12
ENDBRANCH   1  11
TORSDOF 14
ENDMDL
MODEL 9
REMARK VINA RESULT:    -5.374      2.149      4.876
REMARK INTER + INTRA:         -10.411
REMARK INTER:                  -9.401
REMARK INTRA:                  -1.011
REMARK UNBOUND:                -0.638
REMARK SMILES CCCCCCCCCCCCCCCC(=O)[O-]
REMARK SMILES IDX 9 1 10 2 11 3 12 4 13 5 14 6 15 7 16 8 17 9 18 10 8 11 7 12
REMARK SMILES IDX 6 13 5 14 4 15 3 16 2 17 1 18
REMARK H PARENT
REMARK Flexibility Score: inf
ROOT
ATOM      1  C   UNL     1      98.001 126.673 125.445  1.00  0.00     0.000 C 
ENDROOT
BRANCH   1   2
ATOM      2  C   UNL     1      99.445 127.178 125.296  1.00  0.00     0.000 C 
BRANCH   2   3
ATOM      3  C   UNL     1     100.072 127.592 126.638  1.00  0.00     0.000 C 
BRANCH   3   4
ATOM      4  C   UNL     1     100.264 129.114 126.755  1.00  0.00     0.000 C 
BRANCH   4   5
ATOM      5  C   UNL     1      99.655 129.688 128.046  1.00  0.00     0.000 C 
BRANCH   5   6
ATOM      6  C   UNL     1      98.611 128.750 128.677  1.00  0.00     0.006 C 
BRANCH   6   7
ATOM      7  C   UNL     1      97.176 129.150 128.308  1.00  0.00     0.053 C 
BRANCH   7   8
ATOM      8  C   UNL     1      96.204 128.791 129.389  1.00  0.00     0.041 C 
ATOM      9  O   UNL     1      95.642 129.694 130.062  1.00  0.00    -0.550 OA
ATOM     10  O   UNL     1      95.899 127.458 129.636  1.00  0.00    -0.550 OA
ENDBRANCH   7   8
ENDBRANCH   6   7
ENDBRANCH   5   6
ENDBRANCH   4   5
ENDBRANCH   3   4
ENDBRANCH   2   3
ENDBRANCH   1   2
BRANCH   1  11
ATOM     11  C   UNL     1      97.945 125.438 126.357  1.00  0.00     0.000 C 
BRANCH  11  12
ATOM     12  C   UNL     1      97.107 124.290 125.763  1.00  0.00    -0.000 C 
BRANCH  12  13
ATOM     13  C   UNL     1      96.351 124.642 124.467  1.00  0.00    -0.000 C 
BRANCH  13  14
ATOM     14  C   UNL     1      95.504 123.498 123.878  1.00  0.00    -0.000 C 
BRANCH  14  15
ATOM     15  C   UNL     1      96.341 122.392 123.200  1.00  0.00    -0.000 C 
BRANCH  15  16
ATOM     16  C   UNL     1      95.870 122.100 121.765  1.00  0.00    -0.000 C 
BRANCH  16  17
ATOM     17  C   UNL     1      94.422 121.588 121.712  1.00  0.00    -0.003 C 
ATOM     18  C   UNL     1      94.005 121.136 120.312  1.00  0.00     0.004 C 
ENDBRANCH  16  17
ENDBRANCH  15  16
ENDBRANCH  14  15
ENDBRANCH  13  14
ENDBRANCH  12  13
ENDBRANCH  11  12
ENDBRANCH   1  11
TORSDOF 14
ENDMDL
