MODEL 1
REMARK VINA RESULT:    -2.989      0.000      0.000
REMARK INTER + INTRA:          -8.052
REMARK INTER:                  -5.435
REMARK INTRA:                  -2.617
REMARK UNBOUND:                -2.617
REMARK SMILES CCCCCCCCCCCCCCCC(=O)[O-]
REMARK SMILES IDX 9 1 10 2 11 3 12 4 13 5 14 6 15 7 16 8 17 9 18 10 8 11 7 12
REMARK SMILES IDX 6 13 5 14 4 15 3 16 2 17 1 18
REMARK H PARENT
REMARK Flexibility Score: inf
ROOT
ATOM      1  C   UNL     1      41.027  35.485  46.372  1.00  0.00     0.000 C 
ENDROOT
BRANCH   1   2
ATOM      2  C   UNL     1      40.858  35.558  47.901  1.00  0.00     0.000 C 
BRANCH   2   3
ATOM      3  C   UNL     1      41.687  34.495  48.638  1.00  0.00     0.000 C 
BRANCH   3   4
ATOM      4  C   UNL     1      42.521  35.087  49.784  1.00  0.00     0.000 C 
BRANCH   4   5
ATOM      5  C   UNL     1      43.862  34.352  49.922  1.00  0.00     0.000 C 
BRANCH   5   6
ATOM      6  C   UNL     1      43.831  32.932  49.326  1.00  0.00     0.006 C 
BRANCH   6   7
ATOM      7  C   UNL     1      45.209  32.385  48.921  1.00  0.00     0.053 C 
BRANCH   7   8
ATOM      8  C   UNL     1      45.266  30.891  49.005  1.00  0.00     0.041 C 
ATOM      9  O   UNL     1      45.001  30.188  47.995  1.00  0.00    -0.550 OA
ATOM     10  O   UNL     1      45.644  30.276  50.192  1.00  0.00    -0.550 OA
ENDBRANCH   7   8
ENDBRANCH   6   7
ENDBRANCH   5   6
ENDBRANCH   4   5
ENDBRANCH   3   4
ENDBRANCH   2   3
ENDBRANCH   1   2
BRANCH   1  11
ATOM     11  C   UNL     1      41.318  34.060  45.875  1.00  0.00     0.000 C 
BRANCH  11  12
ATOM     12  C   UNL     1      42.718  33.927  45.251  1.00  0.00    -0.000 C 
BRANCH  12  13
ATOM     13  C   UNL     1      43.532  35.229  45.344  1.00  0.00    -0.000 C 
BRANCH  13  14
ATOM     14  C   UNL     1      44.666  35.148  46.377  1.00  0.00    -0.000 C 
BRANCH  14  15
ATOM     15  C   UNL     1      45.145  36.552  46.774  1.00  0.00    -0.000 C 
BRANCH  15  16
ATOM     16  C   UNL     1      44.038  37.612  46.652  1.00  0.00    -0.000 C 
BRANCH  16  17
ATOM     17  C   UNL     1      43.575  38.144  48.017  1.00  0.00    -0.003 C 
ATOM     18  C   UNL     1      44.682  38.021  49.059  1.00  0.00     0.004 C 
ENDBRANCH  16  17
ENDBRANCH  15  16
ENDBRANCH  14  15
ENDBRANCH  13  14
ENDBRANCH  12  13
ENDBRANCH  11  12
ENDBRANCH   1  11
TORSDOF 14
ENDMDL
MODEL 2
REMARK VINA RESULT:    -2.987      1.282      2.040
REMARK INTER + INTRA:          -8.049
REMARK INTER:                  -5.623
REMARK INTRA:                  -2.427
REMARK UNBOUND:                -2.617
REMARK SMILES CCCCCCCCCCCCCCCC(=O)[O-]
REMARK SMILES IDX 9 1 10 2 11 3 12 4 13 5 14 6 15 7 16 8 17 9 18 10 8 11 7 12
REMARK SMILES IDX 6 13 5 14 4 15 3 16 2 17 1 18
REMARK H PARENT
REMARK Flexibility Score: inf
ROOT
ATOM      1  C   UNL     1      40.792  35.541  47.866  1.00  0.00     0.000 C 
ENDROOT
BRANCH   1   2
ATOM      2  C   UNL     1      41.657  34.484  48.578  1.00  0.00     0.000 C 
BRANCH   2   3
ATOM      3  C   UNL     1      42.589  35.099  49.634  1.00  0.00     0.000 C 
BRANCH   3   4
ATOM      4  C   UNL     1      43.629  34.097  50.158  1.00  0.00     0.000 C 
BRANCH   4   5
ATOM      5  C   UNL     1      43.836  32.949  49.160  1.00  0.00     0.000 C 
BRANCH   5   6
ATOM      6  C   UNL     1      44.889  31.929  49.632  1.00  0.00     0.006 C 
BRANCH   6   7
ATOM      7  C   UNL     1      45.831  31.433  48.523  1.00  0.00     0.053 C 
BRANCH   7   8
ATOM      8  C   UNL     1      45.185  30.392  47.661  1.00  0.00     0.041 C 
ATOM      9  O   UNL     1      44.842  29.285  48.154  1.00  0.00    -0.550 OA
ATOM     10  O   UNL     1      44.934  30.658  46.322  1.00  0.00    -0.550 OA
ENDBRANCH   7   8
ENDBRANCH   6   7
ENDBRANCH   5   6
ENDBRANCH   4   5
ENDBRANCH   3   4
ENDBRANCH   2   3
ENDBRANCH   1   2
BRANCH   1  11
ATOM     11  C   UNL     1      40.778  35.363  46.339  1.00  0.00     0.000 C 
BRANCH  11  12
ATOM     12  C   UNL     1      41.482  34.071  45.888  1.00  0.00    -0.000 C 
BRANCH  12  13
ATOM     13  C   UNL     1      42.711  34.345  45.006  1.00  0.00    -0.000 C 
BRANCH  13  14
ATOM     14  C   UNL     1      44.031  33.955  45.689  1.00  0.00    -0.000 C 
BRANCH  14  15
ATOM     15  C   UNL     1      44.670  35.170  46.378  1.00  0.00    -0.000 C 
BRANCH  15  16
ATOM     16  C   UNL     1      46.138  34.929  46.764  1.00  0.00    -0.000 C 
BRANCH  16  17
ATOM     17  C   UNL     1      46.456  35.386  48.196  1.00  0.00    -0.003 C 
ATOM     18  C   UNL     1      45.787  36.721  48.508  1.00  0.00     0.004 C 
ENDBRANCH  16  17
ENDBRANCH  15  16
ENDBRANCH  14  15
ENDBRANCH  13  14
ENDBRANCH  12  13
ENDBRANCH  11  12
ENDBRANCH   1  11
TORSDOF 14
ENDMDL
MODEL 3
REMARK VINA RESULT:    -2.961      1.434      2.965
REMARK INTER + INTRA:          -8.001
REMARK INTER:                  -5.989
REMARK INTRA:                  -2.013
REMARK UNBOUND:                -2.617
REMARK SMILES CCCCCCCCCCCCCCCC(=O)[O-]
REMARK SMILES IDX 9 1 10 2 11 3 12 4 13 5 14 6 15 7 16 8 17 9 18 10 8 11 7 12
REMARK SMILES IDX 6 13 5 14 4 15 3 16 2 17 1 18
REMARK H PARENT
REMARK Flexibility Score: inf
ROOT
ATOM      1  C   UNL     1      41.930  34.263  48.734  1.00  0.00     0.000 C 
ENDROOT
BRANCH   1   2
ATOM      2  C   UNL     1      43.201  34.465  49.579  1.00  0.00     0.000 C 
BRANCH   2   3
ATOM      3  C   UNL     1      43.982  33.160  49.792  1.00  0.00     0.000 C 
BRANCH   3   4
ATOM      4  C   UNL     1      45.308  33.132  49.016  1.00  0.00     0.000 C 
BRANCH   4   5
ATOM      5  C   UNL     1      46.208  31.989  49.509  1.00  0.00     0.000 C 
BRANCH   5   6
ATOM      6  C   UNL     1      45.425  30.694  49.797  1.00  0.00     0.006 C 
BRANCH   6   7
ATOM      7  C   UNL     1      45.021  29.905  48.541  1.00  0.00     0.053 C 
BRANCH   7   8
ATOM      8  C   UNL     1      45.125  28.426  48.749  1.00  0.00     0.041 C 
ATOM      9  O   UNL     1      44.092  27.706  48.710  1.00  0.00    -0.550 OA
ATOM     10  O   UNL     1      46.367  27.838  48.955  1.00  0.00    -0.550 OA
ENDBRANCH   7   8
ENDBRANCH   6   7
ENDBRANCH   5   6
ENDBRANCH   4   5
ENDBRANCH   3   4
ENDBRANCH   2   3
ENDBRANCH   1   2
BRANCH   1  11
ATOM     11  C   UNL     1      41.373  35.583  48.176  1.00  0.00     0.000 C 
BRANCH  11  12
ATOM     12  C   UNL     1      40.747  35.417  46.781  1.00  0.00    -0.000 C 
BRANCH  12  13
ATOM     13  C   UNL     1      41.136  34.088  46.114  1.00  0.00    -0.000 C 
BRANCH  13  14
ATOM     14  C   UNL     1      42.276  34.245  45.096  1.00  0.00    -0.000 C 
BRANCH  14  15
ATOM     15  C   UNL     1      43.532  33.492  45.561  1.00  0.00    -0.000 C 
BRANCH  15  16
ATOM     16  C   UNL     1      44.756  34.411  45.701  1.00  0.00    -0.000 C 
BRANCH  16  17
ATOM     17  C   UNL     1      44.370  35.878  45.941  1.00  0.00    -0.003 C 
ATOM     18  C   UNL     1      45.092  36.443  47.160  1.00  0.00     0.004 C 
ENDBRANCH  16  17
ENDBRANCH  15  16
ENDBRANCH  14  15
ENDBRANCH  13  14
ENDBRANCH  12  13
ENDBRANCH  11  12
ENDBRANCH   1  11
TORSDOF 14
ENDMDL
MODEL 4
REMARK VINA RESULT:    -2.903      3.226      6.252
REMARK INTER + INTRA:          -7.896
REMARK INTER:                  -5.479
REMARK INTRA:                  -2.417
REMARK UNBOUND:                -2.617
REMARK SMILES CCCCCCCCCCCCCCCC(=O)[O-]
REMARK SMILES IDX 9 1 10 2 11 3 12 4 13 5 14 6 15 7 16 8 17 9 18 10 8 11 7 12
REMARK SMILES IDX 6 13 5 14 4 15 3 16 2 17 1 18
REMARK H PARENT
REMARK Flexibility Score: inf
ROOT
ATOM      1  C   UNL     1      46.362  30.408  47.052  1.00  0.00     0.000 C 
ENDROOT
BRANCH   1   2
ATOM      2  C   UNL     1      45.111  31.013  46.388  1.00  0.00     0.000 C 
BRANCH   2   3
ATOM      3  C   UNL     1      44.760  32.401  46.944  1.00  0.00     0.000 C 
BRANCH   3   4
ATOM      4  C   UNL     1      45.954  33.082  47.629  1.00  0.00     0.000 C 
BRANCH   4   5
ATOM      5  C   UNL     1      45.529  33.730  48.955  1.00  0.00     0.000 C 
BRANCH   5   6
ATOM      6  C   UNL     1      44.206  33.162  49.501  1.00  0.00     0.006 C 
BRANCH   6   7
ATOM      7  C   UNL     1      43.270  34.215  50.115  1.00  0.00     0.053 C 
BRANCH   7   8
ATOM      8  C   UNL     1      42.508  34.968  49.068  1.00  0.00     0.041 C 
ATOM      9  O   UNL     1      41.398  34.536  48.658  1.00  0.00    -0.550 OA
ATOM     10  O   UNL     1      43.009  36.163  48.569  1.00  0.00    -0.550 OA
ENDBRANCH   7   8
ENDBRANCH   6   7
ENDBRANCH   5   6
ENDBRANCH   4   5
ENDBRANCH   3   4
ENDBRANCH   2   3
ENDBRANCH   1   2
BRANCH   1  11
ATOM     11  C   UNL     1      46.080  29.057  47.728  1.00  0.00     0.000 C 
BRANCH  11  12
ATOM     12  C   UNL     1      45.077  29.176  48.888  1.00  0.00    -0.000 C 
BRANCH  12  13
ATOM     13  C   UNL     1      45.673  29.886  50.115  1.00  0.00    -0.000 C 
BRANCH  13  14
ATOM     14  C   UNL     1      46.806  29.084  50.773  1.00  0.00    -0.000 C 
BRANCH  14  15
ATOM     15  C   UNL     1      48.084  29.930  50.880  1.00  0.00    -0.000 C 
BRANCH  15  16
ATOM     16  C   UNL     1      47.845  31.410  50.540  1.00  0.00    -0.000 C 
BRANCH  16  17
ATOM     17  C   UNL     1      48.909  31.978  49.589  1.00  0.00    -0.003 C 
ATOM     18  C   UNL     1      49.170  33.454  49.875  1.00  0.00     0.004 C 
ENDBRANCH  16  17
ENDBRANCH  15  16
ENDBRANCH  14  15
ENDBRANCH  13  14
ENDBRANCH  12  13
ENDBRANCH  11  12
ENDBRANCH   1  11
TORSDOF 14
ENDMDL
MODEL 5
REMARK VINA RESULT:    -2.878      2.851      5.362
REMARK INTER + INTRA:          -7.851
REMARK INTER:                  -5.373
REMARK INTRA:                  -2.478
REMARK UNBOUND:                -2.617
REMARK SMILES CCCCCCCCCCCCCCCC(=O)[O-]
REMARK SMILES IDX 9 1 10 2 11 3 12 4 13 5 14 6 15 7 16 8 17 9 18 10 8 11 7 12
REMARK SMILES IDX 6 13 5 14 4 15 3 16 2 17 1 18
REMARK H PARENT
REMARK Flexibility Score: inf
ROOT
ATOM      1  C   UNL     1      40.707  35.346  46.536  1.00  0.00     0.000 C 
ENDROOT
BRANCH   1   2
ATOM      2  C   UNL     1      41.285  33.994  46.081  1.00  0.00     0.000 C 
BRANCH   2   3
ATOM      3  C   UNL     1      42.323  34.143  44.958  1.00  0.00     0.000 C 
BRANCH   3   4
ATOM      4  C   UNL     1      43.306  35.296  45.212  1.00  0.00     0.000 C 
BRANCH   4   5
ATOM      5  C   UNL     1      44.426  34.861  46.168  1.00  0.00     0.000 C 
BRANCH   5   6
ATOM      6  C   UNL     1      44.867  35.985  47.123  1.00  0.00     0.006 C 
BRANCH   6   7
ATOM      7  C   UNL     1      43.948  37.218  47.117  1.00  0.00     0.053 C 
BRANCH   7   8
ATOM      8  C   UNL     1      44.094  38.034  48.364  1.00  0.00     0.041 C 
ATOM      9  O   UNL     1      44.827  37.628  49.305  1.00  0.00    -0.550 OA
ATOM     10  O   UNL     1      43.447  39.258  48.474  1.00  0.00    -0.550 OA
ENDBRANCH   7   8
ENDBRANCH   6   7
ENDBRANCH   5   6
ENDBRANCH   4   5
ENDBRANCH   3   4
ENDBRANCH   2   3
ENDBRANCH   1   2
BRANCH   1  11
ATOM     11  C   UNL     1      40.865  35.581  48.047  1.00  0.00     0.000 C 
BRANCH  11  12
ATOM     12  C   UNL     1      41.738  34.508  48.722  1.00  0.00    -0.000 C 
BRANCH  12  13
ATOM     13  C   UNL     1      42.541  35.062  49.910  1.00  0.00    -0.000 C 
BRANCH  13  14
ATOM     14  C   UNL     1      43.850  34.296  50.151  1.00  0.00    -0.000 C 
BRANCH  14  15
ATOM     15  C   UNL     1      43.865  32.977  49.363  1.00  0.00    -0.000 C 
BRANCH  15  16
ATOM     16  C   UNL     1      45.249  32.310  49.351  1.00  0.00    -0.000 C 
BRANCH  16  17
ATOM     17  C   UNL     1      45.684  31.875  47.943  1.00  0.00    -0.003 C 
ATOM     18  C   UNL     1      45.213  30.458  47.635  1.00  0.00     0.004 C 
ENDBRANCH  16  17
ENDBRANCH  15  16
ENDBRANCH  14  15
ENDBRANCH  13  14
ENDBRANCH  12  13
ENDBRANCH  11  12
ENDBRANCH   1  11
TORSDOF 14
ENDMDL
MODEL 6
REMARK VINA RESULT:    -2.877      1.933      3.764
REMARK INTER + INTRA:          -7.849
REMARK INTER:                  -5.950
REMARK INTRA:                  -1.899
REMARK UNBOUND:                -2.617
REMARK SMILES CCCCCCCCCCCCCCCC(=O)[O-]
REMARK SMILES IDX 9 1 10 2 11 3 12 4 13 5 14 6 15 7 16 8 17 9 18 10 8 11 7 12
REMARK SMILES IDX 6 13 5 14 4 15 3 16 2 17 1 18
REMARK H PARENT
REMARK Flexibility Score: inf
ROOT
ATOM      1  C   UNL     1      42.624  35.151  49.744  1.00  0.00     0.000 C 
ENDROOT
BRANCH   1   2
ATOM      2  C   UNL     1      43.944  34.388  49.956  1.00  0.00     0.000 C 
BRANCH   2   3
ATOM      3  C   UNL     1      43.895  32.957  49.400  1.00  0.00     0.000 C 
BRANCH   3   4
ATOM      4  C   UNL     1      45.274  32.280  49.388  1.00  0.00     0.000 C 
BRANCH   4   5
ATOM      5  C   UNL     1      45.156  30.802  48.986  1.00  0.00     0.000 C 
BRANCH   5   6
ATOM      6  C   UNL     1      46.476  30.028  49.158  1.00  0.00     0.006 C 
BRANCH   6   7
ATOM      7  C   UNL     1      47.000  29.983  50.602  1.00  0.00     0.053 C 
BRANCH   7   8
ATOM      8  C   UNL     1      48.419  30.452  50.700  1.00  0.00     0.041 C 
ATOM      9  O   UNL     1      49.297  29.980  49.931  1.00  0.00    -0.550 OA
ATOM     10  O   UNL     1      48.763  31.434  51.620  1.00  0.00    -0.550 OA
ENDBRANCH   7   8
ENDBRANCH   6   7
ENDBRANCH   5   6
ENDBRANCH   4   5
ENDBRANCH   3   4
ENDBRANCH   2   3
ENDBRANCH   1   2
BRANCH   1  11
ATOM     11  C   UNL     1      41.750  34.530  48.642  1.00  0.00     0.000 C 
BRANCH  11  12
ATOM     12  C   UNL     1      40.897  35.576  47.905  1.00  0.00    -0.000 C 
BRANCH  12  13
ATOM     13  C   UNL     1      40.933  35.398  46.378  1.00  0.00    -0.000 C 
BRANCH  13  14
ATOM     14  C   UNL     1      41.329  33.975  45.955  1.00  0.00    -0.000 C 
BRANCH  14  15
ATOM     15  C   UNL     1      42.611  33.994  45.108  1.00  0.00    -0.000 C 
BRANCH  15  16
ATOM     16  C   UNL     1      43.791  33.299  45.805  1.00  0.00    -0.000 C 
BRANCH  16  17
ATOM     17  C   UNL     1      45.039  34.191  45.885  1.00  0.00    -0.003 C 
ATOM     18  C   UNL     1      44.722  35.520  46.562  1.00  0.00     0.004 C 
ENDBRANCH  16  17
ENDBRANCH  15  16
ENDBRANCH  14  15
ENDBRANCH  13  14
ENDBRANCH  12  13
ENDBRANCH  11  12
ENDBRANCH   1  11
TORSDOF 14
ENDMDL
MODEL 7
REMARK VINA RESULT:    -2.850      1.356      3.025
REMARK INTER + INTRA:          -7.799
REMARK INTER:                  -5.517
REMARK INTRA:                  -2.282
REMARK UNBOUND:                -2.617
REMARK SMILES CCCCCCCCCCCCCCCC(=O)[O-]
REMARK SMILES IDX 9 1 10 2 11 3 12 4 13 5 14 6 15 7 16 8 17 9 18 10 8 11 7 12
REMARK SMILES IDX 6 13 5 14 4 15 3 16 2 17 1 18
REMARK H PARENT
REMARK Flexibility Score: inf
ROOT
ATOM      1  C   UNL     1      41.682  34.025  46.578  1.00  0.00     0.000 C 
ENDROOT
BRANCH   1   2
ATOM      2  C   UNL     1      42.729  34.513  45.559  1.00  0.00     0.000 C 
BRANCH   2   3
ATOM      3  C   UNL     1      43.833  33.476  45.305  1.00  0.00     0.000 C 
BRANCH   3   4
ATOM      4  C   UNL     1      44.854  33.407  46.451  1.00  0.00     0.000 C 
BRANCH   4   5
ATOM      5  C   UNL     1      44.901  31.997  47.059  1.00  0.00     0.000 C 
BRANCH   5   6
ATOM      6  C   UNL     1      44.880  32.009  48.599  1.00  0.00     0.006 C 
BRANCH   6   7
ATOM      7  C   UNL     1      46.250  32.262  49.249  1.00  0.00     0.053 C 
BRANCH   7   8
ATOM      8  C   UNL     1      46.825  31.016  49.849  1.00  0.00     0.041 C 
ATOM      9  O   UNL     1      46.484  29.886  49.412  1.00  0.00    -0.550 OA
ATOM     10  O   UNL     1      47.763  31.106  50.870  1.00  0.00    -0.550 OA
ENDBRANCH   7   8
ENDBRANCH   6   7
ENDBRANCH   5   6
ENDBRANCH   4   5
ENDBRANCH   3   4
ENDBRANCH   2   3
ENDBRANCH   1   2
BRANCH   1  11
ATOM     11  C   UNL     1      40.911  35.181  47.235  1.00  0.00     0.000 C 
BRANCH  11  12
ATOM     12  C   UNL     1      41.142  35.256  48.754  1.00  0.00    -0.000 C 
BRANCH  12  13
ATOM     13  C   UNL     1      42.407  34.504  49.197  1.00  0.00    -0.000 C 
BRANCH  13  14
ATOM     14  C   UNL     1      42.986  35.039  50.515  1.00  0.00    -0.000 C 
BRANCH  14  15
ATOM     15  C   UNL     1      44.096  36.067  50.248  1.00  0.00    -0.000 C 
BRANCH  15  16
ATOM     16  C   UNL     1      44.861  35.787  48.945  1.00  0.00    -0.000 C 
BRANCH  16  17
ATOM     17  C   UNL     1      44.928  37.013  48.022  1.00  0.00    -0.003 C 
ATOM     18  C   UNL     1      43.628  37.809  48.071  1.00  0.00     0.004 C 
ENDBRANCH  16  17
ENDBRANCH  15  16
ENDBRANCH  14  15
ENDBRANCH  13  14
ENDBRANCH  12  13
ENDBRANCH  11  12
ENDBRANCH   1  11
TORSDOF 14
ENDMDL
MODEL 8
REMARK VINA RESULT:    -2.836      2.917      5.800
REMARK INTER + INTRA:          -7.774
REMARK INTER:                  -5.606
REMARK INTRA:                  -2.168
REMARK UNBOUND:                -2.617
REMARK SMILES CCCCCCCCCCCCCCCC(=O)[O-]
REMARK SMILES IDX 9 1 10 2 11 3 12 4 13 5 14 6 15 7 16 8 17 9 18 10 8 11 7 12
REMARK SMILES IDX 6 13 5 14 4 15 3 16 2 17 1 18
REMARK H PARENT
REMARK Flexibility Score: inf
ROOT
ATOM      1  C   UNL     1      41.526  34.430  48.621  1.00  0.00     0.000 C 
ENDROOT
BRANCH   1   2
ATOM      2  C   UNL     1      40.909  35.318  47.525  1.00  0.00     0.000 C 
BRANCH   2   3
ATOM      3  C   UNL     1      41.485  35.023  46.132  1.00  0.00     0.000 C 
BRANCH   3   4
ATOM      4  C   UNL     1      42.572  33.938  46.160  1.00  0.00     0.000 C 
BRANCH   4   5
ATOM      5  C   UNL     1      43.927  34.507  45.716  1.00  0.00     0.000 C 
BRANCH   5   6
ATOM      6  C   UNL     1      44.012  36.037  45.865  1.00  0.00     0.006 C 
BRANCH   6   7
ATOM      7  C   UNL     1      44.680  36.511  47.166  1.00  0.00     0.053 C 
BRANCH   7   8
ATOM      8  C   UNL     1      43.922  37.629  47.813  1.00  0.00     0.041 C 
ATOM      9  O   UNL     1      44.238  38.026  48.965  1.00  0.00    -0.550 OA
ATOM     10  O   UNL     1      42.886  38.253  47.128  1.00  0.00    -0.550 OA
ENDBRANCH   7   8
ENDBRANCH   6   7
ENDBRANCH   5   6
ENDBRANCH   4   5
ENDBRANCH   3   4
ENDBRANCH   2   3
ENDBRANCH   1   2
BRANCH   1  11
ATOM     11  C   UNL     1      42.120  35.247  49.780  1.00  0.00     0.000 C 
BRANCH  11  12
ATOM     12  C   UNL     1      43.478  34.698  50.252  1.00  0.00    -0.000 C 
BRANCH  12  13
ATOM     13  C   UNL     1      43.812  33.332  49.630  1.00  0.00    -0.000 C 
BRANCH  13  14
ATOM     14  C   UNL     1      45.231  33.277  49.045  1.00  0.00    -0.000 C 
BRANCH  14  15
ATOM     15  C   UNL     1      45.559  31.864  48.539  1.00  0.00    -0.000 C 
BRANCH  15  16
ATOM     16  C   UNL     1      46.425  31.067  49.527  1.00  0.00    -0.000 C 
BRANCH  16  17
ATOM     17  C   UNL     1      45.716  29.810  50.055  1.00  0.00    -0.003 C 
ATOM     18  C   UNL     1      46.647  28.982  50.934  1.00  0.00     0.004 C 
ENDBRANCH  16  17
ENDBRANCH  15  16
ENDBRANCH  14  15
ENDBRANCH  13  14
ENDBRANCH  12  13
ENDBRANCH  11  12
ENDBRANCH   1  11
TORSDOF 14
ENDMDL
MODEL 9
REMARK VINA RESULT:    -2.820      1.226      3.192
REMARK INTER + INTRA:          -7.744
REMARK INTER:                  -5.274
REMARK INTRA:                  -2.470
REMARK UNBOUND:                -2.617
REMARK SMILES CCCCCCCCCCCCCCCC(=O)[O-]
REMARK SMILES IDX 9 1 10 2 11 3 12 4 13 5 14 6 15 7 16 8 17 9 18 10 8 11 7 12
REMARK SMILES IDX 6 13 5 14 4 15 3 16 2 17 1 18
REMARK H PARENT
REMARK Flexibility Score: inf
ROOT
ATOM      1  C   UNL     1      44.810  35.826  48.801  1.00  0.00     0.000 C 
ENDROOT
BRANCH   1   2
ATOM      2  C   UNL     1      43.795  35.790  49.957  1.00  0.00     0.000 C 
BRANCH   2   3
ATOM      3  C   UNL     1      43.424  34.358  50.372  1.00  0.00     0.000 C 
BRANCH   3   4
ATOM      4  C   UNL     1      43.632  33.342  49.240  1.00  0.00     0.000 C 
BRANCH   4   5
ATOM      5  C   UNL     1      44.609  32.236  49.668  1.00  0.00     0.000 C 
BRANCH   5   6
ATOM      6  C   UNL     1      45.699  31.961  48.615  1.00  0.00     0.006 C 
BRANCH   6   7
ATOM      7  C   UNL     1      45.246  31.059  47.456  1.00  0.00     0.053 C 
BRANCH   7   8
ATOM      8  C   UNL     1      45.520  29.612  47.729  1.00  0.00     0.041 C 
ATOM      9  O   UNL     1      44.680  28.915  48.358  1.00  0.00    -0.550 OA
ATOM     10  O   UNL     1      46.689  29.026  47.261  1.00  0.00    -0.550 OA
ENDBRANCH   7   8
ENDBRANCH   6   7
ENDBRANCH   5   6
ENDBRANCH   4   5
ENDBRANCH   3   4
ENDBRANCH   2   3
ENDBRANCH   1   2
BRANCH   1  11
ATOM     11  C   UNL     1      44.420  36.826  47.700  1.00  0.00     0.000 C 
BRANCH  11  12
ATOM     12  C   UNL     1      44.564  36.235  46.287  1.00  0.00    -0.000 C 
BRANCH  12  13
ATOM     13  C   UNL     1      44.867  34.727  46.306  1.00  0.00    -0.000 C 
BRANCH  13  14
ATOM     14  C   UNL     1      43.946  33.925  45.374  1.00  0.00    -0.000 C 
BRANCH  14  15
ATOM     15  C   UNL     1      42.574  34.603  45.245  1.00  0.00    -0.000 C 
BRANCH  15  16
ATOM     16  C   UNL     1      41.516  33.980  46.168  1.00  0.00    -0.000 C 
BRANCH  16  17
ATOM     17  C   UNL     1      41.099  34.920  47.310  1.00  0.00    -0.003 C 
ATOM     18  C   UNL     1      40.786  36.318  46.784  1.00  0.00     0.004 C 
ENDBRANCH  16  17
ENDBRANCH  15  16
ENDBRANCH  14  15
ENDBRANCH  13  14
ENDBRANCH  12  13
ENDBRANCH  11  12
ENDBRANCH   1  11
TORSDOF 14
ENDMDL
