MODEL 1
REMARK VINA RESULT:    -6.041      0.000      0.000
REMARK INTER + INTRA:          -6.752
REMARK INTER:                  -6.570
REMARK INTRA:                  -0.182
REMARK UNBOUND:                -0.182
REMARK SMILES C[C@H]1[C@H](C)CC[C@@]2(C(=O)[O-])CC[C@]3(C)C(=CC[C@H]4[C@]5(C)CC[C@@H](O)C(C)(C)[C@H]5CC[C@@]43C)[C@@H]12
REMARK SMILES IDX 7 1 6 2 11 3 33 4 5 5 12 6 15 7 2 8 3 9 13 10 16 11 1 12
REMARK SMILES IDX 4 13 14 14 31 15 17 16 18 17 30 18 32 19 19 20 29 21 28 22
REMARK SMILES IDX 21 23 20 24 25 25 22 26 23 27 26 28 27 29 8 30 9 31 10 32
REMARK SMILES IDX 24 33
REMARK H PARENT 24 34
REMARK Flexibility Score: inf
ROOT
ATOM      1  C   UNL     1      26.201   3.268  90.349  1.00  0.00     0.017 C 
ATOM      2  C   UNL     1      25.471   1.886  90.780  1.00  0.00     0.014 C 
ATOM      3  C   UNL     1      27.711   3.349  89.999  1.00  0.00     0.014 C 
ATOM      4  C   UNL     1      25.409   3.902  89.098  1.00  0.00     0.030 C 
ATOM      5  C   UNL     1      24.274   1.376  89.792  1.00  0.00     0.004 C 
ATOM      6  C   UNL     1      28.139   2.551  88.789  1.00  0.00     0.013 C 
ATOM      7  C   UNL     1      25.919   3.161  87.684  1.00  0.00    -0.063 C 
ATOM      8  C   UNL     1      23.809   3.903  89.608  1.00  0.00    -0.003 C 
ATOM      9  C   UNL     1      23.316   2.515  89.080  1.00  0.00    -0.011 C 
ATOM     10  C   UNL     1      27.477   3.013  87.408  1.00  0.00    -0.006 C 
ATOM     11  C   UNL     1      25.189   2.293  86.852  1.00  0.00    -0.027 C 
ATOM     12  C   UNL     1      22.795   5.093  89.378  1.00  0.00     0.008 C 
ATOM     13  C   UNL     1      21.917   2.020  89.038  1.00  0.00     0.008 C 
ATOM     14  C   UNL     1      27.877   4.544  87.174  1.00  0.00     0.017 C 
ATOM     15  C   UNL     1      28.026   2.050  86.053  1.00  0.00    -0.020 C 
ATOM     16  C   UNL     1      25.599   2.373  85.408  1.00  0.00     0.032 C 
ATOM     17  C   UNL     1      26.788   1.504  85.190  1.00  0.00     0.006 C 
ATOM     18  C   UNL     1      28.816   0.662  86.254  1.00  0.00     0.008 C 
ATOM     19  C   UNL     1      29.125   2.873  85.269  1.00  0.00     0.012 C 
ATOM     20  C   UNL     1      26.908   0.705  83.761  1.00  0.00    -0.025 C 
ATOM     21  C   UNL     1      29.125  -0.268  84.928  1.00  0.00     0.005 C 
ATOM     22  C   UNL     1      27.836  -0.598  83.989  1.00  0.00     0.003 C 
ATOM     23  C   UNL     1      25.497   0.336  83.119  1.00  0.00     0.010 C 
ATOM     24  C   UNL     1      27.602   1.721  82.755  1.00  0.00     0.012 C 
ATOM     25  C   UNL     1      27.984  -1.418  82.556  1.00  0.00    -0.006 C 
ATOM     26  C   UNL     1      25.616  -0.475  81.811  1.00  0.00     0.033 C 
ATOM     27  C   UNL     1      26.502  -1.716  82.011  1.00  0.00     0.120 C 
ATOM     28  C   UNL     1      28.724  -2.807  82.745  1.00  0.00     0.014 C 
ATOM     29  C   UNL     1      28.716  -0.735  81.363  1.00  0.00     0.014 C 
ENDROOT
BRANCH   1  30
ATOM     30  C   UNL     1      26.227   4.249  91.508  1.00  0.00     0.048 C 
ATOM     31  O   UNL     1      26.873   5.342  91.476  1.00  0.00    -0.550 OA
ATOM     32  O   UNL     1      25.547   4.022  92.700  1.00  0.00    -0.550 OA
ENDBRANCH   1  30
BRANCH  27  33
ATOM     33  O   UNL     1      26.586  -2.505  80.800  1.00  0.00    -0.393 OA
ATOM     34  H   UNL     1      25.715  -2.350  80.297  1.00  0.00     0.210 HD
ENDBRANCH  27  33
TORSDOF 2
ENDMDL
MODEL 2
REMARK VINA RESULT:    -5.617      1.774      3.405
REMARK INTER + INTRA:          -6.291
REMARK INTER:                  -6.107
REMARK INTRA:                  -0.184
REMARK UNBOUND:                -0.182
REMARK SMILES C[C@H]1[C@H](C)CC[C@@]2(C(=O)[O-])CC[C@]3(C)C(=CC[C@H]4[C@]5(C)CC[C@@H](O)C(C)(C)[C@H]5CC[C@@]43C)[C@@H]12
REMARK SMILES IDX 7 1 6 2 11 3 33 4 5 5 12 6 15 7 2 8 3 9 13 10 16 11 1 12
REMARK SMILES IDX 4 13 14 14 31 15 17 16 18 17 30 18 32 19 19 20 29 21 28 22
REMARK SMILES IDX 21 23 20 24 25 25 22 26 23 27 26 28 27 29 8 30 9 31 10 32
REMARK SMILES IDX 24 33
REMARK H PARENT 24 34
REMARK Flexibility Score: inf
ROOT
ATOM      1  C   UNL     1      26.806   3.661  89.205  1.00  0.00     0.017 C 
ATOM      2  C   UNL     1      28.421   3.549  89.296  1.00  0.00     0.014 C 
ATOM      3  C   UNL     1      26.078   4.450  88.084  1.00  0.00     0.014 C 
ATOM      4  C   UNL     1      26.186   2.175  89.191  1.00  0.00     0.030 C 
ATOM      5  C   UNL     1      29.037   2.042  89.175  1.00  0.00     0.004 C 
ATOM      6  C   UNL     1      26.288   3.927  86.681  1.00  0.00     0.013 C 
ATOM      7  C   UNL     1      26.257   1.558  87.634  1.00  0.00    -0.063 C 
ATOM      8  C   UNL     1      26.919   1.433  90.507  1.00  0.00    -0.003 C 
ATOM      9  C   UNL     1      28.182   0.797  89.838  1.00  0.00    -0.011 C 
ATOM     10  C   UNL     1      25.736   2.447  86.426  1.00  0.00    -0.006 C 
ATOM     11  C   UNL     1      27.062   0.507  87.158  1.00  0.00    -0.027 C 
ATOM     12  C   UNL     1      26.173   0.493  91.536  1.00  0.00     0.008 C 
ATOM     13  C   UNL     1      29.125  -0.173  90.451  1.00  0.00     0.008 C 
ATOM     14  C   UNL     1      24.165   2.462  86.733  1.00  0.00     0.017 C 
ATOM     15  C   UNL     1      26.006   1.913  84.780  1.00  0.00    -0.020 C 
ATOM     16  C   UNL     1      26.435  -0.252  86.022  1.00  0.00     0.032 C 
ATOM     17  C   UNL     1      26.705   0.469  84.747  1.00  0.00     0.006 C 
ATOM     18  C   UNL     1      27.001   2.689  83.781  1.00  0.00     0.008 C 
ATOM     19  C   UNL     1      24.651   2.060  83.979  1.00  0.00     0.012 C 
ATOM     20  C   UNL     1      26.968  -0.427  83.397  1.00  0.00    -0.025 C 
ATOM     21  C   UNL     1      27.339   2.007  82.319  1.00  0.00     0.005 C 
ATOM     22  C   UNL     1      27.844   0.460  82.368  1.00  0.00     0.003 C 
ATOM     23  C   UNL     1      27.635  -1.843  83.693  1.00  0.00     0.010 C 
ATOM     24  C   UNL     1      25.530  -0.731  82.793  1.00  0.00     0.012 C 
ATOM     25  C   UNL     1      28.114  -0.417  80.988  1.00  0.00    -0.006 C 
ATOM     26  C   UNL     1      27.943  -2.651  82.414  1.00  0.00     0.033 C 
ATOM     27  C   UNL     1      28.772  -1.816  81.422  1.00  0.00     0.120 C 
ATOM     28  C   UNL     1      29.124   0.316  80.011  1.00  0.00     0.014 C 
ATOM     29  C   UNL     1      26.904  -0.809  80.088  1.00  0.00     0.014 C 
ENDROOT
BRANCH   1  30
ATOM     30  C   UNL     1      26.252   4.452  90.377  1.00  0.00     0.048 C 
ATOM     31  O   UNL     1      25.010   4.647  90.556  1.00  0.00    -0.550 OA
ATOM     32  O   UNL     1      27.066   5.030  91.345  1.00  0.00    -0.550 OA
ENDBRANCH   1  30
BRANCH  27  33
ATOM     33  O   UNL     1      29.101  -2.581  80.236  1.00  0.00    -0.393 OA
ATOM     34  H   UNL     1      29.302  -1.903  79.505  1.00  0.00     0.210 HD
ENDBRANCH  27  33
TORSDOF 2
ENDMDL
MODEL 3
REMARK VINA RESULT:    -3.998      1.819      8.164
REMARK INTER + INTRA:          -4.530
REMARK INTER:                  -4.589
REMARK INTRA:                   0.058
REMARK UNBOUND:                -0.182
REMARK SMILES C[C@H]1[C@H](C)CC[C@@]2(C(=O)[O-])CC[C@]3(C)C(=CC[C@H]4[C@]5(C)CC[C@@H](O)C(C)(C)[C@H]5CC[C@@]43C)[C@@H]12
REMARK SMILES IDX 7 1 6 2 11 3 33 4 5 5 12 6 15 7 2 8 3 9 13 10 16 11 1 12
REMARK SMILES IDX 4 13 14 14 31 15 17 16 18 17 30 18 32 19 19 20 29 21 28 22
REMARK SMILES IDX 21 23 20 24 25 25 22 26 23 27 26 28 27 29 8 30 9 31 10 32
REMARK SMILES IDX 24 33
REMARK H PARENT 24 34
REMARK Flexibility Score: inf
ROOT
ATOM      1  C   UNL     1      25.596   1.104  82.704  1.00  0.00     0.017 C 
ATOM      2  C   UNL     1      24.977  -0.289  83.258  1.00  0.00     0.014 C 
ATOM      3  C   UNL     1      25.004   2.492  83.065  1.00  0.00     0.014 C 
ATOM      4  C   UNL     1      27.159   1.162  83.089  1.00  0.00     0.030 C 
ATOM      5  C   UNL     1      25.971  -1.189  84.190  1.00  0.00     0.004 C 
ATOM      6  C   UNL     1      25.056   2.858  84.531  1.00  0.00     0.013 C 
ATOM      7  C   UNL     1      27.322   1.688  84.672  1.00  0.00    -0.063 C 
ATOM      8  C   UNL     1      27.751  -0.313  82.547  1.00  0.00    -0.003 C 
ATOM      9  C   UNL     1      27.579  -1.202  83.823  1.00  0.00    -0.011 C 
ATOM     10  C   UNL     1      26.530   2.983  85.142  1.00  0.00    -0.006 C 
ATOM     11  C   UNL     1      27.759   0.950  85.787  1.00  0.00    -0.027 C 
ATOM     12  C   UNL     1      29.125  -0.504  81.790  1.00  0.00     0.008 C 
ATOM     13  C   UNL     1      28.119  -2.568  84.040  1.00  0.00     0.008 C 
ATOM     14  C   UNL     1      27.299   4.112  84.308  1.00  0.00     0.017 C 
ATOM     15  C   UNL     1      26.511   3.417  86.838  1.00  0.00    -0.020 C 
ATOM     16  C   UNL     1      28.453   1.793  86.820  1.00  0.00     0.032 C 
ATOM     17  C   UNL     1      27.432   2.425  87.700  1.00  0.00     0.006 C 
ATOM     18  C   UNL     1      25.171   3.341  87.725  1.00  0.00     0.008 C 
ATOM     19  C   UNL     1      26.827   4.961  86.961  1.00  0.00     0.012 C 
ATOM     20  C   UNL     1      27.792   2.609  89.291  1.00  0.00    -0.025 C 
ATOM     21  C   UNL     1      25.288   3.584  89.352  1.00  0.00     0.005 C 
ATOM     22  C   UNL     1      26.405   2.677  90.116  1.00  0.00     0.003 C 
ATOM     23  C   UNL     1      28.775   1.488  89.853  1.00  0.00     0.010 C 
ATOM     24  C   UNL     1      28.580   3.985  89.399  1.00  0.00     0.012 C 
ATOM     25  C   UNL     1      26.740   2.876  91.728  1.00  0.00    -0.006 C 
ATOM     26  C   UNL     1      29.055   1.626  91.366  1.00  0.00     0.033 C 
ATOM     27  C   UNL     1      27.742   1.699  92.164  1.00  0.00     0.120 C 
ATOM     28  C   UNL     1      25.435   2.762  92.620  1.00  0.00     0.014 C 
ATOM     29  C   UNL     1      27.435   4.186  92.203  1.00  0.00     0.014 C 
ENDROOT
BRANCH   1  30
ATOM     30  C   UNL     1      25.420   1.213  81.200  1.00  0.00     0.048 C 
ATOM     31  O   UNL     1      25.016   2.271  80.625  1.00  0.00    -0.550 OA
ATOM     32  O   UNL     1      25.682   0.157  80.334  1.00  0.00    -0.550 OA
ENDBRANCH   1  30
BRANCH  27  33
ATOM     33  O   UNL     1      27.996   1.787  93.588  1.00  0.00    -0.393 OA
ATOM     34  H   UNL     1      28.930   2.176  93.688  1.00  0.00     0.210 HD
ENDBRANCH  27  33
TORSDOF 2
ENDMDL
MODEL 4
REMARK VINA RESULT:    -3.985      2.427      8.504
REMARK INTER + INTRA:          -4.516
REMARK INTER:                  -4.331
REMARK INTRA:                  -0.185
REMARK UNBOUND:                -0.182
REMARK SMILES C[C@H]1[C@H](C)CC[C@@]2(C(=O)[O-])CC[C@]3(C)C(=CC[C@H]4[C@]5(C)CC[C@@H](O)C(C)(C)[C@H]5CC[C@@]43C)[C@@H]12
REMARK SMILES IDX 7 1 6 2 11 3 33 4 5 5 12 6 15 7 2 8 3 9 13 10 16 11 1 12
REMARK SMILES IDX 4 13 14 14 31 15 17 16 18 17 30 18 32 19 19 20 29 21 28 22
REMARK SMILES IDX 21 23 20 24 25 25 22 26 23 27 26 28 27 29 8 30 9 31 10 32
REMARK SMILES IDX 24 33
REMARK H PARENT 24 34
REMARK Flexibility Score: inf
ROOT
ATOM      1  C   UNL     1      26.541   1.113  85.130  1.00  0.00     0.017 C 
ATOM      2  C   UNL     1      28.161   1.149  85.061  1.00  0.00     0.014 C 
ATOM      3  C   UNL     1      25.757   0.082  85.986  1.00  0.00     0.014 C 
ATOM      4  C   UNL     1      26.011   2.568  85.572  1.00  0.00     0.030 C 
ATOM      5  C   UNL     1      28.865   2.519  85.601  1.00  0.00     0.004 C 
ATOM      6  C   UNL     1      25.985   0.171  87.478  1.00  0.00     0.013 C 
ATOM      7  C   UNL     1      26.105   2.711  87.239  1.00  0.00    -0.063 C 
ATOM      8  C   UNL     1      26.799   3.609  84.515  1.00  0.00    -0.003 C 
ATOM      9  C   UNL     1      28.092   3.950  85.327  1.00  0.00    -0.011 C 
ATOM     10  C   UNL     1      25.521   1.548  88.149  1.00  0.00    -0.006 C 
ATOM     11  C   UNL     1      26.968   3.532  87.988  1.00  0.00    -0.027 C 
ATOM     12  C   UNL     1      26.121   4.846  83.803  1.00  0.00     0.008 C 
ATOM     13  C   UNL     1      29.097   4.996  85.008  1.00  0.00     0.008 C 
ATOM     14  C   UNL     1      23.955   1.715  87.863  1.00  0.00     0.017 C 
ATOM     15  C   UNL     1      25.807   1.574  89.876  1.00  0.00    -0.020 C 
ATOM     16  C   UNL     1      26.377   3.972  89.298  1.00  0.00     0.032 C 
ATOM     17  C   UNL     1      26.591   2.904  90.313  1.00  0.00     0.006 C 
ATOM     18  C   UNL     1      26.744   0.487  90.604  1.00  0.00     0.008 C 
ATOM     19  C   UNL     1      24.439   1.286  90.613  1.00  0.00     0.012 C 
ATOM     20  C   UNL     1      26.895   3.360  91.860  1.00  0.00    -0.025 C 
ATOM     21  C   UNL     1      27.109   0.703  92.197  1.00  0.00     0.005 C 
ATOM     22  C   UNL     1      27.707   2.167  92.586  1.00  0.00     0.003 C 
ATOM     23  C   UNL     1      27.649   4.760  91.974  1.00  0.00     0.010 C 
ATOM     24  C   UNL     1      25.472   3.566  92.537  1.00  0.00     0.012 C 
ATOM     25  C   UNL     1      28.016   2.597  94.157  1.00  0.00    -0.006 C 
ATOM     26  C   UNL     1      27.993   5.150  93.427  1.00  0.00     0.033 C 
ATOM     27  C   UNL     1      28.761   4.020  94.134  1.00  0.00     0.120 C 
ATOM     28  C   UNL     1      28.972   1.557  94.876  1.00  0.00     0.014 C 
ATOM     29  C   UNL     1      26.824   2.789  95.141  1.00  0.00     0.014 C 
ENDROOT
BRANCH   1  30
ATOM     30  C   UNL     1      25.952   0.723  83.786  1.00  0.00     0.048 C 
ATOM     31  O   UNL     1      24.708   0.542  83.601  1.00  0.00    -0.550 OA
ATOM     32  O   UNL     1      26.732   0.528  82.651  1.00  0.00    -0.550 OA
ENDBRANCH   1  30
BRANCH  27  33
ATOM     33  O   UNL     1      29.124   4.394  95.485  1.00  0.00    -0.393 OA
ATOM     34  H   UNL     1      28.373   4.988  95.829  1.00  0.00     0.210 HD
ENDBRANCH  27  33
TORSDOF 2
ENDMDL
MODEL 5
REMARK VINA RESULT:    -3.628      1.991      8.280
REMARK INTER + INTRA:          -4.128
REMARK INTER:                  -3.944
REMARK INTRA:                  -0.184
REMARK UNBOUND:                -0.182
REMARK SMILES C[C@H]1[C@H](C)CC[C@@]2(C(=O)[O-])CC[C@]3(C)C(=CC[C@H]4[C@]5(C)CC[C@@H](O)C(C)(C)[C@H]5CC[C@@]43C)[C@@H]12
REMARK SMILES IDX 7 1 6 2 11 3 33 4 5 5 12 6 15 7 2 8 3 9 13 10 16 11 1 12
REMARK SMILES IDX 4 13 14 14 31 15 17 16 18 17 30 18 32 19 19 20 29 21 28 22
REMARK SMILES IDX 21 23 20 24 25 25 22 26 23 27 26 28 27 29 8 30 9 31 10 32
REMARK SMILES IDX 24 33
REMARK H PARENT 24 34
REMARK Flexibility Score: inf
ROOT
ATOM      1  C   UNL     1      28.447   0.704  84.244  1.00  0.00     0.017 C 
ATOM      2  C   UNL     1      29.115   2.165  84.017  1.00  0.00     0.014 C 
ATOM      3  C   UNL     1      29.039  -0.350  85.216  1.00  0.00     0.014 C 
ATOM      4  C   UNL     1      26.907   0.903  84.671  1.00  0.00     0.030 C 
ATOM      5  C   UNL     1      28.185   3.443  84.425  1.00  0.00     0.004 C 
ATOM      6  C   UNL     1      29.061   0.051  86.674  1.00  0.00     0.013 C 
ATOM      7  C   UNL     1      26.822   1.226  86.313  1.00  0.00    -0.063 C 
ATOM      8  C   UNL     1      26.307   1.944  83.497  1.00  0.00    -0.003 C 
ATOM      9  C   UNL     1      26.559   3.337  84.164  1.00  0.00    -0.011 C 
ATOM     10  C   UNL     1      27.620   0.298  87.325  1.00  0.00    -0.006 C 
ATOM     11  C   UNL     1      26.456   2.432  86.937  1.00  0.00    -0.027 C 
ATOM     12  C   UNL     1      24.897   1.792  82.801  1.00  0.00     0.008 C 
ATOM     13  C   UNL     1      26.050   4.654  83.703  1.00  0.00     0.008 C 
ATOM     14  C   UNL     1      26.792  -1.064  87.186  1.00  0.00     0.017 C 
ATOM     15  C   UNL     1      27.725   0.750  89.013  1.00  0.00    -0.020 C 
ATOM     16  C   UNL     1      25.807   2.231  88.278  1.00  0.00     0.032 C 
ATOM     17  C   UNL     1      26.865   2.072  89.313  1.00  0.00     0.006 C 
ATOM     18  C   UNL     1      29.111   1.201  89.695  1.00  0.00     0.008 C 
ATOM     19  C   UNL     1      27.394  -0.521  89.893  1.00  0.00     0.012 C 
ATOM     20  C   UNL     1      26.588   2.706  90.802  1.00  0.00    -0.025 C 
ATOM     21  C   UNL     1      29.078   1.790  91.234  1.00  0.00     0.005 C 
ATOM     22  C   UNL     1      28.017   2.997  91.499  1.00  0.00     0.003 C 
ATOM     23  C   UNL     1      25.653   3.995  90.781  1.00  0.00     0.010 C 
ATOM     24  C   UNL     1      25.789   1.590  91.605  1.00  0.00     0.012 C 
ATOM     25  C   UNL     1      27.767   3.627  93.011  1.00  0.00    -0.006 C 
ATOM     26  C   UNL     1      25.453   4.627  92.175  1.00  0.00     0.033 C 
ATOM     27  C   UNL     1      26.806   4.904  92.853  1.00  0.00     0.120 C 
ATOM     28  C   UNL     1      29.119   4.113  93.679  1.00  0.00     0.014 C 
ATOM     29  C   UNL     1      27.080   2.745  94.097  1.00  0.00     0.014 C 
ENDROOT
BRANCH   1  30
ATOM     30  C   UNL     1      28.541  -0.135  82.982  1.00  0.00     0.048 C 
ATOM     31  O   UNL     1      28.180  -1.351  82.931  1.00  0.00    -0.550 OA
ATOM     32  O   UNL     1      29.036   0.365  81.782  1.00  0.00    -0.550 OA
ENDBRANCH   1  30
BRANCH  27  33
ATOM     33  O   UNL     1      26.628   5.535  94.145  1.00  0.00    -0.393 OA
ATOM     34  H   UNL     1      26.976   4.874  94.836  1.00  0.00     0.210 HD
ENDBRANCH  27  33
TORSDOF 2
ENDMDL
