MODEL 1
REMARK VINA RESULT:    -6.245      0.000      0.000
REMARK INTER + INTRA:         -16.071
REMARK INTER:                 -14.277
REMARK INTRA:                  -1.794
REMARK UNBOUND:                -1.794
REMARK SMILES CCCCCCCCCCCCCCCCCCCCCCCC(=O)[O-]
REMARK SMILES IDX 13 1 14 2 15 3 16 4 17 5 18 6 19 7 20 8 21 9 22 10 23 11
REMARK SMILES IDX 24 12 25 13 26 14 12 15 11 16 10 17 9 18 8 19 7 20 6 21 5 22
REMARK SMILES IDX 4 23 3 24 2 25 1 26
REMARK H PARENT
REMARK Flexibility Score: inf
ROOT
ATOM      1  C   UNL     1      89.242 326.420 200.733  1.00  0.00     0.000 C 
ENDROOT
BRANCH   1   2
ATOM      2  C   UNL     1      90.732 326.522 201.102  1.00  0.00     0.000 C 
BRANCH   2   3
ATOM      3  C   UNL     1      90.950 326.897 202.576  1.00  0.00     0.000 C 
BRANCH   3   4
ATOM      4  C   UNL     1      89.649 326.836 203.397  1.00  0.00     0.000 C 
BRANCH   4   5
ATOM      5  C   UNL     1      89.879 326.298 204.825  1.00  0.00     0.000 C 
BRANCH   5   6
ATOM      6  C   UNL     1      89.241 327.162 205.930  1.00  0.00     0.000 C 
BRANCH   6   7
ATOM      7  C   UNL     1      88.487 326.378 207.018  1.00  0.00     0.000 C 
BRANCH   7   8
ATOM      8  C   UNL     1      88.048 324.979 206.549  1.00  0.00     0.000 C 
BRANCH   8   9
ATOM      9  C   UNL     1      86.614 324.965 205.993  1.00  0.00     0.000 C 
BRANCH   9  10
ATOM     10  C   UNL     1      86.404 323.881 204.922  1.00  0.00     0.006 C 
BRANCH  10  11
ATOM     11  C   UNL     1      87.733 323.319 204.397  1.00  0.00     0.053 C 
BRANCH  11  12
ATOM     12  C   UNL     1      87.913 323.598 202.937  1.00  0.00     0.041 C 
ATOM     13  O   UNL     1      86.977 324.112 202.268  1.00  0.00    -0.550 OA
ATOM     14  O   UNL     1      89.127 323.321 202.320  1.00  0.00    -0.550 OA
ENDBRANCH  11  12
ENDBRANCH  10  11
ENDBRANCH   9  10
ENDBRANCH   8   9
ENDBRANCH   7   8
ENDBRANCH   6   7
ENDBRANCH   5   6
ENDBRANCH   4   5
ENDBRANCH   3   4
ENDBRANCH   2   3
ENDBRANCH   1   2
BRANCH   1  15
ATOM     15  C   UNL     1      89.015 325.806 199.341  1.00  0.00     0.000 C 
BRANCH  15  16
ATOM     16  C   UNL     1      88.745 326.828 198.217  1.00  0.00     0.000 C 
BRANCH  16  17
ATOM     17  C   UNL     1      88.016 326.266 196.983  1.00  0.00     0.000 C 
BRANCH  17  18
ATOM     18  C   UNL     1      88.924 326.156 195.748  1.00  0.00    -0.000 C 
BRANCH  18  19
ATOM     19  C   UNL     1      88.153 326.501 194.465  1.00  0.00    -0.000 C 
BRANCH  19  20
ATOM     20  C   UNL     1      86.676 326.076 194.527  1.00  0.00    -0.000 C 
BRANCH  20  21
ATOM     21  C   UNL     1      86.278 325.145 193.372  1.00  0.00    -0.000 C 
BRANCH  21  22
ATOM     22  C   UNL     1      87.412 324.170 193.038  1.00  0.00    -0.000 C 
BRANCH  22  23
ATOM     23  C   UNL     1      87.825 324.288 191.565  1.00  0.00    -0.000 C 
BRANCH  23  24
ATOM     24  C   UNL     1      88.298 322.937 191.016  1.00  0.00    -0.000 C 
BRANCH  24  25
ATOM     25  C   UNL     1      88.257 322.923 189.483  1.00  0.00    -0.003 C 
ATOM     26  C   UNL     1      89.505 323.572 188.893  1.00  0.00     0.004 C 
ENDBRANCH  24  25
ENDBRANCH  23  24
ENDBRANCH  22  23
ENDBRANCH  21  22
ENDBRANCH  20  21
ENDBRANCH  19  20
ENDBRANCH  18  19
ENDBRANCH  17  18
ENDBRANCH  16  17
ENDBRANCH  15  16
ENDBRANCH   1  15
TORSDOF 22
ENDMDL
MODEL 2
REMARK VINA RESULT:    -6.089      1.486      2.678
REMARK INTER + INTRA:         -15.714
REMARK INTER:                 -13.005
REMARK INTRA:                  -2.709
REMARK UNBOUND:                -1.794
REMARK SMILES CCCCCCCCCCCCCCCCCCCCCCCC(=O)[O-]
REMARK SMILES IDX 13 1 14 2 15 3 16 4 17 5 18 6 19 7 20 8 21 9 22 10 23 11
REMARK SMILES IDX 24 12 25 13 26 14 12 15 11 16 10 17 9 18 8 19 7 20 6 21 5 22
REMARK SMILES IDX 4 23 3 24 2 25 1 26
REMARK H PARENT
REMARK Flexibility Score: inf
ROOT
ATOM      1  C   UNL     1      88.894 325.859 199.156  1.00  0.00     0.000 C 
ENDROOT
BRANCH   1   2
ATOM      2  C   UNL     1      89.569 326.474 200.394  1.00  0.00     0.000 C 
BRANCH   2   3
ATOM      3  C   UNL     1      88.695 326.368 201.655  1.00  0.00     0.000 C 
BRANCH   3   4
ATOM      4  C   UNL     1      89.521 326.078 202.921  1.00  0.00     0.000 C 
BRANCH   4   5
ATOM      5  C   UNL     1      89.257 327.104 204.043  1.00  0.00     0.000 C 
BRANCH   5   6
ATOM      6  C   UNL     1      89.483 326.549 205.464  1.00  0.00     0.000 C 
BRANCH   6   7
ATOM      7  C   UNL     1      88.209 326.383 206.310  1.00  0.00     0.000 C 
BRANCH   7   8
ATOM      8  C   UNL     1      87.809 324.908 206.502  1.00  0.00     0.000 C 
BRANCH   8   9
ATOM      9  C   UNL     1      86.641 324.489 205.595  1.00  0.00     0.000 C 
BRANCH   9  10
ATOM     10  C   UNL     1      87.092 323.609 204.416  1.00  0.00     0.006 C 
BRANCH  10  11
ATOM     11  C   UNL     1      86.294 323.900 203.138  1.00  0.00     0.053 C 
BRANCH  11  12
ATOM     12  C   UNL     1      86.735 323.031 202.000  1.00  0.00     0.041 C 
ATOM     13  O   UNL     1      85.883 322.429 201.294  1.00  0.00    -0.550 OA
ATOM     14  O   UNL     1      88.086 322.913 201.698  1.00  0.00    -0.550 OA
ENDBRANCH  11  12
ENDBRANCH  10  11
ENDBRANCH   9  10
ENDBRANCH   8   9
ENDBRANCH   7   8
ENDBRANCH   6   7
ENDBRANCH   5   6
ENDBRANCH   4   5
ENDBRANCH   3   4
ENDBRANCH   2   3
ENDBRANCH   1   2
BRANCH   1  15
ATOM     15  C   UNL     1      88.746 326.863 198.000  1.00  0.00     0.000 C 
BRANCH  15  16
ATOM     16  C   UNL     1      88.028 326.312 196.750  1.00  0.00     0.000 C 
BRANCH  16  17
ATOM     17  C   UNL     1      88.888 326.256 195.474  1.00  0.00     0.000 C 
BRANCH  17  18
ATOM     18  C   UNL     1      88.128 326.712 194.218  1.00  0.00    -0.000 C 
BRANCH  18  19
ATOM     19  C   UNL     1      86.676 326.211 194.242  1.00  0.00    -0.000 C 
BRANCH  19  20
ATOM     20  C   UNL     1      86.472 324.939 193.403  1.00  0.00    -0.000 C 
BRANCH  20  21
ATOM     21  C   UNL     1      87.689 324.604 192.528  1.00  0.00    -0.000 C 
BRANCH  21  22
ATOM     22  C   UNL     1      88.351 323.299 192.986  1.00  0.00    -0.000 C 
BRANCH  22  23
ATOM     23  C   UNL     1      87.514 322.604 194.066  1.00  0.00    -0.000 C 
BRANCH  23  24
ATOM     24  C   UNL     1      88.410 321.898 195.089  1.00  0.00    -0.000 C 
BRANCH  24  25
ATOM     25  C   UNL     1      88.528 322.721 196.377  1.00  0.00    -0.003 C 
ATOM     26  C   UNL     1      89.983 323.070 196.677  1.00  0.00     0.004 C 
ENDBRANCH  24  25
ENDBRANCH  23  24
ENDBRANCH  22  23
ENDBRANCH  21  22
ENDBRANCH  20  21
ENDBRANCH  19  20
ENDBRANCH  18  19
ENDBRANCH  17  18
ENDBRANCH  16  17
ENDBRANCH  15  16
ENDBRANCH   1  15
TORSDOF 22
ENDMDL
MODEL 3
REMARK VINA RESULT:    -6.087      1.305      2.958
REMARK INTER + INTRA:         -15.711
REMARK INTER:                 -13.991
REMARK INTRA:                  -1.720
REMARK UNBOUND:                -1.794
REMARK SMILES CCCCCCCCCCCCCCCCCCCCCCCC(=O)[O-]
REMARK SMILES IDX 13 1 14 2 15 3 16 4 17 5 18 6 19 7 20 8 21 9 22 10 23 11
REMARK SMILES IDX 24 12 25 13 26 14 12 15 11 16 10 17 9 18 8 19 7 20 6 21 5 22
REMARK SMILES IDX 4 23 3 24 2 25 1 26
REMARK H PARENT
REMARK Flexibility Score: inf
ROOT
ATOM      1  C   UNL     1      88.896 324.990 197.471  1.00  0.00     0.000 C 
ENDROOT
BRANCH   1   2
ATOM      2  C   UNL     1      88.548 326.344 198.113  1.00  0.00     0.000 C 
BRANCH   2   3
ATOM      3  C   UNL     1      89.297 326.579 199.435  1.00  0.00     0.000 C 
BRANCH   3   4
ATOM      4  C   UNL     1      88.835 325.625 200.551  1.00  0.00     0.000 C 
BRANCH   4   5
ATOM      5  C   UNL     1      88.544 326.366 201.874  1.00  0.00     0.000 C 
BRANCH   5   6
ATOM      6  C   UNL     1      89.762 326.469 202.814  1.00  0.00     0.000 C 
BRANCH   6   7
ATOM      7  C   UNL     1      89.535 327.300 204.088  1.00  0.00     0.000 C 
BRANCH   7   8
ATOM      8  C   UNL     1      89.696 326.472 205.376  1.00  0.00     0.000 C 
BRANCH   8   9
ATOM      9  C   UNL     1      88.492 326.609 206.322  1.00  0.00     0.000 C 
BRANCH   9  10
ATOM     10  C   UNL     1      87.936 325.248 206.776  1.00  0.00     0.006 C 
BRANCH  10  11
ATOM     11  C   UNL     1      86.707 324.822 205.960  1.00  0.00     0.053 C 
BRANCH  11  12
ATOM     12  C   UNL     1      87.004 323.640 205.089  1.00  0.00     0.041 C 
ATOM     13  O   UNL     1      87.704 323.777 204.051  1.00  0.00    -0.550 OA
ATOM     14  O   UNL     1      86.535 322.381 205.442  1.00  0.00    -0.550 OA
ENDBRANCH  11  12
ENDBRANCH  10  11
ENDBRANCH   9  10
ENDBRANCH   8   9
ENDBRANCH   7   8
ENDBRANCH   6   7
ENDBRANCH   5   6
ENDBRANCH   4   5
ENDBRANCH   3   4
ENDBRANCH   2   3
ENDBRANCH   1   2
BRANCH   1  15
ATOM     15  C   UNL     1      88.970 325.062 195.937  1.00  0.00     0.000 C 
BRANCH  15  16
ATOM     16  C   UNL     1      89.004 326.490 195.354  1.00  0.00     0.000 C 
BRANCH  16  17
ATOM     17  C   UNL     1      88.249 326.673 194.025  1.00  0.00     0.000 C 
BRANCH  17  18
ATOM     18  C   UNL     1      86.768 326.272 194.116  1.00  0.00    -0.000 C 
BRANCH  18  19
ATOM     19  C   UNL     1      86.469 325.061 193.219  1.00  0.00    -0.000 C 
BRANCH  19  20
ATOM     20  C   UNL     1      87.720 324.535 192.496  1.00  0.00    -0.000 C 
BRANCH  20  21
ATOM     21  C   UNL     1      87.851 323.006 192.574  1.00  0.00    -0.000 C 
BRANCH  21  22
ATOM     22  C   UNL     1      88.490 322.445 191.298  1.00  0.00    -0.000 C 
BRANCH  22  23
ATOM     23  C   UNL     1      88.497 323.491 190.178  1.00  0.00    -0.000 C 
BRANCH  23  24
ATOM     24  C   UNL     1      87.934 322.909 188.877  1.00  0.00    -0.000 C 
BRANCH  24  25
ATOM     25  C   UNL     1      87.025 321.707 189.161  1.00  0.00    -0.003 C 
ATOM     26  C   UNL     1      85.998 321.518 188.048  1.00  0.00     0.004 C 
ENDBRANCH  24  25
ENDBRANCH  23  24
ENDBRANCH  22  23
ENDBRANCH  21  22
ENDBRANCH  20  21
ENDBRANCH  19  20
ENDBRANCH  18  19
ENDBRANCH  17  18
ENDBRANCH  16  17
ENDBRANCH  15  16
ENDBRANCH   1  15
TORSDOF 22
ENDMDL
MODEL 4
REMARK VINA RESULT:    -6.071      3.532     10.867
REMARK INTER + INTRA:         -15.674
REMARK INTER:                 -13.642
REMARK INTRA:                  -2.032
REMARK UNBOUND:                -1.794
REMARK SMILES CCCCCCCCCCCCCCCCCCCCCCCC(=O)[O-]
REMARK SMILES IDX 13 1 14 2 15 3 16 4 17 5 18 6 19 7 20 8 21 9 22 10 23 11
REMARK SMILES IDX 24 12 25 13 26 14 12 15 11 16 10 17 9 18 8 19 7 20 6 21 5 22
REMARK SMILES IDX 4 23 3 24 2 25 1 26
REMARK H PARENT
REMARK Flexibility Score: inf
ROOT
ATOM      1  C   UNL     1      88.599 326.093 200.847  1.00  0.00     0.000 C 
ENDROOT
BRANCH   1   2
ATOM      2  C   UNL     1      88.901 324.811 200.052  1.00  0.00     0.000 C 
BRANCH   2   3
ATOM      3  C   UNL     1      89.245 325.098 198.582  1.00  0.00     0.000 C 
BRANCH   3   4
ATOM      4  C   UNL     1      88.615 326.408 198.074  1.00  0.00     0.000 C 
BRANCH   4   5
ATOM      5  C   UNL     1      87.892 326.227 196.723  1.00  0.00     0.000 C 
BRANCH   5   6
ATOM      6  C   UNL     1      88.834 326.239 195.502  1.00  0.00     0.000 C 
BRANCH   6   7
ATOM      7  C   UNL     1      88.133 326.341 194.137  1.00  0.00     0.000 C 
BRANCH   7   8
ATOM      8  C   UNL     1      86.761 325.642 194.117  1.00  0.00     0.000 C 
BRANCH   8   9
ATOM      9  C   UNL     1      86.552 324.785 192.858  1.00  0.00     0.000 C 
BRANCH   9  10
ATOM     10  C   UNL     1      87.780 323.923 192.516  1.00  0.00     0.006 C 
BRANCH  10  11
ATOM     11  C   UNL     1      88.151 324.007 191.029  1.00  0.00     0.053 C 
BRANCH  11  12
ATOM     12  C   UNL     1      88.244 322.649 190.404  1.00  0.00     0.041 C 
ATOM     13  O   UNL     1      89.370 322.133 190.173  1.00  0.00    -0.550 OA
ATOM     14  O   UNL     1      87.087 321.939 190.108  1.00  0.00    -0.550 OA
ENDBRANCH  11  12
ENDBRANCH  10  11
ENDBRANCH   9  10
ENDBRANCH   8   9
ENDBRANCH   7   8
ENDBRANCH   6   7
ENDBRANCH   5   6
ENDBRANCH   4   5
ENDBRANCH   3   4
ENDBRANCH   2   3
ENDBRANCH   1   2
BRANCH   1  15
ATOM     15  C   UNL     1      89.753 326.500 201.778  1.00  0.00     0.000 C 
BRANCH  15  16
ATOM     16  C   UNL     1      89.331 326.857 203.219  1.00  0.00     0.000 C 
BRANCH  16  17
ATOM     17  C   UNL     1      90.486 327.222 204.168  1.00  0.00     0.000 C 
BRANCH  17  18
ATOM     18  C   UNL     1      90.040 327.359 205.632  1.00  0.00    -0.000 C 
BRANCH  18  19
ATOM     19  C   UNL     1      89.464 326.036 206.158  1.00  0.00    -0.000 C 
BRANCH  19  20
ATOM     20  C   UNL     1      88.155 326.228 206.943  1.00  0.00    -0.000 C 
BRANCH  20  21
ATOM     21  C   UNL     1      86.994 325.399 206.373  1.00  0.00    -0.000 C 
BRANCH  21  22
ATOM     22  C   UNL     1      87.385 323.922 206.249  1.00  0.00    -0.000 C 
BRANCH  22  23
ATOM     23  C   UNL     1      86.670 323.260 205.064  1.00  0.00    -0.000 C 
BRANCH  23  24
ATOM     24  C   UNL     1      87.301 323.683 203.733  1.00  0.00    -0.000 C 
BRANCH  24  25
ATOM     25  C   UNL     1      86.230 323.876 202.654  1.00  0.00    -0.003 C 
ATOM     26  C   UNL     1      86.226 322.713 201.667  1.00  0.00     0.004 C 
ENDBRANCH  24  25
ENDBRANCH  23  24
ENDBRANCH  22  23
ENDBRANCH  21  22
ENDBRANCH  20  21
ENDBRANCH  19  20
ENDBRANCH  18  19
ENDBRANCH  17  18
ENDBRANCH  16  17
ENDBRANCH  15  16
ENDBRANCH   1  15
TORSDOF 22
ENDMDL
MODEL 5
REMARK VINA RESULT:    -6.029      2.073     10.435
REMARK INTER + INTRA:         -15.576
REMARK INTER:                 -13.309
REMARK INTRA:                  -2.267
REMARK UNBOUND:                -1.794
REMARK SMILES CCCCCCCCCCCCCCCCCCCCCCCC(=O)[O-]
REMARK SMILES IDX 13 1 14 2 15 3 16 4 17 5 18 6 19 7 20 8 21 9 22 10 23 11
REMARK SMILES IDX 24 12 25 13 26 14 12 15 11 16 10 17 9 18 8 19 7 20 6 21 5 22
REMARK SMILES IDX 4 23 3 24 2 25 1 26
REMARK H PARENT
REMARK Flexibility Score: inf
ROOT
ATOM      1  C   UNL     1      89.230 325.809 198.912  1.00  0.00     0.000 C 
ENDROOT
BRANCH   1   2
ATOM      2  C   UNL     1      88.521 326.764 197.936  1.00  0.00     0.000 C 
BRANCH   2   3
ATOM      3  C   UNL     1      88.048 326.054 196.658  1.00  0.00     0.000 C 
BRANCH   3   4
ATOM      4  C   UNL     1      88.989 326.302 195.465  1.00  0.00     0.000 C 
BRANCH   4   5
ATOM      5  C   UNL     1      88.227 326.737 194.195  1.00  0.00     0.000 C 
BRANCH   5   6
ATOM      6  C   UNL     1      86.763 326.256 194.148  1.00  0.00     0.000 C 
BRANCH   6   7
ATOM      7  C   UNL     1      86.514 325.001 193.296  1.00  0.00     0.000 C 
BRANCH   7   8
ATOM      8  C   UNL     1      87.743 324.593 192.463  1.00  0.00     0.000 C 
BRANCH   8   9
ATOM      9  C   UNL     1      88.285 323.206 192.847  1.00  0.00     0.000 C 
BRANCH   9  10
ATOM     10  C   UNL     1      87.857 322.773 194.260  1.00  0.00     0.006 C 
BRANCH  10  11
ATOM     11  C   UNL     1      89.036 322.760 195.244  1.00  0.00     0.053 C 
BRANCH  11  12
ATOM     12  C   UNL     1      88.765 321.874 196.420  1.00  0.00     0.041 C 
ATOM     13  O   UNL     1      88.996 322.283 197.589  1.00  0.00    -0.550 OA
ATOM     14  O   UNL     1      88.227 320.607 196.228  1.00  0.00    -0.550 OA
ENDBRANCH  11  12
ENDBRANCH  10  11
ENDBRANCH   9  10
ENDBRANCH   8   9
ENDBRANCH   7   8
ENDBRANCH   6   7
ENDBRANCH   5   6
ENDBRANCH   4   5
ENDBRANCH   3   4
ENDBRANCH   2   3
ENDBRANCH   1   2
BRANCH   1  15
ATOM     15  C   UNL     1      88.842 326.063 200.379  1.00  0.00     0.000 C 
BRANCH  15  16
ATOM     16  C   UNL     1      90.025 326.378 201.319  1.00  0.00     0.000 C 
BRANCH  16  17
ATOM     17  C   UNL     1      89.661 326.503 202.809  1.00  0.00     0.000 C 
BRANCH  17  18
ATOM     18  C   UNL     1      90.816 327.044 203.666  1.00  0.00    -0.000 C 
BRANCH  18  19
ATOM     19  C   UNL     1      90.357 327.303 205.109  1.00  0.00    -0.000 C 
BRANCH  19  20
ATOM     20  C   UNL     1      88.908 326.855 205.361  1.00  0.00    -0.000 C 
BRANCH  20  21
ATOM     21  C   UNL     1      88.707 326.257 206.761  1.00  0.00    -0.000 C 
BRANCH  21  22
ATOM     22  C   UNL     1      88.075 324.863 206.676  1.00  0.00    -0.000 C 
BRANCH  22  23
ATOM     23  C   UNL     1      86.708 324.917 205.982  1.00  0.00    -0.000 C 
BRANCH  23  24
ATOM     24  C   UNL     1      86.484 323.677 205.110  1.00  0.00    -0.000 C 
BRANCH  24  25
ATOM     25  C   UNL     1      87.297 323.765 203.812  1.00  0.00    -0.003 C 
ATOM     26  C   UNL     1      86.385 323.744 202.589  1.00  0.00     0.004 C 
ENDBRANCH  24  25
ENDBRANCH  23  24
ENDBRANCH  22  23
ENDBRANCH  21  22
ENDBRANCH  20  21
ENDBRANCH  19  20
ENDBRANCH  18  19
ENDBRANCH  17  18
ENDBRANCH  16  17
ENDBRANCH  15  16
ENDBRANCH   1  15
TORSDOF 22
ENDMDL
MODEL 6
REMARK VINA RESULT:    -5.987      4.008     12.069
REMARK INTER + INTRA:         -15.482
REMARK INTER:                 -13.952
REMARK INTRA:                  -1.530
REMARK UNBOUND:                -1.794
REMARK SMILES CCCCCCCCCCCCCCCCCCCCCCCC(=O)[O-]
REMARK SMILES IDX 13 1 14 2 15 3 16 4 17 5 18 6 19 7 20 8 21 9 22 10 23 11
REMARK SMILES IDX 24 12 25 13 26 14 12 15 11 16 10 17 9 18 8 19 7 20 6 21 5 22
REMARK SMILES IDX 4 23 3 24 2 25 1 26
REMARK H PARENT
REMARK Flexibility Score: inf
ROOT
ATOM      1  C   UNL     1      88.530 325.149 197.421  1.00  0.00     0.000 C 
ENDROOT
BRANCH   1   2
ATOM      2  C   UNL     1      88.820 325.102 195.911  1.00  0.00     0.000 C 
BRANCH   2   3
ATOM      3  C   UNL     1      88.905 326.503 195.284  1.00  0.00     0.000 C 
BRANCH   3   4
ATOM      4  C   UNL     1      88.055 326.629 194.007  1.00  0.00     0.000 C 
BRANCH   4   5
ATOM      5  C   UNL     1      86.693 325.913 194.134  1.00  0.00     0.000 C 
BRANCH   5   6
ATOM      6  C   UNL     1      86.490 324.769 193.122  1.00  0.00     0.000 C 
BRANCH   6   7
ATOM      7  C   UNL     1      87.682 324.504 192.187  1.00  0.00     0.000 C 
BRANCH   7   8
ATOM      8  C   UNL     1      88.313 323.116 192.402  1.00  0.00     0.000 C 
BRANCH   8   9
ATOM      9  C   UNL     1      88.170 322.204 191.172  1.00  0.00     0.000 C 
BRANCH   9  10
ATOM     10  C   UNL     1      87.892 322.991 189.880  1.00  0.00     0.006 C 
BRANCH  10  11
ATOM     11  C   UNL     1      89.184 323.475 189.207  1.00  0.00     0.053 C 
BRANCH  11  12
ATOM     12  C   UNL     1      89.986 322.333 188.661  1.00  0.00     0.041 C 
ATOM     13  O   UNL     1      89.415 321.397 188.041  1.00  0.00    -0.550 OA
ATOM     14  O   UNL     1      91.367 322.319 188.808  1.00  0.00    -0.550 OA
ENDBRANCH  11  12
ENDBRANCH  10  11
ENDBRANCH   9  10
ENDBRANCH   8   9
ENDBRANCH   7   8
ENDBRANCH   6   7
ENDBRANCH   5   6
ENDBRANCH   4   5
ENDBRANCH   3   4
ENDBRANCH   2   3
ENDBRANCH   1   2
BRANCH   1  15
ATOM     15  C   UNL     1      88.576 326.577 197.991  1.00  0.00     0.000 C 
BRANCH  15  16
ATOM     16  C   UNL     1      89.252 326.703 199.372  1.00  0.00     0.000 C 
BRANCH  16  17
ATOM     17  C   UNL     1      89.015 325.520 200.327  1.00  0.00     0.000 C 
BRANCH  17  18
ATOM     18  C   UNL     1      88.649 325.962 201.752  1.00  0.00    -0.000 C 
BRANCH  18  19
ATOM     19  C   UNL     1      89.769 326.812 202.370  1.00  0.00    -0.000 C 
BRANCH  19  20
ATOM     20  C   UNL     1      90.223 326.290 203.744  1.00  0.00    -0.000 C 
BRANCH  20  21
ATOM     21  C   UNL     1      89.566 327.043 204.911  1.00  0.00    -0.000 C 
BRANCH  21  22
ATOM     22  C   UNL     1      89.396 326.126 206.128  1.00  0.00    -0.000 C 
BRANCH  22  23
ATOM     23  C   UNL     1      88.065 326.396 206.840  1.00  0.00    -0.000 C 
BRANCH  23  24
ATOM     24  C   UNL     1      86.976 325.431 206.357  1.00  0.00    -0.000 C 
BRANCH  24  25
ATOM     25  C   UNL     1      87.572 324.331 205.471  1.00  0.00    -0.003 C 
ATOM     26  C   UNL     1      86.566 323.208 205.235  1.00  0.00     0.004 C 
ENDBRANCH  24  25
ENDBRANCH  23  24
ENDBRANCH  22  23
ENDBRANCH  21  22
ENDBRANCH  20  21
ENDBRANCH  19  20
ENDBRANCH  18  19
ENDBRANCH  17  18
ENDBRANCH  16  17
ENDBRANCH  15  16
ENDBRANCH   1  15
TORSDOF 22
ENDMDL
MODEL 7
REMARK VINA RESULT:    -5.981      1.453      2.447
REMARK INTER + INTRA:         -15.468
REMARK INTER:                 -12.851
REMARK INTRA:                  -2.617
REMARK UNBOUND:                -1.794
REMARK SMILES CCCCCCCCCCCCCCCCCCCCCCCC(=O)[O-]
REMARK SMILES IDX 13 1 14 2 15 3 16 4 17 5 18 6 19 7 20 8 21 9 22 10 23 11
REMARK SMILES IDX 24 12 25 13 26 14 12 15 11 16 10 17 9 18 8 19 7 20 6 21 5 22
REMARK SMILES IDX 4 23 3 24 2 25 1 26
REMARK H PARENT
REMARK Flexibility Score: inf
ROOT
ATOM      1  C   UNL     1      89.873 324.011 199.645  1.00  0.00     0.000 C 
ENDROOT
BRANCH   1   2
ATOM      2  C   UNL     1      90.548 325.223 200.308  1.00  0.00     0.000 C 
BRANCH   2   3
ATOM      3  C   UNL     1      89.604 326.430 200.429  1.00  0.00     0.000 C 
BRANCH   3   4
ATOM      4  C   UNL     1      88.830 326.441 201.759  1.00  0.00     0.000 C 
BRANCH   4   5
ATOM      5  C   UNL     1      89.731 326.792 202.961  1.00  0.00     0.000 C 
BRANCH   5   6
ATOM      6  C   UNL     1      88.970 326.938 204.293  1.00  0.00     0.000 C 
BRANCH   6   7
ATOM      7  C   UNL     1      89.840 326.839 205.558  1.00  0.00     0.000 C 
BRANCH   7   8
ATOM      8  C   UNL     1      89.041 326.400 206.799  1.00  0.00     0.000 C 
BRANCH   8   9
ATOM      9  C   UNL     1      87.596 326.000 206.461  1.00  0.00     0.000 C 
BRANCH   9  10
ATOM     10  C   UNL     1      87.407 324.476 206.371  1.00  0.00     0.006 C 
BRANCH  10  11
ATOM     11  C   UNL     1      86.423 324.078 205.263  1.00  0.00     0.053 C 
BRANCH  11  12
ATOM     12  C   UNL     1      87.134 323.688 204.004  1.00  0.00     0.041 C 
ATOM     13  O   UNL     1      88.278 323.163 204.058  1.00  0.00    -0.550 OA
ATOM     14  O   UNL     1      86.521 323.875 202.771  1.00  0.00    -0.550 OA
ENDBRANCH  11  12
ENDBRANCH  10  11
ENDBRANCH   9  10
ENDBRANCH   8   9
ENDBRANCH   7   8
ENDBRANCH   6   7
ENDBRANCH   5   6
ENDBRANCH   4   5
ENDBRANCH   3   4
ENDBRANCH   2   3
ENDBRANCH   1   2
BRANCH   1  15
ATOM     15  C   UNL     1      90.415 323.727 198.234  1.00  0.00     0.000 C 
BRANCH  15  16
ATOM     16  C   UNL     1      89.586 324.340 197.085  1.00  0.00     0.000 C 
BRANCH  16  17
ATOM     17  C   UNL     1      88.203 324.880 197.491  1.00  0.00     0.000 C 
BRANCH  17  18
ATOM     18  C   UNL     1      87.728 326.042 196.605  1.00  0.00    -0.000 C 
BRANCH  18  19
ATOM     19  C   UNL     1      88.832 326.478 195.631  1.00  0.00    -0.000 C 
BRANCH  19  20
ATOM     20  C   UNL     1      88.332 326.599 194.182  1.00  0.00    -0.000 C 
BRANCH  20  21
ATOM     21  C   UNL     1      86.859 326.191 194.026  1.00  0.00    -0.000 C 
BRANCH  21  22
ATOM     22  C   UNL     1      86.725 324.957 193.127  1.00  0.00    -0.000 C 
BRANCH  22  23
ATOM     23  C   UNL     1      88.101 324.409 192.732  1.00  0.00    -0.000 C 
BRANCH  23  24
ATOM     24  C   UNL     1      88.117 322.877 192.773  1.00  0.00    -0.000 C 
BRANCH  24  25
ATOM     25  C   UNL     1      88.766 322.369 194.067  1.00  0.00    -0.003 C 
ATOM     26  C   UNL     1      87.710 322.014 195.110  1.00  0.00     0.004 C 
ENDBRANCH  24  25
ENDBRANCH  23  24
ENDBRANCH  22  23
ENDBRANCH  21  22
ENDBRANCH  20  21
ENDBRANCH  19  20
ENDBRANCH  18  19
ENDBRANCH  17  18
ENDBRANCH  16  17
ENDBRANCH  15  16
ENDBRANCH   1  15
TORSDOF 22
ENDMDL
MODEL 8
REMARK VINA RESULT:    -5.980      1.641      2.990
REMARK INTER + INTRA:         -15.465
REMARK INTER:                 -13.281
REMARK INTRA:                  -2.184
REMARK UNBOUND:                -1.794
REMARK SMILES CCCCCCCCCCCCCCCCCCCCCCCC(=O)[O-]
REMARK SMILES IDX 13 1 14 2 15 3 16 4 17 5 18 6 19 7 20 8 21 9 22 10 23 11
REMARK SMILES IDX 24 12 25 13 26 14 12 15 11 16 10 17 9 18 8 19 7 20 6 21 5 22
REMARK SMILES IDX 4 23 3 24 2 25 1 26
REMARK H PARENT
REMARK Flexibility Score: inf
ROOT
ATOM      1  C   UNL     1      89.055 325.006 200.949  1.00  0.00     0.000 C 
ENDROOT
BRANCH   1   2
ATOM      2  C   UNL     1      87.820 324.827 201.848  1.00  0.00     0.000 C 
BRANCH   2   3
ATOM      3  C   UNL     1      88.077 323.861 203.015  1.00  0.00     0.000 C 
BRANCH   3   4
ATOM      4  C   UNL     1      86.826 323.642 203.885  1.00  0.00     0.000 C 
BRANCH   4   5
ATOM      5  C   UNL     1      87.144 323.679 205.394  1.00  0.00     0.000 C 
BRANCH   5   6
ATOM      6  C   UNL     1      87.153 325.098 205.997  1.00  0.00     0.000 C 
BRANCH   6   7
ATOM      7  C   UNL     1      88.431 325.473 206.767  1.00  0.00     0.000 C 
BRANCH   7   8
ATOM      8  C   UNL     1      89.013 326.830 206.330  1.00  0.00     0.000 C 
BRANCH   8   9
ATOM      9  C   UNL     1      88.920 327.053 204.812  1.00  0.00     0.000 C 
BRANCH   9  10
ATOM     10  C   UNL     1      90.293 327.298 204.162  1.00  0.00     0.006 C 
BRANCH  10  11
ATOM     11  C   UNL     1      91.138 326.019 204.095  1.00  0.00     0.053 C 
BRANCH  11  12
ATOM     12  C   UNL     1      92.106 326.055 202.952  1.00  0.00     0.041 C 
ATOM     13  O   UNL     1      92.320 327.133 202.335  1.00  0.00    -0.550 OA
ATOM     14  O   UNL     1      92.797 324.906 202.588  1.00  0.00    -0.550 OA
ENDBRANCH  11  12
ENDBRANCH  10  11
ENDBRANCH   9  10
ENDBRANCH   8   9
ENDBRANCH   7   8
ENDBRANCH   6   7
ENDBRANCH   5   6
ENDBRANCH   4   5
ENDBRANCH   3   4
ENDBRANCH   2   3
ENDBRANCH   1   2
BRANCH   1  15
ATOM     15  C   UNL     1      89.298 326.475 200.560  1.00  0.00     0.000 C 
BRANCH  15  16
ATOM     16  C   UNL     1      89.148 326.782 199.055  1.00  0.00     0.000 C 
BRANCH  16  17
ATOM     17  C   UNL     1      88.909 325.554 198.158  1.00  0.00     0.000 C 
BRANCH  17  18
ATOM     18  C   UNL     1      88.110 325.885 196.888  1.00  0.00    -0.000 C 
BRANCH  18  19
ATOM     19  C   UNL     1      89.018 326.497 195.809  1.00  0.00    -0.000 C 
BRANCH  19  20
ATOM     20  C   UNL     1      88.480 326.278 194.386  1.00  0.00    -0.000 C 
BRANCH  20  21
ATOM     21  C   UNL     1      88.374 324.792 194.013  1.00  0.00    -0.000 C 
BRANCH  21  22
ATOM     22  C   UNL     1      87.371 324.583 192.873  1.00  0.00    -0.000 C 
BRANCH  22  23
ATOM     23  C   UNL     1      88.090 324.391 191.532  1.00  0.00    -0.000 C 
BRANCH  23  24
ATOM     24  C   UNL     1      87.846 322.986 190.971  1.00  0.00    -0.000 C 
BRANCH  24  25
ATOM     25  C   UNL     1      88.050 322.958 189.452  1.00  0.00    -0.003 C 
ATOM     26  C   UNL     1      89.379 323.599 189.063  1.00  0.00     0.004 C 
ENDBRANCH  24  25
ENDBRANCH  23  24
ENDBRANCH  22  23
ENDBRANCH  21  22
ENDBRANCH  20  21
ENDBRANCH  19  20
ENDBRANCH  18  19
ENDBRANCH  17  18
ENDBRANCH  16  17
ENDBRANCH  15  16
ENDBRANCH   1  15
TORSDOF 22
ENDMDL
MODEL 9
REMARK VINA RESULT:    -5.964      2.016     10.706
REMARK INTER + INTRA:         -15.428
REMARK INTER:                 -12.955
REMARK INTRA:                  -2.473
REMARK UNBOUND:                -1.794
REMARK SMILES CCCCCCCCCCCCCCCCCCCCCCCC(=O)[O-]
REMARK SMILES IDX 13 1 14 2 15 3 16 4 17 5 18 6 19 7 20 8 21 9 22 10 23 11
REMARK SMILES IDX 24 12 25 13 26 14 12 15 11 16 10 17 9 18 8 19 7 20 6 21 5 22
REMARK SMILES IDX 4 23 3 24 2 25 1 26
REMARK H PARENT
REMARK Flexibility Score: inf
ROOT
ATOM      1  C   UNL     1      88.055 325.996 196.624  1.00  0.00     0.000 C 
ENDROOT
BRANCH   1   2
ATOM      2  C   UNL     1      88.928 326.296 195.394  1.00  0.00     0.000 C 
BRANCH   2   3
ATOM      3  C   UNL     1      88.094 326.577 194.134  1.00  0.00     0.000 C 
BRANCH   3   4
ATOM      4  C   UNL     1      86.712 325.900 194.180  1.00  0.00     0.000 C 
BRANCH   4   5
ATOM      5  C   UNL     1      86.565 324.790 193.118  1.00  0.00     0.000 C 
BRANCH   5   6
ATOM      6  C   UNL     1      87.816 324.596 192.238  1.00  0.00     0.000 C 
BRANCH   6   7
ATOM      7  C   UNL     1      88.025 323.168 191.705  1.00  0.00     0.000 C 
BRANCH   7   8
ATOM      8  C   UNL     1      87.774 322.090 192.776  1.00  0.00     0.000 C 
BRANCH   8   9
ATOM      9  C   UNL     1      89.062 321.663 193.499  1.00  0.00     0.000 C 
BRANCH   9  10
ATOM     10  C   UNL     1      89.257 322.388 194.841  1.00  0.00     0.006 C 
BRANCH  10  11
ATOM     11  C   UNL     1      87.985 322.369 195.700  1.00  0.00     0.053 C 
BRANCH  11  12
ATOM     12  C   UNL     1      88.302 322.190 197.153  1.00  0.00     0.041 C 
ATOM     13  O   UNL     1      89.375 322.646 197.630  1.00  0.00    -0.550 OA
ATOM     14  O   UNL     1      87.396 321.548 197.989  1.00  0.00    -0.550 OA
ENDBRANCH  11  12
ENDBRANCH  10  11
ENDBRANCH   9  10
ENDBRANCH   8   9
ENDBRANCH   7   8
ENDBRANCH   6   7
ENDBRANCH   5   6
ENDBRANCH   4   5
ENDBRANCH   3   4
ENDBRANCH   2   3
ENDBRANCH   1   2
BRANCH   1  15
ATOM     15  C   UNL     1      88.561 326.697 197.897  1.00  0.00     0.000 C 
BRANCH  15  16
ATOM     16  C   UNL     1      88.987 325.746 199.035  1.00  0.00     0.000 C 
BRANCH  16  17
ATOM     17  C   UNL     1      89.487 326.441 200.315  1.00  0.00     0.000 C 
BRANCH  17  18
ATOM     18  C   UNL     1      88.864 325.863 201.595  1.00  0.00    -0.000 C 
BRANCH  18  19
ATOM     19  C   UNL     1      89.069 326.813 202.784  1.00  0.00    -0.000 C 
BRANCH  19  20
ATOM     20  C   UNL     1      89.878 326.172 203.924  1.00  0.00    -0.000 C 
BRANCH  20  21
ATOM     21  C   UNL     1      90.054 327.111 205.127  1.00  0.00    -0.000 C 
BRANCH  21  22
ATOM     22  C   UNL     1      89.062 326.763 206.244  1.00  0.00    -0.000 C 
BRANCH  22  23
ATOM     23  C   UNL     1      88.516 325.340 206.074  1.00  0.00    -0.000 C 
BRANCH  23  24
ATOM     24  C   UNL     1      86.989 325.317 206.196  1.00  0.00    -0.000 C 
BRANCH  24  25
ATOM     25  C   UNL     1      86.401 324.080 205.508  1.00  0.00    -0.003 C 
ATOM     26  C   UNL     1      86.979 323.903 204.106  1.00  0.00     0.004 C 
ENDBRANCH  24  25
ENDBRANCH  23  24
ENDBRANCH  22  23
ENDBRANCH  21  22
ENDBRANCH  20  21
ENDBRANCH  19  20
ENDBRANCH  18  19
ENDBRANCH  17  18
ENDBRANCH  16  17
ENDBRANCH  15  16
ENDBRANCH   1  15
TORSDOF 22
ENDMDL
