MODEL 1
REMARK VINA RESULT:    15.579      0.000      0.000
REMARK INTER + INTRA:          20.171
REMARK INTER:                  21.498
REMARK INTRA:                  -1.327
REMARK UNBOUND:                -1.327
REMARK SMILES CC[C@H](CC[C@@H](C)[C@@H]1CC[C@H]2C3=CC[C@@H]4C[C@H](O)CC[C@@]4(C)[C@@H]3CC[C@]21C)C(C)C
REMARK SMILES IDX 5 1 4 2 3 3 2 4 1 5 28 6 29 7 30 8 6 9 7 10 8 11 9 12 26 13
REMARK SMILES IDX 10 14 11 15 25 16 27 17 12 18 24 19 23 20 13 21 21 22 14 23
REMARK SMILES IDX 15 24 20 25 22 26 16 27 19 28 17 29 18 30
REMARK H PARENT 18 31
REMARK Flexibility Score: inf
ROOT
ATOM      1  C   UNL     1      16.424  14.182  31.316  1.00  0.00     0.004 C 
ENDROOT
BRANCH   1   2
ATOM      2  C   UNL     1      16.620  12.715  30.886  1.00  0.00     0.004 C 
BRANCH   2   3
ATOM      3  C   UNL     1      15.287  11.921  30.791  1.00  0.00    -0.009 C 
BRANCH   3   4
ATOM      4  C   UNL     1      15.178  11.016  29.532  1.00  0.00     0.000 C 
ATOM      5  C   UNL     1      16.500  10.710  28.827  1.00  0.00     0.004 C 
ENDBRANCH   3   4
BRANCH   3   6
ATOM      6  C   UNL     1      14.920  11.161  32.113  1.00  0.00    -0.014 C 
ATOM      7  C   UNL     1      13.625  11.651  32.793  1.00  0.00     0.007 C 
ATOM      8  C   UNL     1      14.823   9.645  31.872  1.00  0.00     0.007 C 
ENDBRANCH   3   6
ENDBRANCH   2   3
ENDBRANCH   1   2
BRANCH   1   9
ATOM      9  C   UNL     1      14.994  14.704  31.005  1.00  0.00    -0.011 C 
ATOM     10  C   UNL     1      14.199  15.020  32.288  1.00  0.00     0.008 C 
BRANCH   9  11
ATOM     11  C   UNL     1      14.907  15.842  29.920  1.00  0.00    -0.002 C 
ATOM     12  C   UNL     1      13.669  16.731  30.167  1.00  0.00     0.005 C 
ATOM     13  C   UNL     1      14.830  15.494  28.392  1.00  0.00    -0.023 C 
ATOM     14  C   UNL     1      12.660  16.425  29.059  1.00  0.00     0.009 C 
ATOM     15  C   UNL     1      13.315  15.402  28.124  1.00  0.00     0.021 C 
ATOM     16  C   UNL     1      15.456  16.685  27.593  1.00  0.00     0.008 C 
ATOM     17  C   UNL     1      15.554  14.188  27.984  1.00  0.00     0.012 C 
ATOM     18  C   UNL     1      12.904  15.615  26.673  1.00  0.00    -0.067 C 
ATOM     19  C   UNL     1      15.136  16.659  26.095  1.00  0.00     0.009 C 
ATOM     20  C   UNL     1      13.612  16.685  25.838  1.00  0.00     0.021 C 
ATOM     21  C   UNL     1      11.746  15.051  26.258  1.00  0.00    -0.027 C 
ATOM     22  C   UNL     1      13.233  16.628  24.310  1.00  0.00    -0.023 C 
ATOM     23  C   UNL     1      11.151  15.267  24.892  1.00  0.00     0.031 C 
ATOM     24  C   UNL     1      11.672  16.552  24.236  1.00  0.00     0.002 C 
ATOM     25  C   UNL     1      13.699  17.937  23.600  1.00  0.00     0.010 C 
ATOM     26  C   UNL     1      13.903  15.399  23.624  1.00  0.00     0.012 C 
ATOM     27  C   UNL     1      11.114  16.705  22.805  1.00  0.00     0.036 C 
ATOM     28  C   UNL     1      13.155  18.069  22.169  1.00  0.00     0.032 C 
ATOM     29  C   UNL     1      11.620  18.001  22.152  1.00  0.00     0.114 C 
BRANCH  29  30
ATOM     30  O   UNL     1      11.135  18.118  20.839  1.00  0.00    -0.393 OA
ATOM     31  H   UNL     1      11.876  17.884  20.221  1.00  0.00     0.210 HD
ENDBRANCH  29  30
ENDBRANCH   9  11
ENDBRANCH   1   9
TORSDOF 7
ENDMDL
MODEL 2
REMARK VINA RESULT:    16.991      3.176      8.699
REMARK INTER + INTRA:          22.120
REMARK INTER:                  20.986
REMARK INTRA:                   1.133
REMARK UNBOUND:                -1.327
REMARK SMILES CC[C@H](CC[C@@H](C)[C@@H]1CC[C@H]2C3=CC[C@@H]4C[C@H](O)CC[C@@]4(C)[C@@H]3CC[C@]21C)C(C)C
REMARK SMILES IDX 5 1 4 2 3 3 2 4 1 5 28 6 29 7 30 8 6 9 7 10 8 11 9 12 26 13
REMARK SMILES IDX 10 14 11 15 25 16 27 17 12 18 24 19 23 20 13 21 21 22 14 23
REMARK SMILES IDX 15 24 20 25 22 26 16 27 19 28 17 29 18 30
REMARK H PARENT 18 31
REMARK Flexibility Score: inf
ROOT
ATOM      1  C   UNL     1      13.696  17.042  24.101  1.00  0.00     0.004 C 
ENDROOT
BRANCH   1   2
ATOM      2  C   UNL     1      14.479  17.999  23.181  1.00  0.00     0.004 C 
BRANCH   2   3
ATOM      3  C   UNL     1      13.862  18.124  21.760  1.00  0.00    -0.009 C 
BRANCH   3   4
ATOM      4  C   UNL     1      14.855  17.798  20.609  1.00  0.00     0.000 C 
ATOM      5  C   UNL     1      16.335  17.976  20.948  1.00  0.00     0.004 C 
ENDBRANCH   3   4
BRANCH   3   6
ATOM      6  C   UNL     1      12.494  17.372  21.607  1.00  0.00    -0.014 C 
ATOM      7  C   UNL     1      11.339  17.974  22.433  1.00  0.00     0.007 C 
ATOM      8  C   UNL     1      12.070  17.286  20.132  1.00  0.00     0.007 C 
ENDBRANCH   3   6
ENDBRANCH   2   3
ENDBRANCH   1   2
BRANCH   1   9
ATOM      9  C   UNL     1      12.982  17.790  25.261  1.00  0.00    -0.011 C 
ATOM     10  C   UNL     1      11.448  17.654  25.183  1.00  0.00     0.008 C 
BRANCH   9  11
ATOM     11  C   UNL     1      13.560  17.519  26.701  1.00  0.00    -0.002 C 
ATOM     12  C   UNL     1      15.100  17.624  26.694  1.00  0.00     0.005 C 
ATOM     13  C   UNL     1      13.271  16.168  27.444  1.00  0.00    -0.023 C 
ATOM     14  C   UNL     1      15.654  16.208  26.860  1.00  0.00     0.009 C 
ATOM     15  C   UNL     1      14.451  15.271  27.023  1.00  0.00     0.021 C 
ATOM     16  C   UNL     1      13.316  16.443  28.984  1.00  0.00     0.008 C 
ATOM     17  C   UNL     1      11.913  15.511  27.098  1.00  0.00     0.012 C 
ATOM     18  C   UNL     1      14.755  14.118  27.971  1.00  0.00    -0.067 C 
ATOM     19  C   UNL     1      13.408  15.174  29.836  1.00  0.00     0.009 C 
ATOM     20  C   UNL     1      14.661  14.341  29.483  1.00  0.00     0.021 C 
ATOM     21  C   UNL     1      15.365  13.025  27.458  1.00  0.00    -0.027 C 
ATOM     22  C   UNL     1      14.783  13.007  30.312  1.00  0.00    -0.023 C 
ATOM     23  C   UNL     1      15.832  11.858  28.287  1.00  0.00     0.031 C 
ATOM     24  C   UNL     1      16.030  12.244  29.758  1.00  0.00     0.002 C 
ATOM     25  C   UNL     1      15.033  13.341  31.816  1.00  0.00     0.010 C 
ATOM     26  C   UNL     1      13.482  12.158  30.180  1.00  0.00     0.012 C 
ATOM     27  C   UNL     1      16.426  11.013  30.601  1.00  0.00     0.036 C 
ATOM     28  C   UNL     1      15.406  12.105  32.649  1.00  0.00     0.032 C 
ATOM     29  C   UNL     1      16.642  11.399  32.073  1.00  0.00     0.114 C 
BRANCH  29  30
ATOM     30  O   UNL     1      16.970  10.270  32.840  1.00  0.00    -0.393 OA
ATOM     31  H   UNL     1      17.090   9.505  32.218  1.00  0.00     0.210 HD
ENDBRANCH  29  30
ENDBRANCH   9  11
ENDBRANCH   1   9
TORSDOF 7
ENDMDL
MODEL 3
REMARK VINA RESULT:    17.148      1.106      2.599
REMARK INTER + INTRA:          22.337
REMARK INTER:                  20.788
REMARK INTRA:                   1.548
REMARK UNBOUND:                -1.327
REMARK SMILES CC[C@H](CC[C@@H](C)[C@@H]1CC[C@H]2C3=CC[C@@H]4C[C@H](O)CC[C@@]4(C)[C@@H]3CC[C@]21C)C(C)C
REMARK SMILES IDX 5 1 4 2 3 3 2 4 1 5 28 6 29 7 30 8 6 9 7 10 8 11 9 12 26 13
REMARK SMILES IDX 10 14 11 15 25 16 27 17 12 18 24 19 23 20 13 21 21 22 14 23
REMARK SMILES IDX 15 24 20 25 22 26 16 27 19 28 17 29 18 30
REMARK H PARENT 18 31
REMARK Flexibility Score: inf
ROOT
ATOM      1  C   UNL     1      15.832  12.732  32.144  1.00  0.00     0.004 C 
ENDROOT
BRANCH   1   2
ATOM      2  C   UNL     1      16.134  11.539  31.215  1.00  0.00     0.004 C 
BRANCH   2   3
ATOM      3  C   UNL     1      14.852  10.837  30.684  1.00  0.00    -0.009 C 
BRANCH   3   4
ATOM      4  C   UNL     1      14.942  10.397  29.196  1.00  0.00     0.000 C 
ATOM      5  C   UNL     1      16.354  10.348  28.610  1.00  0.00     0.004 C 
ENDBRANCH   3   4
BRANCH   3   6
ATOM      6  C   UNL     1      14.339   9.689  31.622  1.00  0.00    -0.014 C 
ATOM      7  C   UNL     1      15.291   9.341  32.784  1.00  0.00     0.007 C 
ATOM      8  C   UNL     1      12.947  10.017  32.188  1.00  0.00     0.007 C 
ENDBRANCH   3   6
ENDBRANCH   2   3
ENDBRANCH   1   2
BRANCH   1   9
ATOM      9  C   UNL     1      15.426  14.008  31.356  1.00  0.00    -0.011 C 
ATOM     10  C   UNL     1      16.605  14.989  31.194  1.00  0.00     0.008 C 
BRANCH   9  11
ATOM     11  C   UNL     1      14.634  13.757  30.018  1.00  0.00    -0.002 C 
ATOM     12  C   UNL     1      15.581  13.229  28.920  1.00  0.00     0.005 C 
ATOM     13  C   UNL     1      13.846  14.920  29.319  1.00  0.00    -0.023 C 
ATOM     14  C   UNL     1      15.764  14.352  27.897  1.00  0.00     0.009 C 
ATOM     15  C   UNL     1      14.885  15.523  28.353  1.00  0.00     0.021 C 
ATOM     16  C   UNL     1      12.659  14.288  28.520  1.00  0.00     0.008 C 
ATOM     17  C   UNL     1      13.281  15.994  30.279  1.00  0.00     0.012 C 
ATOM     18  C   UNL     1      14.300  16.286  27.172  1.00  0.00    -0.067 C 
ATOM     19  C   UNL     1      12.019  15.242  27.507  1.00  0.00     0.009 C 
ATOM     20  C   UNL     1      13.049  15.748  26.472  1.00  0.00     0.021 C 
ATOM     21  C   UNL     1      15.060  17.253  26.608  1.00  0.00    -0.027 C 
ATOM     22  C   UNL     1      12.444  16.759  25.427  1.00  0.00    -0.023 C 
ATOM     23  C   UNL     1      14.669  18.012  25.368  1.00  0.00     0.031 C 
ATOM     24  C   UNL     1      13.631  17.250  24.534  1.00  0.00     0.002 C 
ATOM     25  C   UNL     1      11.411  16.023  24.517  1.00  0.00     0.010 C 
ATOM     26  C   UNL     1      11.741  17.945  26.154  1.00  0.00     0.012 C 
ATOM     27  C   UNL     1      13.183  18.085  23.316  1.00  0.00     0.036 C 
ATOM     28  C   UNL     1      10.957  16.872  23.319  1.00  0.00     0.032 C 
ATOM     29  C   UNL     1      12.157  17.317  22.469  1.00  0.00     0.114 C 
BRANCH  29  30
ATOM     30  O   UNL     1      11.729  18.095  21.380  1.00  0.00    -0.393 OA
ATOM     31  H   UNL     1      11.143  17.527  20.814  1.00  0.00     0.210 HD
ENDBRANCH  29  30
ENDBRANCH   9  11
ENDBRANCH   1   9
TORSDOF 7
ENDMDL
MODEL 4
REMARK VINA RESULT:    17.291      3.187      8.676
REMARK INTER + INTRA:          22.534
REMARK INTER:                  22.303
REMARK INTRA:                   0.231
REMARK UNBOUND:                -1.327
REMARK SMILES CC[C@H](CC[C@@H](C)[C@@H]1CC[C@H]2C3=CC[C@@H]4C[C@H](O)CC[C@@]4(C)[C@@H]3CC[C@]21C)C(C)C
REMARK SMILES IDX 5 1 4 2 3 3 2 4 1 5 28 6 29 7 30 8 6 9 7 10 8 11 9 12 26 13
REMARK SMILES IDX 10 14 11 15 25 16 27 17 12 18 24 19 23 20 13 21 21 22 14 23
REMARK SMILES IDX 15 24 20 25 22 26 16 27 19 28 17 29 18 30
REMARK H PARENT 18 31
REMARK Flexibility Score: inf
ROOT
ATOM      1  C   UNL     1      12.918  17.283  24.224  1.00  0.00     0.004 C 
ENDROOT
BRANCH   1   2
ATOM      2  C   UNL     1      12.726  18.125  22.947  1.00  0.00     0.004 C 
BRANCH   2   3
ATOM      3  C   UNL     1      13.653  17.687  21.779  1.00  0.00    -0.009 C 
BRANCH   3   4
ATOM      4  C   UNL     1      13.105  18.042  20.369  1.00  0.00     0.000 C 
ATOM      5  C   UNL     1      11.672  17.588  20.088  1.00  0.00     0.004 C 
ENDBRANCH   3   4
BRANCH   3   6
ATOM      6  C   UNL     1      15.147  18.125  21.974  1.00  0.00    -0.014 C 
ATOM      7  C   UNL     1      15.758  17.726  23.333  1.00  0.00     0.007 C 
ATOM      8  C   UNL     1      16.035  17.583  20.841  1.00  0.00     0.007 C 
ENDBRANCH   3   6
ENDBRANCH   2   3
ENDBRANCH   1   2
BRANCH   1   9
ATOM      9  C   UNL     1      12.239  17.927  25.465  1.00  0.00    -0.011 C 
ATOM     10  C   UNL     1      10.731  17.613  25.530  1.00  0.00     0.008 C 
BRANCH   9  11
ATOM     11  C   UNL     1      12.982  17.708  26.836  1.00  0.00    -0.002 C 
ATOM     12  C   UNL     1      14.510  17.825  26.647  1.00  0.00     0.005 C 
ATOM     13  C   UNL     1      12.797  16.380  27.650  1.00  0.00    -0.023 C 
ATOM     14  C   UNL     1      15.096  16.420  26.793  1.00  0.00     0.009 C 
ATOM     15  C   UNL     1      13.931  15.479  27.123  1.00  0.00     0.021 C 
ATOM     16  C   UNL     1      13.015  16.706  29.164  1.00  0.00     0.008 C 
ATOM     17  C   UNL     1      11.416  15.701  27.483  1.00  0.00     0.012 C 
ATOM     18  C   UNL     1      14.356  14.360  28.066  1.00  0.00    -0.067 C 
ATOM     19  C   UNL     1      13.220  15.465  30.039  1.00  0.00     0.009 C 
ATOM     20  C   UNL     1      14.434  14.631  29.571  1.00  0.00     0.021 C 
ATOM     21  C   UNL     1      14.915  13.256  27.520  1.00  0.00    -0.027 C 
ATOM     22  C   UNL     1      14.665  13.327  30.422  1.00  0.00    -0.023 C 
ATOM     23  C   UNL     1      15.488  12.121  28.326  1.00  0.00     0.031 C 
ATOM     24  C   UNL     1      15.850  12.556  29.752  1.00  0.00     0.002 C 
ATOM     25  C   UNL     1      15.084  13.711  31.876  1.00  0.00     0.010 C 
ATOM     26  C   UNL     1      13.368  12.463  30.468  1.00  0.00     0.012 C 
ATOM     27  C   UNL     1      16.354  11.356  30.583  1.00  0.00     0.036 C 
ATOM     28  C   UNL     1      15.564  12.507  32.699  1.00  0.00     0.032 C 
ATOM     29  C   UNL     1      16.734  11.792  32.006  1.00  0.00     0.114 C 
BRANCH  29  30
ATOM     30  O   UNL     1      17.161  10.691  32.766  1.00  0.00    -0.393 OA
ATOM     31  H   UNL     1      17.608  10.053  32.150  1.00  0.00     0.210 HD
ENDBRANCH  29  30
ENDBRANCH   9  11
ENDBRANCH   1   9
TORSDOF 7
ENDMDL
