MODEL 1
REMARK VINA RESULT:    -3.844      0.000      0.000
REMARK INTER + INTRA:          -8.650
REMARK INTER:                  -7.215
REMARK INTRA:                  -1.435
REMARK UNBOUND:                -1.435
REMARK SMILES CCCCCCCCC=CCCCCCCCC(=O)[O-]
REMARK SMILES IDX 10 1 9 2 11 3 12 4 13 5 14 6 15 7 16 8 17 9 18 10 19 11
REMARK SMILES IDX 20 12 8 13 7 14 6 15 5 16 4 17 3 18 2 19 1 20
REMARK H PARENT
REMARK Flexibility Score: inf
ROOT
ATOM      1  C   UNL     1     -20.748  18.107  -1.679  1.00  0.00    -0.031 C 
ATOM      2  C   UNL     1     -20.827  16.768  -1.720  1.00  0.00    -0.031 C 
ENDROOT
BRANCH   1   3
ATOM      3  C   UNL     1     -20.805  18.937  -2.932  1.00  0.00     0.027 C 
BRANCH   3   4
ATOM      4  C   UNL     1     -22.170  19.617  -3.087  1.00  0.00     0.004 C 
BRANCH   4   5
ATOM      5  C   UNL     1     -23.126  19.189  -1.963  1.00  0.00     0.000 C 
BRANCH   5   6
ATOM      6  C   UNL     1     -24.125  18.110  -2.411  1.00  0.00     0.000 C 
BRANCH   6   7
ATOM      7  C   UNL     1     -23.989  17.766  -3.904  1.00  0.00     0.000 C 
BRANCH   7   8
ATOM      8  C   UNL     1     -23.449  16.343  -4.141  1.00  0.00     0.006 C 
BRANCH   8   9
ATOM      9  C   UNL     1     -22.258  16.268  -5.110  1.00  0.00     0.053 C 
BRANCH   9  10
ATOM     10  C   UNL     1     -22.657  15.737  -6.451  1.00  0.00     0.041 C 
ATOM     11  O   UNL     1     -23.657  16.215  -7.051  1.00  0.00    -0.550 OA
ATOM     12  O   UNL     1     -21.908  14.736  -7.055  1.00  0.00    -0.550 OA
ENDBRANCH   9  10
ENDBRANCH   8   9
ENDBRANCH   7   8
ENDBRANCH   6   7
ENDBRANCH   5   6
ENDBRANCH   4   5
ENDBRANCH   3   4
ENDBRANCH   1   3
BRANCH   2  13
ATOM     13  C   UNL     1     -20.841  15.937  -0.465  1.00  0.00     0.027 C 
BRANCH  13  14
ATOM     14  C   UNL     1     -22.065  16.254   0.404  1.00  0.00     0.004 C 
BRANCH  14  15
ATOM     15  C   UNL     1     -21.888  15.765   1.852  1.00  0.00     0.000 C 
BRANCH  15  16
ATOM     16  C   UNL     1     -23.213  15.721   2.628  1.00  0.00     0.000 C 
BRANCH  16  17
ATOM     17  C   UNL     1     -23.005  15.565   4.146  1.00  0.00    -0.000 C 
BRANCH  17  18
ATOM     18  C   UNL     1     -23.924  16.501   4.959  1.00  0.00    -0.000 C 
BRANCH  18  19
ATOM     19  C   UNL     1     -23.185  17.286   6.057  1.00  0.00    -0.003 C 
ATOM     20  C   UNL     1     -21.680  17.379   5.816  1.00  0.00     0.004 C 
ENDBRANCH  18  19
ENDBRANCH  17  18
ENDBRANCH  16  17
ENDBRANCH  15  16
ENDBRANCH  14  15
ENDBRANCH  13  14
ENDBRANCH   2  13
TORSDOF 15
ENDMDL
MODEL 2
REMARK VINA RESULT:    -3.732      2.376      3.691
REMARK INTER + INTRA:          -8.439
REMARK INTER:                  -6.831
REMARK INTRA:                  -1.608
REMARK UNBOUND:                -1.435
REMARK SMILES CCCCCCCCC=CCCCCCCCC(=O)[O-]
REMARK SMILES IDX 10 1 9 2 11 3 12 4 13 5 14 6 15 7 16 8 17 9 18 10 19 11
REMARK SMILES IDX 20 12 8 13 7 14 6 15 5 16 4 17 3 18 2 19 1 20
REMARK H PARENT
REMARK Flexibility Score: inf
ROOT
ATOM      1  C   UNL     1     -24.039  17.084  -2.169  1.00  0.00    -0.031 C 
ATOM      2  C   UNL     1     -23.707  17.559  -0.959  1.00  0.00    -0.031 C 
ENDROOT
BRANCH   1   3
ATOM      3  C   UNL     1     -24.089  17.977  -3.378  1.00  0.00     0.027 C 
BRANCH   3   4
ATOM      4  C   UNL     1     -24.125  17.157  -4.673  1.00  0.00     0.004 C 
BRANCH   4   5
ATOM      5  C   UNL     1     -23.296  15.871  -4.530  1.00  0.00     0.000 C 
BRANCH   5   6
ATOM      6  C   UNL     1     -21.836  16.054  -4.977  1.00  0.00     0.000 C 
BRANCH   6   7
ATOM      7  C   UNL     1     -20.875  16.229  -3.789  1.00  0.00     0.000 C 
BRANCH   7   8
ATOM      8  C   UNL     1     -20.393  17.683  -3.622  1.00  0.00     0.006 C 
BRANCH   8   9
ATOM      9  C   UNL     1     -20.535  18.239  -2.196  1.00  0.00     0.053 C 
BRANCH   9  10
ATOM     10  C   UNL     1     -20.832  19.706  -2.193  1.00  0.00     0.041 C 
ATOM     11  O   UNL     1     -20.116  20.497  -1.523  1.00  0.00    -0.550 OA
ATOM     12  O   UNL     1     -21.881  20.206  -2.953  1.00  0.00    -0.550 OA
ENDBRANCH   9  10
ENDBRANCH   8   9
ENDBRANCH   7   8
ENDBRANCH   6   7
ENDBRANCH   5   6
ENDBRANCH   4   5
ENDBRANCH   3   4
ENDBRANCH   1   3
BRANCH   2  13
ATOM     13  C   UNL     1     -23.588  16.657   0.240  1.00  0.00     0.027 C 
BRANCH  13  14
ATOM     14  C   UNL     1     -22.128  16.269   0.507  1.00  0.00     0.004 C 
BRANCH  14  15
ATOM     15  C   UNL     1     -21.907  15.817   1.961  1.00  0.00     0.000 C 
BRANCH  15  16
ATOM     16  C   UNL     1     -23.225  15.570   2.711  1.00  0.00     0.000 C 
BRANCH  16  17
ATOM     17  C   UNL     1     -23.042  15.551   4.240  1.00  0.00    -0.000 C 
BRANCH  17  18
ATOM     18  C   UNL     1     -23.866  16.652   4.939  1.00  0.00    -0.000 C 
BRANCH  18  19
ATOM     19  C   UNL     1     -23.105  17.364   6.072  1.00  0.00    -0.003 C 
ATOM     20  C   UNL     1     -21.599  17.431   5.830  1.00  0.00     0.004 C 
ENDBRANCH  18  19
ENDBRANCH  17  18
ENDBRANCH  16  17
ENDBRANCH  15  16
ENDBRANCH  14  15
ENDBRANCH  13  14
ENDBRANCH   2  13
TORSDOF 15
ENDMDL
MODEL 3
REMARK VINA RESULT:    -3.627      3.533      7.842
REMARK INTER + INTRA:          -8.243
REMARK INTER:                  -6.994
REMARK INTRA:                  -1.249
REMARK UNBOUND:                -1.435
REMARK SMILES CCCCCCCCC=CCCCCCCCC(=O)[O-]
REMARK SMILES IDX 10 1 9 2 11 3 12 4 13 5 14 6 15 7 16 8 17 9 18 10 19 11
REMARK SMILES IDX 20 12 8 13 7 14 6 15 5 16 4 17 3 18 2 19 1 20
REMARK H PARENT
REMARK Flexibility Score: inf
ROOT
ATOM      1  C   UNL     1     -21.744  15.594  -2.360  1.00  0.00    -0.031 C 
ATOM      2  C   UNL     1     -21.086  16.177  -3.374  1.00  0.00    -0.031 C 
ENDROOT
BRANCH   1   3
ATOM      3  C   UNL     1     -21.166  15.543  -0.973  1.00  0.00     0.027 C 
BRANCH   3   4
ATOM      4  C   UNL     1     -21.779  16.623  -0.074  1.00  0.00     0.004 C 
BRANCH   4   5
ATOM      5  C   UNL     1     -23.314  16.570  -0.124  1.00  0.00     0.000 C 
BRANCH   5   6
ATOM      6  C   UNL     1     -23.918  17.684  -0.994  1.00  0.00     0.000 C 
BRANCH   6   7
ATOM      7  C   UNL     1     -22.972  18.886  -1.152  1.00  0.00     0.000 C 
BRANCH   7   8
ATOM      8  C   UNL     1     -22.921  19.419  -2.597  1.00  0.00     0.006 C 
BRANCH   8   9
ATOM      9  C   UNL     1     -21.502  19.630  -3.147  1.00  0.00     0.053 C 
BRANCH   9  10
ATOM     10  C   UNL     1     -20.496  19.811  -2.053  1.00  0.00     0.041 C 
ATOM     11  O   UNL     1     -19.860  18.819  -1.606  1.00  0.00    -0.550 OA
ATOM     12  O   UNL     1     -20.237  21.078  -1.548  1.00  0.00    -0.550 OA
ENDBRANCH   9  10
ENDBRANCH   8   9
ENDBRANCH   7   8
ENDBRANCH   6   7
ENDBRANCH   5   6
ENDBRANCH   4   5
ENDBRANCH   3   4
ENDBRANCH   1   3
BRANCH   2  13
ATOM     13  C   UNL     1     -21.691  16.292  -4.747  1.00  0.00     0.027 C 
BRANCH  13  14
ATOM     14  C   UNL     1     -23.177  16.667  -4.676  1.00  0.00     0.004 C 
BRANCH  14  15
ATOM     15  C   UNL     1     -24.013  15.917  -5.728  1.00  0.00     0.000 C 
BRANCH  15  16
ATOM     16  C   UNL     1     -23.859  16.508  -7.138  1.00  0.00     0.000 C 
BRANCH  16  17
ATOM     17  C   UNL     1     -23.071  15.583  -8.084  1.00  0.00    -0.000 C 
BRANCH  17  18
ATOM     18  C   UNL     1     -21.972  14.793  -7.344  1.00  0.00    -0.000 C 
BRANCH  18  19
ATOM     19  C   UNL     1     -20.643  14.716  -8.117  1.00  0.00    -0.003 C 
ATOM     20  C   UNL     1     -20.792  15.057  -9.598  1.00  0.00     0.004 C 
ENDBRANCH  18  19
ENDBRANCH  17  18
ENDBRANCH  16  17
ENDBRANCH  15  16
ENDBRANCH  14  15
ENDBRANCH  13  14
ENDBRANCH   2  13
TORSDOF 15
ENDMDL
MODEL 4
REMARK VINA RESULT:    -3.496      2.388      3.434
REMARK INTER + INTRA:          -7.997
REMARK INTER:                  -6.737
REMARK INTRA:                  -1.260
REMARK UNBOUND:                -1.435
REMARK SMILES CCCCCCCCC=CCCCCCCCC(=O)[O-]
REMARK SMILES IDX 10 1 9 2 11 3 12 4 13 5 14 6 15 7 16 8 17 9 18 10 19 11
REMARK SMILES IDX 20 12 8 13 7 14 6 15 5 16 4 17 3 18 2 19 1 20
REMARK H PARENT
REMARK Flexibility Score: inf
ROOT
ATOM      1  C   UNL     1     -21.229  15.910  -1.483  1.00  0.00    -0.031 C 
ATOM      2  C   UNL     1     -22.283  16.497  -0.896  1.00  0.00    -0.031 C 
ENDROOT
BRANCH   1   3
ATOM      3  C   UNL     1     -20.880  16.179  -2.921  1.00  0.00     0.027 C 
BRANCH   3   4
ATOM      4  C   UNL     1     -21.922  15.574  -3.869  1.00  0.00     0.004 C 
BRANCH   4   5
ATOM      5  C   UNL     1     -22.325  16.583  -4.954  1.00  0.00     0.000 C 
BRANCH   5   6
ATOM      6  C   UNL     1     -23.773  17.079  -4.796  1.00  0.00     0.000 C 
BRANCH   6   7
ATOM      7  C   UNL     1     -24.008  17.787  -3.452  1.00  0.00     0.000 C 
BRANCH   7   8
ATOM      8  C   UNL     1     -23.272  19.137  -3.353  1.00  0.00     0.006 C 
BRANCH   8   9
ATOM      9  C   UNL     1     -22.495  19.342  -2.043  1.00  0.00     0.053 C 
BRANCH   9  10
ATOM     10  C   UNL     1     -21.130  19.910  -2.282  1.00  0.00     0.041 C 
ATOM     11  O   UNL     1     -20.517  19.657  -3.353  1.00  0.00    -0.550 OA
ATOM     12  O   UNL     1     -20.548  20.744  -1.336  1.00  0.00    -0.550 OA
ENDBRANCH   9  10
ENDBRANCH   8   9
ENDBRANCH   7   8
ENDBRANCH   6   7
ENDBRANCH   5   6
ENDBRANCH   4   5
ENDBRANCH   3   4
ENDBRANCH   1   3
BRANCH   2  13
ATOM     13  C   UNL     1     -22.596  16.285   0.561  1.00  0.00     0.027 C 
BRANCH  13  14
ATOM     14  C   UNL     1     -21.418  15.637   1.300  1.00  0.00     0.004 C 
BRANCH  14  15
ATOM     15  C   UNL     1     -21.652  15.576   2.819  1.00  0.00     0.000 C 
BRANCH  15  16
ATOM     16  C   UNL     1     -23.126  15.342   3.182  1.00  0.00     0.000 C 
BRANCH  16  17
ATOM     17  C   UNL     1     -23.421  15.618   4.668  1.00  0.00    -0.000 C 
BRANCH  17  18
ATOM     18  C   UNL     1     -23.481  17.128   4.978  1.00  0.00    -0.000 C 
BRANCH  18  19
ATOM     19  C   UNL     1     -22.549  17.558   6.125  1.00  0.00    -0.003 C 
ATOM     20  C   UNL     1     -21.087  17.671   5.697  1.00  0.00     0.004 C 
ENDBRANCH  18  19
ENDBRANCH  17  18
ENDBRANCH  16  17
ENDBRANCH  15  16
ENDBRANCH  14  15
ENDBRANCH  13  14
ENDBRANCH   2  13
TORSDOF 15
ENDMDL
MODEL 5
REMARK VINA RESULT:    -3.472      4.256      7.906
REMARK INTER + INTRA:          -7.951
REMARK INTER:                  -6.510
REMARK INTRA:                  -1.442
REMARK UNBOUND:                -1.435
REMARK SMILES CCCCCCCCC=CCCCCCCCC(=O)[O-]
REMARK SMILES IDX 10 1 9 2 11 3 12 4 13 5 14 6 15 7 16 8 17 9 18 10 19 11
REMARK SMILES IDX 20 12 8 13 7 14 6 15 5 16 4 17 3 18 2 19 1 20
REMARK H PARENT
REMARK Flexibility Score: inf
ROOT
ATOM      1  C   UNL     1     -24.123  17.292  -2.747  1.00  0.00    -0.031 C 
ATOM      2  C   UNL     1     -23.910  17.986  -3.875  1.00  0.00    -0.031 C 
ENDROOT
BRANCH   1   3
ATOM      3  C   UNL     1     -24.104  17.958  -1.399  1.00  0.00     0.027 C 
BRANCH   3   4
ATOM      4  C   UNL     1     -23.943  16.930  -0.273  1.00  0.00     0.004 C 
BRANCH   4   5
ATOM      5  C   UNL     1     -22.473  16.512  -0.120  1.00  0.00     0.000 C 
BRANCH   5   6
ATOM      6  C   UNL     1     -22.124  16.082   1.315  1.00  0.00     0.000 C 
BRANCH   6   7
ATOM      7  C   UNL     1     -23.371  15.728   2.142  1.00  0.00     0.000 C 
BRANCH   7   8
ATOM      8  C   UNL     1     -23.032  15.343   3.595  1.00  0.00     0.006 C 
BRANCH   8   9
ATOM      9  C   UNL     1     -24.014  15.891   4.643  1.00  0.00     0.053 C 
BRANCH   9  10
ATOM     10  C   UNL     1     -23.410  16.991   5.459  1.00  0.00     0.041 C 
ATOM     11  O   UNL     1     -24.109  17.979   5.809  1.00  0.00    -0.550 OA
ATOM     12  O   UNL     1     -22.083  16.911   5.861  1.00  0.00    -0.550 OA
ENDBRANCH   9  10
ENDBRANCH   8   9
ENDBRANCH   7   8
ENDBRANCH   6   7
ENDBRANCH   5   6
ENDBRANCH   4   5
ENDBRANCH   3   4
ENDBRANCH   1   3
BRANCH   2  13
ATOM     13  C   UNL     1     -23.997  17.338  -5.231  1.00  0.00     0.027 C 
BRANCH  13  14
ATOM     14  C   UNL     1     -23.409  15.921  -5.214  1.00  0.00     0.004 C 
BRANCH  14  15
ATOM     15  C   UNL     1     -21.878  15.928  -5.369  1.00  0.00     0.000 C 
BRANCH  15  16
ATOM     16  C   UNL     1     -21.148  16.117  -4.030  1.00  0.00     0.000 C 
BRANCH  16  17
ATOM     17  C   UNL     1     -20.378  17.448  -3.959  1.00  0.00    -0.000 C 
BRANCH  17  18
ATOM     18  C   UNL     1     -20.517  18.128  -2.581  1.00  0.00    -0.000 C 
BRANCH  18  19
ATOM     19  C   UNL     1     -21.023  19.579  -2.660  1.00  0.00    -0.003 C 
ATOM     20  C   UNL     1     -20.258  20.530  -1.741  1.00  0.00     0.004 C 
ENDBRANCH  18  19
ENDBRANCH  17  18
ENDBRANCH  16  17
ENDBRANCH  15  16
ENDBRANCH  14  15
ENDBRANCH  13  14
ENDBRANCH   2  13
TORSDOF 15
ENDMDL
MODEL 6
REMARK VINA RESULT:    -3.417      1.123      1.875
REMARK INTER + INTRA:          -7.848
REMARK INTER:                  -7.091
REMARK INTRA:                  -0.756
REMARK UNBOUND:                -1.435
REMARK SMILES CCCCCCCCC=CCCCCCCCC(=O)[O-]
REMARK SMILES IDX 10 1 9 2 11 3 12 4 13 5 14 6 15 7 16 8 17 9 18 10 19 11
REMARK SMILES IDX 20 12 8 13 7 14 6 15 5 16 4 17 3 18 2 19 1 20
REMARK H PARENT
REMARK Flexibility Score: inf
ROOT
ATOM      1  C   UNL     1     -23.333  18.039  -0.714  1.00  0.00    -0.031 C 
ATOM      2  C   UNL     1     -22.735  16.838  -0.716  1.00  0.00    -0.031 C 
ENDROOT
BRANCH   1   3
ATOM      3  C   UNL     1     -23.976  18.600  -1.952  1.00  0.00     0.027 C 
BRANCH   3   4
ATOM      4  C   UNL     1     -23.027  19.552  -2.688  1.00  0.00     0.004 C 
BRANCH   4   5
ATOM      5  C   UNL     1     -21.597  19.433  -2.139  1.00  0.00     0.000 C 
BRANCH   5   6
ATOM      6  C   UNL     1     -20.594  18.938  -3.194  1.00  0.00     0.000 C 
BRANCH   6   7
ATOM      7  C   UNL     1     -20.678  17.419  -3.418  1.00  0.00     0.000 C 
BRANCH   7   8
ATOM      8  C   UNL     1     -21.824  17.019  -4.367  1.00  0.00     0.006 C 
BRANCH   8   9
ATOM      9  C   UNL     1     -21.709  15.596  -4.936  1.00  0.00     0.053 C 
BRANCH   9  10
ATOM     10  C   UNL     1     -22.259  15.501  -6.325  1.00  0.00     0.041 C 
ATOM     11  O   UNL     1     -23.351  16.058  -6.615  1.00  0.00    -0.550 OA
ATOM     12  O   UNL     1     -21.551  14.823  -7.309  1.00  0.00    -0.550 OA
ENDBRANCH   9  10
ENDBRANCH   8   9
ENDBRANCH   7   8
ENDBRANCH   6   7
ENDBRANCH   5   6
ENDBRANCH   4   5
ENDBRANCH   3   4
ENDBRANCH   1   3
BRANCH   2  13
ATOM     13  C   UNL     1     -22.151  16.242   0.536  1.00  0.00     0.027 C 
BRANCH  13  14
ATOM     14  C   UNL     1     -23.154  16.283   1.697  1.00  0.00     0.004 C 
BRANCH  14  15
ATOM     15  C   UNL     1     -22.909  15.154   2.713  1.00  0.00     0.000 C 
BRANCH  15  16
ATOM     16  C   UNL     1     -23.825  15.253   3.942  1.00  0.00     0.000 C 
BRANCH  16  17
ATOM     17  C   UNL     1     -23.110  15.850   5.167  1.00  0.00    -0.000 C 
BRANCH  17  18
ATOM     18  C   UNL     1     -23.639  17.255   5.522  1.00  0.00    -0.000 C 
BRANCH  18  19
ATOM     19  C   UNL     1     -22.568  18.181   6.125  1.00  0.00    -0.003 C 
ATOM     20  C   UNL     1     -21.143  17.749   5.783  1.00  0.00     0.004 C 
ENDBRANCH  18  19
ENDBRANCH  17  18
ENDBRANCH  16  17
ENDBRANCH  15  16
ENDBRANCH  14  15
ENDBRANCH  13  14
ENDBRANCH   2  13
TORSDOF 15
ENDMDL
MODEL 7
REMARK VINA RESULT:    -3.384      3.814      7.230
REMARK INTER + INTRA:          -7.787
REMARK INTER:                  -6.000
REMARK INTRA:                  -1.787
REMARK UNBOUND:                -1.435
REMARK SMILES CCCCCCCCC=CCCCCCCCC(=O)[O-]
REMARK SMILES IDX 10 1 9 2 11 3 12 4 13 5 14 6 15 7 16 8 17 9 18 10 19 11
REMARK SMILES IDX 20 12 8 13 7 14 6 15 5 16 4 17 3 18 2 19 1 20
REMARK H PARENT
REMARK Flexibility Score: inf
ROOT
ATOM      1  C   UNL     1     -22.169  17.250  -0.403  1.00  0.00    -0.031 C 
ATOM      2  C   UNL     1     -23.493  17.386  -0.565  1.00  0.00    -0.031 C 
ENDROOT
BRANCH   1   3
ATOM      3  C   UNL     1     -21.555  15.931  -0.021  1.00  0.00     0.027 C 
BRANCH   3   4
ATOM      4  C   UNL     1     -20.860  15.274  -1.219  1.00  0.00     0.004 C 
BRANCH   4   5
ATOM      5  C   UNL     1     -21.616  15.574  -2.523  1.00  0.00     0.000 C 
BRANCH   5   6
ATOM      6  C   UNL     1     -20.675  15.759  -3.725  1.00  0.00     0.000 C 
BRANCH   6   7
ATOM      7  C   UNL     1     -20.584  17.226  -4.180  1.00  0.00     0.000 C 
BRANCH   7   8
ATOM      8  C   UNL     1     -20.444  18.207  -3.001  1.00  0.00     0.006 C 
BRANCH   8   9
ATOM      9  C   UNL     1     -20.840  19.655  -3.330  1.00  0.00     0.053 C 
BRANCH   9  10
ATOM     10  C   UNL     1     -20.489  20.600  -2.222  1.00  0.00     0.041 C 
ATOM     11  O   UNL     1     -19.904  21.686  -2.477  1.00  0.00    -0.550 OA
ATOM     12  O   UNL     1     -20.835  20.296  -0.912  1.00  0.00    -0.550 OA
ENDBRANCH   9  10
ENDBRANCH   8   9
ENDBRANCH   7   8
ENDBRANCH   6   7
ENDBRANCH   5   6
ENDBRANCH   4   5
ENDBRANCH   3   4
ENDBRANCH   1   3
BRANCH   2  13
ATOM     13  C   UNL     1     -24.106  18.685  -1.014  1.00  0.00     0.027 C 
BRANCH  13  14
ATOM     14  C   UNL     1     -24.110  18.804  -2.544  1.00  0.00     0.004 C 
BRANCH  14  15
ATOM     15  C   UNL     1     -24.120  17.427  -3.230  1.00  0.00     0.000 C 
BRANCH  15  16
ATOM     16  C   UNL     1     -23.835  17.515  -4.738  1.00  0.00     0.000 C 
BRANCH  16  17
ATOM     17  C   UNL     1     -24.021  16.166  -5.455  1.00  0.00    -0.000 C 
BRANCH  17  18
ATOM     18  C   UNL     1     -23.741  16.268  -6.969  1.00  0.00    -0.000 C 
BRANCH  18  19
ATOM     19  C   UNL     1     -23.052  15.022  -7.552  1.00  0.00    -0.003 C 
ATOM     20  C   UNL     1     -21.559  14.963  -7.239  1.00  0.00     0.004 C 
ENDBRANCH  18  19
ENDBRANCH  17  18
ENDBRANCH  16  17
ENDBRANCH  15  16
ENDBRANCH  14  15
ENDBRANCH  13  14
ENDBRANCH   2  13
TORSDOF 15
ENDMDL
MODEL 8
REMARK VINA RESULT:    -3.315      3.593      7.390
REMARK INTER + INTRA:          -7.657
REMARK INTER:                  -5.381
REMARK INTRA:                  -2.276
REMARK UNBOUND:                -1.435
REMARK SMILES CCCCCCCCC=CCCCCCCCC(=O)[O-]
REMARK SMILES IDX 10 1 9 2 11 3 12 4 13 5 14 6 15 7 16 8 17 9 18 10 19 11
REMARK SMILES IDX 20 12 8 13 7 14 6 15 5 16 4 17 3 18 2 19 1 20
REMARK H PARENT
REMARK Flexibility Score: inf
ROOT
ATOM      1  C   UNL     1     -20.725  18.950  -3.284  1.00  0.00    -0.031 C 
ATOM      2  C   UNL     1     -20.420  17.648  -3.182  1.00  0.00    -0.031 C 
ENDROOT
BRANCH   1   3
ATOM      3  C   UNL     1     -20.727  19.854  -2.082  1.00  0.00     0.027 C 
BRANCH   3   4
ATOM      4  C   UNL     1     -22.134  19.984  -1.487  1.00  0.00     0.004 C 
BRANCH   4   5
ATOM      5  C   UNL     1     -23.204  19.603  -2.523  1.00  0.00     0.000 C 
BRANCH   5   6
ATOM      6  C   UNL     1     -24.101  18.446  -2.052  1.00  0.00     0.000 C 
BRANCH   6   7
ATOM      7  C   UNL     1     -23.785  18.005  -0.613  1.00  0.00     0.000 C 
BRANCH   7   8
ATOM      8  C   UNL     1     -23.187  16.587  -0.543  1.00  0.00     0.006 C 
BRANCH   8   9
ATOM      9  C   UNL     1     -21.834  16.503   0.181  1.00  0.00     0.053 C 
BRANCH   9  10
ATOM     10  C   UNL     1     -21.954  15.855   1.525  1.00  0.00     0.041 C 
ATOM     11  O   UNL     1     -20.931  15.408   2.107  1.00  0.00    -0.550 OA
ATOM     12  O   UNL     1     -23.192  15.774   2.151  1.00  0.00    -0.550 OA
ENDBRANCH   9  10
ENDBRANCH   8   9
ENDBRANCH   7   8
ENDBRANCH   6   7
ENDBRANCH   5   6
ENDBRANCH   4   5
ENDBRANCH   3   4
ENDBRANCH   1   3
BRANCH   2  13
ATOM     13  C   UNL     1     -20.348  16.755  -4.391  1.00  0.00     0.027 C 
BRANCH  13  14
ATOM     14  C   UNL     1     -21.277  15.542  -4.249  1.00  0.00     0.004 C 
BRANCH  14  15
ATOM     15  C   UNL     1     -22.758  15.953  -4.188  1.00  0.00     0.000 C 
BRANCH  15  16
ATOM     16  C   UNL     1     -23.103  17.075  -5.179  1.00  0.00     0.000 C 
BRANCH  16  17
ATOM     17  C   UNL     1     -24.000  16.591  -6.333  1.00  0.00    -0.000 C 
BRANCH  17  18
ATOM     18  C   UNL     1     -23.557  15.219  -6.879  1.00  0.00    -0.000 C 
BRANCH  18  19
ATOM     19  C   UNL     1     -22.554  15.314  -8.043  1.00  0.00    -0.003 C 
ATOM     20  C   UNL     1     -21.165  14.792  -7.680  1.00  0.00     0.004 C 
ENDBRANCH  18  19
ENDBRANCH  17  18
ENDBRANCH  16  17
ENDBRANCH  15  16
ENDBRANCH  14  15
ENDBRANCH  13  14
ENDBRANCH   2  13
TORSDOF 15
ENDMDL
MODEL 9
REMARK VINA RESULT:    -3.302      1.992      3.678
REMARK INTER + INTRA:          -7.633
REMARK INTER:                  -6.070
REMARK INTRA:                  -1.563
REMARK UNBOUND:                -1.435
REMARK SMILES CCCCCCCCC=CCCCCCCCC(=O)[O-]
REMARK SMILES IDX 10 1 9 2 11 3 12 4 13 5 14 6 15 7 16 8 17 9 18 10 19 11
REMARK SMILES IDX 20 12 8 13 7 14 6 15 5 16 4 17 3 18 2 19 1 20
REMARK H PARENT
REMARK Flexibility Score: inf
ROOT
ATOM      1  C   UNL     1     -20.487  17.880  -3.148  1.00  0.00    -0.031 C 
ATOM      2  C   UNL     1     -21.004  19.114  -3.245  1.00  0.00    -0.031 C 
ENDROOT
BRANCH   1   3
ATOM      3  C   UNL     1     -20.217  17.043  -4.368  1.00  0.00     0.027 C 
BRANCH   3   4
ATOM      4  C   UNL     1     -20.938  15.693  -4.286  1.00  0.00     0.004 C 
BRANCH   4   5
ATOM      5  C   UNL     1     -22.420  15.884  -3.929  1.00  0.00     0.000 C 
BRANCH   5   6
ATOM      6  C   UNL     1     -23.168  16.760  -4.948  1.00  0.00     0.000 C 
BRANCH   6   7
ATOM      7  C   UNL     1     -24.125  15.945  -5.834  1.00  0.00     0.000 C 
BRANCH   7   8
ATOM      8  C   UNL     1     -23.385  15.092  -6.882  1.00  0.00     0.006 C 
BRANCH   8   9
ATOM      9  C   UNL     1     -22.688  15.905  -7.985  1.00  0.00     0.053 C 
BRANCH   9  10
ATOM     10  C   UNL     1     -21.515  15.177  -8.564  1.00  0.00     0.041 C 
ATOM     11  O   UNL     1     -21.291  15.220  -9.803  1.00  0.00    -0.550 OA
ATOM     12  O   UNL     1     -20.650  14.477  -7.732  1.00  0.00    -0.550 OA
ENDBRANCH   9  10
ENDBRANCH   8   9
ENDBRANCH   7   8
ENDBRANCH   6   7
ENDBRANCH   5   6
ENDBRANCH   4   5
ENDBRANCH   3   4
ENDBRANCH   1   3
BRANCH   2  13
ATOM     13  C   UNL     1     -21.212  19.982  -2.033  1.00  0.00     0.027 C 
BRANCH  13  14
ATOM     14  C   UNL     1     -22.182  19.333  -1.037  1.00  0.00     0.004 C 
BRANCH  14  15
ATOM     15  C   UNL     1     -23.473  18.848  -1.721  1.00  0.00     0.000 C 
BRANCH  15  16
ATOM     16  C   UNL     1     -23.882  17.435  -1.279  1.00  0.00     0.000 C 
BRANCH  16  17
ATOM     17  C   UNL     1     -23.314  17.059   0.102  1.00  0.00    -0.000 C 
BRANCH  17  18
ATOM     18  C   UNL     1     -22.016  16.233  -0.008  1.00  0.00    -0.000 C 
BRANCH  18  19
ATOM     19  C   UNL     1     -21.423  15.834   1.355  1.00  0.00    -0.003 C 
ATOM     20  C   UNL     1     -22.487  15.457   2.383  1.00  0.00     0.004 C 
ENDBRANCH  18  19
ENDBRANCH  17  18
ENDBRANCH  16  17
ENDBRANCH  15  16
ENDBRANCH  14  15
ENDBRANCH  13  14
ENDBRANCH   2  13
TORSDOF 15
ENDMDL
