MODEL 1
REMARK VINA RESULT:    -6.105      0.000      0.000
REMARK INTER + INTRA:          -6.462
REMARK INTER:                  -6.462
REMARK INTRA:                   0.000
REMARK UNBOUND:                 0.000
REMARK SMILES O=c1ccc2cc(O)c(O)cc2o1
REMARK SMILES IDX 4 1 3 2 2 3 1 4 13 5 12 6 11 7 9 8 7 9 6 10 5 11 8 12 10 14
REMARK H PARENT 8 13 10 15
REMARK Flexibility Score: inf
ROOT
ATOM      1  C   UNL     1     -34.272  14.678  53.287  1.00  0.00     0.019 A 
ATOM      2  C   UNL     1     -32.938  14.425  53.603  1.00  0.00     0.094 A 
ATOM      3  C   UNL     1     -31.939  14.858  52.724  1.00  0.00     0.336 A 
ATOM      4  O   UNL     1     -30.729  14.640  52.992  1.00  0.00    -0.246 OA
ATOM      5  O   UNL     1     -32.259  15.500  51.604  1.00  0.00    -0.423 OA
ATOM      6  C   UNL     1     -33.520  15.762  51.264  1.00  0.00     0.142 A 
ATOM      7  C   UNL     1     -33.797  16.441  50.074  1.00  0.00     0.098 A 
ATOM      8  C   UNL     1     -35.119  16.720  49.709  1.00  0.00     0.161 A 
ATOM      9  C   UNL     1     -36.178  16.314  50.544  1.00  0.00     0.158 A 
ATOM     10  C   UNL     1     -35.905  15.633  51.738  1.00  0.00     0.062 A 
ATOM     11  C   UNL     1     -34.580  15.355  52.103  1.00  0.00     0.022 A 
ENDROOT
BRANCH   9  12
ATOM     12  O   UNL     1     -37.495  16.592  50.182  1.00  0.00    -0.504 OA
ATOM     13  H   UNL     1     -37.811  16.508  49.223  1.00  0.00     0.293 HD
ENDBRANCH   9  12
BRANCH   8  14
ATOM     14  O   UNL     1     -35.362  17.398  48.517  1.00  0.00    -0.504 OA
ATOM     15  H   UNL     1     -35.112  17.010  47.615  1.00  0.00     0.293 HD
ENDBRANCH   8  14
TORSDOF 2
ENDMDL
MODEL 2
REMARK VINA RESULT:    -6.073      1.152      2.266
REMARK INTER + INTRA:          -6.428
REMARK INTER:                  -6.428
REMARK INTRA:                   0.000
REMARK UNBOUND:                 0.000
REMARK SMILES O=c1ccc2cc(O)c(O)cc2o1
REMARK SMILES IDX 4 1 3 2 2 3 1 4 13 5 12 6 11 7 9 8 7 9 6 10 5 11 8 12 10 14
REMARK H PARENT 8 13 10 15
REMARK Flexibility Score: inf
ROOT
ATOM      1  C   UNL     1     -32.174  15.637  51.682  1.00  0.00     0.019 A 
ATOM      2  C   UNL     1     -31.965  14.909  52.852  1.00  0.00     0.094 A 
ATOM      3  C   UNL     1     -33.073  14.430  53.560  1.00  0.00     0.336 A 
ATOM      4  O   UNL     1     -32.905  13.770  54.618  1.00  0.00    -0.246 OA
ATOM      5  O   UNL     1     -34.306  14.669  53.121  1.00  0.00    -0.423 OA
ATOM      6  C   UNL     1     -34.549  15.360  52.009  1.00  0.00     0.142 A 
ATOM      7  C   UNL     1     -35.867  15.579  51.597  1.00  0.00     0.098 A 
ATOM      8  C   UNL     1     -36.131  16.305  50.429  1.00  0.00     0.161 A 
ATOM      9  C   UNL     1     -35.067  16.818  49.665  1.00  0.00     0.158 A 
ATOM     10  C   UNL     1     -33.744  16.600  50.075  1.00  0.00     0.062 A 
ATOM     11  C   UNL     1     -33.480  15.873  51.244  1.00  0.00     0.022 A 
ENDROOT
BRANCH   9  12
ATOM     12  O   UNL     1     -35.329  17.540  48.502  1.00  0.00    -0.504 OA
ATOM     13  H   UNL     1     -36.171  17.387  47.961  1.00  0.00     0.293 HD
ENDBRANCH   9  12
BRANCH   8  14
ATOM     14  O   UNL     1     -37.456  16.507  50.044  1.00  0.00    -0.504 OA
ATOM     15  H   UNL     1     -38.108  17.034  50.613  1.00  0.00     0.293 HD
ENDBRANCH   8  14
TORSDOF 2
ENDMDL
MODEL 3
REMARK VINA RESULT:    -5.698      7.187      8.352
REMARK INTER + INTRA:          -6.031
REMARK INTER:                  -6.031
REMARK INTRA:                   0.000
REMARK UNBOUND:                 0.000
REMARK SMILES O=c1ccc2cc(O)c(O)cc2o1
REMARK SMILES IDX 4 1 3 2 2 3 1 4 13 5 12 6 11 7 9 8 7 9 6 10 5 11 8 12 10 14
REMARK H PARENT 8 13 10 15
REMARK Flexibility Score: inf
ROOT
ATOM      1  C   UNL     1     -25.518  13.469  54.680  1.00  0.00     0.019 A 
ATOM      2  C   UNL     1     -25.454  12.323  53.888  1.00  0.00     0.094 A 
ATOM      3  C   UNL     1     -26.040  12.344  52.618  1.00  0.00     0.336 A 
ATOM      4  O   UNL     1     -25.992  11.320  51.887  1.00  0.00    -0.246 OA
ATOM      5  O   UNL     1     -26.647  13.441  52.174  1.00  0.00    -0.423 OA
ATOM      6  C   UNL     1     -26.731  14.556  52.898  1.00  0.00     0.142 A 
ATOM      7  C   UNL     1     -27.382  15.678  52.380  1.00  0.00     0.098 A 
ATOM      8  C   UNL     1     -27.475  16.854  53.134  1.00  0.00     0.161 A 
ATOM      9  C   UNL     1     -26.909  16.908  54.422  1.00  0.00     0.158 A 
ATOM     10  C   UNL     1     -26.255  15.784  54.945  1.00  0.00     0.062 A 
ATOM     11  C   UNL     1     -26.163  14.607  54.189  1.00  0.00     0.022 A 
ENDROOT
BRANCH   9  12
ATOM     12  O   UNL     1     -27.000  18.078  55.173  1.00  0.00    -0.504 OA
ATOM     13  H   UNL     1     -27.867  18.359  55.616  1.00  0.00     0.293 HD
ENDBRANCH   9  12
BRANCH   8  14
ATOM     14  O   UNL     1     -28.130  17.957  52.589  1.00  0.00    -0.504 OA
ATOM     15  H   UNL     1     -28.646  18.615  53.162  1.00  0.00     0.293 HD
ENDBRANCH   8  14
TORSDOF 2
ENDMDL
MODEL 4
REMARK VINA RESULT:    -5.683      7.433      8.815
REMARK INTER + INTRA:          -6.015
REMARK INTER:                  -6.015
REMARK INTRA:                   0.000
REMARK UNBOUND:                 0.000
REMARK SMILES O=c1ccc2cc(O)c(O)cc2o1
REMARK SMILES IDX 4 1 3 2 2 3 1 4 13 5 12 6 11 7 9 8 7 9 6 10 5 11 8 12 10 14
REMARK H PARENT 8 13 10 15
REMARK Flexibility Score: inf
ROOT
ATOM      1  C   UNL     1     -26.251  13.329  53.061  1.00  0.00     0.019 A 
ATOM      2  C   UNL     1     -25.550  12.385  53.810  1.00  0.00     0.094 A 
ATOM      3  C   UNL     1     -25.046  12.751  55.063  1.00  0.00     0.336 A 
ATOM      4  O   UNL     1     -24.412  11.913  55.754  1.00  0.00    -0.246 OA
ATOM      5  O   UNL     1     -25.234  13.983  55.529  1.00  0.00    -0.423 OA
ATOM      6  C   UNL     1     -25.897  14.915  54.846  1.00  0.00     0.142 A 
ATOM      7  C   UNL     1     -26.063  16.192  55.388  1.00  0.00     0.098 A 
ATOM      8  C   UNL     1     -26.758  17.178  54.677  1.00  0.00     0.161 A 
ATOM      9  C   UNL     1     -27.293  16.882  53.409  1.00  0.00     0.158 A 
ATOM     10  C   UNL     1     -27.129  15.602  52.862  1.00  0.00     0.062 A 
ATOM     11  C   UNL     1     -26.432  14.616  53.576  1.00  0.00     0.022 A 
ENDROOT
BRANCH   9  12
ATOM     12  O   UNL     1     -27.986  17.862  52.700  1.00  0.00    -0.504 OA
ATOM     13  H   UNL     1     -28.845  17.652  52.206  1.00  0.00     0.293 HD
ENDBRANCH   9  12
BRANCH   8  14
ATOM     14  O   UNL     1     -26.907  18.442  55.244  1.00  0.00    -0.504 OA
ATOM     15  H   UNL     1     -27.548  19.130  54.865  1.00  0.00     0.293 HD
ENDBRANCH   8  14
TORSDOF 2
ENDMDL
MODEL 5
REMARK VINA RESULT:    -5.659      7.110      8.243
REMARK INTER + INTRA:          -5.989
REMARK INTER:                  -5.989
REMARK INTRA:                   0.000
REMARK UNBOUND:                 0.000
REMARK SMILES O=c1ccc2cc(O)c(O)cc2o1
REMARK SMILES IDX 4 1 3 2 2 3 1 4 13 5 12 6 11 7 9 8 7 9 6 10 5 11 8 12 10 14
REMARK H PARENT 8 13 10 15
REMARK Flexibility Score: inf
ROOT
ATOM      1  C   UNL     1     -27.097  13.483  51.056  1.00  0.00     0.019 A 
ATOM      2  C   UNL     1     -26.599  12.204  51.303  1.00  0.00     0.094 A 
ATOM      3  C   UNL     1     -26.072  11.914  52.566  1.00  0.00     0.336 A 
ATOM      4  O   UNL     1     -25.618  10.766  52.809  1.00  0.00    -0.246 OA
ATOM      5  O   UNL     1     -26.047  12.847  53.515  1.00  0.00    -0.423 OA
ATOM      6  C   UNL     1     -26.512  14.079  53.321  1.00  0.00     0.142 A 
ATOM      7  C   UNL     1     -26.459  15.017  54.356  1.00  0.00     0.098 A 
ATOM      8  C   UNL     1     -26.946  16.315  54.160  1.00  0.00     0.161 A 
ATOM      9  C   UNL     1     -27.490  16.680  52.915  1.00  0.00     0.158 A 
ATOM     10  C   UNL     1     -27.545  15.742  51.874  1.00  0.00     0.062 A 
ATOM     11  C   UNL     1     -27.058  14.443  52.072  1.00  0.00     0.022 A 
ENDROOT
BRANCH   9  12
ATOM     12  O   UNL     1     -27.976  17.972  52.719  1.00  0.00    -0.504 OA
ATOM     13  H   UNL     1     -28.296  18.286  51.810  1.00  0.00     0.293 HD
ENDBRANCH   9  12
BRANCH   8  14
ATOM     14  O   UNL     1     -26.880  17.228  55.212  1.00  0.00    -0.504 OA
ATOM     15  H   UNL     1     -27.711  17.592  55.662  1.00  0.00     0.293 HD
ENDBRANCH   8  14
TORSDOF 2
ENDMDL
MODEL 6
REMARK VINA RESULT:    -5.624      2.522      3.850
REMARK INTER + INTRA:          -5.953
REMARK INTER:                  -5.953
REMARK INTRA:                   0.000
REMARK UNBOUND:                 0.000
REMARK SMILES O=c1ccc2cc(O)c(O)cc2o1
REMARK SMILES IDX 4 1 3 2 2 3 1 4 13 5 12 6 11 7 9 8 7 9 6 10 5 11 8 12 10 14
REMARK H PARENT 8 13 10 15
REMARK Flexibility Score: inf
ROOT
ATOM      1  C   UNL     1     -33.518  13.203  54.310  1.00  0.00     0.019 A 
ATOM      2  C   UNL     1     -32.863  12.275  55.119  1.00  0.00     0.094 A 
ATOM      3  C   UNL     1     -31.465  12.222  55.095  1.00  0.00     0.336 A 
ATOM      4  O   UNL     1     -30.855  11.392  55.818  1.00  0.00    -0.246 OA
ATOM      5  O   UNL     1     -30.774  13.045  54.310  1.00  0.00    -0.423 OA
ATOM      6  C   UNL     1     -31.360  13.945  53.523  1.00  0.00     0.142 A 
ATOM      7  C   UNL     1     -30.581  14.783  52.720  1.00  0.00     0.098 A 
ATOM      8  C   UNL     1     -31.189  15.732  51.889  1.00  0.00     0.161 A 
ATOM      9  C   UNL     1     -32.591  15.844  51.860  1.00  0.00     0.158 A 
ATOM     10  C   UNL     1     -33.376  15.004  52.664  1.00  0.00     0.062 A 
ATOM     11  C   UNL     1     -32.766  14.055  53.496  1.00  0.00     0.022 A 
ENDROOT
BRANCH   9  12
ATOM     12  O   UNL     1     -33.198  16.789  51.034  1.00  0.00    -0.504 OA
ATOM     13  H   UNL     1     -33.421  17.719  51.367  1.00  0.00     0.293 HD
ENDBRANCH   9  12
BRANCH   8  14
ATOM     14  O   UNL     1     -30.385  16.554  51.101  1.00  0.00    -0.504 OA
ATOM     15  H   UNL     1     -30.535  16.658  50.104  1.00  0.00     0.293 HD
ENDBRANCH   8  14
TORSDOF 2
ENDMDL
MODEL 7
REMARK VINA RESULT:    -5.576      2.510      4.280
REMARK INTER + INTRA:          -5.902
REMARK INTER:                  -5.902
REMARK INTRA:                   0.000
REMARK UNBOUND:                 0.000
REMARK SMILES O=c1ccc2cc(O)c(O)cc2o1
REMARK SMILES IDX 4 1 3 2 2 3 1 4 13 5 12 6 11 7 9 8 7 9 6 10 5 11 8 12 10 14
REMARK H PARENT 8 13 10 15
REMARK Flexibility Score: inf
ROOT
ATOM      1  C   UNL     1     -31.016  12.810  54.307  1.00  0.00     0.019 A 
ATOM      2  C   UNL     1     -31.855  12.001  55.072  1.00  0.00     0.094 A 
ATOM      3  C   UNL     1     -33.235  12.227  55.035  1.00  0.00     0.336 A 
ATOM      4  O   UNL     1     -34.008  11.507  55.718  1.00  0.00    -0.246 OA
ATOM      5  O   UNL     1     -33.737  13.202  54.281  1.00  0.00    -0.423 OA
ATOM      6  C   UNL     1     -32.972  13.998  53.536  1.00  0.00     0.142 A 
ATOM      7  C   UNL     1     -33.556  15.005  52.764  1.00  0.00     0.098 A 
ATOM      8  C   UNL     1     -32.759  15.846  51.978  1.00  0.00     0.161 A 
ATOM      9  C   UNL     1     -31.362  15.678  51.965  1.00  0.00     0.158 A 
ATOM     10  C   UNL     1     -30.772  14.669  52.738  1.00  0.00     0.062 A 
ATOM     11  C   UNL     1     -31.571  13.827  53.524  1.00  0.00     0.022 A 
ENDROOT
BRANCH   9  12
ATOM     12  O   UNL     1     -30.568  16.514  51.182  1.00  0.00    -0.504 OA
ATOM     13  H   UNL     1     -30.725  17.514  51.146  1.00  0.00     0.293 HD
ENDBRANCH   9  12
BRANCH   8  14
ATOM     14  O   UNL     1     -33.372  16.842  51.218  1.00  0.00    -0.504 OA
ATOM     15  H   UNL     1     -34.028  17.500  51.621  1.00  0.00     0.293 HD
ENDBRANCH   8  14
TORSDOF 2
ENDMDL
MODEL 8
REMARK VINA RESULT:    -5.545      8.581     11.636
REMARK INTER + INTRA:          -5.870
REMARK INTER:                  -5.870
REMARK INTRA:                   0.000
REMARK UNBOUND:                 0.000
REMARK SMILES O=c1ccc2cc(O)c(O)cc2o1
REMARK SMILES IDX 4 1 3 2 2 3 1 4 13 5 12 6 11 7 9 8 7 9 6 10 5 11 8 12 10 14
REMARK H PARENT 8 13 10 15
REMARK Flexibility Score: inf
ROOT
ATOM      1  C   UNL     1     -25.488  13.828  54.516  1.00  0.00     0.019 A 
ATOM      2  C   UNL     1     -26.641  14.492  54.933  1.00  0.00     0.094 A 
ATOM      3  C   UNL     1     -27.305  14.042  56.079  1.00  0.00     0.336 A 
ATOM      4  O   UNL     1     -28.347  14.628  56.473  1.00  0.00    -0.246 OA
ATOM      5  O   UNL     1     -26.842  12.996  56.758  1.00  0.00    -0.423 OA
ATOM      6  C   UNL     1     -25.745  12.333  56.394  1.00  0.00     0.142 A 
ATOM      7  C   UNL     1     -25.306  11.241  57.147  1.00  0.00     0.098 A 
ATOM      8  C   UNL     1     -24.154  10.539  56.771  1.00  0.00     0.161 A 
ATOM      9  C   UNL     1     -23.434  10.934  55.629  1.00  0.00     0.158 A 
ATOM     10  C   UNL     1     -23.871  12.029  54.870  1.00  0.00     0.062 A 
ATOM     11  C   UNL     1     -25.024  12.731  55.248  1.00  0.00     0.022 A 
ENDROOT
BRANCH   9  12
ATOM     12  O   UNL     1     -22.287  10.237  55.253  1.00  0.00    -0.504 OA
ATOM     13  H   UNL     1     -22.330   9.276  54.935  1.00  0.00     0.293 HD
ENDBRANCH   9  12
BRANCH   8  14
ATOM     14  O   UNL     1     -23.742   9.454  57.543  1.00  0.00    -0.504 OA
ATOM     15  H   UNL     1     -24.386   8.733  57.846  1.00  0.00     0.293 HD
ENDBRANCH   8  14
TORSDOF 2
ENDMDL
MODEL 9
REMARK VINA RESULT:    -5.471      7.357      8.177
REMARK INTER + INTRA:          -5.791
REMARK INTER:                  -5.791
REMARK INTRA:                   0.000
REMARK UNBOUND:                 0.000
REMARK SMILES O=c1ccc2cc(O)c(O)cc2o1
REMARK SMILES IDX 4 1 3 2 2 3 1 4 13 5 12 6 11 7 9 8 7 9 6 10 5 11 8 12 10 14
REMARK H PARENT 8 13 10 15
REMARK Flexibility Score: inf
ROOT
ATOM      1  C   UNL     1     -27.424  15.853  57.099  1.00  0.00     0.019 A 
ATOM      2  C   UNL     1     -27.130  14.704  57.831  1.00  0.00     0.094 A 
ATOM      3  C   UNL     1     -26.767  13.538  57.147  1.00  0.00     0.336 A 
ATOM      4  O   UNL     1     -26.497  12.491  57.790  1.00  0.00    -0.246 OA
ATOM      5  O   UNL     1     -26.707  13.529  55.818  1.00  0.00    -0.423 OA
ATOM      6  C   UNL     1     -26.981  14.604  55.081  1.00  0.00     0.142 A 
ATOM      7  C   UNL     1     -26.900  14.535  53.688  1.00  0.00     0.098 A 
ATOM      8  C   UNL     1     -27.186  15.660  52.905  1.00  0.00     0.161 A 
ATOM      9  C   UNL     1     -27.558  16.868  53.524  1.00  0.00     0.158 A 
ATOM     10  C   UNL     1     -27.640  16.942  54.921  1.00  0.00     0.062 A 
ATOM     11  C   UNL     1     -27.353  15.815  55.703  1.00  0.00     0.022 A 
ENDROOT
BRANCH   9  12
ATOM     12  O   UNL     1     -27.842  17.990  52.746  1.00  0.00    -0.504 OA
ATOM     13  H   UNL     1     -27.809  17.956  51.734  1.00  0.00     0.293 HD
ENDBRANCH   9  12
BRANCH   8  14
ATOM     14  O   UNL     1     -27.096  15.559  51.518  1.00  0.00    -0.504 OA
ATOM     15  H   UNL     1     -27.305  14.698  51.026  1.00  0.00     0.293 HD
ENDBRANCH   8  14
TORSDOF 2
ENDMDL
