MODEL 1
REMARK VINA RESULT:     0.371      0.000      0.000
REMARK INTER + INTRA:           1.043
REMARK INTER:                   0.632
REMARK INTRA:                   0.412
REMARK UNBOUND:                 0.412
REMARK SMILES CCCCCCCCCCCCCC(=O)[O-]
REMARK SMILES IDX 8 1 9 2 10 3 11 4 12 5 13 6 14 7 15 8 16 9 7 10 6 11 5 12
REMARK SMILES IDX 4 13 3 14 2 15 1 16
REMARK H PARENT
REMARK Flexibility Score: inf
ROOT
ATOM      1  C   UNL     1      -1.854 -18.101 -25.744  1.00  0.00     0.000 C 
ENDROOT
BRANCH   1   2
ATOM      2  C   UNL     1      -2.119 -16.615 -25.426  1.00  0.00     0.000 C 
BRANCH   2   3
ATOM      3  C   UNL     1      -1.946 -15.652 -26.613  1.00  0.00     0.000 C 
BRANCH   3   4
ATOM      4  C   UNL     1      -0.551 -15.006 -26.661  1.00  0.00     0.000 C 
BRANCH   4   5
ATOM      5  C   UNL     1      -0.298 -14.244 -27.972  1.00  0.00     0.006 C 
BRANCH   5   6
ATOM      6  C   UNL     1      -1.187 -13.001 -28.116  1.00  0.00     0.053 C 
BRANCH   6   7
ATOM      7  C   UNL     1      -0.511 -11.806 -27.522  1.00  0.00     0.041 C 
ATOM      8  O   UNL     1      -0.991 -11.249 -26.501  1.00  0.00    -0.550 OA
ATOM      9  O   UNL     1       0.623 -11.278 -28.125  1.00  0.00    -0.550 OA
ENDBRANCH   6   7
ENDBRANCH   5   6
ENDBRANCH   4   5
ENDBRANCH   3   4
ENDBRANCH   2   3
ENDBRANCH   1   2
BRANCH   1  10
ATOM     10  C   UNL     1      -0.384 -18.453 -26.042  1.00  0.00     0.000 C 
BRANCH  10  11
ATOM     11  C   UNL     1      -0.130 -19.929 -26.409  1.00  0.00    -0.000 C 
BRANCH  11  12
ATOM     12  C   UNL     1      -1.350 -20.857 -26.250  1.00  0.00    -0.000 C 
BRANCH  12  13
ATOM     13  C   UNL     1      -1.053 -22.218 -25.592  1.00  0.00    -0.000 C 
BRANCH  13  14
ATOM     14  C   UNL     1       0.413 -22.427 -25.157  1.00  0.00    -0.000 C 
BRANCH  14  15
ATOM     15  C   UNL     1       0.884 -21.515 -24.010  1.00  0.00    -0.003 C 
ATOM     16  C   UNL     1       1.944 -20.506 -24.450  1.00  0.00     0.004 C 
ENDBRANCH  14  15
ENDBRANCH  13  14
ENDBRANCH  12  13
ENDBRANCH  11  12
ENDBRANCH  10  11
ENDBRANCH   1  10
TORSDOF 12
ENDMDL
