MODEL 1
REMARK VINA RESULT:    -4.202      0.000      0.000
REMARK INTER + INTRA:          -5.064
REMARK INTER:                  -4.939
REMARK INTRA:                  -0.124
REMARK UNBOUND:                -0.124
REMARK SMILES O=C([O-])C=Cc1ccc(O)c(O)c1
REMARK SMILES IDX 6 1 13 2 7 3 11 4 8 5 9 6 5 7 4 8 2 9 1 10 3 11 12 12 10 14
REMARK H PARENT 12 13 10 15
REMARK Flexibility Score: inf
ROOT
ATOM      1  C   UNL     1      42.208  20.140  -2.487  1.00  0.00    -0.022 A 
ATOM      2  C   UNL     1      41.180  19.187  -2.623  1.00  0.00     0.058 A 
ATOM      3  C   UNL     1      42.155  21.047  -1.415  1.00  0.00     0.012 A 
ATOM      4  C   UNL     1      40.135  19.127  -1.693  1.00  0.00     0.157 A 
ATOM      5  C   UNL     1      41.116  20.987  -0.485  1.00  0.00     0.051 A 
ATOM      6  C   UNL     1      40.104  20.028  -0.617  1.00  0.00     0.157 A 
ENDROOT
BRANCH   1   7
ATOM      7  C   UNL     1      43.329  20.250  -3.454  1.00  0.00     0.010 C 
ATOM      8  C   UNL     1      43.166  20.531  -4.755  1.00  0.00     0.025 C 
BRANCH   8   9
ATOM      9  C   UNL     1      44.300  20.621  -5.688  1.00  0.00     0.064 C 
ATOM     10  O   UNL     1      44.870  19.584  -6.125  1.00  0.00    -0.545 OA
ATOM     11  O   UNL     1      44.753  21.869  -6.096  1.00  0.00    -0.545 OA
ENDBRANCH   8   9
ENDBRANCH   1   7
BRANCH   4  12
ATOM     12  O   UNL     1      39.136  18.168  -1.858  1.00  0.00    -0.504 OA
ATOM     13  H   UNL     1      38.225  18.399  -2.233  1.00  0.00     0.293 HD
ENDBRANCH   4  12
BRANCH   6  14
ATOM     14  O   UNL     1      39.068  19.969   0.314  1.00  0.00    -0.504 OA
ATOM     15  H   UNL     1      39.141  19.409   1.156  1.00  0.00     0.293 HD
ENDBRANCH   6  14
TORSDOF 4
ENDMDL
MODEL 2
REMARK VINA RESULT:    -4.157      2.341      2.862
REMARK INTER + INTRA:          -5.010
REMARK INTER:                  -4.882
REMARK INTRA:                  -0.128
REMARK UNBOUND:                -0.124
REMARK SMILES O=C([O-])C=Cc1ccc(O)c(O)c1
REMARK SMILES IDX 6 1 13 2 7 3 11 4 8 5 9 6 5 7 4 8 2 9 1 10 3 11 12 12 10 14
REMARK H PARENT 12 13 10 15
REMARK Flexibility Score: inf
ROOT
ATOM      1  C   UNL     1      42.506  19.149  -2.259  1.00  0.00    -0.022 A 
ATOM      2  C   UNL     1      41.160  18.738  -2.209  1.00  0.00     0.058 A 
ATOM      3  C   UNL     1      42.897  20.282  -1.526  1.00  0.00     0.012 A 
ATOM      4  C   UNL     1      40.231  19.432  -1.424  1.00  0.00     0.157 A 
ATOM      5  C   UNL     1      41.973  20.974  -0.741  1.00  0.00     0.051 A 
ATOM      6  C   UNL     1      40.639  20.553  -0.683  1.00  0.00     0.157 A 
ENDROOT
BRANCH   1   7
ATOM      7  C   UNL     1      43.524  18.453  -3.086  1.00  0.00     0.010 C 
ATOM      8  C   UNL     1      44.126  17.312  -2.722  1.00  0.00     0.025 C 
BRANCH   8   9
ATOM      9  C   UNL     1      45.140  16.656  -3.563  1.00  0.00     0.064 C 
ATOM     10  O   UNL     1      45.637  17.241  -4.563  1.00  0.00    -0.545 OA
ATOM     11  O   UNL     1      45.557  15.369  -3.251  1.00  0.00    -0.545 OA
ENDBRANCH   8   9
ENDBRANCH   1   7
BRANCH   4  12
ATOM     12  O   UNL     1      38.906  18.994  -1.396  1.00  0.00    -0.504 OA
ATOM     13  H   UNL     1      38.664  18.012  -1.408  1.00  0.00     0.293 HD
ENDBRANCH   4  12
BRANCH   6  14
ATOM     14  O   UNL     1      39.719  21.244   0.104  1.00  0.00    -0.504 OA
ATOM     15  H   UNL     1      40.009  21.777   0.915  1.00  0.00     0.293 HD
ENDBRANCH   6  14
TORSDOF 4
ENDMDL
MODEL 3
REMARK VINA RESULT:    -4.075      8.695     10.930
REMARK INTER + INTRA:          -4.914
REMARK INTER:                  -4.792
REMARK INTRA:                  -0.122
REMARK UNBOUND:                -0.124
REMARK SMILES O=C([O-])C=Cc1ccc(O)c(O)c1
REMARK SMILES IDX 6 1 13 2 7 3 11 4 8 5 9 6 5 7 4 8 2 9 1 10 3 11 12 12 10 14
REMARK H PARENT 12 13 10 15
REMARK Flexibility Score: inf
ROOT
ATOM      1  C   UNL     1      49.390  13.810  -3.837  1.00  0.00    -0.022 A 
ATOM      2  C   UNL     1      48.726  15.042  -4.001  1.00  0.00     0.058 A 
ATOM      3  C   UNL     1      50.634  13.621  -4.461  1.00  0.00     0.012 A 
ATOM      4  C   UNL     1      49.307  16.070  -4.753  1.00  0.00     0.157 A 
ATOM      5  C   UNL     1      51.216  14.646  -5.209  1.00  0.00     0.051 A 
ATOM      6  C   UNL     1      50.559  15.874  -5.357  1.00  0.00     0.157 A 
ENDROOT
BRANCH   1   7
ATOM      7  C   UNL     1      48.808  12.687  -3.059  1.00  0.00     0.010 C 
ATOM      8  C   UNL     1      47.960  12.851  -2.034  1.00  0.00     0.025 C 
BRANCH   8   9
ATOM      9  C   UNL     1      47.412  11.714  -1.277  1.00  0.00     0.064 C 
ATOM     10  O   UNL     1      48.128  11.059  -0.472  1.00  0.00    -0.545 OA
ATOM     11  O   UNL     1      46.083  11.353  -1.454  1.00  0.00    -0.545 OA
ENDBRANCH   8   9
ENDBRANCH   1   7
BRANCH   4  12
ATOM     12  O   UNL     1      48.622  17.277  -4.893  1.00  0.00    -0.504 OA
ATOM     13  H   UNL     1      48.906  18.116  -4.403  1.00  0.00     0.293 HD
ENDBRANCH   4  12
BRANCH   6  14
ATOM     14  O   UNL     1      51.144  16.896  -6.104  1.00  0.00    -0.504 OA
ATOM     15  H   UNL     1      50.597  17.669  -6.466  1.00  0.00     0.293 HD
ENDBRANCH   6  14
TORSDOF 4
ENDMDL
MODEL 4
REMARK VINA RESULT:    -4.070      2.453      2.985
REMARK INTER + INTRA:          -4.908
REMARK INTER:                  -4.786
REMARK INTRA:                  -0.121
REMARK UNBOUND:                -0.124
REMARK SMILES O=C([O-])C=Cc1ccc(O)c(O)c1
REMARK SMILES IDX 6 1 13 2 7 3 11 4 8 5 9 6 5 7 4 8 2 9 1 10 3 11 12 12 10 14
REMARK H PARENT 12 13 10 15
REMARK Flexibility Score: inf
ROOT
ATOM      1  C   UNL     1      43.358  19.296  -3.525  1.00  0.00    -0.022 A 
ATOM      2  C   UNL     1      42.949  18.628  -2.354  1.00  0.00     0.058 A 
ATOM      3  C   UNL     1      43.041  20.656  -3.676  1.00  0.00     0.012 A 
ATOM      4  C   UNL     1      42.260  19.312  -1.346  1.00  0.00     0.157 A 
ATOM      5  C   UNL     1      42.356  21.341  -2.670  1.00  0.00     0.051 A 
ATOM      6  C   UNL     1      41.964  20.676  -1.502  1.00  0.00     0.157 A 
ENDROOT
BRANCH   1   7
ATOM      7  C   UNL     1      44.080  18.609  -4.626  1.00  0.00     0.010 C 
ATOM      8  C   UNL     1      44.866  17.538  -4.446  1.00  0.00     0.025 C 
BRANCH   8   9
ATOM      9  C   UNL     1      45.576  16.889  -5.561  1.00  0.00     0.064 C 
ATOM     10  O   UNL     1      45.201  15.773  -6.013  1.00  0.00    -0.545 OA
ATOM     11  O   UNL     1      46.679  17.516  -6.125  1.00  0.00    -0.545 OA
ENDBRANCH   8   9
ENDBRANCH   1   7
BRANCH   4  12
ATOM     12  O   UNL     1      41.873  18.619  -0.198  1.00  0.00    -0.504 OA
ATOM     13  H   UNL     1      42.541  18.321   0.501  1.00  0.00     0.293 HD
ENDBRANCH   4  12
BRANCH   6  14
ATOM     14  O   UNL     1      41.282  21.363  -0.499  1.00  0.00    -0.504 OA
ATOM     15  H   UNL     1      41.774  21.873   0.225  1.00  0.00     0.293 HD
ENDBRANCH   6  14
TORSDOF 4
ENDMDL
MODEL 5
REMARK VINA RESULT:    -4.007      6.762      8.982
REMARK INTER + INTRA:          -4.834
REMARK INTER:                  -4.712
REMARK INTRA:                  -0.122
REMARK UNBOUND:                -0.124
REMARK SMILES O=C([O-])C=Cc1ccc(O)c(O)c1
REMARK SMILES IDX 6 1 13 2 7 3 11 4 8 5 9 6 5 7 4 8 2 9 1 10 3 11 12 12 10 14
REMARK H PARENT 12 13 10 15
REMARK Flexibility Score: inf
ROOT
ATOM      1  C   UNL     1      47.368  15.444  -3.821  1.00  0.00    -0.022 A 
ATOM      2  C   UNL     1      47.703  14.207  -3.235  1.00  0.00     0.058 A 
ATOM      3  C   UNL     1      48.362  16.157  -4.513  1.00  0.00     0.012 A 
ATOM      4  C   UNL     1      48.996  13.685  -3.359  1.00  0.00     0.157 A 
ATOM      5  C   UNL     1      49.651  15.637  -4.640  1.00  0.00     0.051 A 
ATOM      6  C   UNL     1      49.975  14.400  -4.068  1.00  0.00     0.157 A 
ENDROOT
BRANCH   1   7
ATOM      7  C   UNL     1      46.015  16.042  -3.705  1.00  0.00     0.010 C 
ATOM      8  C   UNL     1      45.179  15.802  -2.686  1.00  0.00     0.025 C 
BRANCH   8   9
ATOM      9  C   UNL     1      43.838  16.405  -2.610  1.00  0.00     0.064 C 
ATOM     10  O   UNL     1      42.815  15.698  -2.403  1.00  0.00    -0.545 OA
ATOM     11  O   UNL     1      43.697  17.777  -2.770  1.00  0.00    -0.545 OA
ENDBRANCH   8   9
ENDBRANCH   1   7
BRANCH   4  12
ATOM     12  O   UNL     1      49.290  12.456  -2.768  1.00  0.00    -0.504 OA
ATOM     13  H   UNL     1      48.568  11.794  -2.514  1.00  0.00     0.293 HD
ENDBRANCH   4  12
BRANCH   6  14
ATOM     14  O   UNL     1      51.263  13.883  -4.198  1.00  0.00    -0.504 OA
ATOM     15  H   UNL     1      51.427  12.952  -4.564  1.00  0.00     0.293 HD
ENDBRANCH   6  14
TORSDOF 4
ENDMDL
MODEL 6
REMARK VINA RESULT:    -4.006      8.756     11.071
REMARK INTER + INTRA:          -4.833
REMARK INTER:                  -4.709
REMARK INTRA:                  -0.124
REMARK UNBOUND:                -0.124
REMARK SMILES O=C([O-])C=Cc1ccc(O)c(O)c1
REMARK SMILES IDX 6 1 13 2 7 3 11 4 8 5 9 6 5 7 4 8 2 9 1 10 3 11 12 12 10 14
REMARK H PARENT 12 13 10 15
REMARK Flexibility Score: inf
ROOT
ATOM      1  C   UNL     1      48.658  14.028  -3.494  1.00  0.00    -0.022 A 
ATOM      2  C   UNL     1      49.889  13.455  -3.872  1.00  0.00     0.058 A 
ATOM      3  C   UNL     1      48.394  15.361  -3.848  1.00  0.00     0.012 A 
ATOM      4  C   UNL     1      50.823  14.194  -4.608  1.00  0.00     0.157 A 
ATOM      5  C   UNL     1      49.323  16.098  -4.585  1.00  0.00     0.051 A 
ATOM      6  C   UNL     1      50.538  15.520  -4.970  1.00  0.00     0.157 A 
ENDROOT
BRANCH   1   7
ATOM      7  C   UNL     1      47.643  13.289  -2.702  1.00  0.00     0.010 C 
ATOM      8  C   UNL     1      47.945  12.350  -1.794  1.00  0.00     0.025 C 
BRANCH   8   9
ATOM      9  C   UNL     1      46.910  11.628  -1.036  1.00  0.00     0.064 C 
ATOM     10  O   UNL     1      47.012  11.459   0.210  1.00  0.00    -0.545 OA
ATOM     11  O   UNL     1      45.802  11.124  -1.702  1.00  0.00    -0.545 OA
ENDBRANCH   8   9
ENDBRANCH   1   7
BRANCH   4  12
ATOM     12  O   UNL     1      52.030  13.593  -4.967  1.00  0.00    -0.504 OA
ATOM     13  H   UNL     1      52.072  12.808  -5.604  1.00  0.00     0.293 HD
ENDBRANCH   4  12
BRANCH   6  14
ATOM     14  O   UNL     1      51.463  16.258  -5.707  1.00  0.00    -0.504 OA
ATOM     15  H   UNL     1      52.282  16.668  -5.274  1.00  0.00     0.293 HD
ENDBRANCH   6  14
TORSDOF 4
ENDMDL
MODEL 7
REMARK VINA RESULT:    -3.898      3.825      4.422
REMARK INTER + INTRA:          -4.707
REMARK INTER:                  -4.556
REMARK INTRA:                  -0.151
REMARK UNBOUND:                -0.124
REMARK SMILES O=C([O-])C=Cc1ccc(O)c(O)c1
REMARK SMILES IDX 6 1 13 2 7 3 11 4 8 5 9 6 5 7 4 8 2 9 1 10 3 11 12 12 10 14
REMARK H PARENT 12 13 10 15
REMARK Flexibility Score: inf
ROOT
ATOM      1  C   UNL     1      44.190  16.688  -2.962  1.00  0.00    -0.022 A 
ATOM      2  C   UNL     1      43.223  15.940  -2.263  1.00  0.00     0.058 A 
ATOM      3  C   UNL     1      43.959  18.056  -3.184  1.00  0.00     0.012 A 
ATOM      4  C   UNL     1      42.062  16.552  -1.776  1.00  0.00     0.157 A 
ATOM      5  C   UNL     1      42.803  18.669  -2.697  1.00  0.00     0.051 A 
ATOM      6  C   UNL     1      41.852  17.924  -1.990  1.00  0.00     0.157 A 
ENDROOT
BRANCH   1   7
ATOM      7  C   UNL     1      45.430  16.080  -3.508  1.00  0.00     0.010 C 
ATOM      8  C   UNL     1      46.353  16.763  -4.200  1.00  0.00     0.025 C 
BRANCH   8   9
ATOM      9  C   UNL     1      47.565  16.124  -4.736  1.00  0.00     0.064 C 
ATOM     10  O   UNL     1      47.694  15.900  -5.970  1.00  0.00    -0.545 OA
ATOM     11  O   UNL     1      48.586  15.760  -3.868  1.00  0.00    -0.545 OA
ENDBRANCH   8   9
ENDBRANCH   1   7
BRANCH   4  12
ATOM     12  O   UNL     1      41.128  15.780  -1.085  1.00  0.00    -0.504 OA
ATOM     13  H   UNL     1      41.278  14.798  -0.892  1.00  0.00     0.293 HD
ENDBRANCH   4  12
BRANCH   6  14
ATOM     14  O   UNL     1      40.700  18.540  -1.503  1.00  0.00    -0.504 OA
ATOM     15  H   UNL     1      40.493  18.571  -0.511  1.00  0.00     0.293 HD
ENDBRANCH   6  14
TORSDOF 4
ENDMDL
MODEL 8
REMARK VINA RESULT:    -3.864      6.514      8.825
REMARK INTER + INTRA:          -4.666
REMARK INTER:                  -4.516
REMARK INTRA:                  -0.150
REMARK UNBOUND:                -0.124
REMARK SMILES O=C([O-])C=Cc1ccc(O)c(O)c1
REMARK SMILES IDX 6 1 13 2 7 3 11 4 8 5 9 6 5 7 4 8 2 9 1 10 3 11 12 12 10 14
REMARK H PARENT 12 13 10 15
REMARK Flexibility Score: inf
ROOT
ATOM      1  C   UNL     1      47.797  15.783  -4.231  1.00  0.00    -0.022 A 
ATOM      2  C   UNL     1      47.968  14.554  -3.563  1.00  0.00     0.058 A 
ATOM      3  C   UNL     1      48.895  16.351  -4.896  1.00  0.00     0.012 A 
ATOM      4  C   UNL     1      49.204  13.897  -3.582  1.00  0.00     0.157 A 
ATOM      5  C   UNL     1      50.128  15.697  -4.918  1.00  0.00     0.051 A 
ATOM      6  C   UNL     1      50.290  14.469  -4.266  1.00  0.00     0.157 A 
ENDROOT
BRANCH   1   7
ATOM      7  C   UNL     1      46.509  16.521  -4.227  1.00  0.00     0.010 C 
ATOM      8  C   UNL     1      46.169  17.429  -5.153  1.00  0.00     0.025 C 
BRANCH   8   9
ATOM      9  C   UNL     1      44.886  18.151  -5.112  1.00  0.00     0.064 C 
ATOM     10  O   UNL     1      44.653  19.113  -5.892  1.00  0.00    -0.545 OA
ATOM     11  O   UNL     1      43.915  17.766  -4.197  1.00  0.00    -0.545 OA
ENDBRANCH   8   9
ENDBRANCH   1   7
BRANCH   4  12
ATOM     12  O   UNL     1      49.336  12.680  -2.913  1.00  0.00    -0.504 OA
ATOM     13  H   UNL     1      48.833  11.851  -3.200  1.00  0.00     0.293 HD
ENDBRANCH   4  12
BRANCH   6  14
ATOM     14  O   UNL     1      51.522  13.817  -4.292  1.00  0.00    -0.504 OA
ATOM     15  H   UNL     1      52.371  14.275  -3.981  1.00  0.00     0.293 HD
ENDBRANCH   6  14
TORSDOF 4
ENDMDL
MODEL 9
REMARK VINA RESULT:    -3.856      7.428     10.186
REMARK INTER + INTRA:          -4.656
REMARK INTER:                  -4.504
REMARK INTRA:                  -0.153
REMARK UNBOUND:                -0.124
REMARK SMILES O=C([O-])C=Cc1ccc(O)c(O)c1
REMARK SMILES IDX 6 1 13 2 7 3 11 4 8 5 9 6 5 7 4 8 2 9 1 10 3 11 12 12 10 14
REMARK H PARENT 12 13 10 15
REMARK Flexibility Score: inf
ROOT
ATOM      1  C   UNL     1      48.694  15.307  -4.267  1.00  0.00    -0.022 A 
ATOM      2  C   UNL     1      49.573  16.158  -4.965  1.00  0.00     0.058 A 
ATOM      3  C   UNL     1      49.117  14.005  -3.952  1.00  0.00     0.012 A 
ATOM      4  C   UNL     1      50.856  15.723  -5.320  1.00  0.00     0.157 A 
ATOM      5  C   UNL     1      50.397  13.570  -4.303  1.00  0.00     0.051 A 
ATOM      6  C   UNL     1      51.272  14.424  -4.984  1.00  0.00     0.157 A 
ENDROOT
BRANCH   1   7
ATOM      7  C   UNL     1      47.321  15.719  -3.881  1.00  0.00     0.010 C 
ATOM      8  C   UNL     1      46.458  14.922  -3.235  1.00  0.00     0.025 C 
BRANCH   8   9
ATOM      9  C   UNL     1      45.099  15.362  -2.878  1.00  0.00     0.064 C 
ATOM     10  O   UNL     1      44.163  14.531  -2.725  1.00  0.00    -0.545 OA
ATOM     11  O   UNL     1      44.842  16.715  -2.708  1.00  0.00    -0.545 OA
ENDBRANCH   8   9
ENDBRANCH   1   7
BRANCH   4  12
ATOM     12  O   UNL     1      51.700  16.593  -6.009  1.00  0.00    -0.504 OA
ATOM     13  H   UNL     1      52.372  16.265  -6.691  1.00  0.00     0.293 HD
ENDBRANCH   4  12
BRANCH   6  14
ATOM     14  O   UNL     1      52.550  13.988  -5.331  1.00  0.00    -0.504 OA
ATOM     15  H   UNL     1      53.366  14.252  -4.792  1.00  0.00     0.293 HD
ENDBRANCH   6  14
TORSDOF 4
ENDMDL
