MODEL 1
REMARK VINA RESULT:    -4.307      0.000      0.000
REMARK INTER + INTRA:          -9.694
REMARK INTER:                  -8.083
REMARK INTRA:                  -1.611
REMARK UNBOUND:                -1.611
REMARK SMILES CCCCCCCCC=CCCCCCCCC(=O)[O-]
REMARK SMILES IDX 10 1 9 2 11 3 12 4 13 5 14 6 15 7 16 8 17 9 18 10 19 11
REMARK SMILES IDX 20 12 8 13 7 14 6 15 5 16 4 17 3 18 2 19 1 20
REMARK H PARENT
REMARK Flexibility Score: inf
ROOT
ATOM      1  C   UNL     1      15.054  -5.788  -0.252  1.00  0.00    -0.031 C 
ATOM      2  C   UNL     1      14.224  -5.695  -1.302  1.00  0.00    -0.031 C 
ENDROOT
BRANCH   1   3
ATOM      3  C   UNL     1      14.645  -5.320   1.117  1.00  0.00     0.027 C 
BRANCH   3   4
ATOM      4  C   UNL     1      14.593  -3.789   1.186  1.00  0.00     0.004 C 
BRANCH   4   5
ATOM      5  C   UNL     1      14.107  -3.318   2.564  1.00  0.00     0.000 C 
BRANCH   5   6
ATOM      6  C   UNL     1      14.749  -1.991   3.004  1.00  0.00     0.000 C 
BRANCH   6   7
ATOM      7  C   UNL     1      14.132  -1.352   4.265  1.00  0.00     0.000 C 
BRANCH   7   8
ATOM      8  C   UNL     1      15.099  -0.491   5.098  1.00  0.00     0.006 C 
BRANCH   8   9
ATOM      9  C   UNL     1      14.445   0.786   5.638  1.00  0.00     0.053 C 
BRANCH   9  10
ATOM     10  C   UNL     1      15.327   1.433   6.659  1.00  0.00     0.041 C 
ATOM     11  O   UNL     1      15.614   2.655   6.566  1.00  0.00    -0.550 OA
ATOM     12  O   UNL     1      15.871   0.675   7.688  1.00  0.00    -0.550 OA
ENDBRANCH   9  10
ENDBRANCH   8   9
ENDBRANCH   7   8
ENDBRANCH   6   7
ENDBRANCH   5   6
ENDBRANCH   4   5
ENDBRANCH   3   4
ENDBRANCH   1   3
BRANCH   2  13
ATOM     13  C   UNL     1      14.625  -6.175  -2.672  1.00  0.00     0.027 C 
BRANCH  13  14
ATOM     14  C   UNL     1      14.099  -5.265  -3.797  1.00  0.00     0.004 C 
BRANCH  14  15
ATOM     15  C   UNL     1      14.346  -3.762  -3.565  1.00  0.00     0.000 C 
BRANCH  15  16
ATOM     16  C   UNL     1      15.355  -3.165  -4.560  1.00  0.00     0.000 C 
BRANCH  16  17
ATOM     17  C   UNL     1      16.718  -2.852  -3.915  1.00  0.00    -0.000 C 
BRANCH  17  18
ATOM     18  C   UNL     1      16.782  -3.047  -2.390  1.00  0.00    -0.000 C 
BRANCH  18  19
ATOM     19  C   UNL     1      17.743  -4.168  -1.968  1.00  0.00    -0.003 C 
ATOM     20  C   UNL     1      18.115  -5.048  -3.158  1.00  0.00     0.004 C 
ENDBRANCH  18  19
ENDBRANCH  17  18
ENDBRANCH  16  17
ENDBRANCH  15  16
ENDBRANCH  14  15
ENDBRANCH  13  14
ENDBRANCH   2  13
TORSDOF 15
ENDMDL
MODEL 2
REMARK VINA RESULT:    -4.092      1.677      3.393
REMARK INTER + INTRA:          -9.291
REMARK INTER:                  -8.157
REMARK INTRA:                  -1.134
REMARK UNBOUND:                -1.611
REMARK SMILES CCCCCCCCC=CCCCCCCCC(=O)[O-]
REMARK SMILES IDX 10 1 9 2 11 3 12 4 13 5 14 6 15 7 16 8 17 9 18 10 19 11
REMARK SMILES IDX 20 12 8 13 7 14 6 15 5 16 4 17 3 18 2 19 1 20
REMARK H PARENT
REMARK Flexibility Score: inf
ROOT
ATOM      1  C   UNL     1      14.628  -2.986   2.128  1.00  0.00    -0.031 C 
ATOM      2  C   UNL     1      14.430  -4.205   1.603  1.00  0.00    -0.031 C 
ENDROOT
BRANCH   1   3
ATOM      3  C   UNL     1      13.902  -2.537   3.365  1.00  0.00     0.027 C 
BRANCH   3   4
ATOM      4  C   UNL     1      14.604  -1.339   4.015  1.00  0.00     0.004 C 
BRANCH   4   5
ATOM      5  C   UNL     1      14.035  -1.061   5.414  1.00  0.00     0.000 C 
BRANCH   5   6
ATOM      6  C   UNL     1      14.039   0.435   5.775  1.00  0.00     0.000 C 
BRANCH   6   7
ATOM      7  C   UNL     1      15.196   0.885   6.690  1.00  0.00     0.000 C 
BRANCH   7   8
ATOM      8  C   UNL     1      16.362   1.586   5.969  1.00  0.00     0.006 C 
BRANCH   8   9
ATOM      9  C   UNL     1      16.544   3.043   6.409  1.00  0.00     0.053 C 
BRANCH   9  10
ATOM     10  C   UNL     1      16.100   3.975   5.325  1.00  0.00     0.041 C 
ATOM     11  O   UNL     1      16.598   5.128   5.238  1.00  0.00    -0.550 OA
ATOM     12  O   UNL     1      15.103   3.587   4.440  1.00  0.00    -0.550 OA
ENDBRANCH   9  10
ENDBRANCH   8   9
ENDBRANCH   7   8
ENDBRANCH   6   7
ENDBRANCH   5   6
ENDBRANCH   4   5
ENDBRANCH   3   4
ENDBRANCH   1   3
BRANCH   2  13
ATOM     13  C   UNL     1      15.164  -4.665   0.372  1.00  0.00     0.027 C 
BRANCH  13  14
ATOM     14  C   UNL     1      14.999  -3.698  -0.814  1.00  0.00     0.004 C 
BRANCH  14  15
ATOM     15  C   UNL     1      16.325  -3.225  -1.437  1.00  0.00     0.000 C 
BRANCH  15  16
ATOM     16  C   UNL     1      17.358  -4.357  -1.569  1.00  0.00     0.000 C 
BRANCH  16  17
ATOM     17  C   UNL     1      17.684  -4.703  -3.033  1.00  0.00    -0.000 C 
BRANCH  17  18
ATOM     18  C   UNL     1      17.258  -6.111  -3.485  1.00  0.00    -0.000 C 
BRANCH  18  19
ATOM     19  C   UNL     1      15.757  -6.374  -3.296  1.00  0.00    -0.003 C 
ATOM     20  C   UNL     1      14.922  -5.461  -4.190  1.00  0.00     0.004 C 
ENDBRANCH  18  19
ENDBRANCH  17  18
ENDBRANCH  16  17
ENDBRANCH  15  16
ENDBRANCH  14  15
ENDBRANCH  13  14
ENDBRANCH   2  13
TORSDOF 15
ENDMDL
MODEL 3
REMARK VINA RESULT:    -4.043      4.682      8.213
REMARK INTER + INTRA:          -9.199
REMARK INTER:                  -8.053
REMARK INTRA:                  -1.147
REMARK UNBOUND:                -1.611
REMARK SMILES CCCCCCCCC=CCCCCCCCC(=O)[O-]
REMARK SMILES IDX 10 1 9 2 11 3 12 4 13 5 14 6 15 7 16 8 17 9 18 10 19 11
REMARK SMILES IDX 20 12 8 13 7 14 6 15 5 16 4 17 3 18 2 19 1 20
REMARK H PARENT
REMARK Flexibility Score: inf
ROOT
ATOM      1  C   UNL     1      17.453  -2.663  -3.331  1.00  0.00    -0.031 C 
ATOM      2  C   UNL     1      17.042  -3.862  -2.893  1.00  0.00    -0.031 C 
ENDROOT
BRANCH   1   3
ATOM      3  C   UNL     1      17.128  -2.179  -4.716  1.00  0.00     0.027 C 
BRANCH   3   4
ATOM      4  C   UNL     1      17.876  -0.880  -5.039  1.00  0.00     0.004 C 
BRANCH   4   5
ATOM      5  C   UNL     1      19.343  -0.967  -4.596  1.00  0.00     0.000 C 
BRANCH   5   6
ATOM      6  C   UNL     1      20.318  -1.121  -5.776  1.00  0.00     0.000 C 
BRANCH   6   7
ATOM      7  C   UNL     1      21.303   0.050  -5.970  1.00  0.00     0.000 C 
BRANCH   7   8
ATOM      8  C   UNL     1      21.195   1.172  -4.921  1.00  0.00     0.006 C 
BRANCH   8   9
ATOM      9  C   UNL     1      22.178   0.997  -3.758  1.00  0.00     0.053 C 
BRANCH   9  10
ATOM     10  C   UNL     1      21.661   1.680  -2.531  1.00  0.00     0.041 C 
ATOM     11  O   UNL     1      21.648   1.074  -1.427  1.00  0.00    -0.550 OA
ATOM     12  O   UNL     1      21.149   2.968  -2.616  1.00  0.00    -0.550 OA
ENDBRANCH   9  10
ENDBRANCH   8   9
ENDBRANCH   7   8
ENDBRANCH   6   7
ENDBRANCH   5   6
ENDBRANCH   4   5
ENDBRANCH   3   4
ENDBRANCH   1   3
BRANCH   2  13
ATOM     13  C   UNL     1      17.352  -4.346  -1.501  1.00  0.00     0.027 C 
BRANCH  13  14
ATOM     14  C   UNL     1      16.091  -4.509  -0.633  1.00  0.00     0.004 C 
BRANCH  14  15
ATOM     15  C   UNL     1      14.769  -4.270  -1.385  1.00  0.00     0.000 C 
BRANCH  15  16
ATOM     16  C   UNL     1      14.074  -2.964  -0.967  1.00  0.00     0.000 C 
BRANCH  16  17
ATOM     17  C   UNL     1      14.890  -2.152   0.055  1.00  0.00    -0.000 C 
BRANCH  17  18
ATOM     18  C   UNL     1      14.162  -1.834   1.373  1.00  0.00    -0.000 C 
BRANCH  18  19
ATOM     19  C   UNL     1      14.962  -2.250   2.616  1.00  0.00    -0.003 C 
ATOM     20  C   UNL     1      14.210  -1.897   3.896  1.00  0.00     0.004 C 
ENDBRANCH  18  19
ENDBRANCH  17  18
ENDBRANCH  16  17
ENDBRANCH  15  16
ENDBRANCH  14  15
ENDBRANCH  13  14
ENDBRANCH   2  13
TORSDOF 15
ENDMDL
MODEL 4
REMARK VINA RESULT:    -4.041      6.040      8.356
REMARK INTER + INTRA:          -9.196
REMARK INTER:                  -8.107
REMARK INTRA:                  -1.089
REMARK UNBOUND:                -1.611
REMARK SMILES CCCCCCCCC=CCCCCCCCC(=O)[O-]
REMARK SMILES IDX 10 1 9 2 11 3 12 4 13 5 14 6 15 7 16 8 17 9 18 10 19 11
REMARK SMILES IDX 20 12 8 13 7 14 6 15 5 16 4 17 3 18 2 19 1 20
REMARK H PARENT
REMARK Flexibility Score: inf
ROOT
ATOM      1  C   UNL     1      19.601  -0.000  -5.076  1.00  0.00    -0.031 C 
ATOM      2  C   UNL     1      18.819  -1.003  -5.501  1.00  0.00    -0.031 C 
ENDROOT
BRANCH   1   3
ATOM      3  C   UNL     1      21.074   0.029  -5.375  1.00  0.00     0.027 C 
BRANCH   3   4
ATOM      4  C   UNL     1      21.732   1.287  -4.797  1.00  0.00     0.004 C 
BRANCH   4   5
ATOM      5  C   UNL     1      22.511   0.961  -3.515  1.00  0.00     0.000 C 
BRANCH   5   6
ATOM      6  C   UNL     1      21.852   1.540  -2.251  1.00  0.00     0.000 C 
BRANCH   6   7
ATOM      7  C   UNL     1      21.099   2.870  -2.456  1.00  0.00     0.000 C 
BRANCH   7   8
ATOM      8  C   UNL     1      21.888   4.133  -2.065  1.00  0.00     0.006 C 
BRANCH   8   9
ATOM      9  C   UNL     1      21.142   5.429  -2.402  1.00  0.00     0.053 C 
BRANCH   9  10
ATOM     10  C   UNL     1      20.952   6.258  -1.171  1.00  0.00     0.041 C 
ATOM     11  O   UNL     1      21.949   6.741  -0.572  1.00  0.00    -0.550 OA
ATOM     12  O   UNL     1      19.677   6.456  -0.657  1.00  0.00    -0.550 OA
ENDBRANCH   9  10
ENDBRANCH   8   9
ENDBRANCH   7   8
ENDBRANCH   6   7
ENDBRANCH   5   6
ENDBRANCH   4   5
ENDBRANCH   3   4
ENDBRANCH   1   3
BRANCH   2  13
ATOM     13  C   UNL     1      17.341  -1.030  -5.216  1.00  0.00     0.027 C 
BRANCH  13  14
ATOM     14  C   UNL     1      16.876  -2.370  -4.617  1.00  0.00     0.004 C 
BRANCH  14  15
ATOM     15  C   UNL     1      17.600  -2.770  -3.318  1.00  0.00     0.000 C 
BRANCH  15  16
ATOM     16  C   UNL     1      18.013  -4.251  -3.299  1.00  0.00     0.000 C 
BRANCH  16  17
ATOM     17  C   UNL     1      17.168  -5.097  -2.329  1.00  0.00    -0.000 C 
BRANCH  17  18
ATOM     18  C   UNL     1      17.176  -4.620  -0.865  1.00  0.00    -0.000 C 
BRANCH  18  19
ATOM     19  C   UNL     1      15.772  -4.559  -0.247  1.00  0.00    -0.003 C 
ATOM     20  C   UNL     1      14.746  -4.059  -1.261  1.00  0.00     0.004 C 
ENDBRANCH  18  19
ENDBRANCH  17  18
ENDBRANCH  16  17
ENDBRANCH  15  16
ENDBRANCH  14  15
ENDBRANCH  13  14
ENDBRANCH   2  13
TORSDOF 15
ENDMDL
MODEL 5
REMARK VINA RESULT:    -4.010      5.355      8.223
REMARK INTER + INTRA:          -9.138
REMARK INTER:                  -7.729
REMARK INTRA:                  -1.409
REMARK UNBOUND:                -1.611
REMARK SMILES CCCCCCCCC=CCCCCCCCC(=O)[O-]
REMARK SMILES IDX 10 1 9 2 11 3 12 4 13 5 14 6 15 7 16 8 17 9 18 10 19 11
REMARK SMILES IDX 20 12 8 13 7 14 6 15 5 16 4 17 3 18 2 19 1 20
REMARK H PARENT
REMARK Flexibility Score: inf
ROOT
ATOM      1  C   UNL     1      17.469  -1.719  -5.026  1.00  0.00    -0.031 C 
ATOM      2  C   UNL     1      17.993  -2.172  -3.877  1.00  0.00    -0.031 C 
ENDROOT
BRANCH   1   3
ATOM      3  C   UNL     1      18.290  -0.927  -6.005  1.00  0.00     0.027 C 
BRANCH   3   4
ATOM      4  C   UNL     1      19.776  -0.952  -5.629  1.00  0.00     0.004 C 
BRANCH   4   5
ATOM      5  C   UNL     1      20.430   0.414  -5.884  1.00  0.00     0.000 C 
BRANCH   5   6
ATOM      6  C   UNL     1      20.404   1.329  -4.648  1.00  0.00     0.000 C 
BRANCH   6   7
ATOM      7  C   UNL     1      21.548   1.100  -3.639  1.00  0.00     0.000 C 
BRANCH   7   8
ATOM      8  C   UNL     1      22.143   2.380  -3.026  1.00  0.00     0.006 C 
BRANCH   8   9
ATOM      9  C   UNL     1      21.154   3.122  -2.120  1.00  0.00     0.053 C 
BRANCH   9  10
ATOM     10  C   UNL     1      20.968   4.530  -2.593  1.00  0.00     0.041 C 
ATOM     11  O   UNL     1      20.729   5.449  -1.766  1.00  0.00    -0.550 OA
ATOM     12  O   UNL     1      21.011   4.818  -3.951  1.00  0.00    -0.550 OA
ENDBRANCH   9  10
ENDBRANCH   8   9
ENDBRANCH   7   8
ENDBRANCH   6   7
ENDBRANCH   5   6
ENDBRANCH   4   5
ENDBRANCH   3   4
ENDBRANCH   1   3
BRANCH   2  13
ATOM     13  C   UNL     1      17.179  -2.977  -2.899  1.00  0.00     0.027 C 
BRANCH  13  14
ATOM     14  C   UNL     1      17.863  -4.298  -2.503  1.00  0.00     0.004 C 
BRANCH  14  15
ATOM     15  C   UNL     1      17.354  -5.531  -3.272  1.00  0.00     0.000 C 
BRANCH  15  16
ATOM     16  C   UNL     1      15.862  -5.434  -3.632  1.00  0.00     0.000 C 
BRANCH  16  17
ATOM     17  C   UNL     1      14.954  -6.164  -2.627  1.00  0.00    -0.000 C 
BRANCH  17  18
ATOM     18  C   UNL     1      14.416  -5.295  -1.476  1.00  0.00    -0.000 C 
BRANCH  18  19
ATOM     19  C   UNL     1      15.074  -5.615  -0.125  1.00  0.00    -0.003 C 
ATOM     20  C   UNL     1      15.326  -4.342   0.678  1.00  0.00     0.004 C 
ENDBRANCH  18  19
ENDBRANCH  17  18
ENDBRANCH  16  17
ENDBRANCH  15  16
ENDBRANCH  14  15
ENDBRANCH  13  14
ENDBRANCH   2  13
TORSDOF 15
ENDMDL
MODEL 6
REMARK VINA RESULT:    -3.938      4.537      8.045
REMARK INTER + INTRA:          -9.003
REMARK INTER:                  -8.052
REMARK INTRA:                  -0.952
REMARK UNBOUND:                -1.611
REMARK SMILES CCCCCCCCC=CCCCCCCCC(=O)[O-]
REMARK SMILES IDX 10 1 9 2 11 3 12 4 13 5 14 6 15 7 16 8 17 9 18 10 19 11
REMARK SMILES IDX 20 12 8 13 7 14 6 15 5 16 4 17 3 18 2 19 1 20
REMARK H PARENT
REMARK Flexibility Score: inf
ROOT
ATOM      1  C   UNL     1      15.568  -2.718  -4.995  1.00  0.00    -0.031 C 
ATOM      2  C   UNL     1      14.625  -3.664  -5.118  1.00  0.00    -0.031 C 
ENDROOT
BRANCH   1   3
ATOM      3  C   UNL     1      15.827  -1.720  -6.090  1.00  0.00     0.027 C 
BRANCH   3   4
ATOM      4  C   UNL     1      17.045  -0.847  -5.767  1.00  0.00     0.004 C 
BRANCH   4   5
ATOM      5  C   UNL     1      18.033  -1.596  -4.862  1.00  0.00     0.000 C 
BRANCH   5   6
ATOM      6  C   UNL     1      19.502  -1.262  -5.176  1.00  0.00     0.000 C 
BRANCH   6   7
ATOM      7  C   UNL     1      19.745   0.151  -5.746  1.00  0.00     0.000 C 
BRANCH   7   8
ATOM      8  C   UNL     1      20.315   1.170  -4.742  1.00  0.00     0.006 C 
BRANCH   8   9
ATOM      9  C   UNL     1      21.488   0.613  -3.928  1.00  0.00     0.053 C 
BRANCH   9  10
ATOM     10  C   UNL     1      21.796   1.512  -2.772  1.00  0.00     0.041 C 
ATOM     11  O   UNL     1      21.606   1.115  -1.593  1.00  0.00    -0.550 OA
ATOM     12  O   UNL     1      22.247   2.806  -2.999  1.00  0.00    -0.550 OA
ENDBRANCH   9  10
ENDBRANCH   8   9
ENDBRANCH   7   8
ENDBRANCH   6   7
ENDBRANCH   5   6
ENDBRANCH   4   5
ENDBRANCH   3   4
ENDBRANCH   1   3
BRANCH   2  13
ATOM     13  C   UNL     1      14.353  -4.657  -4.020  1.00  0.00     0.027 C 
BRANCH  13  14
ATOM     14  C   UNL     1      14.774  -4.139  -2.633  1.00  0.00     0.004 C 
BRANCH  14  15
ATOM     15  C   UNL     1      16.160  -4.625  -2.168  1.00  0.00     0.000 C 
BRANCH  15  16
ATOM     16  C   UNL     1      16.198  -4.970  -0.670  1.00  0.00     0.000 C 
BRANCH  16  17
ATOM     17  C   UNL     1      14.806  -4.947  -0.014  1.00  0.00    -0.000 C 
BRANCH  17  18
ATOM     18  C   UNL     1      14.797  -5.125   1.515  1.00  0.00    -0.000 C 
BRANCH  18  19
ATOM     19  C   UNL     1      14.142  -3.948   2.252  1.00  0.00    -0.003 C 
ATOM     20  C   UNL     1      15.020  -2.702   2.187  1.00  0.00     0.004 C 
ENDBRANCH  18  19
ENDBRANCH  17  18
ENDBRANCH  16  17
ENDBRANCH  15  16
ENDBRANCH  14  15
ENDBRANCH  13  14
ENDBRANCH   2  13
TORSDOF 15
ENDMDL
MODEL 7
REMARK VINA RESULT:    -3.912      5.756      8.815
REMARK INTER + INTRA:          -8.953
REMARK INTER:                  -7.672
REMARK INTRA:                  -1.281
REMARK UNBOUND:                -1.611
REMARK SMILES CCCCCCCCC=CCCCCCCCC(=O)[O-]
REMARK SMILES IDX 10 1 9 2 11 3 12 4 13 5 14 6 15 7 16 8 17 9 18 10 19 11
REMARK SMILES IDX 20 12 8 13 7 14 6 15 5 16 4 17 3 18 2 19 1 20
REMARK H PARENT
REMARK Flexibility Score: inf
ROOT
ATOM      1  C   UNL     1      17.978  -1.457  -4.618  1.00  0.00    -0.031 C 
ATOM      2  C   UNL     1      19.118  -1.836  -5.214  1.00  0.00    -0.031 C 
ENDROOT
BRANCH   1   3
ATOM      3  C   UNL     1      16.798  -2.383  -4.518  1.00  0.00     0.027 C 
BRANCH   3   4
ATOM      4  C   UNL     1      15.786  -2.113  -5.638  1.00  0.00     0.004 C 
BRANCH   4   5
ATOM      5  C   UNL     1      14.673  -3.171  -5.639  1.00  0.00     0.000 C 
BRANCH   5   6
ATOM      6  C   UNL     1      14.574  -3.936  -4.308  1.00  0.00     0.000 C 
BRANCH   6   7
ATOM      7  C   UNL     1      14.707  -5.469  -4.422  1.00  0.00     0.000 C 
BRANCH   7   8
ATOM      8  C   UNL     1      15.419  -6.151  -3.239  1.00  0.00     0.006 C 
BRANCH   8   9
ATOM      9  C   UNL     1      15.440  -5.284  -1.976  1.00  0.00     0.053 C 
BRANCH   9  10
ATOM     10  C   UNL     1      16.848  -5.046  -1.529  1.00  0.00     0.041 C 
ATOM     11  O   UNL     1      17.100  -4.828  -0.315  1.00  0.00    -0.550 OA
ATOM     12  O   UNL     1      17.877  -5.015  -2.462  1.00  0.00    -0.550 OA
ENDBRANCH   9  10
ENDBRANCH   8   9
ENDBRANCH   7   8
ENDBRANCH   6   7
ENDBRANCH   5   6
ENDBRANCH   4   5
ENDBRANCH   3   4
ENDBRANCH   1   3
BRANCH   2  13
ATOM     13  C   UNL     1      20.307  -0.917  -5.305  1.00  0.00     0.027 C 
BRANCH  13  14
ATOM     14  C   UNL     1      19.955   0.545  -4.974  1.00  0.00     0.004 C 
BRANCH  14  15
ATOM     15  C   UNL     1      21.177   1.463  -4.780  1.00  0.00     0.000 C 
BRANCH  15  16
ATOM     16  C   UNL     1      22.173   0.917  -3.743  1.00  0.00     0.000 C 
BRANCH  16  17
ATOM     17  C   UNL     1      22.286   1.809  -2.493  1.00  0.00    -0.000 C 
BRANCH  17  18
ATOM     18  C   UNL     1      21.166   2.853  -2.329  1.00  0.00    -0.000 C 
BRANCH  18  19
ATOM     19  C   UNL     1      21.700   4.278  -2.125  1.00  0.00    -0.003 C 
ATOM     20  C   UNL     1      22.825   4.589  -3.109  1.00  0.00     0.004 C 
ENDBRANCH  18  19
ENDBRANCH  17  18
ENDBRANCH  16  17
ENDBRANCH  15  16
ENDBRANCH  14  15
ENDBRANCH  13  14
ENDBRANCH   2  13
TORSDOF 15
ENDMDL
MODEL 8
REMARK VINA RESULT:    -3.857      5.932      8.488
REMARK INTER + INTRA:          -8.851
REMARK INTER:                  -8.136
REMARK INTRA:                  -0.715
REMARK UNBOUND:                -1.611
REMARK SMILES CCCCCCCCC=CCCCCCCCC(=O)[O-]
REMARK SMILES IDX 10 1 9 2 11 3 12 4 13 5 14 6 15 7 16 8 17 9 18 10 19 11
REMARK SMILES IDX 20 12 8 13 7 14 6 15 5 16 4 17 3 18 2 19 1 20
REMARK H PARENT
REMARK Flexibility Score: inf
ROOT
ATOM      1  C   UNL     1      19.170  -1.325  -4.936  1.00  0.00    -0.031 C 
ATOM      2  C   UNL     1      17.895  -1.592  -4.616  1.00  0.00    -0.031 C 
ENDROOT
BRANCH   1   3
ATOM      3  C   UNL     1      19.521  -0.263  -5.940  1.00  0.00     0.027 C 
BRANCH   3   4
ATOM      4  C   UNL     1      20.140   0.962  -5.257  1.00  0.00     0.004 C 
BRANCH   4   5
ATOM      5  C   UNL     1      21.306   0.553  -4.346  1.00  0.00     0.000 C 
BRANCH   5   6
ATOM      6  C   UNL     1      21.828   1.716  -3.484  1.00  0.00     0.000 C 
BRANCH   6   7
ATOM      7  C   UNL     1      20.995   3.012  -3.558  1.00  0.00     0.000 C 
BRANCH   7   8
ATOM      8  C   UNL     1      20.964   3.842  -2.262  1.00  0.00     0.006 C 
BRANCH   8   9
ATOM      9  C   UNL     1      22.109   4.858  -2.178  1.00  0.00     0.053 C 
BRANCH   9  10
ATOM     10  C   UNL     1      21.593   6.192  -1.742  1.00  0.00     0.041 C 
ATOM     11  O   UNL     1      21.850   6.625  -0.588  1.00  0.00    -0.550 OA
ATOM     12  O   UNL     1      20.786   6.937  -2.592  1.00  0.00    -0.550 OA
ENDBRANCH   9  10
ENDBRANCH   8   9
ENDBRANCH   7   8
ENDBRANCH   6   7
ENDBRANCH   5   6
ENDBRANCH   4   5
ENDBRANCH   3   4
ENDBRANCH   1   3
BRANCH   2  13
ATOM     13  C   UNL     1      17.537  -2.645  -3.601  1.00  0.00     0.027 C 
BRANCH  13  14
ATOM     14  C   UNL     1      16.131  -3.230  -3.822  1.00  0.00     0.004 C 
BRANCH  14  15
ATOM     15  C   UNL     1      15.721  -4.303  -2.795  1.00  0.00     0.000 C 
BRANCH  15  16
ATOM     16  C   UNL     1      15.316  -3.703  -1.438  1.00  0.00     0.000 C 
BRANCH  16  17
ATOM     17  C   UNL     1      15.902  -4.476  -0.243  1.00  0.00    -0.000 C 
BRANCH  17  18
ATOM     18  C   UNL     1      15.148  -4.297   1.087  1.00  0.00    -0.000 C 
BRANCH  18  19
ATOM     19  C   UNL     1      14.513  -2.906   1.234  1.00  0.00    -0.003 C 
ATOM     20  C   UNL     1      15.023  -2.199   2.487  1.00  0.00     0.004 C 
ENDBRANCH  18  19
ENDBRANCH  17  18
ENDBRANCH  16  17
ENDBRANCH  15  16
ENDBRANCH  14  15
ENDBRANCH  13  14
ENDBRANCH   2  13
TORSDOF 15
ENDMDL
MODEL 9
REMARK VINA RESULT:    -3.809      4.857      6.616
REMARK INTER + INTRA:          -8.761
REMARK INTER:                  -7.539
REMARK INTRA:                  -1.222
REMARK UNBOUND:                -1.611
REMARK SMILES CCCCCCCCC=CCCCCCCCC(=O)[O-]
REMARK SMILES IDX 10 1 9 2 11 3 12 4 13 5 14 6 15 7 16 8 17 9 18 10 19 11
REMARK SMILES IDX 20 12 8 13 7 14 6 15 5 16 4 17 3 18 2 19 1 20
REMARK H PARENT
REMARK Flexibility Score: inf
ROOT
ATOM      1  C   UNL     1      17.420  -2.736  -3.435  1.00  0.00    -0.031 C 
ATOM      2  C   UNL     1      16.642  -2.237  -4.407  1.00  0.00    -0.031 C 
ENDROOT
BRANCH   1   3
ATOM      3  C   UNL     1      16.831  -3.363  -2.202  1.00  0.00     0.027 C 
BRANCH   3   4
ATOM      4  C   UNL     1      15.385  -3.811  -2.446  1.00  0.00     0.004 C 
BRANCH   4   5
ATOM      5  C   UNL     1      14.413  -3.051  -1.532  1.00  0.00     0.000 C 
BRANCH   5   6
ATOM      6  C   UNL     1      15.130  -2.237  -0.441  1.00  0.00     0.000 C 
BRANCH   6   7
ATOM      7  C   UNL     1      14.503  -2.329   0.965  1.00  0.00     0.000 C 
BRANCH   7   8
ATOM      8  C   UNL     1      15.118  -3.401   1.883  1.00  0.00     0.006 C 
BRANCH   8   9
ATOM      9  C   UNL     1      14.171  -4.579   2.142  1.00  0.00     0.053 C 
BRANCH   9  10
ATOM     10  C   UNL     1      14.702  -5.825   1.508  1.00  0.00     0.041 C 
ATOM     11  O   UNL     1      15.436  -5.754   0.487  1.00  0.00    -0.550 OA
ATOM     12  O   UNL     1      14.347  -7.068   2.014  1.00  0.00    -0.550 OA
ENDBRANCH   9  10
ENDBRANCH   8   9
ENDBRANCH   7   8
ENDBRANCH   6   7
ENDBRANCH   5   6
ENDBRANCH   4   5
ENDBRANCH   3   4
ENDBRANCH   1   3
BRANCH   2  13
ATOM     13  C   UNL     1      17.227  -1.620  -5.650  1.00  0.00     0.027 C 
BRANCH  13  14
ATOM     14  C   UNL     1      18.231  -0.495  -5.339  1.00  0.00     0.004 C 
BRANCH  14  15
ATOM     15  C   UNL     1      19.696  -0.846  -5.657  1.00  0.00     0.000 C 
BRANCH  15  16
ATOM     16  C   UNL     1      20.697  -0.060  -4.794  1.00  0.00     0.000 C 
BRANCH  16  17
ATOM     17  C   UNL     1      20.636   1.459  -5.037  1.00  0.00    -0.000 C 
BRANCH  17  18
ATOM     18  C   UNL     1      21.969   2.207  -4.856  1.00  0.00    -0.000 C 
BRANCH  18  19
ATOM     19  C   UNL     1      21.855   3.414  -3.913  1.00  0.00    -0.003 C 
ATOM     20  C   UNL     1      20.997   3.082  -2.696  1.00  0.00     0.004 C 
ENDBRANCH  18  19
ENDBRANCH  17  18
ENDBRANCH  16  17
ENDBRANCH  15  16
ENDBRANCH  14  15
ENDBRANCH  13  14
ENDBRANCH   2  13
TORSDOF 15
ENDMDL
