MODEL 1
REMARK VINA RESULT:    -6.905      0.000      0.000
REMARK INTER + INTRA:          -8.494
REMARK INTER:                  -8.318
REMARK INTRA:                  -0.176
REMARK UNBOUND:                -0.176
REMARK SMILES O=c1c(O)c(-c2ccc(O)c(O)c2)oc2cc(O)cc(O)c12
REMARK SMILES IDX 5 1 3 2 2 3 1 4 22 5 20 6 19 7 17 8 16 9 15 10 14 11 6 12
REMARK SMILES IDX 7 13 8 14 9 15 13 16 11 17 10 18 12 20 4 22 21 24 18 26
REMARK H PARENT 10 19 12 21 4 23 21 25 18 27
REMARK Flexibility Score: inf
ROOT
ATOM      1  C   UNL     1     128.297 115.725 101.798  1.00  0.00     0.180 A 
ATOM      2  C   UNL     1     128.198 114.488 101.137  1.00  0.00     0.208 A 
ATOM      3  C   UNL     1     129.339 113.956 100.516  1.00  0.00     0.238 A 
ATOM      4  O   UNL     1     129.257 112.824  99.973  1.00  0.00    -0.285 OA
ATOM      5  C   UNL     1     130.560 114.672 100.550  1.00  0.00     0.111 A 
ATOM      6  C   UNL     1     131.767 114.245  99.921  1.00  0.00     0.134 A 
ATOM      7  C   UNL     1     132.948 114.969 100.130  1.00  0.00     0.093 A 
ATOM      8  C   UNL     1     132.950 116.140 100.892  1.00  0.00     0.123 A 
ATOM      9  C   UNL     1     131.763 116.596 101.462  1.00  0.00     0.094 A 
ATOM     10  C   UNL     1     130.577 115.877 101.301  1.00  0.00     0.146 A 
ATOM     11  O   UNL     1     129.471 116.342 101.868  1.00  0.00    -0.452 OA
ENDROOT
BRANCH   1  12
ATOM     12  C   UNL     1     127.132 116.363 102.454  1.00  0.00     0.025 A 
ATOM     13  C   UNL     1     126.005 116.764 101.715  1.00  0.00     0.016 A 
ATOM     14  C   UNL     1     124.927 117.387 102.351  1.00  0.00     0.051 A 
ATOM     15  C   UNL     1     124.967 117.630 103.730  1.00  0.00     0.157 A 
ATOM     16  C   UNL     1     127.175 116.629 103.832  1.00  0.00     0.062 A 
ATOM     17  C   UNL     1     126.094 117.252 104.472  1.00  0.00     0.158 A 
BRANCH  15  18
ATOM     18  O   UNL     1     123.894 118.248 104.369  1.00  0.00    -0.504 OA
ATOM     19  H   UNL     1     123.492 119.108 104.017  1.00  0.00     0.293 HD
ENDBRANCH  15  18
BRANCH  17  20
ATOM     20  O   UNL     1     126.133 117.502 105.843  1.00  0.00    -0.504 OA
ATOM     21  H   UNL     1     125.284 117.600 106.388  1.00  0.00     0.293 HD
ENDBRANCH  17  20
ENDBRANCH   1  12
BRANCH   2  22
ATOM     22  O   UNL     1     126.989 113.789 101.133  1.00  0.00    -0.502 OA
ATOM     23  H   UNL     1     126.749 113.121 100.409  1.00  0.00     0.293 HD
ENDBRANCH   2  22
BRANCH   6  24
ATOM     24  O   UNL     1     131.855 113.143  99.065  1.00  0.00    -0.507 OA
ATOM     25  H   UNL     1     131.379 113.065  98.179  1.00  0.00     0.293 HD
ENDBRANCH   6  24
BRANCH   8  26
ATOM     26  O   UNL     1     134.125 116.862 101.083  1.00  0.00    -0.508 OA
ATOM     27  H   UNL     1     134.152 117.684 101.675  1.00  0.00     0.293 HD
ENDBRANCH   8  26
TORSDOF 6
ENDMDL
MODEL 2
REMARK VINA RESULT:    -6.727      4.530      7.296
REMARK INTER + INTRA:          -8.280
REMARK INTER:                  -8.548
REMARK INTRA:                   0.268
REMARK UNBOUND:                -0.176
REMARK SMILES O=c1c(O)c(-c2ccc(O)c(O)c2)oc2cc(O)cc(O)c12
REMARK SMILES IDX 5 1 3 2 2 3 1 4 22 5 20 6 19 7 17 8 16 9 15 10 14 11 6 12
REMARK SMILES IDX 7 13 8 14 9 15 13 16 11 17 10 18 12 20 4 22 21 24 18 26
REMARK H PARENT 10 19 12 21 4 23 21 25 18 27
REMARK Flexibility Score: inf
ROOT
ATOM      1  C   UNL     1     123.212 117.526 105.260  1.00  0.00     0.180 A 
ATOM      2  C   UNL     1     124.526 117.631 105.748  1.00  0.00     0.208 A 
ATOM      3  C   UNL     1     125.587 117.711 104.833  1.00  0.00     0.238 A 
ATOM      4  O   UNL     1     126.756 117.859 105.276  1.00  0.00    -0.285 OA
ATOM      5  C   UNL     1     125.324 117.670 103.442  1.00  0.00     0.111 A 
ATOM      6  C   UNL     1     126.326 117.703 102.427  1.00  0.00     0.134 A 
ATOM      7  C   UNL     1     125.944 117.788 101.083  1.00  0.00     0.093 A 
ATOM      8  C   UNL     1     124.596 117.775 100.714  1.00  0.00     0.123 A 
ATOM      9  C   UNL     1     123.612 117.683 101.696  1.00  0.00     0.094 A 
ATOM     10  C   UNL     1     123.961 117.632 103.047  1.00  0.00     0.146 A 
ATOM     11  O   UNL     1     122.992 117.555 103.951  1.00  0.00    -0.452 OA
ENDROOT
BRANCH   1  12
ATOM     12  C   UNL     1     122.042 117.413 106.163  1.00  0.00     0.025 A 
ATOM     13  C   UNL     1     122.157 116.834 107.439  1.00  0.00     0.016 A 
ATOM     14  C   UNL     1     121.035 116.714 108.264  1.00  0.00     0.051 A 
ATOM     15  C   UNL     1     119.783 117.158 107.821  1.00  0.00     0.157 A 
ATOM     16  C   UNL     1     120.781 117.836 105.717  1.00  0.00     0.062 A 
ATOM     17  C   UNL     1     119.654 117.719 106.544  1.00  0.00     0.158 A 
BRANCH  15  18
ATOM     18  O   UNL     1     118.662 117.043 108.642  1.00  0.00    -0.504 OA
ATOM     19  H   UNL     1     117.809 117.552 108.448  1.00  0.00     0.293 HD
ENDBRANCH  15  18
BRANCH  17  20
ATOM     20  O   UNL     1     118.406 118.153 106.104  1.00  0.00    -0.504 OA
ATOM     21  H   UNL     1     117.639 117.505 105.963  1.00  0.00     0.293 HD
ENDBRANCH  17  20
ENDBRANCH   1  12
BRANCH   2  22
ATOM     22  O   UNL     1     124.762 117.691 107.124  1.00  0.00    -0.502 OA
ATOM     23  H   UNL     1     124.028 117.893 107.793  1.00  0.00     0.293 HD
ENDBRANCH   2  22
BRANCH   6  24
ATOM     24  O   UNL     1     127.699 117.628 102.681  1.00  0.00    -0.507 OA
ATOM     25  H   UNL     1     128.248 118.368 103.092  1.00  0.00     0.293 HD
ENDBRANCH   6  24
BRANCH   8  26
ATOM     26  O   UNL     1     124.224 117.843  99.374  1.00  0.00    -0.508 OA
ATOM     27  H   UNL     1     123.791 118.674  98.986  1.00  0.00     0.293 HD
ENDBRANCH   8  26
TORSDOF 6
ENDMDL
MODEL 3
REMARK VINA RESULT:    -6.539      1.843      2.274
REMARK INTER + INTRA:          -8.053
REMARK INTER:                  -7.799
REMARK INTRA:                  -0.254
REMARK UNBOUND:                -0.176
REMARK SMILES O=c1c(O)c(-c2ccc(O)c(O)c2)oc2cc(O)cc(O)c12
REMARK SMILES IDX 5 1 3 2 2 3 1 4 22 5 20 6 19 7 17 8 16 9 15 10 14 11 6 12
REMARK SMILES IDX 7 13 8 14 9 15 13 16 11 17 10 18 12 20 4 22 21 24 18 26
REMARK H PARENT 10 19 12 21 4 23 21 25 18 27
REMARK Flexibility Score: inf
ROOT
ATOM      1  C   UNL     1     128.227 114.578 100.690  1.00  0.00     0.180 A 
ATOM      2  C   UNL     1     127.766 113.255 100.571  1.00  0.00     0.208 A 
ATOM      3  C   UNL     1     128.604 112.292  99.988  1.00  0.00     0.238 A 
ATOM      4  O   UNL     1     128.207 111.099  99.935  1.00  0.00    -0.285 OA
ATOM      5  C   UNL     1     129.887 112.665  99.518  1.00  0.00     0.111 A 
ATOM      6  C   UNL     1     130.802 111.780  98.875  1.00  0.00     0.134 A 
ATOM      7  C   UNL     1     132.094 112.227  98.568  1.00  0.00     0.093 A 
ATOM      8  C   UNL     1     132.479 113.546  98.821  1.00  0.00     0.123 A 
ATOM      9  C   UNL     1     131.572 114.433  99.394  1.00  0.00     0.094 A 
ATOM     10  C   UNL     1     130.289 114.007  99.745  1.00  0.00     0.146 A 
ATOM     11  O   UNL     1     129.459 114.883 100.298  1.00  0.00    -0.452 OA
ENDROOT
BRANCH   1  12
ATOM     12  C   UNL     1     127.391 115.655 101.270  1.00  0.00     0.025 A 
ATOM     13  C   UNL     1     126.282 116.173 100.578  1.00  0.00     0.016 A 
ATOM     14  C   UNL     1     125.522 117.206 101.134  1.00  0.00     0.051 A 
ATOM     15  C   UNL     1     125.868 117.744 102.380  1.00  0.00     0.157 A 
ATOM     16  C   UNL     1     127.745 116.213 102.509  1.00  0.00     0.062 A 
ATOM     17  C   UNL     1     126.982 117.248 103.068  1.00  0.00     0.158 A 
BRANCH  15  18
ATOM     18  O   UNL     1     125.112 118.773 102.939  1.00  0.00    -0.504 OA
ATOM     19  H   UNL     1     125.081 119.695 102.521  1.00  0.00     0.293 HD
ENDBRANCH  15  18
BRANCH  17  20
ATOM     20  O   UNL     1     127.327 117.791 104.305  1.00  0.00    -0.504 OA
ATOM     21  H   UNL     1     128.088 117.410 104.856  1.00  0.00     0.293 HD
ENDBRANCH  17  20
ENDBRANCH   1  12
BRANCH   2  22
ATOM     22  O   UNL     1     126.505 112.904 101.061  1.00  0.00    -0.502 OA
ATOM     23  H   UNL     1     125.990 112.104 100.714  1.00  0.00     0.293 HD
ENDBRANCH   2  22
BRANCH   6  24
ATOM     24  O   UNL     1     130.489 110.472  98.494  1.00  0.00    -0.507 OA
ATOM     25  H   UNL     1     129.557 110.083  98.487  1.00  0.00     0.293 HD
ENDBRANCH   6  24
BRANCH   8  26
ATOM     26  O   UNL     1     133.760 113.986  98.498  1.00  0.00    -0.508 OA
ATOM     27  H   UNL     1     134.266 114.629  99.097  1.00  0.00     0.293 HD
ENDBRANCH   8  26
TORSDOF 6
ENDMDL
MODEL 4
REMARK VINA RESULT:    -6.382      4.471      7.442
REMARK INTER + INTRA:          -7.864
REMARK INTER:                  -7.549
REMARK INTRA:                  -0.315
REMARK UNBOUND:                -0.176
REMARK SMILES O=c1c(O)c(-c2ccc(O)c(O)c2)oc2cc(O)cc(O)c12
REMARK SMILES IDX 5 1 3 2 2 3 1 4 22 5 20 6 19 7 17 8 16 9 15 10 14 11 6 12
REMARK SMILES IDX 7 13 8 14 9 15 13 16 11 17 10 18 12 20 4 22 21 24 18 26
REMARK H PARENT 10 19 12 21 4 23 21 25 18 27
REMARK Flexibility Score: inf
ROOT
ATOM      1  C   UNL     1     123.922 117.117 101.321  1.00  0.00     0.180 A 
ATOM      2  C   UNL     1     125.320 116.969 101.284  1.00  0.00     0.208 A 
ATOM      3  C   UNL     1     126.051 117.120 102.471  1.00  0.00     0.238 A 
ATOM      4  O   UNL     1     127.296 116.933 102.442  1.00  0.00    -0.285 OA
ATOM      5  C   UNL     1     125.380 117.430 103.679  1.00  0.00     0.111 A 
ATOM      6  C   UNL     1     126.027 117.643 104.933  1.00  0.00     0.134 A 
ATOM      7  C   UNL     1     125.254 117.815 106.088  1.00  0.00     0.093 A 
ATOM      8  C   UNL     1     123.858 117.848 106.023  1.00  0.00     0.123 A 
ATOM      9  C   UNL     1     123.220 117.699 104.793  1.00  0.00     0.094 A 
ATOM     10  C   UNL     1     123.963 117.490 103.629  1.00  0.00     0.146 A 
ATOM     11  O   UNL     1     123.315 117.344 102.481  1.00  0.00    -0.452 OA
ENDROOT
BRANCH   1  12
ATOM     12  C   UNL     1     123.084 116.998 100.105  1.00  0.00     0.025 A 
ATOM     13  C   UNL     1     122.485 115.778  99.746  1.00  0.00     0.016 A 
ATOM     14  C   UNL     1     121.718 115.682  98.581  1.00  0.00     0.051 A 
ATOM     15  C   UNL     1     121.551 116.800  97.753  1.00  0.00     0.157 A 
ATOM     16  C   UNL     1     122.930 118.108  99.260  1.00  0.00     0.062 A 
ATOM     17  C   UNL     1     122.160 118.015  98.092  1.00  0.00     0.158 A 
BRANCH  15  18
ATOM     18  O   UNL     1     120.786 116.709  96.592  1.00  0.00    -0.504 OA
ATOM     19  H   UNL     1     120.132 115.950  96.446  1.00  0.00     0.293 HD
ENDBRANCH  15  18
BRANCH  17  20
ATOM     20  O   UNL     1     121.998 119.122  97.262  1.00  0.00    -0.504 OA
ATOM     21  H   UNL     1     122.462 119.183  96.363  1.00  0.00     0.293 HD
ENDBRANCH  17  20
ENDBRANCH   1  12
BRANCH   2  22
ATOM     22  O   UNL     1     125.959 116.643 100.085  1.00  0.00    -0.502 OA
ATOM     23  H   UNL     1     126.556 117.296  99.591  1.00  0.00     0.293 HD
ENDBRANCH   2  22
BRANCH   6  24
ATOM     24  O   UNL     1     127.413 117.722 105.094  1.00  0.00    -0.507 OA
ATOM     25  H   UNL     1     128.076 117.810 104.338  1.00  0.00     0.293 HD
ENDBRANCH   6  24
BRANCH   8  26
ATOM     26  O   UNL     1     123.097 118.035 107.173  1.00  0.00    -0.508 OA
ATOM     27  H   UNL     1     123.335 118.745 107.856  1.00  0.00     0.293 HD
ENDBRANCH   8  26
TORSDOF 6
ENDMDL
MODEL 5
REMARK VINA RESULT:    -6.310      8.296     13.239
REMARK INTER + INTRA:          -7.777
REMARK INTER:                  -7.693
REMARK INTRA:                  -0.084
REMARK UNBOUND:                -0.176
REMARK SMILES O=c1c(O)c(-c2ccc(O)c(O)c2)oc2cc(O)cc(O)c12
REMARK SMILES IDX 5 1 3 2 2 3 1 4 22 5 20 6 19 7 17 8 16 9 15 10 14 11 6 12
REMARK SMILES IDX 7 13 8 14 9 15 13 16 11 17 10 18 12 20 4 22 21 24 18 26
REMARK H PARENT 10 19 12 21 4 23 21 25 18 27
REMARK Flexibility Score: inf
ROOT
ATOM      1  C   UNL     1     119.119 116.333 107.562  1.00  0.00     0.180 A 
ATOM      2  C   UNL     1     117.971 117.131 107.713  1.00  0.00     0.208 A 
ATOM      3  C   UNL     1     116.767 116.524 108.100  1.00  0.00     0.238 A 
ATOM      4  O   UNL     1     115.756 117.251 108.286  1.00  0.00    -0.285 OA
ATOM      5  C   UNL     1     116.719 115.125 108.318  1.00  0.00     0.111 A 
ATOM      6  C   UNL     1     115.543 114.401 108.674  1.00  0.00     0.134 A 
ATOM      7  C   UNL     1     115.641 113.040 108.991  1.00  0.00     0.093 A 
ATOM      8  C   UNL     1     116.860 112.364 108.901  1.00  0.00     0.123 A 
ATOM      9  C   UNL     1     118.003 113.051 108.496  1.00  0.00     0.094 A 
ATOM     10  C   UNL     1     117.944 114.417 108.208  1.00  0.00     0.146 A 
ATOM     11  O   UNL     1     119.058 115.035 107.836  1.00  0.00    -0.452 OA
ENDROOT
BRANCH   1  12
ATOM     12  C   UNL     1     120.420 116.897 107.132  1.00  0.00     0.025 A 
ATOM     13  C   UNL     1     120.539 117.636 105.942  1.00  0.00     0.016 A 
ATOM     14  C   UNL     1     121.781 118.137 105.542  1.00  0.00     0.051 A 
ATOM     15  C   UNL     1     122.922 117.895 106.319  1.00  0.00     0.157 A 
ATOM     16  C   UNL     1     121.570 116.639 107.894  1.00  0.00     0.062 A 
ATOM     17  C   UNL     1     122.817 117.143 107.496  1.00  0.00     0.158 A 
BRANCH  15  18
ATOM     18  O   UNL     1     124.162 118.395 105.925  1.00  0.00    -0.504 OA
ATOM     19  H   UNL     1     124.687 119.032 106.512  1.00  0.00     0.293 HD
ENDBRANCH  15  18
BRANCH  17  20
ATOM     20  O   UNL     1     123.955 116.898 108.261  1.00  0.00    -0.504 OA
ATOM     21  H   UNL     1     124.183 115.966 108.589  1.00  0.00     0.293 HD
ENDBRANCH  17  20
ENDBRANCH   1  12
BRANCH   2  22
ATOM     22  O   UNL     1     118.045 118.512 107.514  1.00  0.00    -0.502 OA
ATOM     23  H   UNL     1     117.245 119.122 107.632  1.00  0.00     0.293 HD
ENDBRANCH   2  22
BRANCH   6  24
ATOM     24  O   UNL     1     114.261 114.957 108.704  1.00  0.00    -0.507 OA
ATOM     25  H   UNL     1     113.708 115.169 107.887  1.00  0.00     0.293 HD
ENDBRANCH   6  24
BRANCH   8  26
ATOM     26  O   UNL     1     116.946 111.008 109.202  1.00  0.00    -0.508 OA
ATOM     27  H   UNL     1     116.514 110.621 110.034  1.00  0.00     0.293 HD
ENDBRANCH   8  26
TORSDOF 6
ENDMDL
MODEL 6
REMARK VINA RESULT:    -6.112      1.914      6.888
REMARK INTER + INTRA:          -7.539
REMARK INTER:                  -7.343
REMARK INTRA:                  -0.196
REMARK UNBOUND:                -0.176
REMARK SMILES O=c1c(O)c(-c2ccc(O)c(O)c2)oc2cc(O)cc(O)c12
REMARK SMILES IDX 5 1 3 2 2 3 1 4 22 5 20 6 19 7 17 8 16 9 15 10 14 11 6 12
REMARK SMILES IDX 7 13 8 14 9 15 13 16 11 17 10 18 12 20 4 22 21 24 18 26
REMARK H PARENT 10 19 12 21 4 23 21 25 18 27
REMARK Flexibility Score: inf
ROOT
ATOM      1  C   UNL     1     127.985 115.090 100.674  1.00  0.00     0.180 A 
ATOM      2  C   UNL     1     126.825 115.349  99.923  1.00  0.00     0.208 A 
ATOM      3  C   UNL     1     125.773 116.062 100.519  1.00  0.00     0.238 A 
ATOM      4  O   UNL     1     124.761 116.338  99.824  1.00  0.00    -0.285 OA
ATOM      5  C   UNL     1     125.887 116.495 101.863  1.00  0.00     0.111 A 
ATOM      6  C   UNL     1     124.867 117.190 102.578  1.00  0.00     0.134 A 
ATOM      7  C   UNL     1     125.138 117.684 103.861  1.00  0.00     0.093 A 
ATOM      8  C   UNL     1     126.370 117.449 104.478  1.00  0.00     0.123 A 
ATOM      9  C   UNL     1     127.350 116.721 103.809  1.00  0.00     0.094 A 
ATOM     10  C   UNL     1     127.123 116.246 102.515  1.00  0.00     0.146 A 
ATOM     11  O   UNL     1     128.087 115.565 101.910  1.00  0.00    -0.452 OA
ENDROOT
BRANCH   1  12
ATOM     12  C   UNL     1     129.126 114.323 100.123  1.00  0.00     0.025 A 
ATOM     13  C   UNL     1     130.353 114.944  99.834  1.00  0.00     0.016 A 
ATOM     14  C   UNL     1     131.409 114.206  99.291  1.00  0.00     0.051 A 
ATOM     15  C   UNL     1     131.248 112.841  99.017  1.00  0.00     0.157 A 
ATOM     16  C   UNL     1     128.964 112.960  99.826  1.00  0.00     0.062 A 
ATOM     17  C   UNL     1     130.022 112.217  99.283  1.00  0.00     0.158 A 
BRANCH  15  18
ATOM     18  O   UNL     1     132.298 112.101  98.478  1.00  0.00    -0.504 OA
ATOM     19  H   UNL     1     132.132 111.260  97.939  1.00  0.00     0.293 HD
ENDBRANCH  15  18
BRANCH  17  20
ATOM     20  O   UNL     1     129.863 110.861  99.003  1.00  0.00    -0.504 OA
ATOM     21  H   UNL     1     130.417 110.399  98.290  1.00  0.00     0.293 HD
ENDBRANCH  17  20
ENDBRANCH   1  12
BRANCH   2  22
ATOM     22  O   UNL     1     126.742 114.932  98.592  1.00  0.00    -0.502 OA
ATOM     23  H   UNL     1     125.904 114.516  98.204  1.00  0.00     0.293 HD
ENDBRANCH   2  22
BRANCH   6  24
ATOM     24  O   UNL     1     123.573 117.397 102.092  1.00  0.00    -0.507 OA
ATOM     25  H   UNL     1     122.737 117.000 102.496  1.00  0.00     0.293 HD
ENDBRANCH   6  24
BRANCH   8  26
ATOM     26  O   UNL     1     126.626 117.930 105.759  1.00  0.00    -0.508 OA
ATOM     27  H   UNL     1     127.476 117.688 106.256  1.00  0.00     0.293 HD
ENDBRANCH   8  26
TORSDOF 6
ENDMDL
MODEL 7
REMARK VINA RESULT:    -6.063      2.376      7.395
REMARK INTER + INTRA:          -7.480
REMARK INTER:                  -7.490
REMARK INTRA:                   0.010
REMARK UNBOUND:                -0.176
REMARK SMILES O=c1c(O)c(-c2ccc(O)c(O)c2)oc2cc(O)cc(O)c12
REMARK SMILES IDX 5 1 3 2 2 3 1 4 22 5 20 6 19 7 17 8 16 9 15 10 14 11 6 12
REMARK SMILES IDX 7 13 8 14 9 15 13 16 11 17 10 18 12 20 4 22 21 24 18 26
REMARK H PARENT 10 19 12 21 4 23 21 25 18 27
REMARK Flexibility Score: inf
ROOT
ATOM      1  C   UNL     1     127.426 114.860 100.881  1.00  0.00     0.180 A 
ATOM      2  C   UNL     1     127.991 115.796 101.765  1.00  0.00     0.208 A 
ATOM      3  C   UNL     1     127.192 116.844 102.248  1.00  0.00     0.238 A 
ATOM      4  O   UNL     1     127.689 117.646 103.081  1.00  0.00    -0.285 OA
ATOM      5  C   UNL     1     125.843 116.953 101.832  1.00  0.00     0.111 A 
ATOM      6  C   UNL     1     124.955 117.997 102.228  1.00  0.00     0.134 A 
ATOM      7  C   UNL     1     123.606 117.932 101.859  1.00  0.00     0.093 A 
ATOM      8  C   UNL     1     123.128 116.896 101.052  1.00  0.00     0.123 A 
ATOM      9  C   UNL     1     124.001 115.904 100.612  1.00  0.00     0.094 A 
ATOM     10  C   UNL     1     125.345 115.922 100.993  1.00  0.00     0.146 A 
ATOM     11  O   UNL     1     126.140 114.952 100.560  1.00  0.00    -0.452 OA
ENDROOT
BRANCH   1  12
ATOM     12  C   UNL     1     128.211 113.742 100.309  1.00  0.00     0.025 A 
ATOM     13  C   UNL     1     127.771 112.410 100.414  1.00  0.00     0.016 A 
ATOM     14  C   UNL     1     128.541 111.368  99.889  1.00  0.00     0.051 A 
ATOM     15  C   UNL     1     129.764 111.641  99.264  1.00  0.00     0.157 A 
ATOM     16  C   UNL     1     129.448 114.006  99.700  1.00  0.00     0.062 A 
ATOM     17  C   UNL     1     130.220 112.962  99.171  1.00  0.00     0.158 A 
BRANCH  15  18
ATOM     18  O   UNL     1     130.533 110.605  98.736  1.00  0.00    -0.504 OA
ATOM     19  H   UNL     1     131.493 110.458  99.023  1.00  0.00     0.293 HD
ENDBRANCH  15  18
BRANCH  17  20
ATOM     20  O   UNL     1     131.442 113.228  98.555  1.00  0.00    -0.504 OA
ATOM     21  H   UNL     1     131.855 114.154  98.578  1.00  0.00     0.293 HD
ENDBRANCH  17  20
ENDBRANCH   1  12
BRANCH   2  22
ATOM     22  O   UNL     1     129.318 115.657 102.180  1.00  0.00    -0.502 OA
ATOM     23  H   UNL     1     129.908 116.454 102.390  1.00  0.00     0.293 HD
ENDBRANCH   2  22
BRANCH   6  24
ATOM     24  O   UNL     1     125.349 119.124 102.955  1.00  0.00    -0.507 OA
ATOM     25  H   UNL     1     124.752 119.638 103.587  1.00  0.00     0.293 HD
ENDBRANCH   6  24
BRANCH   8  26
ATOM     26  O   UNL     1     121.788 116.848 100.676  1.00  0.00    -0.508 OA
ATOM     27  H   UNL     1     121.096 116.372 101.243  1.00  0.00     0.293 HD
ENDBRANCH   8  26
TORSDOF 6
ENDMDL
MODEL 8
REMARK VINA RESULT:    -5.990      4.911      7.449
REMARK INTER + INTRA:          -7.392
REMARK INTER:                  -7.090
REMARK INTRA:                  -0.302
REMARK UNBOUND:                -0.176
REMARK SMILES O=c1c(O)c(-c2ccc(O)c(O)c2)oc2cc(O)cc(O)c12
REMARK SMILES IDX 5 1 3 2 2 3 1 4 22 5 20 6 19 7 17 8 16 9 15 10 14 11 6 12
REMARK SMILES IDX 7 13 8 14 9 15 13 16 11 17 10 18 12 20 4 22 21 24 18 26
REMARK H PARENT 10 19 12 21 4 23 21 25 18 27
REMARK Flexibility Score: inf
ROOT
ATOM      1  C   UNL     1     130.867 115.421  97.100  1.00  0.00     0.180 A 
ATOM      2  C   UNL     1     131.500 114.785  96.018  1.00  0.00     0.208 A 
ATOM      3  C   UNL     1     130.875 114.798  94.761  1.00  0.00     0.238 A 
ATOM      4  O   UNL     1     131.473 114.274  93.785  1.00  0.00    -0.285 OA
ATOM      5  C   UNL     1     129.620 115.432  94.603  1.00  0.00     0.111 A 
ATOM      6  C   UNL     1     128.879 115.471  93.384  1.00  0.00     0.134 A 
ATOM      7  C   UNL     1     127.710 116.239  93.311  1.00  0.00     0.093 A 
ATOM      8  C   UNL     1     127.220 116.915  94.432  1.00  0.00     0.123 A 
ATOM      9  C   UNL     1     127.906 116.834  95.642  1.00  0.00     0.094 A 
ATOM     10  C   UNL     1     129.094 116.106  95.737  1.00  0.00     0.146 A 
ATOM     11  O   UNL     1     129.720 116.063  96.906  1.00  0.00    -0.452 OA
ENDROOT
BRANCH   1  12
ATOM     12  C   UNL     1     131.451 115.428  98.461  1.00  0.00     0.025 A 
ATOM     13  C   UNL     1     131.004 114.538  99.453  1.00  0.00     0.016 A 
ATOM     14  C   UNL     1     131.552 114.579 100.739  1.00  0.00     0.051 A 
ATOM     15  C   UNL     1     132.542 115.518 101.054  1.00  0.00     0.157 A 
ATOM     16  C   UNL     1     132.427 116.382  98.789  1.00  0.00     0.062 A 
ATOM     17  C   UNL     1     132.979 116.423 100.078  1.00  0.00     0.158 A 
BRANCH  15  18
ATOM     18  O   UNL     1     133.092 115.561 102.333  1.00  0.00    -0.504 OA
ATOM     19  H   UNL     1     132.509 115.623 103.159  1.00  0.00     0.293 HD
ENDBRANCH  15  18
BRANCH  17  20
ATOM     20  O   UNL     1     133.959 117.362 100.397  1.00  0.00    -0.504 OA
ATOM     21  H   UNL     1     134.612 117.208 101.158  1.00  0.00     0.293 HD
ENDBRANCH  17  20
ENDBRANCH   1  12
BRANCH   2  22
ATOM     22  O   UNL     1     132.749 114.183  96.190  1.00  0.00    -0.502 OA
ATOM     23  H   UNL     1     133.063 113.829  97.086  1.00  0.00     0.293 HD
ENDBRANCH   2  22
BRANCH   6  24
ATOM     24  O   UNL     1     129.229 114.758  92.234  1.00  0.00    -0.507 OA
ATOM     25  H   UNL     1     129.958 114.061  92.190  1.00  0.00     0.293 HD
ENDBRANCH   6  24
BRANCH   8  26
ATOM     26  O   UNL     1     126.049 117.663  94.356  1.00  0.00    -0.508 OA
ATOM     27  H   UNL     1     126.016 118.547  93.861  1.00  0.00     0.293 HD
ENDBRANCH   8  26
TORSDOF 6
ENDMDL
MODEL 9
REMARK VINA RESULT:    -5.925      5.417      8.079
REMARK INTER + INTRA:          -7.314
REMARK INTER:                  -7.012
REMARK INTRA:                  -0.302
REMARK UNBOUND:                -0.176
REMARK SMILES O=c1c(O)c(-c2ccc(O)c(O)c2)oc2cc(O)cc(O)c12
REMARK SMILES IDX 5 1 3 2 2 3 1 4 22 5 20 6 19 7 17 8 16 9 15 10 14 11 6 12
REMARK SMILES IDX 7 13 8 14 9 15 13 16 11 17 10 18 12 20 4 22 21 24 18 26
REMARK H PARENT 10 19 12 21 4 23 21 25 18 27
REMARK Flexibility Score: inf
ROOT
ATOM      1  C   UNL     1     127.208 115.445  96.269  1.00  0.00     0.180 A 
ATOM      2  C   UNL     1     126.001 116.018  96.707  1.00  0.00     0.208 A 
ATOM      3  C   UNL     1     125.704 116.012  98.078  1.00  0.00     0.238 A 
ATOM      4  O   UNL     1     124.649 116.575  98.470  1.00  0.00    -0.285 OA
ATOM      5  C   UNL     1     126.609 115.421  98.994  1.00  0.00     0.111 A 
ATOM      6  C   UNL     1     126.389 115.325 100.401  1.00  0.00     0.134 A 
ATOM      7  C   UNL     1     127.410 114.837 101.226  1.00  0.00     0.093 A 
ATOM      8  C   UNL     1     128.616 114.381 100.688  1.00  0.00     0.123 A 
ATOM      9  C   UNL     1     128.816 114.417  99.310  1.00  0.00     0.094 A 
ATOM     10  C   UNL     1     127.831 114.931  98.464  1.00  0.00     0.146 A 
ATOM     11  O   UNL     1     128.065 114.956  97.158  1.00  0.00    -0.452 OA
ENDROOT
BRANCH   1  12
ATOM     12  C   UNL     1     127.580 115.390  94.836  1.00  0.00     0.025 A 
ATOM     13  C   UNL     1     127.024 114.430  93.972  1.00  0.00     0.016 A 
ATOM     14  C   UNL     1     127.409 114.381  92.629  1.00  0.00     0.051 A 
ATOM     15  C   UNL     1     128.362 115.280  92.135  1.00  0.00     0.157 A 
ATOM     16  C   UNL     1     128.551 116.275  94.339  1.00  0.00     0.062 A 
ATOM     17  C   UNL     1     128.936 116.228  92.992  1.00  0.00     0.158 A 
BRANCH  15  18
ATOM     18  O   UNL     1     128.746 115.236  90.796  1.00  0.00    -0.504 OA
ATOM     19  H   UNL     1     129.271 114.456  90.420  1.00  0.00     0.293 HD
ENDBRANCH  15  18
BRANCH  17  20
ATOM     20  O   UNL     1     129.890 117.116  92.498  1.00  0.00    -0.504 OA
ATOM     21  H   UNL     1     129.965 117.316  91.507  1.00  0.00     0.293 HD
ENDBRANCH  17  20
ENDBRANCH   1  12
BRANCH   2  22
ATOM     22  O   UNL     1     125.133 116.615  95.789  1.00  0.00    -0.502 OA
ATOM     23  H   UNL     1     124.304 117.122  96.075  1.00  0.00     0.293 HD
ENDBRANCH   2  22
BRANCH   6  24
ATOM     24  O   UNL     1     125.189 115.665 101.030  1.00  0.00    -0.507 OA
ATOM     25  H   UNL     1     124.821 116.603 101.097  1.00  0.00     0.293 HD
ENDBRANCH   6  24
BRANCH   8  26
ATOM     26  O   UNL     1     129.620 113.882 101.514  1.00  0.00    -0.508 OA
ATOM     27  H   UNL     1     129.426 113.182 102.220  1.00  0.00     0.293 HD
ENDBRANCH   8  26
TORSDOF 6
ENDMDL
