MODEL 1
REMARK VINA RESULT:    -4.063      0.000      0.000
REMARK INTER + INTRA:          -7.603
REMARK INTER:                  -6.914
REMARK INTRA:                  -0.689
REMARK UNBOUND:                -0.689
REMARK SMILES CCCCCCCCCCCCCC(=O)[O-]
REMARK SMILES IDX 8 1 9 2 10 3 11 4 12 5 13 6 14 7 15 8 16 9 7 10 6 11 5 12
REMARK SMILES IDX 4 13 3 14 2 15 1 16
REMARK H PARENT
REMARK Flexibility Score: inf
ROOT
ATOM      1  C   UNL     1     160.464 157.851 150.275  1.00  0.00     0.000 C 
ENDROOT
BRANCH   1   2
ATOM      2  C   UNL     1     158.989 158.036 149.875  1.00  0.00     0.000 C 
BRANCH   2   3
ATOM      3  C   UNL     1     158.075 158.309 151.079  1.00  0.00     0.000 C 
BRANCH   3   4
ATOM      4  C   UNL     1     156.673 157.731 150.846  1.00  0.00     0.000 C 
BRANCH   4   5
ATOM      5  C   UNL     1     156.645 156.224 151.131  1.00  0.00     0.006 C 
BRANCH   5   6
ATOM      6  C   UNL     1     157.298 155.909 152.480  1.00  0.00     0.053 C 
BRANCH   6   7
ATOM      7  C   UNL     1     158.401 154.911 152.307  1.00  0.00     0.041 C 
ATOM      8  O   UNL     1     158.141 153.741 151.921  1.00  0.00    -0.550 OA
ATOM      9  O   UNL     1     159.720 155.290 152.523  1.00  0.00    -0.550 OA
ENDBRANCH   6   7
ENDBRANCH   5   6
ENDBRANCH   4   5
ENDBRANCH   3   4
ENDBRANCH   2   3
ENDBRANCH   1   2
BRANCH   1  10
ATOM     10  C   UNL     1     161.375 159.058 149.971  1.00  0.00     0.000 C 
BRANCH  10  11
ATOM     11  C   UNL     1     162.888 158.783 150.091  1.00  0.00    -0.000 C 
BRANCH  11  12
ATOM     12  C   UNL     1     163.507 159.106 151.463  1.00  0.00    -0.000 C 
BRANCH  12  13
ATOM     13  C   UNL     1     164.674 160.103 151.374  1.00  0.00    -0.000 C 
BRANCH  13  14
ATOM     14  C   UNL     1     165.772 159.828 152.415  1.00  0.00    -0.000 C 
BRANCH  14  15
ATOM     15  C   UNL     1     166.050 158.326 152.640  1.00  0.00    -0.003 C 
ATOM     16  C   UNL     1     166.100 157.961 154.123  1.00  0.00     0.004 C 
ENDBRANCH  14  15
ENDBRANCH  13  14
ENDBRANCH  12  13
ENDBRANCH  11  12
ENDBRANCH  10  11
ENDBRANCH   1  10
TORSDOF 12
ENDMDL
MODEL 2
REMARK VINA RESULT:    -3.977      3.745      4.455
REMARK INTER + INTRA:          -7.456
REMARK INTER:                  -5.666
REMARK INTRA:                  -1.790
REMARK UNBOUND:                -0.689
REMARK SMILES CCCCCCCCCCCCCC(=O)[O-]
REMARK SMILES IDX 8 1 9 2 10 3 11 4 12 5 13 6 14 7 15 8 16 9 7 10 6 11 5 12
REMARK SMILES IDX 4 13 3 14 2 15 1 16
REMARK H PARENT
REMARK Flexibility Score: inf
ROOT
ATOM      1  C   UNL     1     158.742 157.917 149.972  1.00  0.00     0.000 C 
ENDROOT
BRANCH   1   2
ATOM      2  C   UNL     1     158.159 158.365 151.324  1.00  0.00     0.000 C 
BRANCH   2   3
ATOM      3  C   UNL     1     156.912 157.566 151.730  1.00  0.00     0.000 C 
BRANCH   3   4
ATOM      4  C   UNL     1     156.219 156.968 150.500  1.00  0.00     0.000 C 
BRANCH   4   5
ATOM      5  C   UNL     1     155.288 155.817 150.898  1.00  0.00     0.006 C 
BRANCH   5   6
ATOM      6  C   UNL     1     155.966 154.889 151.911  1.00  0.00     0.053 C 
BRANCH   6   7
ATOM      7  C   UNL     1     156.360 153.601 151.259  1.00  0.00     0.041 C 
ATOM      8  O   UNL     1     156.716 152.618 151.961  1.00  0.00    -0.550 OA
ATOM      9  O   UNL     1     156.284 153.470 149.878  1.00  0.00    -0.550 OA
ENDBRANCH   6   7
ENDBRANCH   5   6
ENDBRANCH   4   5
ENDBRANCH   3   4
ENDBRANCH   2   3
ENDBRANCH   1   2
BRANCH   1  10
ATOM     10  C   UNL     1     159.879 156.880 150.066  1.00  0.00     0.000 C 
BRANCH  10  11
ATOM     11  C   UNL     1     159.436 155.408 149.940  1.00  0.00    -0.000 C 
BRANCH  11  12
ATOM     12  C   UNL     1     159.726 154.528 151.169  1.00  0.00    -0.000 C 
BRANCH  12  13
ATOM     13  C   UNL     1     160.022 155.348 152.436  1.00  0.00    -0.000 C 
BRANCH  13  14
ATOM     14  C   UNL     1     159.133 154.947 153.625  1.00  0.00    -0.000 C 
BRANCH  14  15
ATOM     15  C   UNL     1     159.928 154.446 154.850  1.00  0.00    -0.003 C 
ATOM     16  C   UNL     1     161.433 154.661 154.693  1.00  0.00     0.004 C 
ENDBRANCH  14  15
ENDBRANCH  13  14
ENDBRANCH  12  13
ENDBRANCH  11  12
ENDBRANCH  10  11
ENDBRANCH   1  10
TORSDOF 12
ENDMDL
MODEL 3
REMARK VINA RESULT:    -3.936     10.771     13.243
REMARK INTER + INTRA:          -7.387
REMARK INTER:                  -6.111
REMARK INTRA:                  -1.276
REMARK UNBOUND:                -0.689
REMARK SMILES CCCCCCCCCCCCCC(=O)[O-]
REMARK SMILES IDX 8 1 9 2 10 3 11 4 12 5 13 6 14 7 15 8 16 9 7 10 6 11 5 12
REMARK SMILES IDX 4 13 3 14 2 15 1 16
REMARK H PARENT
REMARK Flexibility Score: inf
ROOT
ATOM      1  C   UNL     1     164.251 155.247 164.663  1.00  0.00     0.000 C 
ENDROOT
BRANCH   1   2
ATOM      2  C   UNL     1     163.491 154.027 164.114  1.00  0.00     0.000 C 
BRANCH   2   3
ATOM      3  C   UNL     1     162.044 154.355 163.716  1.00  0.00     0.000 C 
BRANCH   3   4
ATOM      4  C   UNL     1     162.007 155.356 162.555  1.00  0.00     0.000 C 
BRANCH   4   5
ATOM      5  C   UNL     1     161.792 154.637 161.217  1.00  0.00     0.006 C 
BRANCH   5   6
ATOM      6  C   UNL     1     162.942 154.926 160.248  1.00  0.00     0.053 C 
BRANCH   6   7
ATOM      7  C   UNL     1     164.103 154.025 160.531  1.00  0.00     0.041 C 
ATOM      8  O   UNL     1     165.244 154.513 160.745  1.00  0.00    -0.550 OA
ATOM      9  O   UNL     1     163.914 152.651 160.608  1.00  0.00    -0.550 OA
ENDBRANCH   6   7
ENDBRANCH   5   6
ENDBRANCH   4   5
ENDBRANCH   3   4
ENDBRANCH   2   3
ENDBRANCH   1   2
BRANCH   1  10
ATOM     10  C   UNL     1     163.859 155.666 166.095  1.00  0.00     0.000 C 
BRANCH  10  11
ATOM     11  C   UNL     1     163.189 157.050 166.213  1.00  0.00    -0.000 C 
BRANCH  11  12
ATOM     12  C   UNL     1     163.159 157.877 164.915  1.00  0.00    -0.000 C 
BRANCH  12  13
ATOM     13  C   UNL     1     162.672 159.318 165.135  1.00  0.00    -0.000 C 
BRANCH  13  14
ATOM     14  C   UNL     1     161.141 159.420 165.242  1.00  0.00    -0.000 C 
BRANCH  14  15
ATOM     15  C   UNL     1     160.391 158.333 164.442  1.00  0.00    -0.003 C 
ATOM     16  C   UNL     1     158.884 158.584 164.395  1.00  0.00     0.004 C 
ENDBRANCH  14  15
ENDBRANCH  13  14
ENDBRANCH  12  13
ENDBRANCH  11  12
ENDBRANCH  10  11
ENDBRANCH   1  10
TORSDOF 12
ENDMDL
MODEL 4
REMARK VINA RESULT:    -3.919      3.410      6.687
REMARK INTER + INTRA:          -7.357
REMARK INTER:                  -5.419
REMARK INTRA:                  -1.939
REMARK UNBOUND:                -0.689
REMARK SMILES CCCCCCCCCCCCCC(=O)[O-]
REMARK SMILES IDX 8 1 9 2 10 3 11 4 12 5 13 6 14 7 15 8 16 9 7 10 6 11 5 12
REMARK SMILES IDX 4 13 3 14 2 15 1 16
REMARK H PARENT
REMARK Flexibility Score: inf
ROOT
ATOM      1  C   UNL     1     159.292 157.787 150.128  1.00  0.00     0.000 C 
ENDROOT
BRANCH   1   2
ATOM      2  C   UNL     1     160.542 157.302 150.883  1.00  0.00     0.000 C 
BRANCH   2   3
ATOM      3  C   UNL     1     160.236 156.180 151.885  1.00  0.00     0.000 C 
BRANCH   3   4
ATOM      4  C   UNL     1     159.660 154.950 151.172  1.00  0.00     0.000 C 
BRANCH   4   5
ATOM      5  C   UNL     1     158.595 154.263 152.036  1.00  0.00     0.006 C 
BRANCH   5   6
ATOM      6  C   UNL     1     158.081 155.207 153.126  1.00  0.00     0.053 C 
BRANCH   6   7
ATOM      7  C   UNL     1     158.265 154.594 154.479  1.00  0.00     0.041 C 
ATOM      8  O   UNL     1     157.264 154.257 155.164  1.00  0.00    -0.550 OA
ATOM      9  O   UNL     1     159.545 154.348 154.961  1.00  0.00    -0.550 OA
ENDBRANCH   6   7
ENDBRANCH   5   6
ENDBRANCH   4   5
ENDBRANCH   3   4
ENDBRANCH   2   3
ENDBRANCH   1   2
BRANCH   1  10
ATOM     10  C   UNL     1     158.231 158.481 151.007  1.00  0.00     0.000 C 
BRANCH  10  11
ATOM     11  C   UNL     1     156.783 157.991 150.797  1.00  0.00    -0.000 C 
BRANCH  11  12
ATOM     12  C   UNL     1     156.637 156.728 149.929  1.00  0.00    -0.000 C 
BRANCH  12  13
ATOM     13  C   UNL     1     155.243 156.089 150.032  1.00  0.00    -0.000 C 
BRANCH  13  14
ATOM     14  C   UNL     1     155.291 154.634 150.527  1.00  0.00    -0.000 C 
BRANCH  14  15
ATOM     15  C   UNL     1     154.525 154.404 151.848  1.00  0.00    -0.003 C 
ATOM     16  C   UNL     1     154.985 153.139 152.572  1.00  0.00     0.004 C 
ENDBRANCH  14  15
ENDBRANCH  13  14
ENDBRANCH  12  13
ENDBRANCH  11  12
ENDBRANCH  10  11
ENDBRANCH   1  10
TORSDOF 12
ENDMDL
MODEL 5
REMARK VINA RESULT:    -3.909      1.650      3.399
REMARK INTER + INTRA:          -7.340
REMARK INTER:                  -6.062
REMARK INTRA:                  -1.278
REMARK UNBOUND:                -0.689
REMARK SMILES CCCCCCCCCCCCCC(=O)[O-]
REMARK SMILES IDX 8 1 9 2 10 3 11 4 12 5 13 6 14 7 15 8 16 9 7 10 6 11 5 12
REMARK SMILES IDX 4 13 3 14 2 15 1 16
REMARK H PARENT
REMARK Flexibility Score: inf
ROOT
ATOM      1  C   UNL     1     156.956 157.991 151.384  1.00  0.00     0.000 C 
ENDROOT
BRANCH   1   2
ATOM      2  C   UNL     1     156.332 156.971 150.415  1.00  0.00     0.000 C 
BRANCH   2   3
ATOM      3  C   UNL     1     156.023 155.624 151.086  1.00  0.00     0.000 C 
BRANCH   3   4
ATOM      4  C   UNL     1     156.797 155.476 152.402  1.00  0.00     0.000 C 
BRANCH   4   5
ATOM      5  C   UNL     1     158.039 154.597 152.214  1.00  0.00     0.006 C 
BRANCH   5   6
ATOM      6  C   UNL     1     159.067 154.856 153.318  1.00  0.00     0.053 C 
BRANCH   6   7
ATOM      7  C   UNL     1     159.895 153.633 153.560  1.00  0.00     0.041 C 
ATOM      8  O   UNL     1     161.061 153.554 153.091  1.00  0.00    -0.550 OA
ATOM      9  O   UNL     1     159.398 152.602 154.348  1.00  0.00    -0.550 OA
ENDBRANCH   6   7
ENDBRANCH   5   6
ENDBRANCH   4   5
ENDBRANCH   3   4
ENDBRANCH   2   3
ENDBRANCH   1   2
BRANCH   1  10
ATOM     10  C   UNL     1     158.255 158.654 150.883  1.00  0.00     0.000 C 
BRANCH  10  11
ATOM     11  C   UNL     1     159.071 157.817 149.875  1.00  0.00    -0.000 C 
BRANCH  11  12
ATOM     12  C   UNL     1     160.199 156.969 150.489  1.00  0.00    -0.000 C 
BRANCH  12  13
ATOM     13  C   UNL     1     161.228 157.810 151.261  1.00  0.00    -0.000 C 
BRANCH  13  14
ATOM     14  C   UNL     1     162.291 158.438 150.344  1.00  0.00    -0.000 C 
BRANCH  14  15
ATOM     15  C   UNL     1     162.874 159.761 150.887  1.00  0.00    -0.003 C 
ATOM     16  C   UNL     1     164.334 159.618 151.315  1.00  0.00     0.004 C 
ENDBRANCH  14  15
ENDBRANCH  13  14
ENDBRANCH  12  13
ENDBRANCH  11  12
ENDBRANCH  10  11
ENDBRANCH   1  10
TORSDOF 12
ENDMDL
MODEL 6
REMARK VINA RESULT:    -3.886      3.727      6.422
REMARK INTER + INTRA:          -7.301
REMARK INTER:                  -5.519
REMARK INTRA:                  -1.782
REMARK UNBOUND:                -0.689
REMARK SMILES CCCCCCCCCCCCCC(=O)[O-]
REMARK SMILES IDX 8 1 9 2 10 3 11 4 12 5 13 6 14 7 15 8 16 9 7 10 6 11 5 12
REMARK SMILES IDX 4 13 3 14 2 15 1 16
REMARK H PARENT
REMARK Flexibility Score: inf
ROOT
ATOM      1  C   UNL     1     158.290 158.660 150.722  1.00  0.00     0.000 C 
ENDROOT
BRANCH   1   2
ATOM      2  C   UNL     1     159.112 157.618 149.943  1.00  0.00     0.000 C 
BRANCH   2   3
ATOM      3  C   UNL     1     160.220 156.978 150.792  1.00  0.00     0.000 C 
BRANCH   3   4
ATOM      4  C   UNL     1     159.831 155.560 151.225  1.00  0.00     0.000 C 
BRANCH   4   5
ATOM      5  C   UNL     1     159.419 155.529 152.702  1.00  0.00     0.006 C 
BRANCH   5   6
ATOM      6  C   UNL     1     159.850 154.218 153.366  1.00  0.00     0.053 C 
BRANCH   6   7
ATOM      7  C   UNL     1     160.490 154.488 154.691  1.00  0.00     0.041 C 
ATOM      8  O   UNL     1     159.873 154.229 155.757  1.00  0.00    -0.550 OA
ATOM      9  O   UNL     1     161.789 154.978 154.749  1.00  0.00    -0.550 OA
ENDBRANCH   6   7
ENDBRANCH   5   6
ENDBRANCH   4   5
ENDBRANCH   3   4
ENDBRANCH   2   3
ENDBRANCH   1   2
BRANCH   1  10
ATOM     10  C   UNL     1     156.888 158.188 151.158  1.00  0.00     0.000 C 
BRANCH  10  11
ATOM     11  C   UNL     1     156.307 157.017 150.340  1.00  0.00    -0.000 C 
BRANCH  11  12
ATOM     12  C   UNL     1     156.080 155.714 151.129  1.00  0.00    -0.000 C 
BRANCH  12  13
ATOM     13  C   UNL     1     156.258 154.454 150.268  1.00  0.00    -0.000 C 
BRANCH  13  14
ATOM     14  C   UNL     1     156.877 153.282 151.048  1.00  0.00    -0.000 C 
BRANCH  14  15
ATOM     15  C   UNL     1     157.947 152.504 150.251  1.00  0.00    -0.003 C 
ATOM     16  C   UNL     1     158.688 151.486 151.118  1.00  0.00     0.004 C 
ENDBRANCH  14  15
ENDBRANCH  13  14
ENDBRANCH  12  13
ENDBRANCH  11  12
ENDBRANCH  10  11
ENDBRANCH   1  10
TORSDOF 12
ENDMDL
MODEL 7
REMARK VINA RESULT:    -3.854     12.410     13.906
REMARK INTER + INTRA:          -7.247
REMARK INTER:                  -5.265
REMARK INTRA:                  -1.982
REMARK UNBOUND:                -0.689
REMARK SMILES CCCCCCCCCCCCCC(=O)[O-]
REMARK SMILES IDX 8 1 9 2 10 3 11 4 12 5 13 6 14 7 15 8 16 9 7 10 6 11 5 12
REMARK SMILES IDX 4 13 3 14 2 15 1 16
REMARK H PARENT
REMARK Flexibility Score: inf
ROOT
ATOM      1  C   UNL     1     150.493 158.597 161.915  1.00  0.00     0.000 C 
ENDROOT
BRANCH   1   2
ATOM      2  C   UNL     1     150.669 157.623 163.093  1.00  0.00     0.000 C 
BRANCH   2   3
ATOM      3  C   UNL     1     151.129 156.227 162.648  1.00  0.00     0.000 C 
BRANCH   3   4
ATOM      4  C   UNL     1     152.291 155.729 163.516  1.00  0.00     0.000 C 
BRANCH   4   5
ATOM      5  C   UNL     1     153.642 156.059 162.869  1.00  0.00     0.006 C 
BRANCH   5   6
ATOM      6  C   UNL     1     153.786 155.361 161.513  1.00  0.00     0.053 C 
BRANCH   6   7
ATOM      7  C   UNL     1     154.906 154.369 161.551  1.00  0.00     0.041 C 
ATOM      8  O   UNL     1     155.623 154.185 160.533  1.00  0.00    -0.550 OA
ATOM      9  O   UNL     1     155.191 153.688 162.728  1.00  0.00    -0.550 OA
ENDBRANCH   6   7
ENDBRANCH   5   6
ENDBRANCH   4   5
ENDBRANCH   3   4
ENDBRANCH   2   3
ENDBRANCH   1   2
BRANCH   1  10
ATOM     10  C   UNL     1     151.258 158.212 160.633  1.00  0.00     0.000 C 
BRANCH  10  11
ATOM     11  C   UNL     1     152.382 159.185 160.223  1.00  0.00    -0.000 C 
BRANCH  11  12
ATOM     12  C   UNL     1     152.945 160.054 161.362  1.00  0.00    -0.000 C 
BRANCH  12  13
ATOM     13  C   UNL     1     154.193 159.443 162.020  1.00  0.00    -0.000 C 
BRANCH  13  14
ATOM     14  C   UNL     1     154.551 160.117 163.356  1.00  0.00    -0.000 C 
BRANCH  14  15
ATOM     15  C   UNL     1     153.391 160.125 164.375  1.00  0.00    -0.003 C 
ATOM     16  C   UNL     1     153.354 158.852 165.221  1.00  0.00     0.004 C 
ENDBRANCH  14  15
ENDBRANCH  13  14
ENDBRANCH  12  13
ENDBRANCH  11  12
ENDBRANCH  10  11
ENDBRANCH   1  10
TORSDOF 12
ENDMDL
MODEL 8
REMARK VINA RESULT:    -3.835     11.064     13.790
REMARK INTER + INTRA:          -7.214
REMARK INTER:                  -5.514
REMARK INTRA:                  -1.700
REMARK UNBOUND:                -0.689
REMARK SMILES CCCCCCCCCCCCCC(=O)[O-]
REMARK SMILES IDX 8 1 9 2 10 3 11 4 12 5 13 6 14 7 15 8 16 9 7 10 6 11 5 12
REMARK SMILES IDX 4 13 3 14 2 15 1 16
REMARK H PARENT
REMARK Flexibility Score: inf
ROOT
ATOM      1  C   UNL     1     164.522 153.542 164.509  1.00  0.00     0.000 C 
ENDROOT
BRANCH   1   2
ATOM      2  C   UNL     1     164.953 154.892 163.909  1.00  0.00     0.000 C 
BRANCH   2   3
ATOM      3  C   UNL     1     164.534 156.089 164.775  1.00  0.00     0.000 C 
BRANCH   3   4
ATOM      4  C   UNL     1     163.972 155.622 166.124  1.00  0.00     0.000 C 
BRANCH   4   5
ATOM      5  C   UNL     1     162.648 156.326 166.441  1.00  0.00     0.006 C 
BRANCH   5   6
ATOM      6  C   UNL     1     162.009 156.894 165.170  1.00  0.00     0.053 C 
BRANCH   6   7
ATOM      7  C   UNL     1     161.707 158.350 165.341  1.00  0.00     0.041 C 
ATOM      8  O   UNL     1     160.543 158.783 165.138  1.00  0.00    -0.550 OA
ATOM      9  O   UNL     1     162.700 159.219 165.776  1.00  0.00    -0.550 OA
ENDBRANCH   6   7
ENDBRANCH   5   6
ENDBRANCH   4   5
ENDBRANCH   3   4
ENDBRANCH   2   3
ENDBRANCH   1   2
BRANCH   1  10
ATOM     10  C   UNL     1     163.405 152.814 163.734  1.00  0.00     0.000 C 
BRANCH  10  11
ATOM     11  C   UNL     1     162.015 153.479 163.808  1.00  0.00    -0.000 C 
BRANCH  11  12
ATOM     12  C   UNL     1     161.199 153.442 162.503  1.00  0.00    -0.000 C 
BRANCH  12  13
ATOM     13  C   UNL     1     162.082 153.471 161.245  1.00  0.00    -0.000 C 
BRANCH  13  14
ATOM     14  C   UNL     1     162.486 154.896 160.834  1.00  0.00    -0.000 C 
BRANCH  14  15
ATOM     15  C   UNL     1     163.608 154.941 159.774  1.00  0.00    -0.003 C 
ATOM     16  C   UNL     1     164.892 154.270 160.262  1.00  0.00     0.004 C 
ENDBRANCH  14  15
ENDBRANCH  13  14
ENDBRANCH  12  13
ENDBRANCH  11  12
ENDBRANCH  10  11
ENDBRANCH   1  10
TORSDOF 12
ENDMDL
MODEL 9
REMARK VINA RESULT:    -3.828     12.894     14.787
REMARK INTER + INTRA:          -7.202
REMARK INTER:                  -5.517
REMARK INTRA:                  -1.685
REMARK UNBOUND:                -0.689
REMARK SMILES CCCCCCCCCCCCCC(=O)[O-]
REMARK SMILES IDX 8 1 9 2 10 3 11 4 12 5 13 6 14 7 15 8 16 9 7 10 6 11 5 12
REMARK SMILES IDX 4 13 3 14 2 15 1 16
REMARK H PARENT
REMARK Flexibility Score: inf
ROOT
ATOM      1  C   UNL     1     152.783 159.895 164.051  1.00  0.00     0.000 C 
ENDROOT
BRANCH   1   2
ATOM      2  C   UNL     1     154.077 160.035 163.230  1.00  0.00     0.000 C 
BRANCH   2   3
ATOM      3  C   UNL     1     153.993 159.342 161.862  1.00  0.00     0.000 C 
BRANCH   3   4
ATOM      4  C   UNL     1     153.079 160.121 160.908  1.00  0.00     0.000 C 
BRANCH   4   5
ATOM      5  C   UNL     1     151.902 159.255 160.445  1.00  0.00     0.006 C 
BRANCH   5   6
ATOM      6  C   UNL     1     150.725 160.125 159.992  1.00  0.00     0.053 C 
BRANCH   6   7
ATOM      7  C   UNL     1     149.430 159.403 160.200  1.00  0.00     0.041 C 
ATOM      8  O   UNL     1     149.346 158.171 159.956  1.00  0.00    -0.550 OA
ATOM      9  O   UNL     1     148.332 160.082 160.712  1.00  0.00    -0.550 OA
ENDBRANCH   6   7
ENDBRANCH   5   6
ENDBRANCH   4   5
ENDBRANCH   3   4
ENDBRANCH   2   3
ENDBRANCH   1   2
BRANCH   1  10
ATOM     10  C   UNL     1     152.255 158.452 164.191  1.00  0.00     0.000 C 
BRANCH  10  11
ATOM     11  C   UNL     1     150.813 158.231 163.690  1.00  0.00    -0.000 C 
BRANCH  11  12
ATOM     12  C   UNL     1     150.574 156.905 162.945  1.00  0.00    -0.000 C 
BRANCH  12  13
ATOM     13  C   UNL     1     151.496 155.773 163.428  1.00  0.00    -0.000 C 
BRANCH  13  14
ATOM     14  C   UNL     1     152.206 155.050 162.272  1.00  0.00    -0.000 C 
BRANCH  14  15
ATOM     15  C   UNL     1     153.155 155.961 161.462  1.00  0.00    -0.003 C 
ATOM     16  C   UNL     1     154.608 155.491 161.531  1.00  0.00     0.004 C 
ENDBRANCH  14  15
ENDBRANCH  13  14
ENDBRANCH  12  13
ENDBRANCH  11  12
ENDBRANCH  10  11
ENDBRANCH   1  10
TORSDOF 12
ENDMDL
