MODEL 1
REMARK VINA RESULT:    -8.929      0.000      0.000
REMARK INTER + INTRA:          -9.483
REMARK INTER:                  -9.712
REMARK INTRA:                   0.229
REMARK UNBOUND:                 0.229
REMARK SMILES C[C@H]1[C@H](C)CC[C@@]2(C(=O)[O-])CC[C@]3(C)C(=CC[C@H]4[C@]5(C)CC[C@H](O)C(C)(C)[C@@H]5CC[C@@]43C)[C@H]12
REMARK SMILES IDX 7 1 6 2 11 3 33 4 5 5 12 6 15 7 2 8 3 9 13 10 16 11 1 12
REMARK SMILES IDX 4 13 14 14 31 15 17 16 18 17 30 18 32 19 19 20 29 21 28 22
REMARK SMILES IDX 21 23 20 24 25 25 22 26 23 27 26 28 27 29 8 30 9 31 10 32
REMARK SMILES IDX 24 33
REMARK H PARENT 24 34
REMARK Flexibility Score: inf
ROOT
ATOM      1  C   UNL     1       8.909  14.795  17.891  1.00  0.00     0.017 C 
ATOM      2  C   UNL     1       9.523  13.605  17.116  1.00  0.00     0.014 C 
ATOM      3  C   UNL     1       7.338  14.635  17.911  1.00  0.00     0.014 C 
ATOM      4  C   UNL     1       9.464  14.787  19.356  1.00  0.00     0.030 C 
ATOM      5  C   UNL     1      11.052  13.666  17.107  1.00  0.00     0.004 C 
ATOM      6  C   UNL     1       6.680  14.762  19.312  1.00  0.00     0.013 C 
ATOM      7  C   UNL     1       8.769  15.914  20.142  1.00  0.00    -0.063 C 
ATOM      8  C   UNL     1      11.027  14.679  19.476  1.00  0.00    -0.003 C 
ATOM      9  C   UNL     1      11.610  13.576  18.533  1.00  0.00    -0.011 C 
ATOM     10  C   UNL     1       7.230  15.961  20.159  1.00  0.00    -0.006 C 
ATOM     11  C   UNL     1       9.433  16.852  20.864  1.00  0.00    -0.027 C 
ATOM     12  C   UNL     1      11.440  14.342  20.935  1.00  0.00     0.008 C 
ATOM     13  C   UNL     1      13.147  13.629  18.475  1.00  0.00     0.008 C 
ATOM     14  C   UNL     1       6.839  17.257  19.359  1.00  0.00     0.017 C 
ATOM     15  C   UNL     1       6.672  15.984  21.703  1.00  0.00    -0.020 C 
ATOM     16  C   UNL     1       8.752  17.461  22.071  1.00  0.00     0.032 C 
ATOM     17  C   UNL     1       7.851  16.358  22.691  1.00  0.00     0.006 C 
ATOM     18  C   UNL     1       6.179  14.593  22.195  1.00  0.00     0.008 C 
ATOM     19  C   UNL     1       5.454  16.961  21.791  1.00  0.00     0.012 C 
ATOM     20  C   UNL     1       7.535  16.455  24.235  1.00  0.00    -0.025 C 
ATOM     21  C   UNL     1       5.778  14.545  23.691  1.00  0.00     0.005 C 
ATOM     22  C   UNL     1       6.806  15.123  24.728  1.00  0.00     0.003 C 
ATOM     23  C   UNL     1       8.884  16.651  25.010  1.00  0.00     0.010 C 
ATOM     24  C   UNL     1       6.653  17.705  24.553  1.00  0.00     0.012 C 
ATOM     25  C   UNL     1       7.737  14.031  25.426  1.00  0.00    -0.006 C 
ATOM     26  C   UNL     1       8.798  16.210  26.468  1.00  0.00     0.033 C 
ATOM     27  C   UNL     1       8.553  14.694  26.606  1.00  0.00     0.120 C 
ATOM     28  C   UNL     1       6.871  12.910  26.074  1.00  0.00     0.014 C 
ATOM     29  C   UNL     1       8.678  13.320  24.415  1.00  0.00     0.014 C 
ENDROOT
BRANCH   1  30
ATOM     30  C   UNL     1       9.267  16.076  17.136  1.00  0.00     0.048 C 
ATOM     31  O   UNL     1      10.241  16.796  17.481  1.00  0.00    -0.550 OA
ATOM     32  O   UNL     1       8.518  16.453  16.026  1.00  0.00    -0.550 OA
ENDBRANCH   1  30
BRANCH  27  33
ATOM     33  O   UNL     1       9.754  14.008  26.872  1.00  0.00    -0.393 OA
ATOM     34  H   UNL     1       9.645  13.069  26.571  1.00  0.00     0.210 HD
ENDBRANCH  27  33
TORSDOF 2
ENDMDL
MODEL 2
REMARK VINA RESULT:    -8.880     11.653     14.357
REMARK INTER + INTRA:          -9.430
REMARK INTER:                  -9.675
REMARK INTRA:                   0.245
REMARK UNBOUND:                 0.229
REMARK SMILES C[C@H]1[C@H](C)CC[C@@]2(C(=O)[O-])CC[C@]3(C)C(=CC[C@H]4[C@]5(C)CC[C@H](O)C(C)(C)[C@@H]5CC[C@@]43C)[C@H]12
REMARK SMILES IDX 7 1 6 2 11 3 33 4 5 5 12 6 15 7 2 8 3 9 13 10 16 11 1 12
REMARK SMILES IDX 4 13 14 14 31 15 17 16 18 17 30 18 32 19 19 20 29 21 28 22
REMARK SMILES IDX 21 23 20 24 25 25 22 26 23 27 26 28 27 29 8 30 9 31 10 32
REMARK SMILES IDX 24 33
REMARK H PARENT 24 34
REMARK Flexibility Score: inf
ROOT
ATOM      1  C   UNL     1      15.438  15.916  33.593  1.00  0.00     0.017 C 
ATOM      2  C   UNL     1      16.375  15.269  34.642  1.00  0.00     0.014 C 
ATOM      3  C   UNL     1      14.347  16.776  34.344  1.00  0.00     0.014 C 
ATOM      4  C   UNL     1      16.289  16.837  32.653  1.00  0.00     0.030 C 
ATOM      5  C   UNL     1      17.494  14.465  33.979  1.00  0.00     0.004 C 
ATOM      6  C   UNL     1      14.181  18.229  33.823  1.00  0.00     0.013 C 
ATOM      7  C   UNL     1      15.331  17.549  31.681  1.00  0.00    -0.063 C 
ATOM      8  C   UNL     1      17.571  16.164  32.043  1.00  0.00    -0.003 C 
ATOM      9  C   UNL     1      18.384  15.373  33.120  1.00  0.00    -0.011 C 
ATOM     10  C   UNL     1      14.142  18.337  32.261  1.00  0.00    -0.006 C 
ATOM     11  C   UNL     1      15.495  17.563  30.333  1.00  0.00    -0.027 C 
ATOM     12  C   UNL     1      18.504  17.236  31.418  1.00  0.00     0.008 C 
ATOM     13  C   UNL     1      19.501  14.526  32.484  1.00  0.00     0.008 C 
ATOM     14  C   UNL     1      12.857  17.550  31.815  1.00  0.00     0.017 C 
ATOM     15  C   UNL     1      14.154  19.884  31.709  1.00  0.00    -0.020 C 
ATOM     16  C   UNL     1      14.974  18.746  29.547  1.00  0.00     0.032 C 
ATOM     17  C   UNL     1      15.115  19.997  30.456  1.00  0.00     0.006 C 
ATOM     18  C   UNL     1      14.736  20.895  32.738  1.00  0.00     0.008 C 
ATOM     19  C   UNL     1      12.686  20.329  31.408  1.00  0.00     0.012 C 
ATOM     20  C   UNL     1      15.267  21.401  29.750  1.00  0.00    -0.025 C 
ATOM     21  C   UNL     1      14.894  22.340  32.202  1.00  0.00     0.005 C 
ATOM     22  C   UNL     1      15.637  22.518  30.829  1.00  0.00     0.003 C 
ATOM     23  C   UNL     1      16.399  21.298  28.671  1.00  0.00     0.010 C 
ATOM     24  C   UNL     1      13.961  21.794  28.989  1.00  0.00     0.012 C 
ATOM     25  C   UNL     1      17.182  22.894  30.949  1.00  0.00    -0.006 C 
ATOM     26  C   UNL     1      17.015  22.650  28.327  1.00  0.00     0.033 C 
ATOM     27  C   UNL     1      17.755  23.277  29.526  1.00  0.00     0.120 C 
ATOM     28  C   UNL     1      17.370  24.154  31.845  1.00  0.00     0.014 C 
ATOM     29  C   UNL     1      18.018  21.765  31.612  1.00  0.00     0.014 C 
ENDROOT
BRANCH   1  30
ATOM     30  C   UNL     1      14.742  14.786  32.833  1.00  0.00     0.048 C 
ATOM     31  O   UNL     1      13.659  14.286  33.239  1.00  0.00    -0.550 OA
ATOM     32  O   UNL     1      15.298  14.305  31.652  1.00  0.00    -0.550 OA
ENDBRANCH   1  30
BRANCH  27  33
ATOM     33  O   UNL     1      19.144  23.055  29.437  1.00  0.00    -0.393 OA
ATOM     34  H   UNL     1      19.320  22.109  29.678  1.00  0.00     0.210 HD
ENDBRANCH  27  33
TORSDOF 2
ENDMDL
MODEL 3
REMARK VINA RESULT:    -8.730      2.391      5.753
REMARK INTER + INTRA:          -9.267
REMARK INTER:                  -9.492
REMARK INTRA:                   0.225
REMARK UNBOUND:                 0.229
REMARK SMILES C[C@H]1[C@H](C)CC[C@@]2(C(=O)[O-])CC[C@]3(C)C(=CC[C@H]4[C@]5(C)CC[C@H](O)C(C)(C)[C@@H]5CC[C@@]43C)[C@H]12
REMARK SMILES IDX 7 1 6 2 11 3 33 4 5 5 12 6 15 7 2 8 3 9 13 10 16 11 1 12
REMARK SMILES IDX 4 13 14 14 31 15 17 16 18 17 30 18 32 19 19 20 29 21 28 22
REMARK SMILES IDX 21 23 20 24 25 25 22 26 23 27 26 28 27 29 8 30 9 31 10 32
REMARK SMILES IDX 24 33
REMARK H PARENT 24 34
REMARK Flexibility Score: inf
ROOT
ATOM      1  C   UNL     1      10.449  13.630  23.032  1.00  0.00     0.017 C 
ATOM      2  C   UNL     1      11.992  13.581  23.131  1.00  0.00     0.014 C 
ATOM      3  C   UNL     1       9.865  14.157  24.402  1.00  0.00     0.014 C 
ATOM      4  C   UNL     1      10.046  14.603  21.872  1.00  0.00     0.030 C 
ATOM      5  C   UNL     1      12.629  13.132  21.815  1.00  0.00     0.004 C 
ATOM      6  C   UNL     1       8.846  15.322  24.279  1.00  0.00     0.013 C 
ATOM      7  C   UNL     1       8.510  14.718  21.851  1.00  0.00    -0.063 C 
ATOM      8  C   UNL     1      10.771  14.343  20.503  1.00  0.00    -0.003 C 
ATOM      9  C   UNL     1      12.308  14.124  20.688  1.00  0.00    -0.011 C 
ATOM     10  C   UNL     1       7.782  15.111  23.148  1.00  0.00    -0.006 C 
ATOM     11  C   UNL     1       7.755  14.536  20.737  1.00  0.00    -0.027 C 
ATOM     12  C   UNL     1      10.563  15.543  19.539  1.00  0.00     0.008 C 
ATOM     13  C   UNL     1      12.977  13.639  19.389  1.00  0.00     0.008 C 
ATOM     14  C   UNL     1       6.961  13.840  23.573  1.00  0.00     0.017 C 
ATOM     15  C   UNL     1       6.824  16.421  22.896  1.00  0.00    -0.020 C 
ATOM     16  C   UNL     1       6.440  15.275  20.620  1.00  0.00     0.032 C 
ATOM     17  C   UNL     1       6.615  16.639  21.342  1.00  0.00     0.006 C 
ATOM     18  C   UNL     1       7.463  17.750  23.392  1.00  0.00     0.008 C 
ATOM     19  C   UNL     1       5.486  16.233  23.682  1.00  0.00     0.012 C 
ATOM     20  C   UNL     1       5.708  17.840  20.867  1.00  0.00    -0.025 C 
ATOM     21  C   UNL     1       6.652  19.023  23.045  1.00  0.00     0.005 C 
ATOM     22  C   UNL     1       6.197  19.198  21.552  1.00  0.00     0.003 C 
ATOM     23  C   UNL     1       5.809  17.957  19.307  1.00  0.00     0.010 C 
ATOM     24  C   UNL     1       4.204  17.577  21.197  1.00  0.00     0.012 C 
ATOM     25  C   UNL     1       7.145  20.128  20.668  1.00  0.00    -0.006 C 
ATOM     26  C   UNL     1       5.460  19.349  18.793  1.00  0.00     0.033 C 
ATOM     27  C   UNL     1       6.464  20.417  19.271  1.00  0.00     0.120 C 
ATOM     28  C   UNL     1       7.338  21.514  21.351  1.00  0.00     0.014 C 
ATOM     29  C   UNL     1       8.567  19.530  20.493  1.00  0.00     0.014 C 
ENDROOT
BRANCH   1  30
ATOM     30  C   UNL     1       9.953  12.202  22.799  1.00  0.00     0.048 C 
ATOM     31  O   UNL     1       9.689  11.775  21.643  1.00  0.00    -0.550 OA
ATOM     32  O   UNL     1       9.807  11.338  23.880  1.00  0.00    -0.550 OA
ENDBRANCH   1  30
BRANCH  27  33
ATOM     33  O   UNL     1       7.412  20.706  18.269  1.00  0.00    -0.393 OA
ATOM     34  H   UNL     1       7.847  19.855  18.003  1.00  0.00     0.210 HD
ENDBRANCH  27  33
TORSDOF 2
ENDMDL
MODEL 4
REMARK VINA RESULT:    -8.639     10.284     13.682
REMARK INTER + INTRA:          -9.167
REMARK INTER:                  -9.426
REMARK INTRA:                   0.259
REMARK UNBOUND:                 0.229
REMARK SMILES C[C@H]1[C@H](C)CC[C@@]2(C(=O)[O-])CC[C@]3(C)C(=CC[C@H]4[C@]5(C)CC[C@H](O)C(C)(C)[C@@H]5CC[C@@]43C)[C@H]12
REMARK SMILES IDX 7 1 6 2 11 3 33 4 5 5 12 6 15 7 2 8 3 9 13 10 16 11 1 12
REMARK SMILES IDX 4 13 14 14 31 15 17 16 18 17 30 18 32 19 19 20 29 21 28 22
REMARK SMILES IDX 21 23 20 24 25 25 22 26 23 27 26 28 27 29 8 30 9 31 10 32
REMARK SMILES IDX 24 33
REMARK H PARENT 24 34
REMARK Flexibility Score: inf
ROOT
ATOM      1  C   UNL     1      13.842  21.029  31.526  1.00  0.00     0.017 C 
ATOM      2  C   UNL     1      12.596  21.526  30.754  1.00  0.00     0.014 C 
ATOM      3  C   UNL     1      13.448  20.801  33.039  1.00  0.00     0.014 C 
ATOM      4  C   UNL     1      14.326  19.679  30.893  1.00  0.00     0.030 C 
ATOM      5  C   UNL     1      12.892  21.712  29.265  1.00  0.00     0.004 C 
ATOM      6  C   UNL     1      13.852  19.421  33.625  1.00  0.00     0.013 C 
ATOM      7  C   UNL     1      15.502  19.147  31.732  1.00  0.00    -0.063 C 
ATOM      8  C   UNL     1      14.502  19.701  29.332  1.00  0.00    -0.003 C 
ATOM      9  C   UNL     1      13.287  20.379  28.616  1.00  0.00    -0.011 C 
ATOM     10  C   UNL     1      15.309  18.981  33.250  1.00  0.00    -0.006 C 
ATOM     11  C   UNL     1      16.695  18.770  31.206  1.00  0.00    -0.027 C 
ATOM     12  C   UNL     1      14.649  18.257  28.780  1.00  0.00     0.008 C 
ATOM     13  C   UNL     1      13.563  20.611  27.120  1.00  0.00     0.008 C 
ATOM     14  C   UNL     1      16.255  20.045  33.915  1.00  0.00     0.017 C 
ATOM     15  C   UNL     1      15.669  17.447  33.712  1.00  0.00    -0.020 C 
ATOM     16  C   UNL     1      17.497  17.699  31.913  1.00  0.00     0.032 C 
ATOM     17  C   UNL     1      16.482  16.721  32.563  1.00  0.00     0.006 C 
ATOM     18  C   UNL     1      14.409  16.558  33.916  1.00  0.00     0.008 C 
ATOM     19  C   UNL     1      16.428  17.489  35.077  1.00  0.00     0.012 C 
ATOM     20  C   UNL     1      16.950  15.232  32.800  1.00  0.00    -0.025 C 
ATOM     21  C   UNL     1      14.712  15.069  34.213  1.00  0.00     0.005 C 
ATOM     22  C   UNL     1      15.708  14.333  33.246  1.00  0.00     0.003 C 
ATOM     23  C   UNL     1      17.561  14.681  31.465  1.00  0.00     0.010 C 
ATOM     24  C   UNL     1      18.084  15.160  33.871  1.00  0.00     0.012 C 
ATOM     25  C   UNL     1      15.011  13.476  32.095  1.00  0.00    -0.006 C 
ATOM     26  C   UNL     1      17.532  13.159  31.383  1.00  0.00     0.033 C 
ATOM     27  C   UNL     1      16.094  12.603  31.344  1.00  0.00     0.120 C 
ATOM     28  C   UNL     1      13.991  12.470  32.705  1.00  0.00     0.014 C 
ATOM     29  C   UNL     1      14.206  14.359  31.103  1.00  0.00     0.014 C 
ENDROOT
BRANCH   1  30
ATOM     30  C   UNL     1      14.904  22.126  31.449  1.00  0.00     0.048 C 
ATOM     31  O   UNL     1      15.017  23.000  32.349  1.00  0.00    -0.550 OA
ATOM     32  O   UNL     1      15.786  22.157  30.373  1.00  0.00    -0.550 OA
ENDBRANCH   1  30
BRANCH  27  33
ATOM     33  O   UNL     1      15.705  12.296  30.025  1.00  0.00    -0.393 OA
ATOM     34  H   UNL     1      14.887  11.736  30.068  1.00  0.00     0.210 HD
ENDBRANCH  27  33
TORSDOF 2
ENDMDL
MODEL 5
REMARK VINA RESULT:    -8.566      1.525      2.280
REMARK INTER + INTRA:          -9.088
REMARK INTER:                  -9.396
REMARK INTRA:                   0.308
REMARK UNBOUND:                 0.229
REMARK SMILES C[C@H]1[C@H](C)CC[C@@]2(C(=O)[O-])CC[C@]3(C)C(=CC[C@H]4[C@]5(C)CC[C@H](O)C(C)(C)[C@@H]5CC[C@@]43C)[C@H]12
REMARK SMILES IDX 7 1 6 2 11 3 33 4 5 5 12 6 15 7 2 8 3 9 13 10 16 11 1 12
REMARK SMILES IDX 4 13 14 14 31 15 17 16 18 17 30 18 32 19 19 20 29 21 28 22
REMARK SMILES IDX 21 23 20 24 25 25 22 26 23 27 26 28 27 29 8 30 9 31 10 32
REMARK SMILES IDX 24 33
REMARK H PARENT 24 34
REMARK Flexibility Score: inf
ROOT
ATOM      1  C   UNL     1       8.928  16.482  18.998  1.00  0.00     0.017 C 
ATOM      2  C   UNL     1       8.889  15.750  17.635  1.00  0.00     0.014 C 
ATOM      3  C   UNL     1       7.450  16.830  19.433  1.00  0.00     0.014 C 
ATOM      4  C   UNL     1       9.589  15.540  20.061  1.00  0.00     0.030 C 
ATOM      5  C   UNL     1      10.288  15.331  17.180  1.00  0.00     0.004 C 
ATOM      6  C   UNL     1       7.071  16.404  20.877  1.00  0.00     0.013 C 
ATOM      7  C   UNL     1       9.529  16.242  21.431  1.00  0.00    -0.063 C 
ATOM      8  C   UNL     1      10.961  14.908  19.631  1.00  0.00    -0.003 C 
ATOM      9  C   UNL     1      10.912  14.342  18.174  1.00  0.00    -0.011 C 
ATOM     10  C   UNL     1       8.168  16.746  21.943  1.00  0.00    -0.006 C 
ATOM     11  C   UNL     1      10.605  16.406  22.242  1.00  0.00    -0.027 C 
ATOM     12  C   UNL     1      11.354  13.752  20.590  1.00  0.00     0.008 C 
ATOM     13  C   UNL     1      12.310  13.940  17.670  1.00  0.00     0.008 C 
ATOM     14  C   UNL     1       8.275  18.314  21.950  1.00  0.00     0.017 C 
ATOM     15  C   UNL     1       7.850  16.132  23.432  1.00  0.00    -0.020 C 
ATOM     16  C   UNL     1      10.386  16.471  23.738  1.00  0.00     0.032 C 
ATOM     17  C   UNL     1       9.180  15.549  24.064  1.00  0.00     0.006 C 
ATOM     18  C   UNL     1       6.874  14.921  23.398  1.00  0.00     0.008 C 
ATOM     19  C   UNL     1       7.179  17.239  24.308  1.00  0.00     0.012 C 
ATOM     20  C   UNL     1       9.110  14.919  25.510  1.00  0.00    -0.025 C 
ATOM     21  C   UNL     1       6.661  14.227  24.766  1.00  0.00     0.005 C 
ATOM     22  C   UNL     1       7.947  13.827  25.575  1.00  0.00     0.003 C 
ATOM     23  C   UNL     1      10.493  14.253  25.832  1.00  0.00     0.010 C 
ATOM     24  C   UNL     1       8.883  16.019  26.595  1.00  0.00     0.012 C 
ATOM     25  C   UNL     1       8.399  12.308  25.403  1.00  0.00    -0.006 C 
ATOM     26  C   UNL     1      10.394  13.169  26.900  1.00  0.00     0.033 C 
ATOM     27  C   UNL     1       9.546  11.967  26.436  1.00  0.00     0.120 C 
ATOM     28  C   UNL     1       7.220  11.346  25.733  1.00  0.00     0.014 C 
ATOM     29  C   UNL     1       8.830  11.978  23.948  1.00  0.00     0.014 C 
ENDROOT
BRANCH   1  30
ATOM     30  C   UNL     1       9.707  17.784  18.804  1.00  0.00     0.048 C 
ATOM     31  O   UNL     1      10.966  17.799  18.757  1.00  0.00    -0.550 OA
ATOM     32  O   UNL     1       9.018  18.983  18.653  1.00  0.00    -0.550 OA
ENDBRANCH   1  30
BRANCH  27  33
ATOM     33  O   UNL     1      10.366  10.911  25.990  1.00  0.00    -0.393 OA
ATOM     34  H   UNL     1      10.664  11.122  25.067  1.00  0.00     0.210 HD
ENDBRANCH  27  33
TORSDOF 2
ENDMDL
MODEL 6
REMARK VINA RESULT:    -8.443     11.775     15.553
REMARK INTER + INTRA:          -8.955
REMARK INTER:                  -9.244
REMARK INTRA:                   0.289
REMARK UNBOUND:                 0.229
REMARK SMILES C[C@H]1[C@H](C)CC[C@@]2(C(=O)[O-])CC[C@]3(C)C(=CC[C@H]4[C@]5(C)CC[C@H](O)C(C)(C)[C@@H]5CC[C@@]43C)[C@H]12
REMARK SMILES IDX 7 1 6 2 11 3 33 4 5 5 12 6 15 7 2 8 3 9 13 10 16 11 1 12
REMARK SMILES IDX 4 13 14 14 31 15 17 16 18 17 30 18 32 19 19 20 29 21 28 22
REMARK SMILES IDX 21 23 20 24 25 25 22 26 23 27 26 28 27 29 8 30 9 31 10 32
REMARK SMILES IDX 24 33
REMARK H PARENT 24 34
REMARK Flexibility Score: inf
ROOT
ATOM      1  C   UNL     1      14.439  19.320  30.931  1.00  0.00     0.017 C 
ATOM      2  C   UNL     1      13.458  18.716  31.963  1.00  0.00     0.014 C 
ATOM      3  C   UNL     1      13.769  20.589  30.270  1.00  0.00     0.014 C 
ATOM      4  C   UNL     1      15.758  19.737  31.667  1.00  0.00     0.030 C 
ATOM      5  C   UNL     1      14.068  17.513  32.685  1.00  0.00     0.004 C 
ATOM      6  C   UNL     1      14.647  21.869  30.264  1.00  0.00     0.013 C 
ATOM      7  C   UNL     1      16.683  20.426  30.647  1.00  0.00    -0.063 C 
ATOM      8  C   UNL     1      16.389  18.627  32.582  1.00  0.00    -0.003 C 
ATOM      9  C   UNL     1      15.315  17.927  33.478  1.00  0.00    -0.011 C 
ATOM     10  C   UNL     1      16.132  21.612  29.836  1.00  0.00    -0.006 C 
ATOM     11  C   UNL     1      17.980  20.078  30.449  1.00  0.00    -0.027 C 
ATOM     12  C   UNL     1      17.475  19.238  33.510  1.00  0.00     0.008 C 
ATOM     13  C   UNL     1      15.886  16.691  34.196  1.00  0.00     0.008 C 
ATOM     14  C   UNL     1      16.061  21.109  28.348  1.00  0.00     0.017 C 
ATOM     15  C   UNL     1      17.101  22.927  30.007  1.00  0.00    -0.020 C 
ATOM     16  C   UNL     1      18.956  21.137  29.984  1.00  0.00     0.032 C 
ATOM     17  C   UNL     1      18.499  22.485  30.606  1.00  0.00     0.006 C 
ATOM     18  C   UNL     1      16.551  23.962  31.030  1.00  0.00     0.008 C 
ATOM     19  C   UNL     1      17.218  23.658  28.631  1.00  0.00     0.012 C 
ATOM     20  C   UNL     1      19.599  23.593  30.841  1.00  0.00    -0.025 C 
ATOM     21  C   UNL     1      17.506  25.146  31.324  1.00  0.00     0.005 C 
ATOM     22  C   UNL     1      18.990  24.795  31.697  1.00  0.00     0.003 C 
ATOM     23  C   UNL     1      20.806  22.944  31.604  1.00  0.00     0.010 C 
ATOM     24  C   UNL     1      20.164  24.124  29.485  1.00  0.00     0.012 C 
ATOM     25  C   UNL     1      19.298  24.769  33.262  1.00  0.00    -0.006 C 
ATOM     26  C   UNL     1      21.645  23.967  32.362  1.00  0.00     0.033 C 
ATOM     27  C   UNL     1      20.855  24.641  33.502  1.00  0.00     0.120 C 
ATOM     28  C   UNL     1      18.866  26.110  33.926  1.00  0.00     0.014 C 
ATOM     29  C   UNL     1      18.517  23.649  34.002  1.00  0.00     0.014 C 
ENDROOT
BRANCH   1  30
ATOM     30  C   UNL     1      14.681  18.267  29.848  1.00  0.00     0.048 C 
ATOM     31  O   UNL     1      15.487  17.314  30.022  1.00  0.00    -0.550 OA
ATOM     32  O   UNL     1      13.983  18.341  28.647  1.00  0.00    -0.550 OA
ENDBRANCH   1  30
BRANCH  27  33
ATOM     33  O   UNL     1      21.154  24.048  34.745  1.00  0.00    -0.393 OA
ATOM     34  H   UNL     1      20.837  24.658  35.461  1.00  0.00     0.210 HD
ENDBRANCH  27  33
TORSDOF 2
ENDMDL
MODEL 7
REMARK VINA RESULT:    -8.250      2.286      4.616
REMARK INTER + INTRA:          -8.744
REMARK INTER:                  -8.979
REMARK INTRA:                   0.235
REMARK UNBOUND:                 0.229
REMARK SMILES C[C@H]1[C@H](C)CC[C@@]2(C(=O)[O-])CC[C@]3(C)C(=CC[C@H]4[C@]5(C)CC[C@H](O)C(C)(C)[C@@H]5CC[C@@]43C)[C@H]12
REMARK SMILES IDX 7 1 6 2 11 3 33 4 5 5 12 6 15 7 2 8 3 9 13 10 16 11 1 12
REMARK SMILES IDX 4 13 14 14 31 15 17 16 18 17 30 18 32 19 19 20 29 21 28 22
REMARK SMILES IDX 21 23 20 24 25 25 22 26 23 27 26 28 27 29 8 30 9 31 10 32
REMARK SMILES IDX 24 33
REMARK H PARENT 24 34
REMARK Flexibility Score: inf
ROOT
ATOM      1  C   UNL     1       8.025  16.317  20.659  1.00  0.00     0.017 C 
ATOM      2  C   UNL     1       6.647  16.655  20.042  1.00  0.00     0.014 C 
ATOM      3  C   UNL     1       8.541  17.569  21.472  1.00  0.00     0.014 C 
ATOM      4  C   UNL     1       7.863  15.089  21.619  1.00  0.00     0.030 C 
ATOM      5  C   UNL     1       6.059  15.462  19.286  1.00  0.00     0.004 C 
ATOM      6  C   UNL     1       9.009  17.267  22.921  1.00  0.00     0.013 C 
ATOM      7  C   UNL     1       9.218  14.828  22.302  1.00  0.00    -0.063 C 
ATOM      8  C   UNL     1       7.114  13.854  21.001  1.00  0.00    -0.003 C 
ATOM      9  C   UNL     1       5.819  14.280  20.234  1.00  0.00    -0.011 C 
ATOM     10  C   UNL     1       9.908  15.990  23.039  1.00  0.00    -0.006 C 
ATOM     11  C   UNL     1       9.827  13.615  22.332  1.00  0.00    -0.027 C 
ATOM     12  C   UNL     1       6.713  12.847  22.113  1.00  0.00     0.008 C 
ATOM     13  C   UNL     1       5.218  13.109  19.435  1.00  0.00     0.008 C 
ATOM     14  C   UNL     1      11.203  16.308  22.207  1.00  0.00     0.017 C 
ATOM     15  C   UNL     1      10.247  15.567  24.589  1.00  0.00    -0.020 C 
ATOM     16  C   UNL     1      10.729  13.282  23.500  1.00  0.00     0.032 C 
ATOM     17  C   UNL     1      10.143  13.995  24.749  1.00  0.00     0.006 C 
ATOM     18  C   UNL     1       9.221  16.129  25.614  1.00  0.00     0.008 C 
ATOM     19  C   UNL     1      11.648  16.140  24.980  1.00  0.00     0.012 C 
ATOM     20  C   UNL     1      10.447  13.362  26.163  1.00  0.00    -0.025 C 
ATOM     21  C   UNL     1       9.426  15.635  27.068  1.00  0.00     0.005 C 
ATOM     22  C   UNL     1       9.573  14.087  27.285  1.00  0.00     0.003 C 
ATOM     23  C   UNL     1      10.098  11.834  26.112  1.00  0.00     0.010 C 
ATOM     24  C   UNL     1      11.966  13.460  26.511  1.00  0.00     0.012 C 
ATOM     25  C   UNL     1       8.230  13.343  27.719  1.00  0.00    -0.006 C 
ATOM     26  C   UNL     1       9.814  11.245  27.489  1.00  0.00     0.033 C 
ATOM     27  C   UNL     1       8.551  11.852  28.134  1.00  0.00     0.120 C 
ATOM     28  C   UNL     1       7.614  14.020  28.979  1.00  0.00     0.014 C 
ATOM     29  C   UNL     1       7.137  13.402  26.618  1.00  0.00     0.014 C 
ENDROOT
BRANCH   1  30
ATOM     30  C   UNL     1       8.993  16.038  19.509  1.00  0.00     0.048 C 
ATOM     31  O   UNL     1       9.186  14.870  19.077  1.00  0.00    -0.550 OA
ATOM     32  O   UNL     1       9.668  17.094  18.905  1.00  0.00    -0.550 OA
ENDBRANCH   1  30
BRANCH  27  33
ATOM     33  O   UNL     1       7.439  11.003  27.967  1.00  0.00    -0.393 OA
ATOM     34  H   UNL     1       7.681  10.307  27.303  1.00  0.00     0.210 HD
ENDBRANCH  27  33
TORSDOF 2
ENDMDL
MODEL 8
REMARK VINA RESULT:    -8.219      1.914      4.928
REMARK INTER + INTRA:          -8.711
REMARK INTER:                  -8.950
REMARK INTRA:                   0.239
REMARK UNBOUND:                 0.229
REMARK SMILES C[C@H]1[C@H](C)CC[C@@]2(C(=O)[O-])CC[C@]3(C)C(=CC[C@H]4[C@]5(C)CC[C@H](O)C(C)(C)[C@@H]5CC[C@@]43C)[C@H]12
REMARK SMILES IDX 7 1 6 2 11 3 33 4 5 5 12 6 15 7 2 8 3 9 13 10 16 11 1 12
REMARK SMILES IDX 4 13 14 14 31 15 17 16 18 17 30 18 32 19 19 20 29 21 28 22
REMARK SMILES IDX 21 23 20 24 25 25 22 26 23 27 26 28 27 29 8 30 9 31 10 32
REMARK SMILES IDX 24 33
REMARK H PARENT 24 34
REMARK Flexibility Score: inf
ROOT
ATOM      1  C   UNL     1       7.709  16.801  19.472  1.00  0.00     0.017 C 
ATOM      2  C   UNL     1       6.977  18.132  19.175  1.00  0.00     0.014 C 
ATOM      3  C   UNL     1       9.247  16.983  19.160  1.00  0.00     0.014 C 
ATOM      4  C   UNL     1       7.511  16.441  20.984  1.00  0.00     0.030 C 
ATOM      5  C   UNL     1       5.487  18.044  19.510  1.00  0.00     0.004 C 
ATOM      6  C   UNL     1      10.207  16.531  20.294  1.00  0.00     0.013 C 
ATOM      7  C   UNL     1       8.326  15.170  21.288  1.00  0.00    -0.063 C 
ATOM      8  C   UNL     1       6.024  16.485  21.490  1.00  0.00    -0.003 C 
ATOM      9  C   UNL     1       5.280  17.773  21.007  1.00  0.00    -0.011 C 
ATOM     10  C   UNL     1       9.823  15.152  20.930  1.00  0.00    -0.006 C 
ATOM     11  C   UNL     1       7.813  14.071  21.897  1.00  0.00    -0.027 C 
ATOM     12  C   UNL     1       5.976  16.448  23.042  1.00  0.00     0.008 C 
ATOM     13  C   UNL     1       3.771  17.704  21.300  1.00  0.00     0.008 C 
ATOM     14  C   UNL     1       9.968  14.098  19.773  1.00  0.00     0.017 C 
ATOM     15  C   UNL     1      10.725  14.764  22.247  1.00  0.00    -0.020 C 
ATOM     16  C   UNL     1       8.732  13.201  22.726  1.00  0.00     0.032 C 
ATOM     17  C   UNL     1       9.795  14.136  23.364  1.00  0.00     0.006 C 
ATOM     18  C   UNL     1      11.372  16.002  22.931  1.00  0.00     0.008 C 
ATOM     19  C   UNL     1      11.891  13.820  21.808  1.00  0.00     0.012 C 
ATOM     20  C   UNL     1      10.458  13.673  24.720  1.00  0.00    -0.025 C 
ATOM     21  C   UNL     1      12.111  15.693  24.256  1.00  0.00     0.005 C 
ATOM     22  C   UNL     1      11.332  14.859  25.335  1.00  0.00     0.003 C 
ATOM     23  C   UNL     1       9.320  13.267  25.720  1.00  0.00     0.010 C 
ATOM     24  C   UNL     1      11.340  12.401  24.511  1.00  0.00     0.012 C 
ATOM     25  C   UNL     1      10.632  15.729  26.474  1.00  0.00    -0.006 C 
ATOM     26  C   UNL     1       9.760  13.340  27.178  1.00  0.00     0.033 C 
ATOM     27  C   UNL     1      10.089  14.781  27.618  1.00  0.00     0.120 C 
ATOM     28  C   UNL     1      11.667  16.675  27.152  1.00  0.00     0.014 C 
ATOM     29  C   UNL     1       9.510  16.645  25.916  1.00  0.00     0.014 C 
ENDROOT
BRANCH   1  30
ATOM     30  C   UNL     1       7.135  15.736  18.536  1.00  0.00     0.048 C 
ATOM     31  O   UNL     1       6.294  14.889  18.936  1.00  0.00    -0.550 OA
ATOM     32  O   UNL     1       7.531  15.707  17.202  1.00  0.00    -0.550 OA
ENDBRANCH   1  30
BRANCH  27  33
ATOM     33  O   UNL     1       9.009  15.358  28.316  1.00  0.00    -0.393 OA
ATOM     34  H   UNL     1       8.374  15.727  27.649  1.00  0.00     0.210 HD
ENDBRANCH  27  33
TORSDOF 2
ENDMDL
MODEL 9
REMARK VINA RESULT:    -8.166      2.052      4.468
REMARK INTER + INTRA:          -8.653
REMARK INTER:                  -8.882
REMARK INTRA:                   0.230
REMARK UNBOUND:                 0.229
REMARK SMILES C[C@H]1[C@H](C)CC[C@@]2(C(=O)[O-])CC[C@]3(C)C(=CC[C@H]4[C@]5(C)CC[C@H](O)C(C)(C)[C@@H]5CC[C@@]43C)[C@H]12
REMARK SMILES IDX 7 1 6 2 11 3 33 4 5 5 12 6 15 7 2 8 3 9 13 10 16 11 1 12
REMARK SMILES IDX 4 13 14 14 31 15 17 16 18 17 30 18 32 19 19 20 29 21 28 22
REMARK SMILES IDX 21 23 20 24 25 25 22 26 23 27 26 28 27 29 8 30 9 31 10 32
REMARK SMILES IDX 24 33
REMARK H PARENT 24 34
REMARK Flexibility Score: inf
ROOT
ATOM      1  C   UNL     1       8.788  17.702  19.446  1.00  0.00     0.017 C 
ATOM      2  C   UNL     1       9.370  19.113  19.188  1.00  0.00     0.014 C 
ATOM      3  C   UNL     1       9.861  16.622  19.025  1.00  0.00     0.014 C 
ATOM      4  C   UNL     1       8.460  17.560  20.971  1.00  0.00     0.030 C 
ATOM      5  C   UNL     1       8.402  20.212  19.629  1.00  0.00     0.004 C 
ATOM      6  C   UNL     1      10.155  15.533  20.092  1.00  0.00     0.013 C 
ATOM      7  C   UNL     1       7.978  16.121  21.229  1.00  0.00    -0.063 C 
ATOM      8  C   UNL     1       7.607  18.730  21.581  1.00  0.00    -0.003 C 
ATOM      9  C   UNL     1       8.137  20.133  21.138  1.00  0.00    -0.011 C 
ATOM     10  C   UNL     1       8.866  14.952  20.767  1.00  0.00    -0.006 C 
ATOM     11  C   UNL     1       6.829  15.816  21.884  1.00  0.00    -0.027 C 
ATOM     12  C   UNL     1       7.627  18.669  23.133  1.00  0.00     0.008 C 
ATOM     13  C   UNL     1       7.170  21.262  21.538  1.00  0.00     0.008 C 
ATOM     14  C   UNL     1       8.067  14.245  19.613  1.00  0.00     0.017 C 
ATOM     15  C   UNL     1       9.183  13.939  22.021  1.00  0.00    -0.020 C 
ATOM     16  C   UNL     1       6.752  14.516  22.655  1.00  0.00     0.032 C 
ATOM     17  C   UNL     1       8.174  14.227  23.207  1.00  0.00     0.006 C 
ATOM     18  C   UNL     1      10.590  14.162  22.646  1.00  0.00     0.008 C 
ATOM     19  C   UNL     1       9.135  12.463  21.510  1.00  0.00     0.012 C 
ATOM     20  C   UNL     1       8.287  13.353  24.517  1.00  0.00    -0.025 C 
ATOM     21  C   UNL     1      10.869  13.324  23.918  1.00  0.00     0.005 C 
ATOM     22  C   UNL     1       9.789  13.369  25.058  1.00  0.00     0.003 C 
ATOM     23  C   UNL     1       7.319  13.947  25.599  1.00  0.00     0.010 C 
ATOM     24  C   UNL     1       7.818  11.886  24.259  1.00  0.00     0.012 C 
ATOM     25  C   UNL     1      10.101  14.399  26.235  1.00  0.00    -0.006 C 
ATOM     26  C   UNL     1       7.722  13.575  27.022  1.00  0.00     0.033 C 
ATOM     27  C   UNL     1       9.080  14.184  27.423  1.00  0.00     0.120 C 
ATOM     28  C   UNL     1      11.517  14.136  26.828  1.00  0.00     0.014 C 
ATOM     29  C   UNL     1      10.103  15.873  25.748  1.00  0.00     0.014 C 
ENDROOT
BRANCH   1  30
ATOM     30  C   UNL     1       7.550  17.542  18.563  1.00  0.00     0.048 C 
ATOM     31  O   UNL     1       6.390  17.759  19.005  1.00  0.00    -0.550 OA
ATOM     32  O   UNL     1       7.697  17.166  17.231  1.00  0.00    -0.550 OA
ENDBRANCH   1  30
BRANCH  27  33
ATOM     33  O   UNL     1       8.905  15.353  28.190  1.00  0.00    -0.393 OA
ATOM     34  H   UNL     1       7.939  15.445  28.393  1.00  0.00     0.210 HD
ENDBRANCH  27  33
TORSDOF 2
ENDMDL
