MODEL 1
REMARK VINA RESULT:    -3.679      0.000      0.000
REMARK INTER + INTRA:          -6.803
REMARK INTER:                  -6.260
REMARK INTRA:                  -0.543
REMARK UNBOUND:                -0.543
REMARK SMILES CCCCCCCCCCCCCC(=O)[O-]
REMARK SMILES IDX 8 1 9 2 10 3 11 4 12 5 13 6 14 7 15 8 16 9 7 10 6 11 5 12
REMARK SMILES IDX 4 13 3 14 2 15 1 16
REMARK H PARENT
REMARK Flexibility Score: inf
ROOT
ATOM      1  C   UNL     1       9.396  -5.621   4.443  1.00  0.00     0.000 C 
ENDROOT
BRANCH   1   2
ATOM      2  C   UNL     1      10.764  -5.671   3.741  1.00  0.00     0.000 C 
BRANCH   2   3
ATOM      3  C   UNL     1      11.893  -6.334   4.554  1.00  0.00     0.000 C 
BRANCH   3   4
ATOM      4  C   UNL     1      13.274  -6.347   3.872  1.00  0.00     0.000 C 
BRANCH   4   5
ATOM      5  C   UNL     1      14.283  -5.315   4.412  1.00  0.00     0.006 C 
BRANCH   5   6
ATOM      6  C   UNL     1      15.748  -5.626   4.054  1.00  0.00     0.053 C 
BRANCH   6   7
ATOM      7  C   UNL     1      16.547  -6.065   5.244  1.00  0.00     0.041 C 
ATOM      8  O   UNL     1      16.591  -5.349   6.278  1.00  0.00    -0.550 OA
ATOM      9  O   UNL     1      17.275  -7.248   5.196  1.00  0.00    -0.550 OA
ENDBRANCH   6   7
ENDBRANCH   5   6
ENDBRANCH   4   5
ENDBRANCH   3   4
ENDBRANCH   2   3
ENDBRANCH   1   2
BRANCH   1  10
ATOM     10  C   UNL     1       8.221  -5.531   3.458  1.00  0.00     0.000 C 
BRANCH  10  11
ATOM     11  C   UNL     1       7.071  -6.453   3.890  1.00  0.00    -0.000 C 
BRANCH  11  12
ATOM     12  C   UNL     1       5.707  -5.745   3.881  1.00  0.00    -0.000 C 
BRANCH  12  13
ATOM     13  C   UNL     1       4.850  -6.094   5.107  1.00  0.00    -0.000 C 
BRANCH  13  14
ATOM     14  C   UNL     1       5.727  -6.599   6.263  1.00  0.00    -0.000 C 
BRANCH  14  15
ATOM     15  C   UNL     1       5.378  -8.034   6.686  1.00  0.00    -0.003 C 
ATOM     16  C   UNL     1       4.332  -8.680   5.778  1.00  0.00     0.004 C 
ENDBRANCH  14  15
ENDBRANCH  13  14
ENDBRANCH  12  13
ENDBRANCH  11  12
ENDBRANCH  10  11
ENDBRANCH   1  10
TORSDOF 12
ENDMDL
MODEL 2
REMARK VINA RESULT:    -3.578      4.568      9.139
REMARK INTER + INTRA:          -6.631
REMARK INTER:                  -6.177
REMARK INTRA:                  -0.455
REMARK UNBOUND:                -0.543
REMARK SMILES CCCCCCCCCCCCCC(=O)[O-]
REMARK SMILES IDX 8 1 9 2 10 3 11 4 12 5 13 6 14 7 15 8 16 9 7 10 6 11 5 12
REMARK SMILES IDX 4 13 3 14 2 15 1 16
REMARK H PARENT
REMARK Flexibility Score: inf
ROOT
ATOM      1  C   UNL     1       9.803  -5.663   4.186  1.00  0.00     0.000 C 
ENDROOT
BRANCH   1   2
ATOM      2  C   UNL     1       8.756  -4.830   3.425  1.00  0.00     0.000 C 
BRANCH   2   3
ATOM      3  C   UNL     1       7.334  -5.426   3.406  1.00  0.00     0.000 C 
BRANCH   3   4
ATOM      4  C   UNL     1       7.162  -6.741   4.191  1.00  0.00     0.000 C 
BRANCH   4   5
ATOM      5  C   UNL     1       5.752  -6.986   4.762  1.00  0.00     0.006 C 
BRANCH   5   6
ATOM      6  C   UNL     1       5.737  -7.336   6.261  1.00  0.00     0.053 C 
BRANCH   6   7
ATOM      7  C   UNL     1       4.853  -8.508   6.566  1.00  0.00     0.041 C 
ATOM      8  O   UNL     1       4.740  -8.926   7.749  1.00  0.00    -0.550 OA
ATOM      9  O   UNL     1       4.185  -9.164   5.539  1.00  0.00    -0.550 OA
ENDBRANCH   6   7
ENDBRANCH   5   6
ENDBRANCH   4   5
ENDBRANCH   3   4
ENDBRANCH   2   3
ENDBRANCH   1   2
BRANCH   1  10
ATOM     10  C   UNL     1      11.158  -5.723   3.464  1.00  0.00     0.000 C 
BRANCH  10  11
ATOM     11  C   UNL     1      12.279  -6.119   4.436  1.00  0.00    -0.000 C 
BRANCH  11  12
ATOM     12  C   UNL     1      13.581  -5.340   4.189  1.00  0.00    -0.000 C 
BRANCH  12  13
ATOM     13  C   UNL     1      14.701  -6.224   3.618  1.00  0.00    -0.000 C 
BRANCH  13  14
ATOM     14  C   UNL     1      16.077  -5.581   3.849  1.00  0.00    -0.000 C 
BRANCH  14  15
ATOM     15  C   UNL     1      16.815  -6.182   5.055  1.00  0.00    -0.003 C 
ATOM     16  C   UNL     1      16.657  -5.343   6.323  1.00  0.00     0.004 C 
ENDBRANCH  14  15
ENDBRANCH  13  14
ENDBRANCH  12  13
ENDBRANCH  11  12
ENDBRANCH  10  11
ENDBRANCH   1  10
TORSDOF 12
ENDMDL
MODEL 3
REMARK VINA RESULT:    -3.453      1.103      2.011
REMARK INTER + INTRA:          -6.418
REMARK INTER:                  -5.760
REMARK INTRA:                  -0.658
REMARK UNBOUND:                -0.543
REMARK SMILES CCCCCCCCCCCCCC(=O)[O-]
REMARK SMILES IDX 8 1 9 2 10 3 11 4 12 5 13 6 14 7 15 8 16 9 7 10 6 11 5 12
REMARK SMILES IDX 4 13 3 14 2 15 1 16
REMARK H PARENT
REMARK Flexibility Score: inf
ROOT
ATOM      1  C   UNL     1       9.111  -5.679   4.459  1.00  0.00     0.000 C 
ENDROOT
BRANCH   1   2
ATOM      2  C   UNL     1      10.404  -5.671   3.625  1.00  0.00     0.000 C 
BRANCH   2   3
ATOM      3  C   UNL     1      11.682  -6.054   4.398  1.00  0.00     0.000 C 
BRANCH   3   4
ATOM      4  C   UNL     1      12.937  -6.263   3.528  1.00  0.00     0.000 C 
BRANCH   4   5
ATOM      5  C   UNL     1      14.077  -5.253   3.768  1.00  0.00     0.006 C 
BRANCH   5   6
ATOM      6  C   UNL     1      14.603  -5.236   5.215  1.00  0.00     0.053 C 
BRANCH   6   7
ATOM      7  C   UNL     1      16.056  -5.592   5.300  1.00  0.00     0.041 C 
ATOM      8  O   UNL     1      16.625  -6.171   4.337  1.00  0.00    -0.550 OA
ATOM      9  O   UNL     1      16.774  -5.318   6.458  1.00  0.00    -0.550 OA
ENDBRANCH   6   7
ENDBRANCH   5   6
ENDBRANCH   4   5
ENDBRANCH   3   4
ENDBRANCH   2   3
ENDBRANCH   1   2
BRANCH   1  10
ATOM     10  C   UNL     1       7.843  -5.740   3.595  1.00  0.00     0.000 C 
BRANCH  10  11
ATOM     11  C   UNL     1       7.110  -7.075   3.790  1.00  0.00    -0.000 C 
BRANCH  11  12
ATOM     12  C   UNL     1       6.733  -7.336   5.257  1.00  0.00    -0.000 C 
BRANCH  12  13
ATOM     13  C   UNL     1       5.605  -6.417   5.751  1.00  0.00    -0.000 C 
BRANCH  13  14
ATOM     14  C   UNL     1       4.422  -6.426   4.770  1.00  0.00    -0.000 C 
BRANCH  14  15
ATOM     15  C   UNL     1       4.104  -5.029   4.216  1.00  0.00    -0.003 C 
ATOM     16  C   UNL     1       3.928  -3.982   5.316  1.00  0.00     0.004 C 
ENDBRANCH  14  15
ENDBRANCH  13  14
ENDBRANCH  12  13
ENDBRANCH  11  12
ENDBRANCH  10  11
ENDBRANCH   1  10
TORSDOF 12
ENDMDL
MODEL 4
REMARK VINA RESULT:    -3.321      3.985      8.893
REMARK INTER + INTRA:          -6.193
REMARK INTER:                  -5.575
REMARK INTRA:                  -0.618
REMARK UNBOUND:                -0.543
REMARK SMILES CCCCCCCCCCCCCC(=O)[O-]
REMARK SMILES IDX 8 1 9 2 10 3 11 4 12 5 13 6 14 7 15 8 16 9 7 10 6 11 5 12
REMARK SMILES IDX 4 13 3 14 2 15 1 16
REMARK H PARENT
REMARK Flexibility Score: inf
ROOT
ATOM      1  C   UNL     1      11.611  -6.011   4.229  1.00  0.00     0.000 C 
ENDROOT
BRANCH   1   2
ATOM      2  C   UNL     1      10.995  -5.258   3.036  1.00  0.00     0.000 C 
BRANCH   2   3
ATOM      3  C   UNL     1       9.474  -5.021   3.127  1.00  0.00     0.000 C 
BRANCH   3   4
ATOM      4  C   UNL     1       8.751  -5.814   4.232  1.00  0.00     0.000 C 
BRANCH   4   5
ATOM      5  C   UNL     1       7.531  -6.631   3.762  1.00  0.00     0.006 C 
BRANCH   5   6
ATOM      6  C   UNL     1       6.213  -6.238   4.452  1.00  0.00     0.053 C 
BRANCH   6   7
ATOM      7  C   UNL     1       6.077  -6.843   5.817  1.00  0.00     0.041 C 
ATOM      8  O   UNL     1       5.619  -6.161   6.771  1.00  0.00    -0.550 OA
ATOM      9  O   UNL     1       6.494  -8.149   6.045  1.00  0.00    -0.550 OA
ENDBRANCH   6   7
ENDBRANCH   5   6
ENDBRANCH   4   5
ENDBRANCH   3   4
ENDBRANCH   2   3
ENDBRANCH   1   2
BRANCH   1  10
ATOM     10  C   UNL     1      13.124  -5.780   4.364  1.00  0.00     0.000 C 
BRANCH  10  11
ATOM     11  C   UNL     1      13.703  -5.171   3.079  1.00  0.00    -0.000 C 
BRANCH  11  12
ATOM     12  C   UNL     1      15.228  -4.995   3.141  1.00  0.00    -0.000 C 
BRANCH  12  13
ATOM     13  C   UNL     1      15.867  -5.767   4.306  1.00  0.00    -0.000 C 
BRANCH  13  14
ATOM     14  C   UNL     1      17.056  -6.609   3.817  1.00  0.00    -0.000 C 
BRANCH  14  15
ATOM     15  C   UNL     1      17.023  -8.047   4.357  1.00  0.00    -0.003 C 
ATOM     16  C   UNL     1      17.733  -8.191   5.702  1.00  0.00     0.004 C 
ENDBRANCH  14  15
ENDBRANCH  13  14
ENDBRANCH  12  13
ENDBRANCH  11  12
ENDBRANCH  10  11
ENDBRANCH   1  10
TORSDOF 12
ENDMDL
MODEL 5
REMARK VINA RESULT:    -3.104      4.904      9.052
REMARK INTER + INTRA:          -5.824
REMARK INTER:                  -5.023
REMARK INTRA:                  -0.801
REMARK UNBOUND:                -0.543
REMARK SMILES CCCCCCCCCCCCCC(=O)[O-]
REMARK SMILES IDX 8 1 9 2 10 3 11 4 12 5 13 6 14 7 15 8 16 9 7 10 6 11 5 12
REMARK SMILES IDX 4 13 3 14 2 15 1 16
REMARK H PARENT
REMARK Flexibility Score: inf
ROOT
ATOM      1  C   UNL     1       6.811  -6.687   5.212  1.00  0.00     0.000 C 
ENDROOT
BRANCH   1   2
ATOM      2  C   UNL     1       5.811  -7.657   5.865  1.00  0.00     0.000 C 
BRANCH   2   3
ATOM      3  C   UNL     1       4.949  -8.469   4.877  1.00  0.00     0.000 C 
BRANCH   3   4
ATOM      4  C   UNL     1       3.552  -7.886   4.592  1.00  0.00     0.000 C 
BRANCH   4   5
ATOM      5  C   UNL     1       3.513  -6.757   3.544  1.00  0.00     0.006 C 
BRANCH   5   6
ATOM      6  C   UNL     1       2.508  -5.637   3.869  1.00  0.00     0.053 C 
BRANCH   6   7
ATOM      7  C   UNL     1       3.178  -4.316   4.099  1.00  0.00     0.041 C 
ATOM      8  O   UNL     1       2.500  -3.254   4.110  1.00  0.00    -0.550 OA
ATOM      9  O   UNL     1       4.556  -4.252   4.265  1.00  0.00    -0.550 OA
ENDBRANCH   6   7
ENDBRANCH   5   6
ENDBRANCH   4   5
ENDBRANCH   3   4
ENDBRANCH   2   3
ENDBRANCH   1   2
BRANCH   1  10
ATOM     10  C   UNL     1       7.159  -7.070   3.766  1.00  0.00     0.000 C 
BRANCH  10  11
ATOM     11  C   UNL     1       8.197  -6.103   3.177  1.00  0.00    -0.000 C 
BRANCH  11  12
ATOM     12  C   UNL     1       9.185  -5.580   4.231  1.00  0.00    -0.000 C 
BRANCH  12  13
ATOM     13  C   UNL     1      10.632  -5.536   3.715  1.00  0.00    -0.000 C 
BRANCH  13  14
ATOM     14  C   UNL     1      11.579  -6.269   4.679  1.00  0.00    -0.000 C 
BRANCH  14  15
ATOM     15  C   UNL     1      13.022  -6.330   4.156  1.00  0.00    -0.003 C 
ATOM     16  C   UNL     1      13.905  -5.219   4.725  1.00  0.00     0.004 C 
ENDBRANCH  14  15
ENDBRANCH  13  14
ENDBRANCH  12  13
ENDBRANCH  11  12
ENDBRANCH  10  11
ENDBRANCH   1  10
TORSDOF 12
ENDMDL
MODEL 6
REMARK VINA RESULT:    -3.074      5.101      9.283
REMARK INTER + INTRA:          -5.774
REMARK INTER:                  -5.299
REMARK INTRA:                  -0.475
REMARK UNBOUND:                -0.543
REMARK SMILES CCCCCCCCCCCCCC(=O)[O-]
REMARK SMILES IDX 8 1 9 2 10 3 11 4 12 5 13 6 14 7 15 8 16 9 7 10 6 11 5 12
REMARK SMILES IDX 4 13 3 14 2 15 1 16
REMARK H PARENT
REMARK Flexibility Score: inf
ROOT
ATOM      1  C   UNL     1       7.187  -6.840   4.053  1.00  0.00     0.000 C 
ENDROOT
BRANCH   1   2
ATOM      2  C   UNL     1       5.838  -6.462   4.690  1.00  0.00     0.000 C 
BRANCH   2   3
ATOM      3  C   UNL     1       5.817  -6.474   6.231  1.00  0.00     0.000 C 
BRANCH   3   4
ATOM      4  C   UNL     1       5.314  -7.782   6.871  1.00  0.00     0.000 C 
BRANCH   4   5
ATOM      5  C   UNL     1       5.080  -8.946   5.888  1.00  0.00     0.006 C 
BRANCH   5   6
ATOM      6  C   UNL     1       3.601  -9.164   5.519  1.00  0.00     0.053 C 
BRANCH   6   7
ATOM      7  C   UNL     1       3.381  -9.210   4.037  1.00  0.00     0.041 C 
ATOM      8  O   UNL     1       4.348  -9.421   3.258  1.00  0.00    -0.550 OA
ATOM      9  O   UNL     1       2.115  -8.981   3.514  1.00  0.00    -0.550 OA
ENDBRANCH   6   7
ENDBRANCH   5   6
ENDBRANCH   4   5
ENDBRANCH   3   4
ENDBRANCH   2   3
ENDBRANCH   1   2
BRANCH   1  10
ATOM     10  C   UNL     1       7.974  -5.620   3.550  1.00  0.00     0.000 C 
BRANCH  10  11
ATOM     11  C   UNL     1       9.316  -5.492   4.285  1.00  0.00    -0.000 C 
BRANCH  11  12
ATOM     12  C   UNL     1      10.503  -5.309   3.325  1.00  0.00    -0.000 C 
BRANCH  12  13
ATOM     13  C   UNL     1      11.757  -6.070   3.780  1.00  0.00    -0.000 C 
BRANCH  13  14
ATOM     14  C   UNL     1      13.029  -5.270   3.461  1.00  0.00    -0.000 C 
BRANCH  14  15
ATOM     15  C   UNL     1      14.261  -5.791   4.216  1.00  0.00    -0.003 C 
ATOM     16  C   UNL     1      15.574  -5.449   3.515  1.00  0.00     0.004 C 
ENDBRANCH  14  15
ENDBRANCH  13  14
ENDBRANCH  12  13
ENDBRANCH  11  12
ENDBRANCH  10  11
ENDBRANCH   1  10
TORSDOF 12
ENDMDL
MODEL 7
REMARK VINA RESULT:    -3.053      4.143      9.220
REMARK INTER + INTRA:          -5.737
REMARK INTER:                  -5.160
REMARK INTRA:                  -0.578
REMARK UNBOUND:                -0.543
REMARK SMILES CCCCCCCCCCCCCC(=O)[O-]
REMARK SMILES IDX 8 1 9 2 10 3 11 4 12 5 13 6 14 7 15 8 16 9 7 10 6 11 5 12
REMARK SMILES IDX 4 13 3 14 2 15 1 16
REMARK H PARENT
REMARK Flexibility Score: inf
ROOT
ATOM      1  C   UNL     1      13.538  -5.254   4.728  1.00  0.00     0.000 C 
ENDROOT
BRANCH   1   2
ATOM      2  C   UNL     1      12.334  -6.212   4.752  1.00  0.00     0.000 C 
BRANCH   2   3
ATOM      3  C   UNL     1      11.441  -6.172   3.496  1.00  0.00     0.000 C 
BRANCH   3   4
ATOM      4  C   UNL     1      10.168  -5.314   3.622  1.00  0.00     0.000 C 
BRANCH   4   5
ATOM      5  C   UNL     1       8.973  -6.006   4.307  1.00  0.00     0.006 C 
BRANCH   5   6
ATOM      6  C   UNL     1       7.630  -5.792   3.587  1.00  0.00     0.053 C 
BRANCH   6   7
ATOM      7  C   UNL     1       6.460  -6.230   4.415  1.00  0.00     0.041 C 
ATOM      8  O   UNL     1       5.287  -5.931   4.065  1.00  0.00    -0.550 OA
ATOM      9  O   UNL     1       6.666  -6.937   5.593  1.00  0.00    -0.550 OA
ENDBRANCH   6   7
ENDBRANCH   5   6
ENDBRANCH   4   5
ENDBRANCH   3   4
ENDBRANCH   2   3
ENDBRANCH   1   2
BRANCH   1  10
ATOM     10  C   UNL     1      14.613  -5.672   3.714  1.00  0.00     0.000 C 
BRANCH  10  11
ATOM     11  C   UNL     1      15.971  -5.868   4.404  1.00  0.00    -0.000 C 
BRANCH  11  12
ATOM     12  C   UNL     1      17.115  -6.104   3.406  1.00  0.00    -0.000 C 
BRANCH  12  13
ATOM     13  C   UNL     1      17.833  -7.444   3.632  1.00  0.00    -0.000 C 
BRANCH  13  14
ATOM     14  C   UNL     1      16.858  -8.502   4.174  1.00  0.00    -0.000 C 
BRANCH  14  15
ATOM     15  C   UNL     1      17.433  -9.279   5.367  1.00  0.00    -0.003 C 
ATOM     16  C   UNL     1      17.704  -8.387   6.578  1.00  0.00     0.004 C 
ENDBRANCH  14  15
ENDBRANCH  13  14
ENDBRANCH  12  13
ENDBRANCH  11  12
ENDBRANCH  10  11
ENDBRANCH   1  10
TORSDOF 12
ENDMDL
MODEL 8
REMARK VINA RESULT:    -2.965      2.192      3.864
REMARK INTER + INTRA:          -5.587
REMARK INTER:                  -4.595
REMARK INTRA:                  -0.992
REMARK UNBOUND:                -0.543
REMARK SMILES CCCCCCCCCCCCCC(=O)[O-]
REMARK SMILES IDX 8 1 9 2 10 3 11 4 12 5 13 6 14 7 15 8 16 9 7 10 6 11 5 12
REMARK SMILES IDX 4 13 3 14 2 15 1 16
REMARK H PARENT
REMARK Flexibility Score: inf
ROOT
ATOM      1  C   UNL     1       5.429  -4.566   3.538  1.00  0.00     0.000 C 
ENDROOT
BRANCH   1   2
ATOM      2  C   UNL     1       6.589  -5.371   2.927  1.00  0.00     0.000 C 
BRANCH   2   3
ATOM      3  C   UNL     1       7.958  -4.661   2.942  1.00  0.00     0.000 C 
BRANCH   3   4
ATOM      4  C   UNL     1       8.998  -5.260   3.907  1.00  0.00     0.000 C 
BRANCH   4   5
ATOM      5  C   UNL     1      10.126  -6.069   3.236  1.00  0.00     0.006 C 
BRANCH   5   6
ATOM      6  C   UNL     1      11.490  -5.355   3.231  1.00  0.00     0.053 C 
BRANCH   6   7
ATOM      7  C   UNL     1      12.434  -5.914   4.252  1.00  0.00     0.041 C 
ATOM      8  O   UNL     1      13.674  -5.918   4.034  1.00  0.00    -0.550 OA
ATOM      9  O   UNL     1      11.941  -6.466   5.428  1.00  0.00    -0.550 OA
ENDBRANCH   6   7
ENDBRANCH   5   6
ENDBRANCH   4   5
ENDBRANCH   3   4
ENDBRANCH   2   3
ENDBRANCH   1   2
BRANCH   1  10
ATOM     10  C   UNL     1       4.058  -4.980   2.984  1.00  0.00     0.000 C 
BRANCH  10  11
ATOM     11  C   UNL     1       3.344  -5.939   3.948  1.00  0.00    -0.000 C 
BRANCH  11  12
ATOM     12  C   UNL     1       3.377  -7.398   3.465  1.00  0.00    -0.000 C 
BRANCH  12  13
ATOM     13  C   UNL     1       3.155  -8.404   4.605  1.00  0.00    -0.000 C 
BRANCH  13  14
ATOM     14  C   UNL     1       4.488  -9.020   5.060  1.00  0.00    -0.000 C 
BRANCH  14  15
ATOM     15  C   UNL     1       5.120  -8.258   6.233  1.00  0.00    -0.003 C 
ATOM     16  C   UNL     1       6.451  -7.603   5.865  1.00  0.00     0.004 C 
ENDBRANCH  14  15
ENDBRANCH  13  14
ENDBRANCH  12  13
ENDBRANCH  11  12
ENDBRANCH  10  11
ENDBRANCH   1  10
TORSDOF 12
ENDMDL
