MODEL 1
REMARK VINA RESULT:    -4.045      0.000      0.000
REMARK INTER + INTRA:          -7.243
REMARK INTER:                  -6.410
REMARK INTRA:                  -0.833
REMARK UNBOUND:                -0.833
REMARK SMILES CCCCCCCCCCCC(=O)[O-]
REMARK SMILES IDX 7 1 8 2 9 3 10 4 11 5 12 6 13 7 14 8 6 9 5 10 4 11 3 12 2 13
REMARK SMILES IDX 1 14
REMARK H PARENT
REMARK Flexibility Score: inf
ROOT
ATOM      1  C   UNL     1     302.185 324.646 647.606  1.00  0.00     0.000 C 
ENDROOT
BRANCH   1   2
ATOM      2  C   UNL     1     303.544 324.072 647.180  1.00  0.00     0.000 C 
BRANCH   2   3
ATOM      3  C   UNL     1     303.828 322.746 647.896  1.00  0.00     0.000 C 
BRANCH   3   4
ATOM      4  C   UNL     1     304.607 322.978 649.199  1.00  0.00     0.006 C 
BRANCH   4   5
ATOM      5  C   UNL     1     305.766 321.986 649.368  1.00  0.00     0.053 C 
BRANCH   5   6
ATOM      6  C   UNL     1     305.416 320.881 650.317  1.00  0.00     0.041 C 
ATOM      7  O   UNL     1     305.933 320.843 651.465  1.00  0.00    -0.550 OA
ATOM      8  O   UNL     1     304.544 319.875 649.922  1.00  0.00    -0.550 OA
ENDBRANCH   5   6
ENDBRANCH   4   5
ENDBRANCH   3   4
ENDBRANCH   2   3
ENDBRANCH   1   2
BRANCH   1   9
ATOM      9  C   UNL     1     301.063 323.595 647.585  1.00  0.00     0.000 C 
BRANCH   9  10
ATOM     10  C   UNL     1     299.672 324.214 647.807  1.00  0.00    -0.000 C 
BRANCH  10  11
ATOM     11  C   UNL     1     299.257 325.176 646.679  1.00  0.00    -0.000 C 
BRANCH  11  12
ATOM     12  C   UNL     1     299.176 324.544 645.277  1.00  0.00    -0.000 C 
BRANCH  12  13
ATOM     13  C   UNL     1     300.188 325.143 644.290  1.00  0.00    -0.003 C 
ATOM     14  C   UNL     1     301.202 324.096 643.839  1.00  0.00     0.004 C 
ENDBRANCH  12  13
ENDBRANCH  11  12
ENDBRANCH  10  11
ENDBRANCH   9  10
ENDBRANCH   1   9
TORSDOF 10
ENDMDL
MODEL 2
REMARK VINA RESULT:    -4.034      1.506      2.557
REMARK INTER + INTRA:          -7.224
REMARK INTER:                  -5.968
REMARK INTRA:                  -1.256
REMARK UNBOUND:                -0.833
REMARK SMILES CCCCCCCCCCCC(=O)[O-]
REMARK SMILES IDX 7 1 8 2 9 3 10 4 11 5 12 6 13 7 14 8 6 9 5 10 4 11 3 12 2 13
REMARK SMILES IDX 1 14
REMARK H PARENT
REMARK Flexibility Score: inf
ROOT
ATOM      1  C   UNL     1     299.777 324.494 647.961  1.00  0.00     0.000 C 
ENDROOT
BRANCH   1   2
ATOM      2  C   UNL     1     300.883 323.561 647.446  1.00  0.00     0.000 C 
BRANCH   2   3
ATOM      3  C   UNL     1     302.258 324.006 647.957  1.00  0.00     0.000 C 
BRANCH   3   4
ATOM      4  C   UNL     1     303.385 323.240 647.247  1.00  0.00     0.006 C 
BRANCH   4   5
ATOM      5  C   UNL     1     304.103 322.261 648.185  1.00  0.00     0.053 C 
BRANCH   5   6
ATOM      6  C   UNL     1     304.969 322.977 649.176  1.00  0.00     0.041 C 
ATOM      7  O   UNL     1     304.670 322.972 650.400  1.00  0.00    -0.550 OA
ATOM      8  O   UNL     1     306.087 323.678 648.744  1.00  0.00    -0.550 OA
ENDBRANCH   5   6
ENDBRANCH   4   5
ENDBRANCH   3   4
ENDBRANCH   2   3
ENDBRANCH   1   2
BRANCH   1   9
ATOM      9  C   UNL     1     299.216 325.414 646.864  1.00  0.00     0.000 C 
BRANCH   9  10
ATOM     10  C   UNL     1     298.905 324.656 645.562  1.00  0.00    -0.000 C 
BRANCH  10  11
ATOM     11  C   UNL     1     299.712 325.177 644.358  1.00  0.00    -0.000 C 
BRANCH  11  12
ATOM     12  C   UNL     1     300.721 324.176 643.765  1.00  0.00    -0.000 C 
BRANCH  12  13
ATOM     13  C   UNL     1     302.181 324.561 644.044  1.00  0.00    -0.003 C 
ATOM     14  C   UNL     1     302.274 325.946 644.677  1.00  0.00     0.004 C 
ENDBRANCH  12  13
ENDBRANCH  11  12
ENDBRANCH  10  11
ENDBRANCH   9  10
ENDBRANCH   1   9
TORSDOF 10
ENDMDL
MODEL 3
REMARK VINA RESULT:    -3.926      3.639      6.843
REMARK INTER + INTRA:          -7.055
REMARK INTER:                  -6.193
REMARK INTRA:                  -0.862
REMARK UNBOUND:                -0.833
REMARK SMILES CCCCCCCCCCCC(=O)[O-]
REMARK SMILES IDX 7 1 8 2 9 3 10 4 11 5 12 6 13 7 14 8 6 9 5 10 4 11 3 12 2 13
REMARK SMILES IDX 1 14
REMARK H PARENT
REMARK Flexibility Score: inf
ROOT
ATOM      1  C   UNL     1     301.091 323.572 647.236  1.00  0.00     0.000 C 
ENDROOT
BRANCH   1   2
ATOM      2  C   UNL     1     299.611 323.897 647.481  1.00  0.00     0.000 C 
BRANCH   2   3
ATOM      3  C   UNL     1     298.940 324.401 646.197  1.00  0.00     0.000 C 
BRANCH   3   4
ATOM      4  C   UNL     1     299.938 324.435 645.030  1.00  0.00     0.006 C 
BRANCH   4   5
ATOM      5  C   UNL     1     300.043 325.829 644.396  1.00  0.00     0.053 C 
BRANCH   5   6
ATOM      6  C   UNL     1     300.634 326.826 645.346  1.00  0.00     0.041 C 
ATOM      7  O   UNL     1     301.839 326.727 645.701  1.00  0.00    -0.550 OA
ATOM      8  O   UNL     1     299.847 327.845 645.864  1.00  0.00    -0.550 OA
ENDBRANCH   5   6
ENDBRANCH   4   5
ENDBRANCH   3   4
ENDBRANCH   2   3
ENDBRANCH   1   2
BRANCH   1   9
ATOM      9  C   UNL     1     302.030 324.306 648.208  1.00  0.00     0.000 C 
BRANCH   9  10
ATOM     10  C   UNL     1     303.513 324.129 647.841  1.00  0.00    -0.000 C 
BRANCH  10  11
ATOM     11  C   UNL     1     303.881 322.670 647.515  1.00  0.00    -0.000 C 
BRANCH  11  12
ATOM     12  C   UNL     1     304.383 321.839 648.710  1.00  0.00    -0.000 C 
BRANCH  12  13
ATOM     13  C   UNL     1     304.908 322.706 649.863  1.00  0.00    -0.003 C 
ATOM     14  C   UNL     1     305.760 321.884 650.826  1.00  0.00     0.004 C 
ENDBRANCH  12  13
ENDBRANCH  11  12
ENDBRANCH  10  11
ENDBRANCH   9  10
ENDBRANCH   1   9
TORSDOF 10
ENDMDL
MODEL 4
REMARK VINA RESULT:    -3.920      3.910      7.442
REMARK INTER + INTRA:          -7.044
REMARK INTER:                  -6.481
REMARK INTRA:                  -0.563
REMARK UNBOUND:                -0.833
REMARK SMILES CCCCCCCCCCCC(=O)[O-]
REMARK SMILES IDX 7 1 8 2 9 3 10 4 11 5 12 6 13 7 14 8 6 9 5 10 4 11 3 12 2 13
REMARK SMILES IDX 1 14
REMARK H PARENT
REMARK Flexibility Score: inf
ROOT
ATOM      1  C   UNL     1     302.086 324.596 647.681  1.00  0.00     0.000 C 
ENDROOT
BRANCH   1   2
ATOM      2  C   UNL     1     301.005 323.600 647.237  1.00  0.00     0.000 C 
BRANCH   2   3
ATOM      3  C   UNL     1     299.602 324.163 647.493  1.00  0.00     0.000 C 
BRANCH   3   4
ATOM      4  C   UNL     1     298.923 324.571 646.177  1.00  0.00     0.006 C 
BRANCH   4   5
ATOM      5  C   UNL     1     298.875 326.095 645.996  1.00  0.00     0.053 C 
BRANCH   5   6
ATOM      6  C   UNL     1     299.686 326.538 644.817  1.00  0.00     0.041 C 
ATOM      7  O   UNL     1     300.767 325.955 644.535  1.00  0.00    -0.550 OA
ATOM      8  O   UNL     1     299.265 327.616 644.048  1.00  0.00    -0.550 OA
ENDBRANCH   5   6
ENDBRANCH   4   5
ENDBRANCH   3   4
ENDBRANCH   2   3
ENDBRANCH   1   2
BRANCH   1   9
ATOM      9  C   UNL     1     303.181 323.942 648.540  1.00  0.00     0.000 C 
BRANCH   9  10
ATOM     10  C   UNL     1     303.749 322.664 647.898  1.00  0.00    -0.000 C 
BRANCH  10  11
ATOM     11  C   UNL     1     304.518 321.782 648.898  1.00  0.00    -0.000 C 
BRANCH  11  12
ATOM     12  C   UNL     1     305.657 322.490 649.654  1.00  0.00    -0.000 C 
BRANCH  12  13
ATOM     13  C   UNL     1     305.976 321.836 651.006  1.00  0.00    -0.003 C 
ATOM     14  C   UNL     1     306.015 320.316 650.887  1.00  0.00     0.004 C 
ENDBRANCH  12  13
ENDBRANCH  11  12
ENDBRANCH  10  11
ENDBRANCH   9  10
ENDBRANCH   1   9
TORSDOF 10
ENDMDL
MODEL 5
REMARK VINA RESULT:    -3.889      1.151      2.458
REMARK INTER + INTRA:          -6.996
REMARK INTER:                  -6.036
REMARK INTRA:                  -0.959
REMARK UNBOUND:                -0.833
REMARK SMILES CCCCCCCCCCCC(=O)[O-]
REMARK SMILES IDX 7 1 8 2 9 3 10 4 11 5 12 6 13 7 14 8 6 9 5 10 4 11 3 12 2 13
REMARK SMILES IDX 1 14
REMARK H PARENT
REMARK Flexibility Score: inf
ROOT
ATOM      1  C   UNL     1     303.529 324.722 646.360  1.00  0.00     0.000 C 
ENDROOT
BRANCH   1   2
ATOM      2  C   UNL     1     303.174 324.265 647.783  1.00  0.00     0.000 C 
BRANCH   2   3
ATOM      3  C   UNL     1     303.215 322.737 647.895  1.00  0.00     0.000 C 
BRANCH   3   4
ATOM      4  C   UNL     1     304.578 322.258 648.416  1.00  0.00     0.006 C 
BRANCH   4   5
ATOM      5  C   UNL     1     304.866 322.761 649.837  1.00  0.00     0.053 C 
BRANCH   5   6
ATOM      6  C   UNL     1     305.954 321.969 650.495  1.00  0.00     0.041 C 
ATOM      7  O   UNL     1     305.671 320.942 651.169  1.00  0.00    -0.550 OA
ATOM      8  O   UNL     1     307.276 322.381 650.391  1.00  0.00    -0.550 OA
ENDBRANCH   5   6
ENDBRANCH   4   5
ENDBRANCH   3   4
ENDBRANCH   2   3
ENDBRANCH   1   2
BRANCH   1   9
ATOM      9  C   UNL     1     302.763 323.944 645.278  1.00  0.00     0.000 C 
BRANCH   9  10
ATOM     10  C   UNL     1     301.762 324.828 644.513  1.00  0.00    -0.000 C 
BRANCH  10  11
ATOM     11  C   UNL     1     300.314 324.313 644.606  1.00  0.00    -0.000 C 
BRANCH  11  12
ATOM     12  C   UNL     1     299.481 324.909 645.755  1.00  0.00    -0.000 C 
BRANCH  12  13
ATOM     13  C   UNL     1     299.291 323.934 646.926  1.00  0.00    -0.003 C 
ATOM     14  C   UNL     1     299.649 324.592 648.255  1.00  0.00     0.004 C 
ENDBRANCH  12  13
ENDBRANCH  11  12
ENDBRANCH  10  11
ENDBRANCH   9  10
ENDBRANCH   1   9
TORSDOF 10
ENDMDL
MODEL 6
REMARK VINA RESULT:    -3.817      1.571      2.072
REMARK INTER + INTRA:          -6.880
REMARK INTER:                  -6.163
REMARK INTRA:                  -0.717
REMARK UNBOUND:                -0.833
REMARK SMILES CCCCCCCCCCCC(=O)[O-]
REMARK SMILES IDX 7 1 8 2 9 3 10 4 11 5 12 6 13 7 14 8 6 9 5 10 4 11 3 12 2 13
REMARK SMILES IDX 1 14
REMARK H PARENT
REMARK Flexibility Score: inf
ROOT
ATOM      1  C   UNL     1     300.641 324.426 647.756  1.00  0.00     0.000 C 
ENDROOT
BRANCH   1   2
ATOM      2  C   UNL     1     301.843 323.501 647.517  1.00  0.00     0.000 C 
BRANCH   2   3
ATOM      3  C   UNL     1     303.059 323.959 648.332  1.00  0.00     0.000 C 
BRANCH   3   4
ATOM      4  C   UNL     1     304.065 322.813 648.513  1.00  0.00     0.006 C 
BRANCH   4   5
ATOM      5  C   UNL     1     304.904 322.974 649.788  1.00  0.00     0.053 C 
BRANCH   5   6
ATOM      6  C   UNL     1     305.717 321.748 650.073  1.00  0.00     0.041 C 
ATOM      7  O   UNL     1     306.100 321.007 649.129  1.00  0.00    -0.550 OA
ATOM      8  O   UNL     1     306.025 321.407 651.383  1.00  0.00    -0.550 OA
ENDBRANCH   5   6
ENDBRANCH   4   5
ENDBRANCH   3   4
ENDBRANCH   2   3
ENDBRANCH   1   2
BRANCH   1   9
ATOM      9  C   UNL     1     299.381 323.971 647.000  1.00  0.00     0.000 C 
BRANCH   9  10
ATOM     10  C   UNL     1     298.877 325.031 646.005  1.00  0.00    -0.000 C 
BRANCH  10  11
ATOM     11  C   UNL     1     299.257 326.466 646.413  1.00  0.00    -0.000 C 
BRANCH  11  12
ATOM     12  C   UNL     1     299.722 327.372 645.259  1.00  0.00    -0.000 C 
BRANCH  12  13
ATOM     13  C   UNL     1     301.188 327.807 645.392  1.00  0.00    -0.003 C 
ATOM     14  C   UNL     1     302.133 326.630 645.170  1.00  0.00     0.004 C 
ENDBRANCH  12  13
ENDBRANCH  11  12
ENDBRANCH  10  11
ENDBRANCH   9  10
ENDBRANCH   1   9
TORSDOF 10
ENDMDL
MODEL 7
REMARK VINA RESULT:    -3.816      3.649      6.965
REMARK INTER + INTRA:          -6.879
REMARK INTER:                  -6.123
REMARK INTRA:                  -0.756
REMARK UNBOUND:                -0.833
REMARK SMILES CCCCCCCCCCCC(=O)[O-]
REMARK SMILES IDX 7 1 8 2 9 3 10 4 11 5 12 6 13 7 14 8 6 9 5 10 4 11 3 12 2 13
REMARK SMILES IDX 1 14
REMARK H PARENT
REMARK Flexibility Score: inf
ROOT
ATOM      1  C   UNL     1     304.577 323.935 647.702  1.00  0.00     0.000 C 
ENDROOT
BRANCH   1   2
ATOM      2  C   UNL     1     303.482 324.354 646.711  1.00  0.00     0.000 C 
BRANCH   2   3
ATOM      3  C   UNL     1     302.205 324.773 647.449  1.00  0.00     0.000 C 
BRANCH   3   4
ATOM      4  C   UNL     1     301.207 323.608 647.530  1.00  0.00     0.006 C 
BRANCH   4   5
ATOM      5  C   UNL     1     299.752 324.092 647.585  1.00  0.00     0.053 C 
BRANCH   5   6
ATOM      6  C   UNL     1     299.358 324.807 646.328  1.00  0.00     0.041 C 
ATOM      7  O   UNL     1     299.291 324.180 645.237  1.00  0.00    -0.550 OA
ATOM      8  O   UNL     1     299.097 326.170 646.356  1.00  0.00    -0.550 OA
ENDBRANCH   5   6
ENDBRANCH   4   5
ENDBRANCH   3   4
ENDBRANCH   2   3
ENDBRANCH   1   2
BRANCH   1   9
ATOM      9  C   UNL     1     305.554 322.906 647.109  1.00  0.00     0.000 C 
BRANCH   9  10
ATOM     10  C   UNL     1     305.249 321.470 647.571  1.00  0.00    -0.000 C 
BRANCH  10  11
ATOM     11  C   UNL     1     304.584 321.415 648.958  1.00  0.00    -0.000 C 
BRANCH  11  12
ATOM     12  C   UNL     1     304.860 320.133 649.765  1.00  0.00    -0.000 C 
BRANCH  12  13
ATOM     13  C   UNL     1     305.994 320.299 650.785  1.00  0.00    -0.003 C 
ATOM     14  C   UNL     1     306.095 321.744 651.265  1.00  0.00     0.004 C 
ENDBRANCH  12  13
ENDBRANCH  11  12
ENDBRANCH  10  11
ENDBRANCH   9  10
ENDBRANCH   1   9
TORSDOF 10
ENDMDL
MODEL 8
REMARK VINA RESULT:    -3.783      1.598      2.943
REMARK INTER + INTRA:          -6.828
REMARK INTER:                  -5.443
REMARK INTRA:                  -1.385
REMARK UNBOUND:                -0.833
REMARK SMILES CCCCCCCCCCCC(=O)[O-]
REMARK SMILES IDX 7 1 8 2 9 3 10 4 11 5 12 6 13 7 14 8 6 9 5 10 4 11 3 12 2 13
REMARK SMILES IDX 1 14
REMARK H PARENT
REMARK Flexibility Score: inf
ROOT
ATOM      1  C   UNL     1     302.472 324.001 645.015  1.00  0.00     0.000 C 
ENDROOT
BRANCH   1   2
ATOM      2  C   UNL     1     302.863 325.315 645.706  1.00  0.00     0.000 C 
BRANCH   2   3
ATOM      3  C   UNL     1     303.326 325.062 647.146  1.00  0.00     0.000 C 
BRANCH   3   4
ATOM      4  C   UNL     1     303.094 323.599 647.551  1.00  0.00     0.006 C 
BRANCH   4   5
ATOM      5  C   UNL     1     304.410 322.831 647.734  1.00  0.00     0.053 C 
BRANCH   5   6
ATOM      6  C   UNL     1     305.069 323.165 649.038  1.00  0.00     0.041 C 
ATOM      7  O   UNL     1     306.276 323.526 649.064  1.00  0.00    -0.550 OA
ATOM      8  O   UNL     1     304.360 323.047 650.226  1.00  0.00    -0.550 OA
ENDBRANCH   5   6
ENDBRANCH   4   5
ENDBRANCH   3   4
ENDBRANCH   2   3
ENDBRANCH   1   2
BRANCH   1   9
ATOM      9  C   UNL     1     301.209 324.138 644.148  1.00  0.00     0.000 C 
BRANCH   9  10
ATOM     10  C   UNL     1     300.421 325.424 644.454  1.00  0.00    -0.000 C 
BRANCH  10  11
ATOM     11  C   UNL     1     299.246 325.191 645.420  1.00  0.00    -0.000 C 
BRANCH  11  12
ATOM     12  C   UNL     1     299.339 325.947 646.758  1.00  0.00    -0.000 C 
BRANCH  12  13
ATOM     13  C   UNL     1     299.658 325.027 647.945  1.00  0.00    -0.003 C 
ATOM     14  C   UNL     1     299.341 323.572 647.615  1.00  0.00     0.004 C 
ENDBRANCH  12  13
ENDBRANCH  11  12
ENDBRANCH  10  11
ENDBRANCH   9  10
ENDBRANCH   1   9
TORSDOF 10
ENDMDL
MODEL 9
REMARK VINA RESULT:    -3.738      1.864      3.600
REMARK INTER + INTRA:          -6.756
REMARK INTER:                  -5.688
REMARK INTRA:                  -1.068
REMARK UNBOUND:                -0.833
REMARK SMILES CCCCCCCCCCCC(=O)[O-]
REMARK SMILES IDX 7 1 8 2 9 3 10 4 11 5 12 6 13 7 14 8 6 9 5 10 4 11 3 12 2 13
REMARK SMILES IDX 1 14
REMARK H PARENT
REMARK Flexibility Score: inf
ROOT
ATOM      1  C   UNL     1     298.943 324.349 645.971  1.00  0.00     0.000 C 
ENDROOT
BRANCH   1   2
ATOM      2  C   UNL     1     299.232 323.946 647.424  1.00  0.00     0.000 C 
BRANCH   2   3
ATOM      3  C   UNL     1     300.593 324.484 647.883  1.00  0.00     0.000 C 
BRANCH   3   4
ATOM      4  C   UNL     1     301.726 323.521 647.495  1.00  0.00     0.006 C 
BRANCH   4   5
ATOM      5  C   UNL     1     303.101 324.201 647.525  1.00  0.00     0.053 C 
BRANCH   5   6
ATOM      6  C   UNL     1     304.142 323.319 648.144  1.00  0.00     0.041 C 
ATOM      7  O   UNL     1     305.198 323.819 648.615  1.00  0.00    -0.550 OA
ATOM      8  O   UNL     1     303.961 321.942 648.172  1.00  0.00    -0.550 OA
ENDBRANCH   5   6
ENDBRANCH   4   5
ENDBRANCH   3   4
ENDBRANCH   2   3
ENDBRANCH   1   2
BRANCH   1   9
ATOM      9  C   UNL     1     299.422 325.773 645.643  1.00  0.00     0.000 C 
BRANCH   9  10
ATOM     10  C   UNL     1     300.441 325.801 644.491  1.00  0.00    -0.000 C 
BRANCH  10  11
ATOM     11  C   UNL     1     300.845 324.394 644.013  1.00  0.00    -0.000 C 
BRANCH  11  12
ATOM     12  C   UNL     1     302.357 324.173 643.833  1.00  0.00    -0.000 C 
BRANCH  12  13
ATOM     13  C   UNL     1     302.684 323.048 642.841  1.00  0.00    -0.003 C 
ATOM     14  C   UNL     1     303.928 322.277 643.273  1.00  0.00     0.004 C 
ENDBRANCH  12  13
ENDBRANCH  11  12
ENDBRANCH  10  11
ENDBRANCH   9  10
ENDBRANCH   1   9
TORSDOF 10
ENDMDL
