MODEL 1
REMARK VINA RESULT:    -5.507      0.000      0.000
REMARK INTER + INTRA:          -6.971
REMARK INTER:                  -6.634
REMARK INTRA:                  -0.337
REMARK UNBOUND:                -0.337
REMARK SMILES Oc1cc(O)c2cc(O)c(-c3ccc(O)c(O)c3)[o+]c2c1
REMARK SMILES IDX 10 1 19 2 20 3 21 4 2 5 3 6 4 7 6 8 7 9 8 10 11 11 12 12
REMARK SMILES IDX 13 13 14 14 18 15 16 16 15 17 17 19 9 21 1 23 5 25
REMARK H PARENT 15 18 17 20 9 22 1 24 5 26
REMARK Flexibility Score: inf
ROOT
ATOM      1  C   UNL     1      48.740  13.804  -4.012  1.00  0.00     0.402 A 
ATOM      2  O   UNL     1      49.784  13.059  -4.370  1.00  0.00    -0.202 OA
ATOM      3  C   UNL     1      50.902  13.569  -4.880  1.00  0.00     0.368 A 
ATOM      4  C   UNL     1      51.952  12.717  -5.236  1.00  0.00     0.162 A 
ATOM      5  C   UNL     1      53.131  13.239  -5.776  1.00  0.00     0.128 A 
ATOM      6  C   UNL     1      53.261  14.623  -5.962  1.00  0.00     0.093 A 
ATOM      7  C   UNL     1      52.217  15.489  -5.608  1.00  0.00     0.136 A 
ATOM      8  C   UNL     1      51.030  14.962  -5.065  1.00  0.00     0.125 A 
ATOM      9  C   UNL     1      49.959  15.780  -4.687  1.00  0.00     0.078 A 
ATOM     10  C   UNL     1      48.805  15.207  -4.144  1.00  0.00     0.223 A 
ENDROOT
BRANCH   1  11
ATOM     11  C   UNL     1      47.547  13.120  -3.464  1.00  0.00     0.087 A 
ATOM     12  C   UNL     1      46.409  12.886  -4.255  1.00  0.00     0.022 A 
ATOM     13  C   UNL     1      45.304  12.217  -3.722  1.00  0.00     0.051 A 
ATOM     14  C   UNL     1      45.322  11.761  -2.400  1.00  0.00     0.157 A 
ATOM     15  C   UNL     1      47.570  12.643  -2.143  1.00  0.00     0.068 A 
ATOM     16  C   UNL     1      46.462  11.971  -1.606  1.00  0.00     0.158 A 
BRANCH  14  17
ATOM     17  O   UNL     1      44.202  11.099  -1.896  1.00  0.00    -0.504 OA
ATOM     18  H   UNL     1      43.585  10.558  -2.490  1.00  0.00     0.293 HD
ENDBRANCH  14  17
BRANCH  16  19
ATOM     19  O   UNL     1      46.489  11.514  -0.290  1.00  0.00    -0.504 OA
ATOM     20  H   UNL     1      47.361  11.313   0.185  1.00  0.00     0.293 HD
ENDBRANCH  16  19
ENDBRANCH   1  11
BRANCH  10  21
ATOM     21  O   UNL     1      47.754  16.019  -3.720  1.00  0.00    -0.500 OA
ATOM     22  H   UNL     1      47.805  17.029  -3.779  1.00  0.00     0.294 HD
ENDBRANCH  10  21
BRANCH   5  23
ATOM     23  O   UNL     1      54.167  12.376  -6.125  1.00  0.00    -0.507 OA
ATOM     24  H   UNL     1      55.037  12.722  -6.512  1.00  0.00     0.293 HD
ENDBRANCH   5  23
BRANCH   7  25
ATOM     25  O   UNL     1      52.358  16.865  -5.797  1.00  0.00    -0.507 OA
ATOM     26  H   UNL     1      53.257  17.282  -6.012  1.00  0.00     0.293 HD
ENDBRANCH   7  25
TORSDOF 6
ENDMDL
MODEL 2
REMARK VINA RESULT:    -5.257      4.128      5.088
REMARK INTER + INTRA:          -6.670
REMARK INTER:                  -6.363
REMARK INTRA:                  -0.307
REMARK UNBOUND:                -0.337
REMARK SMILES Oc1cc(O)c2cc(O)c(-c3ccc(O)c(O)c3)[o+]c2c1
REMARK SMILES IDX 10 1 19 2 20 3 21 4 2 5 3 6 4 7 6 8 7 9 8 10 11 11 12 12
REMARK SMILES IDX 13 13 14 14 18 15 16 16 15 17 17 19 9 21 1 23 5 25
REMARK H PARENT 15 18 17 20 9 22 1 24 5 26
REMARK Flexibility Score: inf
ROOT
ATOM      1  C   UNL     1      44.901  16.420  -3.807  1.00  0.00     0.402 A 
ATOM      2  O   UNL     1      45.788  15.496  -3.440  1.00  0.00    -0.202 OA
ATOM      3  C   UNL     1      47.044  15.479  -3.876  1.00  0.00     0.368 A 
ATOM      4  C   UNL     1      47.912  14.471  -3.447  1.00  0.00     0.162 A 
ATOM      5  C   UNL     1      49.234  14.439  -3.901  1.00  0.00     0.128 A 
ATOM      6  C   UNL     1      49.692  15.421  -4.791  1.00  0.00     0.093 A 
ATOM      7  C   UNL     1      48.832  16.439  -5.229  1.00  0.00     0.136 A 
ATOM      8  C   UNL     1      47.502  16.470  -4.772  1.00  0.00     0.125 A 
ATOM      9  C   UNL     1      46.602  17.466  -5.170  1.00  0.00     0.078 A 
ATOM     10  C   UNL     1      45.292  17.456  -4.680  1.00  0.00     0.223 A 
ENDROOT
BRANCH   1  11
ATOM     11  C   UNL     1      43.528  16.329  -3.259  1.00  0.00     0.087 A 
ATOM     12  C   UNL     1      42.603  15.395  -3.756  1.00  0.00     0.022 A 
ATOM     13  C   UNL     1      41.320  15.312  -3.208  1.00  0.00     0.051 A 
ATOM     14  C   UNL     1      40.947  16.147  -2.149  1.00  0.00     0.157 A 
ATOM     15  C   UNL     1      43.158  17.152  -2.183  1.00  0.00     0.068 A 
ATOM     16  C   UNL     1      41.871  17.070  -1.632  1.00  0.00     0.158 A 
BRANCH  14  17
ATOM     17  O   UNL     1      39.659  16.042  -1.625  1.00  0.00    -0.504 OA
ATOM     18  H   UNL     1      38.978  15.390  -1.997  1.00  0.00     0.293 HD
ENDBRANCH  14  17
BRANCH  16  19
ATOM     19  O   UNL     1      41.508  17.901  -0.573  1.00  0.00    -0.504 OA
ATOM     20  H   UNL     1      41.628  17.615   0.392  1.00  0.00     0.293 HD
ENDBRANCH  16  19
ENDBRANCH   1  11
BRANCH  10  21
ATOM     21  O   UNL     1      44.406  18.473  -5.033  1.00  0.00    -0.500 OA
ATOM     22  H   UNL     1      44.135  18.631  -5.996  1.00  0.00     0.294 HD
ENDBRANCH  10  21
BRANCH   5  23
ATOM     23  O   UNL     1      50.086  13.428  -3.462  1.00  0.00    -0.507 OA
ATOM     24  H   UNL     1      51.048  13.373  -3.774  1.00  0.00     0.293 HD
ENDBRANCH   5  23
BRANCH   7  25
ATOM     25  O   UNL     1      49.299  17.412  -6.115  1.00  0.00    -0.507 OA
ATOM     26  H   UNL     1      49.609  18.320  -5.791  1.00  0.00     0.293 HD
ENDBRANCH   7  25
TORSDOF 6
ENDMDL
MODEL 3
REMARK VINA RESULT:    -5.238      4.131      7.731
REMARK INTER + INTRA:          -6.647
REMARK INTER:                  -6.936
REMARK INTRA:                   0.290
REMARK UNBOUND:                -0.337
REMARK SMILES Oc1cc(O)c2cc(O)c(-c3ccc(O)c(O)c3)[o+]c2c1
REMARK SMILES IDX 10 1 19 2 20 3 21 4 2 5 3 6 4 7 6 8 7 9 8 10 11 11 12 12
REMARK SMILES IDX 13 13 14 14 18 15 16 16 15 17 17 19 9 21 1 23 5 25
REMARK H PARENT 15 18 17 20 9 22 1 24 5 26
REMARK Flexibility Score: inf
ROOT
ATOM      1  C   UNL     1      46.167  16.453  -4.187  1.00  0.00     0.402 A 
ATOM      2  O   UNL     1      45.291  16.062  -3.263  1.00  0.00    -0.202 OA
ATOM      3  C   UNL     1      44.078  16.594  -3.138  1.00  0.00     0.368 A 
ATOM      4  C   UNL     1      43.219  16.130  -2.138  1.00  0.00     0.162 A 
ATOM      5  C   UNL     1      41.943  16.682  -1.993  1.00  0.00     0.128 A 
ATOM      6  C   UNL     1      41.523  17.707  -2.854  1.00  0.00     0.093 A 
ATOM      7  C   UNL     1      42.374  18.180  -3.863  1.00  0.00     0.136 A 
ATOM      8  C   UNL     1      43.658  17.623  -4.008  1.00  0.00     0.125 A 
ATOM      9  C   UNL     1      44.547  18.052  -5.001  1.00  0.00     0.078 A 
ATOM     10  C   UNL     1      45.809  17.460  -5.107  1.00  0.00     0.223 A 
ENDROOT
BRANCH   1  11
ATOM     11  C   UNL     1      47.491  15.790  -4.221  1.00  0.00     0.087 A 
ATOM     12  C   UNL     1      48.595  16.394  -4.847  1.00  0.00     0.022 A 
ATOM     13  C   UNL     1      49.840  15.759  -4.847  1.00  0.00     0.051 A 
ATOM     14  C   UNL     1      50.006  14.524  -4.212  1.00  0.00     0.157 A 
ATOM     15  C   UNL     1      47.664  14.560  -3.567  1.00  0.00     0.068 A 
ATOM     16  C   UNL     1      48.913  13.922  -3.566  1.00  0.00     0.158 A 
BRANCH  14  17
ATOM     17  O   UNL     1      51.260  13.914  -4.230  1.00  0.00    -0.504 OA
ATOM     18  H   UNL     1      52.105  14.431  -4.440  1.00  0.00     0.293 HD
ENDBRANCH  14  17
BRANCH  16  19
ATOM     19  O   UNL     1      49.071  12.694  -2.926  1.00  0.00    -0.504 OA
ATOM     20  H   UNL     1      49.361  11.865  -3.431  1.00  0.00     0.293 HD
ENDBRANCH  16  19
ENDBRANCH   1  11
BRANCH  10  21
ATOM     21  O   UNL     1      46.679  17.848  -6.125  1.00  0.00    -0.500 OA
ATOM     22  H   UNL     1      47.019  17.187  -6.814  1.00  0.00     0.294 HD
ENDBRANCH  10  21
BRANCH   5  23
ATOM     23  O   UNL     1      41.099  16.209  -0.991  1.00  0.00    -0.507 OA
ATOM     24  H   UNL     1      40.715  16.826  -0.286  1.00  0.00     0.293 HD
ENDBRANCH   5  23
BRANCH   7  25
ATOM     25  O   UNL     1      41.945  19.199  -4.715  1.00  0.00    -0.507 OA
ATOM     26  H   UNL     1      42.294  19.282  -5.662  1.00  0.00     0.293 HD
ENDBRANCH   7  25
TORSDOF 6
ENDMDL
MODEL 4
REMARK VINA RESULT:    -5.217      4.458      5.717
REMARK INTER + INTRA:          -6.621
REMARK INTER:                  -6.852
REMARK INTRA:                   0.231
REMARK UNBOUND:                -0.337
REMARK SMILES Oc1cc(O)c2cc(O)c(-c3ccc(O)c(O)c3)[o+]c2c1
REMARK SMILES IDX 10 1 19 2 20 3 21 4 2 5 3 6 4 7 6 8 7 9 8 10 11 11 12 12
REMARK SMILES IDX 13 13 14 14 18 15 16 16 15 17 17 19 9 21 1 23 5 25
REMARK H PARENT 15 18 17 20 9 22 1 24 5 26
REMARK Flexibility Score: inf
ROOT
ATOM      1  C   UNL     1      44.970  16.341  -3.234  1.00  0.00     0.402 A 
ATOM      2  O   UNL     1      45.474  15.307  -2.562  1.00  0.00    -0.202 OA
ATOM      3  C   UNL     1      46.595  14.685  -2.915  1.00  0.00     0.368 A 
ATOM      4  C   UNL     1      47.055  13.604  -2.158  1.00  0.00     0.162 A 
ATOM      5  C   UNL     1      48.230  12.939  -2.521  1.00  0.00     0.128 A 
ATOM      6  C   UNL     1      48.951  13.357  -3.649  1.00  0.00     0.093 A 
ATOM      7  C   UNL     1      48.502  14.442  -4.416  1.00  0.00     0.136 A 
ATOM      8  C   UNL     1      47.319  15.110  -4.050  1.00  0.00     0.125 A 
ATOM      9  C   UNL     1      46.828  16.203  -4.774  1.00  0.00     0.078 A 
ATOM     10  C   UNL     1      45.651  16.837  -4.364  1.00  0.00     0.223 A 
ENDROOT
BRANCH   1  11
ATOM     11  C   UNL     1      43.709  16.945  -2.747  1.00  0.00     0.087 A 
ATOM     12  C   UNL     1      43.428  18.309  -2.939  1.00  0.00     0.022 A 
ATOM     13  C   UNL     1      42.221  18.851  -2.491  1.00  0.00     0.051 A 
ATOM     14  C   UNL     1      41.272  18.041  -1.858  1.00  0.00     0.157 A 
ATOM     15  C   UNL     1      42.746  16.130  -2.129  1.00  0.00     0.068 A 
ATOM     16  C   UNL     1      41.534  16.673  -1.679  1.00  0.00     0.158 A 
BRANCH  14  17
ATOM     17  O   UNL     1      40.078  18.612  -1.419  1.00  0.00    -0.504 OA
ATOM     18  H   UNL     1      39.673  18.386  -0.519  1.00  0.00     0.293 HD
ENDBRANCH  14  17
BRANCH  16  19
ATOM     19  O   UNL     1      40.591  15.858  -1.054  1.00  0.00    -0.504 OA
ATOM     20  H   UNL     1      40.219  16.082  -0.139  1.00  0.00     0.293 HD
ENDBRANCH  16  19
ENDBRANCH   1  11
BRANCH  10  21
ATOM     21  O   UNL     1      45.184  17.957  -5.052  1.00  0.00    -0.500 OA
ATOM     22  H   UNL     1      45.815  18.676  -5.387  1.00  0.00     0.294 HD
ENDBRANCH  10  21
BRANCH   5  23
ATOM     23  O   UNL     1      48.674  11.862  -1.756  1.00  0.00    -0.507 OA
ATOM     24  H   UNL     1      49.617  11.504  -1.841  1.00  0.00     0.293 HD
ENDBRANCH   5  23
BRANCH   7  25
ATOM     25  O   UNL     1      49.228  14.851  -5.535  1.00  0.00    -0.507 OA
ATOM     26  H   UNL     1      48.883  15.572  -6.158  1.00  0.00     0.293 HD
ENDBRANCH   7  25
TORSDOF 6
ENDMDL
MODEL 5
REMARK VINA RESULT:    -5.046      4.181      6.093
REMARK INTER + INTRA:          -6.416
REMARK INTER:                  -6.299
REMARK INTRA:                  -0.117
REMARK UNBOUND:                -0.337
REMARK SMILES Oc1cc(O)c2cc(O)c(-c3ccc(O)c(O)c3)[o+]c2c1
REMARK SMILES IDX 10 1 19 2 20 3 21 4 2 5 3 6 4 7 6 8 7 9 8 10 11 11 12 12
REMARK SMILES IDX 13 13 14 14 18 15 16 16 15 17 17 19 9 21 1 23 5 25
REMARK H PARENT 15 18 17 20 9 22 1 24 5 26
REMARK Flexibility Score: inf
ROOT
ATOM      1  C   UNL     1      45.231  15.786  -3.401  1.00  0.00     0.402 A 
ATOM      2  O   UNL     1      46.536  15.806  -3.665  1.00  0.00    -0.202 OA
ATOM      3  C   UNL     1      47.320  14.738  -3.545  1.00  0.00     0.368 A 
ATOM      4  C   UNL     1      48.683  14.844  -3.837  1.00  0.00     0.162 A 
ATOM      5  C   UNL     1      49.519  13.730  -3.711  1.00  0.00     0.128 A 
ATOM      6  C   UNL     1      48.989  12.501  -3.291  1.00  0.00     0.093 A 
ATOM      7  C   UNL     1      47.622  12.381  -2.997  1.00  0.00     0.136 A 
ATOM      8  C   UNL     1      46.782  13.503  -3.123  1.00  0.00     0.125 A 
ATOM      9  C   UNL     1      45.411  13.439  -2.850  1.00  0.00     0.078 A 
ATOM     10  C   UNL     1      44.618  14.581  -2.998  1.00  0.00     0.223 A 
ENDROOT
BRANCH   1  11
ATOM     11  C   UNL     1      44.465  17.042  -3.564  1.00  0.00     0.087 A 
ATOM     12  C   UNL     1      44.406  17.710  -4.800  1.00  0.00     0.022 A 
ATOM     13  C   UNL     1      43.658  18.882  -4.934  1.00  0.00     0.051 A 
ATOM     14  C   UNL     1      42.947  19.398  -3.845  1.00  0.00     0.157 A 
ATOM     15  C   UNL     1      43.733  17.551  -2.478  1.00  0.00     0.068 A 
ATOM     16  C   UNL     1      42.982  18.727  -2.611  1.00  0.00     0.158 A 
BRANCH  14  17
ATOM     17  O   UNL     1      42.211  20.571  -4.010  1.00  0.00    -0.504 OA
ATOM     18  H   UNL     1      41.204  20.592  -3.904  1.00  0.00     0.293 HD
ENDBRANCH  14  17
BRANCH  16  19
ATOM     19  O   UNL     1      42.271  19.231  -1.523  1.00  0.00    -0.504 OA
ATOM     20  H   UNL     1      42.329  20.207  -1.257  1.00  0.00     0.293 HD
ENDBRANCH  16  19
ENDBRANCH   1  11
BRANCH  10  21
ATOM     21  O   UNL     1      43.244  14.512  -2.777  1.00  0.00    -0.500 OA
ATOM     22  H   UNL     1      42.622  14.052  -3.431  1.00  0.00     0.294 HD
ENDBRANCH  10  21
BRANCH   5  23
ATOM     23  O   UNL     1      50.875  13.853  -4.006  1.00  0.00    -0.507 OA
ATOM     24  H   UNL     1      51.201  14.431  -4.770  1.00  0.00     0.293 HD
ENDBRANCH   5  23
BRANCH   7  25
ATOM     25  O   UNL     1      47.105  11.153  -2.581  1.00  0.00    -0.507 OA
ATOM     26  H   UNL     1      47.068  10.354  -3.203  1.00  0.00     0.293 HD
ENDBRANCH   7  25
TORSDOF 6
ENDMDL
MODEL 6
REMARK VINA RESULT:    -5.016      3.933      5.357
REMARK INTER + INTRA:          -6.379
REMARK INTER:                  -6.319
REMARK INTRA:                  -0.061
REMARK UNBOUND:                -0.337
REMARK SMILES Oc1cc(O)c2cc(O)c(-c3ccc(O)c(O)c3)[o+]c2c1
REMARK SMILES IDX 10 1 19 2 20 3 21 4 2 5 3 6 4 7 6 8 7 9 8 10 11 11 12 12
REMARK SMILES IDX 13 13 14 14 18 15 16 16 15 17 17 19 9 21 1 23 5 25
REMARK H PARENT 15 18 17 20 9 22 1 24 5 26
REMARK Flexibility Score: inf
ROOT
ATOM      1  C   UNL     1      46.008  16.047  -3.837  1.00  0.00     0.402 A 
ATOM      2  O   UNL     1      47.248  16.427  -4.143  1.00  0.00    -0.202 OA
ATOM      3  C   UNL     1      48.282  15.592  -4.159  1.00  0.00     0.368 A 
ATOM      4  C   UNL     1      49.554  16.071  -4.486  1.00  0.00     0.162 A 
ATOM      5  C   UNL     1      50.651  15.204  -4.504  1.00  0.00     0.128 A 
ATOM      6  C   UNL     1      50.476  13.848  -4.191  1.00  0.00     0.093 A 
ATOM      7  C   UNL     1      49.205  13.354  -3.862  1.00  0.00     0.136 A 
ATOM      8  C   UNL     1      48.102  14.227  -3.845  1.00  0.00     0.125 A 
ATOM      9  C   UNL     1      46.810  13.787  -3.532  1.00  0.00     0.078 A 
ATOM     10  C   UNL     1      45.747  14.695  -3.536  1.00  0.00     0.223 A 
ENDROOT
BRANCH   1  11
ATOM     11  C   UNL     1      44.940  17.073  -3.845  1.00  0.00     0.087 A 
ATOM     12  C   UNL     1      44.697  17.868  -4.978  1.00  0.00     0.022 A 
ATOM     13  C   UNL     1      43.668  18.814  -4.969  1.00  0.00     0.051 A 
ATOM     14  C   UNL     1      42.859  18.970  -3.839  1.00  0.00     0.157 A 
ATOM     15  C   UNL     1      44.114  17.218  -2.719  1.00  0.00     0.068 A 
ATOM     16  C   UNL     1      43.080  18.166  -2.708  1.00  0.00     0.158 A 
BRANCH  14  17
ATOM     17  O   UNL     1      41.842  19.924  -3.860  1.00  0.00    -0.504 OA
ATOM     18  H   UNL     1      41.781  20.659  -3.166  1.00  0.00     0.293 HD
ENDBRANCH  14  17
BRANCH  16  19
ATOM     19  O   UNL     1      42.275  18.312  -1.580  1.00  0.00    -0.504 OA
ATOM     20  H   UNL     1      42.612  18.082  -0.653  1.00  0.00     0.293 HD
ENDBRANCH  16  19
ENDBRANCH   1  11
BRANCH  10  21
ATOM     21  O   UNL     1      44.450  14.253  -3.274  1.00  0.00    -0.500 OA
ATOM     22  H   UNL     1      44.013  14.394  -2.371  1.00  0.00     0.294 HD
ENDBRANCH  10  21
BRANCH   5  23
ATOM     23  O   UNL     1      51.911  15.698  -4.832  1.00  0.00    -0.507 OA
ATOM     24  H   UNL     1      52.319  15.547  -5.746  1.00  0.00     0.293 HD
ENDBRANCH   5  23
BRANCH   7  25
ATOM     25  O   UNL     1      49.042  12.002  -3.555  1.00  0.00    -0.507 OA
ATOM     26  H   UNL     1      49.345  11.619  -2.667  1.00  0.00     0.293 HD
ENDBRANCH   7  25
TORSDOF 6
ENDMDL
MODEL 7
REMARK VINA RESULT:    -4.848      4.792      8.739
REMARK INTER + INTRA:          -6.176
REMARK INTER:                  -6.313
REMARK INTRA:                   0.136
REMARK UNBOUND:                -0.337
REMARK SMILES Oc1cc(O)c2cc(O)c(-c3ccc(O)c(O)c3)[o+]c2c1
REMARK SMILES IDX 10 1 19 2 20 3 21 4 2 5 3 6 4 7 6 8 7 9 8 10 11 11 12 12
REMARK SMILES IDX 13 13 14 14 18 15 16 16 15 17 17 19 9 21 1 23 5 25
REMARK H PARENT 15 18 17 20 9 22 1 24 5 26
REMARK Flexibility Score: inf
ROOT
ATOM      1  C   UNL     1      45.235  16.494  -3.596  1.00  0.00     0.402 A 
ATOM      2  O   UNL     1      44.664  17.687  -3.436  1.00  0.00    -0.202 OA
ATOM      3  C   UNL     1      43.483  17.856  -2.850  1.00  0.00     0.368 A 
ATOM      4  C   UNL     1      42.949  19.142  -2.725  1.00  0.00     0.162 A 
ATOM      5  C   UNL     1      41.706  19.333  -2.114  1.00  0.00     0.128 A 
ATOM      6  C   UNL     1      40.991  18.230  -1.625  1.00  0.00     0.093 A 
ATOM      7  C   UNL     1      41.515  16.935  -1.742  1.00  0.00     0.136 A 
ATOM      8  C   UNL     1      42.766  16.744  -2.357  1.00  0.00     0.125 A 
ATOM      9  C   UNL     1      43.341  15.475  -2.495  1.00  0.00     0.078 A 
ATOM     10  C   UNL     1      44.590  15.340  -3.108  1.00  0.00     0.223 A 
ENDROOT
BRANCH   1  11
ATOM     11  C   UNL     1      46.551  16.434  -4.273  1.00  0.00     0.087 A 
ATOM     12  C   UNL     1      46.844  17.250  -5.380  1.00  0.00     0.022 A 
ATOM     13  C   UNL     1      48.100  17.191  -5.987  1.00  0.00     0.051 A 
ATOM     14  C   UNL     1      49.087  16.330  -5.494  1.00  0.00     0.157 A 
ATOM     15  C   UNL     1      47.550  15.585  -3.767  1.00  0.00     0.068 A 
ATOM     16  C   UNL     1      48.812  15.525  -4.376  1.00  0.00     0.158 A 
BRANCH  14  17
ATOM     17  O   UNL     1      50.330  16.292  -6.124  1.00  0.00    -0.504 OA
ATOM     18  H   UNL     1      50.885  17.127  -6.268  1.00  0.00     0.293 HD
ENDBRANCH  14  17
BRANCH  16  19
ATOM     19  O   UNL     1      49.791  14.669  -3.875  1.00  0.00    -0.504 OA
ATOM     20  H   UNL     1      49.553  13.858  -3.317  1.00  0.00     0.293 HD
ENDBRANCH  16  19
ENDBRANCH   1  11
BRANCH  10  21
ATOM     21  O   UNL     1      45.190  14.085  -3.203  1.00  0.00    -0.500 OA
ATOM     22  H   UNL     1      44.664  13.264  -3.477  1.00  0.00     0.294 HD
ENDBRANCH  10  21
BRANCH   5  23
ATOM     23  O   UNL     1      41.189  20.621  -1.998  1.00  0.00    -0.507 OA
ATOM     24  H   UNL     1      40.438  20.835  -1.353  1.00  0.00     0.293 HD
ENDBRANCH   5  23
BRANCH   7  25
ATOM     25  O   UNL     1      40.795  15.845  -1.250  1.00  0.00    -0.507 OA
ATOM     26  H   UNL     1      41.247  15.098  -0.737  1.00  0.00     0.293 HD
ENDBRANCH   7  25
TORSDOF 6
ENDMDL
MODEL 8
REMARK VINA RESULT:    -4.814      3.051      7.266
REMARK INTER + INTRA:          -6.135
REMARK INTER:                  -6.138
REMARK INTRA:                   0.003
REMARK UNBOUND:                -0.337
REMARK SMILES Oc1cc(O)c2cc(O)c(-c3ccc(O)c(O)c3)[o+]c2c1
REMARK SMILES IDX 10 1 19 2 20 3 21 4 2 5 3 6 4 7 6 8 7 9 8 10 11 11 12 12
REMARK SMILES IDX 13 13 14 14 18 15 16 16 15 17 17 19 9 21 1 23 5 25
REMARK H PARENT 15 18 17 20 9 22 1 24 5 26
REMARK Flexibility Score: inf
ROOT
ATOM      1  C   UNL     1      47.833  15.138  -4.099  1.00  0.00     0.402 A 
ATOM      2  O   UNL     1      47.233  16.166  -4.696  1.00  0.00    -0.202 OA
ATOM      3  C   UNL     1      45.994  16.555  -4.405  1.00  0.00     0.368 A 
ATOM      4  C   UNL     1      45.434  17.642  -5.081  1.00  0.00     0.162 A 
ATOM      5  C   UNL     1      44.132  18.059  -4.787  1.00  0.00     0.128 A 
ATOM      6  C   UNL     1      43.384  17.384  -3.812  1.00  0.00     0.093 A 
ATOM      7  C   UNL     1      43.936  16.292  -3.125  1.00  0.00     0.136 A 
ATOM      8  C   UNL     1      45.246  15.873  -3.421  1.00  0.00     0.125 A 
ATOM      9  C   UNL     1      45.849  14.795  -2.762  1.00  0.00     0.078 A 
ATOM     10  C   UNL     1      47.156  14.424  -3.089  1.00  0.00     0.223 A 
ENDROOT
BRANCH   1  11
ATOM     11  C   UNL     1      49.212  14.795  -4.516  1.00  0.00     0.087 A 
ATOM     12  C   UNL     1      49.603  13.462  -4.731  1.00  0.00     0.022 A 
ATOM     13  C   UNL     1      50.903  13.165  -5.145  1.00  0.00     0.051 A 
ATOM     14  C   UNL     1      51.829  14.191  -5.365  1.00  0.00     0.157 A 
ATOM     15  C   UNL     1      50.137  15.825  -4.757  1.00  0.00     0.068 A 
ATOM     16  C   UNL     1      51.443  15.529  -5.173  1.00  0.00     0.158 A 
BRANCH  14  17
ATOM     17  O   UNL     1      53.120  13.864  -5.777  1.00  0.00    -0.504 OA
ATOM     18  H   UNL     1      53.588  13.024  -5.458  1.00  0.00     0.293 HD
ENDBRANCH  14  17
BRANCH  16  19
ATOM     19  O   UNL     1      52.357  16.557  -5.396  1.00  0.00    -0.504 OA
ATOM     20  H   UNL     1      53.309  16.368  -5.688  1.00  0.00     0.293 HD
ENDBRANCH  16  19
ENDBRANCH   1  11
BRANCH  10  21
ATOM     21  O   UNL     1      47.780  13.383  -2.402  1.00  0.00    -0.500 OA
ATOM     22  H   UNL     1      48.434  12.760  -2.860  1.00  0.00     0.294 HD
ENDBRANCH  10  21
BRANCH   5  23
ATOM     23  O   UNL     1      43.588  19.145  -5.471  1.00  0.00    -0.507 OA
ATOM     24  H   UNL     1      42.747  19.607  -5.147  1.00  0.00     0.293 HD
ENDBRANCH   5  23
BRANCH   7  25
ATOM     25  O   UNL     1      43.183  15.628  -2.155  1.00  0.00    -0.507 OA
ATOM     26  H   UNL     1      42.743  16.127  -1.391  1.00  0.00     0.293 HD
ENDBRANCH   7  25
TORSDOF 6
ENDMDL
MODEL 9
REMARK VINA RESULT:    -4.788      6.124      9.604
REMARK INTER + INTRA:          -6.104
REMARK INTER:                  -5.751
REMARK INTRA:                  -0.353
REMARK UNBOUND:                -0.337
REMARK SMILES Oc1cc(O)c2cc(O)c(-c3ccc(O)c(O)c3)[o+]c2c1
REMARK SMILES IDX 10 1 19 2 20 3 21 4 2 5 3 6 4 7 6 8 7 9 8 10 11 11 12 12
REMARK SMILES IDX 13 13 14 14 18 15 16 16 15 17 17 19 9 21 1 23 5 25
REMARK H PARENT 15 18 17 20 9 22 1 24 5 26
REMARK Flexibility Score: inf
ROOT
ATOM      1  C   UNL     1      43.828  17.405  -3.835  1.00  0.00     0.402 A 
ATOM      2  O   UNL     1      43.657  18.421  -2.990  1.00  0.00    -0.202 OA
ATOM      3  C   UNL     1      42.464  18.800  -2.540  1.00  0.00     0.368 A 
ATOM      4  C   UNL     1      42.369  19.880  -1.658  1.00  0.00     0.162 A 
ATOM      5  C   UNL     1      41.121  20.292  -1.181  1.00  0.00     0.128 A 
ATOM      6  C   UNL     1      39.959  19.620  -1.588  1.00  0.00     0.093 A 
ATOM      7  C   UNL     1      40.041  18.533  -2.471  1.00  0.00     0.136 A 
ATOM      8  C   UNL     1      41.297  18.120  -2.951  1.00  0.00     0.125 A 
ATOM      9  C   UNL     1      41.439  17.038  -3.828  1.00  0.00     0.078 A 
ATOM     10  C   UNL     1      42.711  16.663  -4.270  1.00  0.00     0.223 A 
ENDROOT
BRANCH   1  11
ATOM     11  C   UNL     1      45.206  17.083  -4.271  1.00  0.00     0.087 A 
ATOM     12  C   UNL     1      45.772  17.683  -5.410  1.00  0.00     0.022 A 
ATOM     13  C   UNL     1      47.083  17.380  -5.789  1.00  0.00     0.051 A 
ATOM     14  C   UNL     1      47.851  16.488  -5.033  1.00  0.00     0.157 A 
ATOM     15  C   UNL     1      45.986  16.204  -3.503  1.00  0.00     0.068 A 
ATOM     16  C   UNL     1      47.302  15.899  -3.882  1.00  0.00     0.158 A 
BRANCH  14  17
ATOM     17  O   UNL     1      49.155  16.204  -5.438  1.00  0.00    -0.504 OA
ATOM     18  H   UNL     1      49.619  15.339  -5.189  1.00  0.00     0.293 HD
ENDBRANCH  14  17
BRANCH  16  19
ATOM     19  O   UNL     1      48.063  15.014  -3.120  1.00  0.00    -0.504 OA
ATOM     20  H   UNL     1      47.635  14.264  -2.591  1.00  0.00     0.293 HD
ENDBRANCH  16  19
ENDBRANCH   1  11
BRANCH  10  21
ATOM     21  O   UNL     1      42.864  15.555  -5.104  1.00  0.00    -0.500 OA
ATOM     22  H   UNL     1      43.764  15.303  -5.493  1.00  0.00     0.294 HD
ENDBRANCH  10  21
BRANCH   5  23
ATOM     23  O   UNL     1      41.044  21.371  -0.302  1.00  0.00    -0.507 OA
ATOM     24  H   UNL     1      41.071  22.327  -0.634  1.00  0.00     0.293 HD
ENDBRANCH   5  23
BRANCH   7  25
ATOM     25  O   UNL     1      38.879  17.870  -2.868  1.00  0.00    -0.507 OA
ATOM     26  H   UNL     1      37.962  18.174  -2.562  1.00  0.00     0.293 HD
ENDBRANCH   7  25
TORSDOF 6
ENDMDL
