MODEL 1
REMARK VINA RESULT:    -3.102      0.000      0.000
REMARK INTER + INTRA:          -9.061
REMARK INTER:                  -6.003
REMARK INTRA:                  -3.058
REMARK UNBOUND:                -3.058
REMARK SMILES CCCCCCCCCCCCCCCCCC(=O)[O-]
REMARK SMILES IDX 10 1 11 2 12 3 13 4 14 5 15 6 16 7 17 8 18 9 19 10 20 11
REMARK SMILES IDX 9 12 8 13 7 14 6 15 5 16 4 17 3 18 2 19 1 20
REMARK H PARENT
REMARK Flexibility Score: inf
ROOT
ATOM      1  C   UNL     1     -18.835  17.082 -24.484  1.00  0.00     0.000 C 
ENDROOT
BRANCH   1   2
ATOM      2  C   UNL     1     -19.776  18.014 -23.711  1.00  0.00     0.000 C 
BRANCH   2   3
ATOM      3  C   UNL     1     -18.986  18.990 -22.831  1.00  0.00     0.000 C 
BRANCH   3   4
ATOM      4  C   UNL     1     -19.139  20.432 -23.338  1.00  0.00     0.000 C 
BRANCH   4   5
ATOM      5  C   UNL     1     -18.024  20.843 -24.314  1.00  0.00     0.000 C 
BRANCH   5   6
ATOM      6  C   UNL     1     -16.671  20.199 -23.965  1.00  0.00     0.000 C 
BRANCH   6   7
ATOM      7  C   UNL     1     -16.030  19.474 -25.165  1.00  0.00     0.006 C 
BRANCH   7   8
ATOM      8  C   UNL     1     -16.510  19.972 -26.538  1.00  0.00     0.053 C 
BRANCH   8   9
ATOM      9  C   UNL     1     -15.867  19.225 -27.666  1.00  0.00     0.041 C 
ATOM     10  O   UNL     1     -15.202  19.843 -28.538  1.00  0.00    -0.550 OA
ATOM     11  O   UNL     1     -15.972  17.841 -27.731  1.00  0.00    -0.550 OA
ENDBRANCH   8   9
ENDBRANCH   7   8
ENDBRANCH   6   7
ENDBRANCH   5   6
ENDBRANCH   4   5
ENDBRANCH   3   4
ENDBRANCH   2   3
ENDBRANCH   1   2
BRANCH   1  12
ATOM     12  C   UNL     1     -19.044  17.220 -25.997  1.00  0.00     0.000 C 
BRANCH  12  13
ATOM     13  C   UNL     1     -20.275  18.087 -26.304  1.00  0.00    -0.000 C 
BRANCH  13  14
ATOM     14  C   UNL     1     -19.946  19.285 -27.210  1.00  0.00    -0.000 C 
BRANCH  14  15
ATOM     15  C   UNL     1     -20.731  20.552 -26.824  1.00  0.00    -0.000 C 
BRANCH  15  16
ATOM     16  C   UNL     1     -22.024  20.234 -26.056  1.00  0.00    -0.000 C 
BRANCH  16  17
ATOM     17  C   UNL     1     -23.270  20.269 -26.953  1.00  0.00    -0.000 C 
BRANCH  17  18
ATOM     18  C   UNL     1     -23.765  18.850 -27.259  1.00  0.00    -0.000 C 
BRANCH  18  19
ATOM     19  C   UNL     1     -23.972  18.651 -28.765  1.00  0.00    -0.003 C 
ATOM     20  C   UNL     1     -22.701  18.973 -29.544  1.00  0.00     0.004 C 
ENDBRANCH  18  19
ENDBRANCH  17  18
ENDBRANCH  16  17
ENDBRANCH  15  16
ENDBRANCH  14  15
ENDBRANCH  13  14
ENDBRANCH  12  13
ENDBRANCH   1  12
TORSDOF 16
ENDMDL
MODEL 2
REMARK VINA RESULT:    -3.057      7.556     10.333
REMARK INTER + INTRA:          -8.974
REMARK INTER:                  -6.161
REMARK INTRA:                  -2.813
REMARK UNBOUND:                -3.058
REMARK SMILES CCCCCCCCCCCCCCCCCC(=O)[O-]
REMARK SMILES IDX 10 1 11 2 12 3 13 4 14 5 15 6 16 7 17 8 18 9 19 10 20 11
REMARK SMILES IDX 9 12 8 13 7 14 6 15 5 16 4 17 3 18 2 19 1 20
REMARK H PARENT
REMARK Flexibility Score: inf
ROOT
ATOM      1  C   UNL     1     -12.862  18.521 -26.953  1.00  0.00     0.000 C 
ENDROOT
BRANCH   1   2
ATOM      2  C   UNL     1     -11.337  18.393 -26.851  1.00  0.00     0.000 C 
BRANCH   2   3
ATOM      3  C   UNL     1     -10.939  17.291 -25.862  1.00  0.00     0.000 C 
BRANCH   3   4
ATOM      4  C   UNL     1      -9.917  17.813 -24.841  1.00  0.00     0.000 C 
BRANCH   4   5
ATOM      5  C   UNL     1      -9.299  19.160 -25.252  1.00  0.00     0.000 C 
BRANCH   5   6
ATOM      6  C   UNL     1      -8.787  19.965 -24.046  1.00  0.00     0.000 C 
BRANCH   6   7
ATOM      7  C   UNL     1      -8.466  19.075 -22.829  1.00  0.00     0.006 C 
BRANCH   7   8
ATOM      8  C   UNL     1      -8.422  19.825 -21.488  1.00  0.00     0.053 C 
BRANCH   8   9
ATOM      9  C   UNL     1      -7.921  18.959 -20.373  1.00  0.00     0.041 C 
ATOM     10  O   UNL     1      -8.597  17.968 -19.989  1.00  0.00    -0.550 OA
ATOM     11  O   UNL     1      -6.692  19.225 -19.784  1.00  0.00    -0.550 OA
ENDBRANCH   8   9
ENDBRANCH   7   8
ENDBRANCH   6   7
ENDBRANCH   5   6
ENDBRANCH   4   5
ENDBRANCH   3   4
ENDBRANCH   2   3
ENDBRANCH   1   2
BRANCH   1  12
ATOM     12  C   UNL     1     -13.338  19.875 -26.412  1.00  0.00     0.000 C 
BRANCH  12  13
ATOM     13  C   UNL     1     -13.425  19.855 -24.879  1.00  0.00    -0.000 C 
BRANCH  13  14
ATOM     14  C   UNL     1     -12.525  20.914 -24.220  1.00  0.00    -0.000 C 
BRANCH  14  15
ATOM     15  C   UNL     1     -12.135  20.544 -22.778  1.00  0.00    -0.000 C 
BRANCH  15  16
ATOM     16  C   UNL     1     -12.767  19.221 -22.315  1.00  0.00    -0.000 C 
BRANCH  16  17
ATOM     17  C   UNL     1     -11.785  18.338 -21.531  1.00  0.00    -0.000 C 
BRANCH  17  18
ATOM     18  C   UNL     1     -12.288  18.096 -20.102  1.00  0.00    -0.000 C 
BRANCH  18  19
ATOM     19  C   UNL     1     -12.605  19.420 -19.398  1.00  0.00    -0.003 C 
ATOM     20  C   UNL     1     -11.331  20.200 -19.090  1.00  0.00     0.004 C 
ENDBRANCH  18  19
ENDBRANCH  17  18
ENDBRANCH  16  17
ENDBRANCH  15  16
ENDBRANCH  14  15
ENDBRANCH  13  14
ENDBRANCH  12  13
ENDBRANCH   1  12
TORSDOF 16
ENDMDL
MODEL 3
REMARK VINA RESULT:    -3.037      6.526      9.945
REMARK INTER + INTRA:          -8.936
REMARK INTER:                  -6.464
REMARK INTRA:                  -2.473
REMARK UNBOUND:                -3.058
REMARK SMILES CCCCCCCCCCCCCCCCCC(=O)[O-]
REMARK SMILES IDX 10 1 11 2 12 3 13 4 14 5 15 6 16 7 17 8 18 9 19 10 20 11
REMARK SMILES IDX 9 12 8 13 7 14 6 15 5 16 4 17 3 18 2 19 1 20
REMARK H PARENT
REMARK Flexibility Score: inf
ROOT
ATOM      1  C   UNL     1     -11.653  20.242 -20.536  1.00  0.00     0.000 C 
ENDROOT
BRANCH   1   2
ATOM      2  C   UNL     1     -12.896  19.437 -20.932  1.00  0.00     0.000 C 
BRANCH   2   3
ATOM      3  C   UNL     1     -13.221  19.616 -22.420  1.00  0.00     0.000 C 
BRANCH   3   4
ATOM      4  C   UNL     1     -12.558  20.886 -22.976  1.00  0.00     0.000 C 
BRANCH   4   5
ATOM      5  C   UNL     1     -12.521  20.914 -24.513  1.00  0.00     0.000 C 
BRANCH   5   6
ATOM      6  C   UNL     1     -13.307  19.751 -25.141  1.00  0.00     0.000 C 
BRANCH   6   7
ATOM      7  C   UNL     1     -13.371  19.837 -26.679  1.00  0.00     0.006 C 
BRANCH   7   8
ATOM      8  C   UNL     1     -13.272  18.481 -27.396  1.00  0.00     0.053 C 
BRANCH   8   9
ATOM      9  C   UNL     1     -13.852  18.529 -28.776  1.00  0.00     0.041 C 
ATOM     10  O   UNL     1     -15.093  18.405 -28.946  1.00  0.00    -0.550 OA
ATOM     11  O   UNL     1     -13.024  18.746 -29.870  1.00  0.00    -0.550 OA
ENDBRANCH   8   9
ENDBRANCH   7   8
ENDBRANCH   6   7
ENDBRANCH   5   6
ENDBRANCH   4   5
ENDBRANCH   3   4
ENDBRANCH   2   3
ENDBRANCH   1   2
BRANCH   1  12
ATOM     12  C   UNL     1     -11.070  19.739 -19.210  1.00  0.00     0.000 C 
BRANCH  12  13
ATOM     13  C   UNL     1      -9.608  19.300 -19.384  1.00  0.00    -0.000 C 
BRANCH  13  14
ATOM     14  C   UNL     1      -9.306  18.792 -20.804  1.00  0.00    -0.000 C 
BRANCH  14  15
ATOM     15  C   UNL     1      -7.883  19.149 -21.269  1.00  0.00    -0.000 C 
BRANCH  15  16
ATOM     16  C   UNL     1      -7.877  19.997 -22.551  1.00  0.00    -0.000 C 
BRANCH  16  17
ATOM     17  C   UNL     1      -9.164  19.838 -23.374  1.00  0.00    -0.000 C 
BRANCH  17  18
ATOM     18  C   UNL     1      -8.845  19.434 -24.818  1.00  0.00    -0.000 C 
BRANCH  18  19
ATOM     19  C   UNL     1      -9.841  18.388 -25.331  1.00  0.00    -0.003 C 
ATOM     20  C   UNL     1     -10.417  17.565 -24.183  1.00  0.00     0.004 C 
ENDBRANCH  18  19
ENDBRANCH  17  18
ENDBRANCH  16  17
ENDBRANCH  15  16
ENDBRANCH  14  15
ENDBRANCH  13  14
ENDBRANCH  12  13
ENDBRANCH   1  12
TORSDOF 16
ENDMDL
MODEL 4
REMARK VINA RESULT:    -3.033      4.542      7.144
REMARK INTER + INTRA:          -8.927
REMARK INTER:                  -6.052
REMARK INTRA:                  -2.875
REMARK UNBOUND:                -3.058
REMARK SMILES CCCCCCCCCCCCCCCCCC(=O)[O-]
REMARK SMILES IDX 10 1 11 2 12 3 13 4 14 5 15 6 16 7 17 8 18 9 19 10 20 11
REMARK SMILES IDX 9 12 8 13 7 14 6 15 5 16 4 17 3 18 2 19 1 20
REMARK H PARENT
REMARK Flexibility Score: inf
ROOT
ATOM      1  C   UNL     1     -15.065  19.772 -27.583  1.00  0.00     0.000 C 
ENDROOT
BRANCH   1   2
ATOM      2  C   UNL     1     -13.689  19.965 -26.932  1.00  0.00     0.000 C 
BRANCH   2   3
ATOM      3  C   UNL     1     -13.251  18.702 -26.182  1.00  0.00     0.000 C 
BRANCH   3   4
ATOM      4  C   UNL     1     -12.631  19.059 -24.823  1.00  0.00     0.000 C 
BRANCH   4   5
ATOM      5  C   UNL     1     -12.590  20.575 -24.567  1.00  0.00     0.000 C 
BRANCH   5   6
ATOM      6  C   UNL     1     -12.948  20.936 -23.115  1.00  0.00     0.000 C 
BRANCH   6   7
ATOM      7  C   UNL     1     -13.056  19.699 -22.203  1.00  0.00     0.006 C 
BRANCH   7   8
ATOM      8  C   UNL     1     -12.341  19.845 -20.849  1.00  0.00     0.053 C 
BRANCH   8   9
ATOM      9  C   UNL     1     -10.885  19.506 -20.941  1.00  0.00     0.041 C 
ATOM     10  O   UNL     1     -10.113  19.765 -19.981  1.00  0.00    -0.550 OA
ATOM     11  O   UNL     1     -10.389  18.872 -22.072  1.00  0.00    -0.550 OA
ENDBRANCH   8   9
ENDBRANCH   7   8
ENDBRANCH   6   7
ENDBRANCH   5   6
ENDBRANCH   4   5
ENDBRANCH   3   4
ENDBRANCH   2   3
ENDBRANCH   1   2
BRANCH   1  12
ATOM     12  C   UNL     1     -15.703  18.451 -27.140  1.00  0.00     0.000 C 
BRANCH  12  13
ATOM     13  C   UNL     1     -17.044  18.698 -26.432  1.00  0.00    -0.000 C 
BRANCH  13  14
ATOM     14  C   UNL     1     -17.131  18.000 -25.065  1.00  0.00    -0.000 C 
BRANCH  14  15
ATOM     15  C   UNL     1     -16.251  18.675 -23.998  1.00  0.00    -0.000 C 
BRANCH  15  16
ATOM     16  C   UNL     1     -16.406  20.205 -23.987  1.00  0.00    -0.000 C 
BRANCH  16  17
ATOM     17  C   UNL     1     -17.113  20.720 -22.725  1.00  0.00    -0.000 C 
BRANCH  17  18
ATOM     18  C   UNL     1     -17.305  19.590 -21.705  1.00  0.00    -0.000 C 
BRANCH  18  19
ATOM     19  C   UNL     1     -16.484  19.848 -20.437  1.00  0.00    -0.003 C 
ATOM     20  C   UNL     1     -15.899  18.551 -19.885  1.00  0.00     0.004 C 
ENDBRANCH  18  19
ENDBRANCH  17  18
ENDBRANCH  16  17
ENDBRANCH  15  16
ENDBRANCH  14  15
ENDBRANCH  13  14
ENDBRANCH  12  13
ENDBRANCH   1  12
TORSDOF 16
ENDMDL
MODEL 5
REMARK VINA RESULT:    -3.019      7.819     11.160
REMARK INTER + INTRA:          -8.900
REMARK INTER:                  -6.659
REMARK INTRA:                  -2.241
REMARK UNBOUND:                -3.058
REMARK SMILES CCCCCCCCCCCCCCCCCC(=O)[O-]
REMARK SMILES IDX 10 1 11 2 12 3 13 4 14 5 15 6 16 7 17 8 18 9 19 10 20 11
REMARK SMILES IDX 9 12 8 13 7 14 6 15 5 16 4 17 3 18 2 19 1 20
REMARK H PARENT
REMARK Flexibility Score: inf
ROOT
ATOM      1  C   UNL     1     -13.087  19.726 -25.001  1.00  0.00     0.000 C 
ENDROOT
BRANCH   1   2
ATOM      2  C   UNL     1     -12.277  20.819 -24.292  1.00  0.00     0.000 C 
BRANCH   2   3
ATOM      3  C   UNL     1     -12.783  21.043 -22.863  1.00  0.00     0.000 C 
BRANCH   3   4
ATOM      4  C   UNL     1     -13.413  19.761 -22.297  1.00  0.00     0.000 C 
BRANCH   4   5
ATOM      5  C   UNL     1     -12.809  19.348 -20.944  1.00  0.00     0.000 C 
BRANCH   5   6
ATOM      6  C   UNL     1     -11.439  19.999 -20.689  1.00  0.00     0.000 C 
BRANCH   6   7
ATOM      7  C   UNL     1     -11.229  20.383 -19.211  1.00  0.00     0.006 C 
BRANCH   7   8
ATOM      8  C   UNL     1     -10.287  19.444 -18.439  1.00  0.00     0.053 C 
BRANCH   8   9
ATOM      9  C   UNL     1      -9.299  18.770 -19.340  1.00  0.00     0.041 C 
ATOM     10  O   UNL     1      -9.476  17.574 -19.691  1.00  0.00    -0.550 OA
ATOM     11  O   UNL     1      -8.203  19.474 -19.820  1.00  0.00    -0.550 OA
ENDBRANCH   8   9
ENDBRANCH   7   8
ENDBRANCH   6   7
ENDBRANCH   5   6
ENDBRANCH   4   5
ENDBRANCH   3   4
ENDBRANCH   2   3
ENDBRANCH   1   2
BRANCH   1  12
ATOM     12  C   UNL     1     -12.183  18.568 -25.439  1.00  0.00     0.000 C 
BRANCH  12  13
ATOM     13  C   UNL     1     -10.703  18.906 -25.205  1.00  0.00    -0.000 C 
BRANCH  13  14
ATOM     14  C   UNL     1      -9.973  17.837 -24.377  1.00  0.00    -0.000 C 
BRANCH  14  15
ATOM     15  C   UNL     1      -9.221  18.431 -23.173  1.00  0.00    -0.000 C 
BRANCH  15  16
ATOM     16  C   UNL     1      -8.930  19.932 -23.341  1.00  0.00    -0.000 C 
BRANCH  16  17
ATOM     17  C   UNL     1      -7.431  20.257 -23.262  1.00  0.00    -0.000 C 
BRANCH  17  18
ATOM     18  C   UNL     1      -7.003  21.154 -24.430  1.00  0.00    -0.000 C 
BRANCH  18  19
ATOM     19  C   UNL     1      -7.074  20.397 -25.761  1.00  0.00    -0.003 C 
ATOM     20  C   UNL     1      -6.516  21.238 -26.904  1.00  0.00     0.004 C 
ENDBRANCH  18  19
ENDBRANCH  17  18
ENDBRANCH  16  17
ENDBRANCH  15  16
ENDBRANCH  14  15
ENDBRANCH  13  14
ENDBRANCH  12  13
ENDBRANCH   1  12
TORSDOF 16
ENDMDL
MODEL 6
REMARK VINA RESULT:    -2.967      5.713      9.689
REMARK INTER + INTRA:          -8.799
REMARK INTER:                  -5.951
REMARK INTRA:                  -2.848
REMARK UNBOUND:                -3.058
REMARK SMILES CCCCCCCCCCCCCCCCCC(=O)[O-]
REMARK SMILES IDX 10 1 11 2 12 3 13 4 14 5 15 6 16 7 17 8 18 9 19 10 20 11
REMARK SMILES IDX 9 12 8 13 7 14 6 15 5 16 4 17 3 18 2 19 1 20
REMARK H PARENT
REMARK Flexibility Score: inf
ROOT
ATOM      1  C   UNL     1     -10.894  18.284 -21.320  1.00  0.00     0.000 C 
ENDROOT
BRANCH   1   2
ATOM      2  C   UNL     1     -12.172  18.913 -21.888  1.00  0.00     0.000 C 
BRANCH   2   3
ATOM      3  C   UNL     1     -11.942  20.377 -22.278  1.00  0.00     0.000 C 
BRANCH   3   4
ATOM      4  C   UNL     1     -12.632  20.705 -23.611  1.00  0.00     0.000 C 
BRANCH   4   5
ATOM      5  C   UNL     1     -13.337  19.487 -24.232  1.00  0.00     0.000 C 
BRANCH   5   6
ATOM      6  C   UNL     1     -14.109  19.844 -25.513  1.00  0.00     0.000 C 
BRANCH   6   7
ATOM      7  C   UNL     1     -13.191  19.984 -26.743  1.00  0.00     0.006 C 
BRANCH   7   8
ATOM      8  C   UNL     1     -13.483  18.981 -27.871  1.00  0.00     0.053 C 
BRANCH   8   9
ATOM      9  C   UNL     1     -14.897  19.074 -28.355  1.00  0.00     0.041 C 
ATOM     10  O   UNL     1     -15.286  20.093 -28.984  1.00  0.00    -0.550 OA
ATOM     11  O   UNL     1     -15.775  18.019 -28.142  1.00  0.00    -0.550 OA
ENDBRANCH   8   9
ENDBRANCH   7   8
ENDBRANCH   6   7
ENDBRANCH   5   6
ENDBRANCH   4   5
ENDBRANCH   3   4
ENDBRANCH   2   3
ENDBRANCH   1   2
BRANCH   1  12
ATOM     12  C   UNL     1      -9.700  19.235 -21.468  1.00  0.00     0.000 C 
BRANCH  12  13
ATOM     13  C   UNL     1      -8.378  18.453 -21.514  1.00  0.00    -0.000 C 
BRANCH  13  14
ATOM     14  C   UNL     1      -7.493  18.854 -22.706  1.00  0.00    -0.000 C 
BRANCH  14  15
ATOM     15  C   UNL     1      -8.200  19.825 -23.668  1.00  0.00    -0.000 C 
BRANCH  15  16
ATOM     16  C   UNL     1      -8.361  19.243 -25.082  1.00  0.00    -0.000 C 
BRANCH  16  17
ATOM     17  C   UNL     1      -9.832  19.103 -25.501  1.00  0.00    -0.000 C 
BRANCH  17  18
ATOM     18  C   UNL     1     -10.182  17.639 -25.789  1.00  0.00    -0.000 C 
BRANCH  18  19
ATOM     19  C   UNL     1     -10.434  16.866 -24.490  1.00  0.00    -0.003 C 
ATOM     20  C   UNL     1      -9.788  15.485 -24.536  1.00  0.00     0.004 C 
ENDBRANCH  18  19
ENDBRANCH  17  18
ENDBRANCH  16  17
ENDBRANCH  15  16
ENDBRANCH  14  15
ENDBRANCH  13  14
ENDBRANCH  12  13
ENDBRANCH   1  12
TORSDOF 16
ENDMDL
MODEL 7
REMARK VINA RESULT:    -2.958      6.595     10.425
REMARK INTER + INTRA:          -8.782
REMARK INTER:                  -6.081
REMARK INTRA:                  -2.701
REMARK UNBOUND:                -3.058
REMARK SMILES CCCCCCCCCCCCCCCCCC(=O)[O-]
REMARK SMILES IDX 10 1 11 2 12 3 13 4 14 5 15 6 16 7 17 8 18 9 19 10 20 11
REMARK SMILES IDX 9 12 8 13 7 14 6 15 5 16 4 17 3 18 2 19 1 20
REMARK H PARENT
REMARK Flexibility Score: inf
ROOT
ATOM      1  C   UNL     1     -10.814  18.408 -21.381  1.00  0.00     0.000 C 
ENDROOT
BRANCH   1   2
ATOM      2  C   UNL     1     -11.166  19.816 -21.877  1.00  0.00     0.000 C 
BRANCH   2   3
ATOM      3  C   UNL     1     -12.491  19.816 -22.648  1.00  0.00     0.000 C 
BRANCH   3   4
ATOM      4  C   UNL     1     -12.478  20.874 -23.762  1.00  0.00     0.000 C 
BRANCH   4   5
ATOM      5  C   UNL     1     -12.953  20.320 -25.115  1.00  0.00     0.000 C 
BRANCH   5   6
ATOM      6  C   UNL     1     -13.195  18.801 -25.077  1.00  0.00     0.000 C 
BRANCH   6   7
ATOM      7  C   UNL     1     -13.268  18.175 -26.483  1.00  0.00     0.006 C 
BRANCH   7   8
ATOM      8  C   UNL     1     -12.821  19.109 -27.620  1.00  0.00     0.053 C 
BRANCH   8   9
ATOM      9  C   UNL     1     -13.793  19.117 -28.759  1.00  0.00     0.041 C 
ATOM     10  O   UNL     1     -14.827  19.832 -28.703  1.00  0.00    -0.550 OA
ATOM     11  O   UNL     1     -13.537  18.362 -29.896  1.00  0.00    -0.550 OA
ENDBRANCH   8   9
ENDBRANCH   7   8
ENDBRANCH   6   7
ENDBRANCH   5   6
ENDBRANCH   4   5
ENDBRANCH   3   4
ENDBRANCH   2   3
ENDBRANCH   1   2
BRANCH   1  12
ATOM     12  C   UNL     1     -10.850  17.395 -22.532  1.00  0.00     0.000 C 
BRANCH  12  13
ATOM     13  C   UNL     1      -9.545  17.436 -23.341  1.00  0.00    -0.000 C 
BRANCH  13  14
ATOM     14  C   UNL     1      -9.788  17.570 -24.853  1.00  0.00    -0.000 C 
BRANCH  14  15
ATOM     15  C   UNL     1      -9.468  18.979 -25.382  1.00  0.00    -0.000 C 
BRANCH  15  16
ATOM     16  C   UNL     1      -8.084  19.477 -24.937  1.00  0.00    -0.000 C 
BRANCH  16  17
ATOM     17  C   UNL     1      -8.165  20.569 -23.859  1.00  0.00    -0.000 C 
BRANCH  17  18
ATOM     18  C   UNL     1      -6.765  21.050 -23.461  1.00  0.00    -0.000 C 
BRANCH  18  19
ATOM     19  C   UNL     1      -6.591  21.042 -21.938  1.00  0.00    -0.003 C 
ATOM     20  C   UNL     1      -7.466  19.974 -21.289  1.00  0.00     0.004 C 
ENDBRANCH  18  19
ENDBRANCH  17  18
ENDBRANCH  16  17
ENDBRANCH  15  16
ENDBRANCH  14  15
ENDBRANCH  13  14
ENDBRANCH  12  13
ENDBRANCH   1  12
TORSDOF 16
ENDMDL
MODEL 8
REMARK VINA RESULT:    -2.936      7.598     10.263
REMARK INTER + INTRA:          -8.739
REMARK INTER:                  -5.982
REMARK INTRA:                  -2.758
REMARK UNBOUND:                -3.058
REMARK SMILES CCCCCCCCCCCCCCCCCC(=O)[O-]
REMARK SMILES IDX 10 1 11 2 12 3 13 4 14 5 15 6 16 7 17 8 18 9 19 10 20 11
REMARK SMILES IDX 9 12 8 13 7 14 6 15 5 16 4 17 3 18 2 19 1 20
REMARK H PARENT
REMARK Flexibility Score: inf
ROOT
ATOM      1  C   UNL     1     -12.543  17.195 -22.050  1.00  0.00     0.000 C 
ENDROOT
BRANCH   1   2
ATOM      2  C   UNL     1     -11.741  17.764 -20.873  1.00  0.00     0.000 C 
BRANCH   2   3
ATOM      3  C   UNL     1     -10.412  18.363 -21.348  1.00  0.00     0.000 C 
BRANCH   3   4
ATOM      4  C   UNL     1     -10.006  19.559 -20.474  1.00  0.00     0.000 C 
BRANCH   4   5
ATOM      5  C   UNL     1     -11.197  20.183 -19.729  1.00  0.00     0.000 C 
BRANCH   5   6
ATOM      6  C   UNL     1     -10.993  20.201 -18.204  1.00  0.00     0.000 C 
BRANCH   6   7
ATOM      7  C   UNL     1     -12.321  20.134 -17.425  1.00  0.00     0.006 C 
BRANCH   7   8
ATOM      8  C   UNL     1     -12.482  18.880 -16.550  1.00  0.00     0.053 C 
BRANCH   8   9
ATOM      9  C   UNL     1     -13.135  17.754 -17.291  1.00  0.00     0.041 C 
ATOM     10  O   UNL     1     -12.873  16.561 -16.988  1.00  0.00    -0.550 OA
ATOM     11  O   UNL     1     -14.059  18.025 -18.292  1.00  0.00    -0.550 OA
ENDBRANCH   8   9
ENDBRANCH   7   8
ENDBRANCH   6   7
ENDBRANCH   5   6
ENDBRANCH   4   5
ENDBRANCH   3   4
ENDBRANCH   2   3
ENDBRANCH   1   2
BRANCH   1  12
ATOM     12  C   UNL     1     -14.006  17.651 -21.990  1.00  0.00     0.000 C 
BRANCH  12  13
ATOM     13  C   UNL     1     -14.100  19.173 -21.806  1.00  0.00    -0.000 C 
BRANCH  13  14
ATOM     14  C   UNL     1     -13.925  19.942 -23.126  1.00  0.00    -0.000 C 
BRANCH  14  15
ATOM     15  C   UNL     1     -12.858  21.047 -23.031  1.00  0.00    -0.000 C 
BRANCH  15  16
ATOM     16  C   UNL     1     -11.576  20.698 -23.805  1.00  0.00    -0.000 C 
BRANCH  16  17
ATOM     17  C   UNL     1     -11.771  19.523 -24.775  1.00  0.00    -0.000 C 
BRANCH  17  18
ATOM     18  C   UNL     1     -10.422  18.913 -25.173  1.00  0.00    -0.000 C 
BRANCH  18  19
ATOM     19  C   UNL     1      -9.268  19.592 -24.427  1.00  0.00    -0.003 C 
ATOM     20  C   UNL     1      -8.019  19.672 -25.298  1.00  0.00     0.004 C 
ENDBRANCH  18  19
ENDBRANCH  17  18
ENDBRANCH  16  17
ENDBRANCH  15  16
ENDBRANCH  14  15
ENDBRANCH  13  14
ENDBRANCH  12  13
ENDBRANCH   1  12
TORSDOF 16
ENDMDL
MODEL 9
REMARK VINA RESULT:    -2.920      5.962      9.431
REMARK INTER + INTRA:          -8.710
REMARK INTER:                  -6.254
REMARK INTRA:                  -2.456
REMARK UNBOUND:                -3.058
REMARK SMILES CCCCCCCCCCCCCCCCCC(=O)[O-]
REMARK SMILES IDX 10 1 11 2 12 3 13 4 14 5 15 6 16 7 17 8 18 9 19 10 20 11
REMARK SMILES IDX 9 12 8 13 7 14 6 15 5 16 4 17 3 18 2 19 1 20
REMARK H PARENT
REMARK Flexibility Score: inf
ROOT
ATOM      1  C   UNL     1     -14.782  19.407 -27.822  1.00  0.00     0.000 C 
ENDROOT
BRANCH   1   2
ATOM      2  C   UNL     1     -13.808  19.124 -28.972  1.00  0.00     0.000 C 
BRANCH   2   3
ATOM      3  C   UNL     1     -13.948  17.681 -29.471  1.00  0.00     0.000 C 
BRANCH   3   4
ATOM      4  C   UNL     1     -12.641  17.195 -30.117  1.00  0.00     0.000 C 
BRANCH   4   5
ATOM      5  C   UNL     1     -11.734  18.353 -30.568  1.00  0.00     0.000 C 
BRANCH   5   6
ATOM      6  C   UNL     1     -10.515  17.866 -31.369  1.00  0.00     0.000 C 
BRANCH   6   7
ATOM      7  C   UNL     1     -10.476  16.333 -31.522  1.00  0.00     0.006 C 
BRANCH   7   8
ATOM      8  C   UNL     1      -9.117  15.695 -31.187  1.00  0.00     0.053 C 
BRANCH   8   9
ATOM      9  C   UNL     1      -9.154  14.934 -29.897  1.00  0.00     0.041 C 
ATOM     10  O   UNL     1      -9.833  15.364 -28.928  1.00  0.00    -0.550 OA
ATOM     11  O   UNL     1      -8.467  13.733 -29.779  1.00  0.00    -0.550 OA
ENDBRANCH   8   9
ENDBRANCH   7   8
ENDBRANCH   6   7
ENDBRANCH   5   6
ENDBRANCH   4   5
ENDBRANCH   3   4
ENDBRANCH   2   3
ENDBRANCH   1   2
BRANCH   1  12
ATOM     12  C   UNL     1     -14.042  19.963 -26.599  1.00  0.00     0.000 C 
BRANCH  12  13
ATOM     13  C   UNL     1     -14.688  19.468 -25.295  1.00  0.00    -0.000 C 
BRANCH  13  14
ATOM     14  C   UNL     1     -13.756  19.612 -24.080  1.00  0.00    -0.000 C 
BRANCH  14  15
ATOM     15  C   UNL     1     -12.653  20.661 -24.301  1.00  0.00    -0.000 C 
BRANCH  15  16
ATOM     16  C   UNL     1     -11.260  20.145 -23.906  1.00  0.00    -0.000 C 
BRANCH  16  17
ATOM     17  C   UNL     1     -11.019  18.693 -24.346  1.00  0.00    -0.000 C 
BRANCH  17  18
ATOM     18  C   UNL     1     -10.206  18.643 -25.645  1.00  0.00    -0.000 C 
BRANCH  18  19
ATOM     19  C   UNL     1     -11.003  17.971 -26.769  1.00  0.00    -0.003 C 
ATOM     20  C   UNL     1     -11.900  16.865 -26.223  1.00  0.00     0.004 C 
ENDBRANCH  18  19
ENDBRANCH  17  18
ENDBRANCH  16  17
ENDBRANCH  15  16
ENDBRANCH  14  15
ENDBRANCH  13  14
ENDBRANCH  12  13
ENDBRANCH   1  12
TORSDOF 16
ENDMDL
