MODEL 1
REMARK VINA RESULT:    -5.727      0.000      0.000
REMARK INTER + INTRA:         -18.296
REMARK INTER:                 -15.101
REMARK INTRA:                  -3.196
REMARK UNBOUND:                -3.196
REMARK SMILES CCCCCCCCCCCCCCCCCCCCCCCCCCCCCC(=O)[O-]
REMARK SMILES IDX 16 1 17 2 18 3 19 4 20 5 21 6 22 7 23 8 24 9 25 10 26 11
REMARK SMILES IDX 27 12 28 13 29 14 30 15 31 16 32 17 15 18 14 19 13 20 12 21
REMARK SMILES IDX 11 22 10 23 9 24 8 25 7 26 6 27 5 28 4 29 3 30 2 31 1 32
REMARK H PARENT
REMARK Flexibility Score: inf
ROOT
ATOM      1  C   UNL     1     140.883 138.789 114.138  1.00  0.00     0.000 C 
ENDROOT
BRANCH   1   2
ATOM      2  C   UNL     1     141.062 139.182 112.660  1.00  0.00     0.000 C 
BRANCH   2   3
ATOM      3  C   UNL     1     142.545 139.199 112.249  1.00  0.00     0.000 C 
BRANCH   3   4
ATOM      4  C   UNL     1     143.225 140.529 112.610  1.00  0.00     0.000 C 
BRANCH   4   5
ATOM      5  C   UNL     1     142.305 141.724 112.309  1.00  0.00     0.000 C 
BRANCH   5   6
ATOM      6  C   UNL     1     142.290 142.770 113.445  1.00  0.00     0.000 C 
BRANCH   6   7
ATOM      7  C   UNL     1     143.078 142.362 114.706  1.00  0.00     0.000 C 
BRANCH   7   8
ATOM      8  C   UNL     1     142.231 142.085 115.959  1.00  0.00     0.000 C 
BRANCH   8   9
ATOM      9  C   UNL     1     140.770 142.578 115.890  1.00  0.00     0.000 C 
BRANCH   9  10
ATOM     10  C   UNL     1     139.930 142.237 117.142  1.00  0.00     0.000 C 
BRANCH  10  11
ATOM     11  C   UNL     1     140.768 141.587 118.257  1.00  0.00     0.000 C 
BRANCH  11  12
ATOM     12  C   UNL     1     139.907 140.973 119.372  1.00  0.00     0.000 C 
BRANCH  12  13
ATOM     13  C   UNL     1     140.749 140.410 120.529  1.00  0.00     0.006 C 
BRANCH  13  14
ATOM     14  C   UNL     1     140.136 140.731 121.900  1.00  0.00     0.053 C 
BRANCH  14  15
ATOM     15  C   UNL     1     141.189 140.987 122.932  1.00  0.00     0.041 C 
ATOM     16  O   UNL     1     141.013 141.859 123.824  1.00  0.00    -0.550 OA
ATOM     17  O   UNL     1     142.386 140.281 122.885  1.00  0.00    -0.550 OA
ENDBRANCH  14  15
ENDBRANCH  13  14
ENDBRANCH  12  13
ENDBRANCH  11  12
ENDBRANCH  10  11
ENDBRANCH   9  10
ENDBRANCH   8   9
ENDBRANCH   7   8
ENDBRANCH   6   7
ENDBRANCH   5   6
ENDBRANCH   4   5
ENDBRANCH   3   4
ENDBRANCH   2   3
ENDBRANCH   1   2
BRANCH   1  18
ATOM     18  C   UNL     1     139.743 139.565 114.830  1.00  0.00     0.000 C 
BRANCH  18  19
ATOM     19  C   UNL     1     138.342 138.978 114.579  1.00  0.00     0.000 C 
BRANCH  19  20
ATOM     20  C   UNL     1     138.376 137.609 113.888  1.00  0.00     0.000 C 
BRANCH  20  21
ATOM     21  C   UNL     1     137.268 136.691 114.425  1.00  0.00     0.000 C 
BRANCH  21  22
ATOM     22  C   UNL     1     135.861 137.282 114.208  1.00  0.00     0.000 C 
BRANCH  22  23
ATOM     23  C   UNL     1     135.095 136.598 113.062  1.00  0.00     0.000 C 
BRANCH  23  24
ATOM     24  C   UNL     1     135.573 135.148 112.826  1.00  0.00    -0.000 C 
BRANCH  24  25
ATOM     25  C   UNL     1     134.522 134.102 113.237  1.00  0.00    -0.000 C 
BRANCH  25  26
ATOM     26  C   UNL     1     134.747 133.533 114.655  1.00  0.00    -0.000 C 
BRANCH  26  27
ATOM     27  C   UNL     1     134.073 134.360 115.765  1.00  0.00    -0.000 C 
BRANCH  27  28
ATOM     28  C   UNL     1     134.795 134.221 117.117  1.00  0.00    -0.000 C 
BRANCH  28  29
ATOM     29  C   UNL     1     136.325 134.253 116.978  1.00  0.00    -0.000 C 
BRANCH  29  30
ATOM     30  C   UNL     1     136.986 135.273 117.920  1.00  0.00    -0.000 C 
BRANCH  30  31
ATOM     31  C   UNL     1     135.958 136.057 118.750  1.00  0.00    -0.003 C 
ATOM     32  C   UNL     1     136.176 135.910 120.257  1.00  0.00     0.004 C 
ENDBRANCH  30  31
ENDBRANCH  29  30
ENDBRANCH  28  29
ENDBRANCH  27  28
ENDBRANCH  26  27
ENDBRANCH  25  26
ENDBRANCH  24  25
ENDBRANCH  23  24
ENDBRANCH  22  23
ENDBRANCH  21  22
ENDBRANCH  20  21
ENDBRANCH  19  20
ENDBRANCH  18  19
ENDBRANCH   1  18
TORSDOF 28
ENDMDL
MODEL 2
REMARK VINA RESULT:    -5.535      2.375      3.912
REMARK INTER + INTRA:         -17.790
REMARK INTER:                 -14.817
REMARK INTRA:                  -2.972
REMARK UNBOUND:                -3.196
REMARK SMILES CCCCCCCCCCCCCCCCCCCCCCCCCCCCCC(=O)[O-]
REMARK SMILES IDX 16 1 17 2 18 3 19 4 20 5 21 6 22 7 23 8 24 9 25 10 26 11
REMARK SMILES IDX 27 12 28 13 29 14 30 15 31 16 32 17 15 18 14 19 13 20 12 21
REMARK SMILES IDX 11 22 10 23 9 24 8 25 7 26 6 27 5 28 4 29 3 30 2 31 1 32
REMARK H PARENT
REMARK Flexibility Score: inf
ROOT
ATOM      1  C   UNL     1     139.157 139.645 114.688  1.00  0.00     0.000 C 
ENDROOT
BRANCH   1   2
ATOM      2  C   UNL     1     139.793 141.005 114.346  1.00  0.00     0.000 C 
BRANCH   2   3
ATOM      3  C   UNL     1     141.234 141.109 114.875  1.00  0.00     0.000 C 
BRANCH   3   4
ATOM      4  C   UNL     1     141.644 139.864 115.675  1.00  0.00     0.000 C 
BRANCH   4   5
ATOM      5  C   UNL     1     141.978 140.223 117.133  1.00  0.00     0.000 C 
BRANCH   5   6
ATOM      6  C   UNL     1     141.383 141.580 117.567  1.00  0.00     0.000 C 
BRANCH   6   7
ATOM      7  C   UNL     1     140.233 141.480 118.589  1.00  0.00     0.000 C 
BRANCH   7   8
ATOM      8  C   UNL     1     140.306 140.289 119.559  1.00  0.00     0.000 C 
BRANCH   8   9
ATOM      9  C   UNL     1     140.277 140.655 121.058  1.00  0.00     0.000 C 
BRANCH   9  10
ATOM     10  C   UNL     1     141.605 140.380 121.800  1.00  0.00     0.000 C 
BRANCH  10  11
ATOM     11  C   UNL     1     141.630 140.990 123.212  1.00  0.00     0.000 C 
BRANCH  11  12
ATOM     12  C   UNL     1     143.049 141.326 123.694  1.00  0.00     0.000 C 
BRANCH  12  13
ATOM     13  C   UNL     1     143.118 142.666 124.446  1.00  0.00     0.006 C 
BRANCH  13  14
ATOM     14  C   UNL     1     144.244 143.567 123.918  1.00  0.00     0.053 C 
BRANCH  14  15
ATOM     15  C   UNL     1     145.128 144.055 125.024  1.00  0.00     0.041 C 
ATOM     16  O   UNL     1     146.129 144.777 124.773  1.00  0.00    -0.550 OA
ATOM     17  O   UNL     1     144.863 143.677 126.335  1.00  0.00    -0.550 OA
ENDBRANCH  14  15
ENDBRANCH  13  14
ENDBRANCH  12  13
ENDBRANCH  11  12
ENDBRANCH  10  11
ENDBRANCH   9  10
ENDBRANCH   8   9
ENDBRANCH   7   8
ENDBRANCH   6   7
ENDBRANCH   5   6
ENDBRANCH   4   5
ENDBRANCH   3   4
ENDBRANCH   2   3
ENDBRANCH   1   2
BRANCH   1  18
ATOM     18  C   UNL     1     139.135 138.675 113.486  1.00  0.00     0.000 C 
BRANCH  18  19
ATOM     19  C   UNL     1     137.725 138.208 113.083  1.00  0.00     0.000 C 
BRANCH  19  20
ATOM     20  C   UNL     1     137.657 137.658 111.653  1.00  0.00     0.000 C 
BRANCH  20  21
ATOM     21  C   UNL     1     136.379 136.832 111.440  1.00  0.00     0.000 C 
BRANCH  21  22
ATOM     22  C   UNL     1     135.170 137.710 111.059  1.00  0.00     0.000 C 
BRANCH  22  23
ATOM     23  C   UNL     1     133.874 137.289 111.775  1.00  0.00     0.000 C 
BRANCH  23  24
ATOM     24  C   UNL     1     134.102 137.019 113.279  1.00  0.00    -0.000 C 
BRANCH  24  25
ATOM     25  C   UNL     1     133.179 135.918 113.830  1.00  0.00    -0.000 C 
BRANCH  25  26
ATOM     26  C   UNL     1     133.239 134.606 113.018  1.00  0.00    -0.000 C 
BRANCH  26  27
ATOM     27  C   UNL     1     134.622 133.928 113.042  1.00  0.00    -0.000 C 
BRANCH  27  28
ATOM     28  C   UNL     1     134.938 133.296 114.409  1.00  0.00    -0.000 C 
BRANCH  28  29
ATOM     29  C   UNL     1     136.353 133.631 114.905  1.00  0.00    -0.000 C 
BRANCH  29  30
ATOM     30  C   UNL     1     136.680 135.130 114.801  1.00  0.00    -0.000 C 
BRANCH  30  31
ATOM     31  C   UNL     1     136.927 135.772 116.175  1.00  0.00    -0.003 C 
ATOM     32  C   UNL     1     135.643 135.942 116.989  1.00  0.00     0.004 C 
ENDBRANCH  30  31
ENDBRANCH  29  30
ENDBRANCH  28  29
ENDBRANCH  27  28
ENDBRANCH  26  27
ENDBRANCH  25  26
ENDBRANCH  24  25
ENDBRANCH  23  24
ENDBRANCH  22  23
ENDBRANCH  21  22
ENDBRANCH  20  21
ENDBRANCH  19  20
ENDBRANCH  18  19
ENDBRANCH   1  18
TORSDOF 28
ENDMDL
MODEL 3
REMARK VINA RESULT:    -5.520      2.824      6.478
REMARK INTER + INTRA:         -17.751
REMARK INTER:                 -14.739
REMARK INTRA:                  -3.011
REMARK UNBOUND:                -3.196
REMARK SMILES CCCCCCCCCCCCCCCCCCCCCCCCCCCCCC(=O)[O-]
REMARK SMILES IDX 16 1 17 2 18 3 19 4 20 5 21 6 22 7 23 8 24 9 25 10 26 11
REMARK SMILES IDX 27 12 28 13 29 14 30 15 31 16 32 17 15 18 14 19 13 20 12 21
REMARK SMILES IDX 11 22 10 23 9 24 8 25 7 26 6 27 5 28 4 29 3 30 2 31 1 32
REMARK H PARENT
REMARK Flexibility Score: inf
ROOT
ATOM      1  C   UNL     1     140.200 142.868 116.002  1.00  0.00     0.000 C 
ENDROOT
BRANCH   1   2
ATOM      2  C   UNL     1     139.464 141.522 116.125  1.00  0.00     0.000 C 
BRANCH   2   3
ATOM      3  C   UNL     1     139.849 140.776 117.414  1.00  0.00     0.000 C 
BRANCH   3   4
ATOM      4  C   UNL     1     141.163 141.303 118.011  1.00  0.00     0.000 C 
BRANCH   4   5
ATOM      5  C   UNL     1     141.475 140.624 119.355  1.00  0.00     0.000 C 
BRANCH   5   6
ATOM      6  C   UNL     1     140.276 140.638 120.328  1.00  0.00     0.000 C 
BRANCH   6   7
ATOM      7  C   UNL     1     140.659 140.657 121.821  1.00  0.00     0.000 C 
BRANCH   7   8
ATOM      8  C   UNL     1     142.117 140.288 122.139  1.00  0.00     0.000 C 
BRANCH   8   9
ATOM      9  C   UNL     1     142.586 140.623 123.571  1.00  0.00     0.000 C 
BRANCH   9  10
ATOM     10  C   UNL     1     141.755 141.727 124.264  1.00  0.00     0.000 C 
BRANCH  10  11
ATOM     11  C   UNL     1     142.622 142.678 125.106  1.00  0.00     0.000 C 
BRANCH  11  12
ATOM     12  C   UNL     1     144.058 142.809 124.575  1.00  0.00     0.000 C 
BRANCH  12  13
ATOM     13  C   UNL     1     144.301 144.141 123.844  1.00  0.00     0.006 C 
BRANCH  13  14
ATOM     14  C   UNL     1     145.329 145.019 124.572  1.00  0.00     0.053 C 
BRANCH  14  15
ATOM     15  C   UNL     1     144.930 146.461 124.565  1.00  0.00     0.041 C 
ATOM     16  O   UNL     1     143.714 146.789 124.598  1.00  0.00    -0.550 OA
ATOM     17  O   UNL     1     145.906 147.447 124.483  1.00  0.00    -0.550 OA
ENDBRANCH  14  15
ENDBRANCH  13  14
ENDBRANCH  12  13
ENDBRANCH  11  12
ENDBRANCH  10  11
ENDBRANCH   9  10
ENDBRANCH   8   9
ENDBRANCH   7   8
ENDBRANCH   6   7
ENDBRANCH   5   6
ENDBRANCH   4   5
ENDBRANCH   3   4
ENDBRANCH   2   3
ENDBRANCH   1   2
BRANCH   1  18
ATOM     18  C   UNL     1     140.441 143.287 114.535  1.00  0.00     0.000 C 
BRANCH  18  19
ATOM     19  C   UNL     1     141.926 143.465 114.170  1.00  0.00     0.000 C 
BRANCH  19  20
ATOM     20  C   UNL     1     142.860 142.564 114.988  1.00  0.00     0.000 C 
BRANCH  20  21
ATOM     21  C   UNL     1     143.207 141.283 114.215  1.00  0.00     0.000 C 
BRANCH  21  22
ATOM     22  C   UNL     1     142.470 140.047 114.768  1.00  0.00     0.000 C 
BRANCH  22  23
ATOM     23  C   UNL     1     141.831 139.186 113.664  1.00  0.00     0.000 C 
BRANCH  23  24
ATOM     24  C   UNL     1     141.036 140.038 112.649  1.00  0.00    -0.000 C 
BRANCH  24  25
ATOM     25  C   UNL     1     139.545 140.153 113.010  1.00  0.00    -0.000 C 
BRANCH  25  26
ATOM     26  C   UNL     1     138.776 138.821 112.865  1.00  0.00    -0.000 C 
BRANCH  26  27
ATOM     27  C   UNL     1     138.047 138.387 114.150  1.00  0.00    -0.000 C 
BRANCH  27  28
ATOM     28  C   UNL     1     137.502 136.951 114.055  1.00  0.00    -0.000 C 
BRANCH  28  29
ATOM     29  C   UNL     1     135.995 136.868 114.339  1.00  0.00    -0.000 C 
BRANCH  29  30
ATOM     30  C   UNL     1     135.453 135.431 114.260  1.00  0.00    -0.000 C 
BRANCH  30  31
ATOM     31  C   UNL     1     134.215 135.222 115.147  1.00  0.00    -0.003 C 
ATOM     32  C   UNL     1     132.927 135.060 114.337  1.00  0.00     0.004 C 
ENDBRANCH  30  31
ENDBRANCH  29  30
ENDBRANCH  28  29
ENDBRANCH  27  28
ENDBRANCH  26  27
ENDBRANCH  25  26
ENDBRANCH  24  25
ENDBRANCH  23  24
ENDBRANCH  22  23
ENDBRANCH  21  22
ENDBRANCH  20  21
ENDBRANCH  19  20
ENDBRANCH  18  19
ENDBRANCH   1  18
TORSDOF 28
ENDMDL
MODEL 4
REMARK VINA RESULT:    -5.418      2.997      7.813
REMARK INTER + INTRA:         -17.482
REMARK INTER:                 -14.474
REMARK INTRA:                  -3.008
REMARK UNBOUND:                -3.196
REMARK SMILES CCCCCCCCCCCCCCCCCCCCCCCCCCCCCC(=O)[O-]
REMARK SMILES IDX 16 1 17 2 18 3 19 4 20 5 21 6 22 7 23 8 24 9 25 10 26 11
REMARK SMILES IDX 27 12 28 13 29 14 30 15 31 16 32 17 15 18 14 19 13 20 12 21
REMARK SMILES IDX 11 22 10 23 9 24 8 25 7 26 6 27 5 28 4 29 3 30 2 31 1 32
REMARK H PARENT
REMARK Flexibility Score: inf
ROOT
ATOM      1  C   UNL     1     140.455 140.603 117.113  1.00  0.00     0.000 C 
ENDROOT
BRANCH   1   2
ATOM      2  C   UNL     1     140.618 141.408 118.415  1.00  0.00     0.000 C 
BRANCH   2   3
ATOM      3  C   UNL     1     139.998 140.678 119.619  1.00  0.00     0.000 C 
BRANCH   3   4
ATOM      4  C   UNL     1     140.967 140.606 120.809  1.00  0.00     0.000 C 
BRANCH   4   5
ATOM      5  C   UNL     1     140.222 140.773 122.144  1.00  0.00     0.000 C 
BRANCH   5   6
ATOM      6  C   UNL     1     141.113 141.366 123.257  1.00  0.00     0.000 C 
BRANCH   6   7
ATOM      7  C   UNL     1     142.432 140.607 123.498  1.00  0.00     0.000 C 
BRANCH   7   8
ATOM      8  C   UNL     1     142.654 140.095 124.931  1.00  0.00     0.000 C 
BRANCH   8   9
ATOM      9  C   UNL     1     142.260 141.080 126.051  1.00  0.00     0.000 C 
BRANCH   9  10
ATOM     10  C   UNL     1     143.399 141.390 127.049  1.00  0.00     0.000 C 
BRANCH  10  11
ATOM     11  C   UNL     1     144.339 142.500 126.547  1.00  0.00     0.000 C 
BRANCH  11  12
ATOM     12  C   UNL     1     143.607 143.589 125.749  1.00  0.00     0.000 C 
BRANCH  12  13
ATOM     13  C   UNL     1     144.205 143.801 124.348  1.00  0.00     0.006 C 
BRANCH  13  14
ATOM     14  C   UNL     1     145.443 144.709 124.380  1.00  0.00     0.053 C 
BRANCH  14  15
ATOM     15  C   UNL     1     145.068 146.158 124.355  1.00  0.00     0.041 C 
ATOM     16  O   UNL     1     145.894 147.039 124.713  1.00  0.00    -0.550 OA
ATOM     17  O   UNL     1     143.786 146.532 123.969  1.00  0.00    -0.550 OA
ENDBRANCH  14  15
ENDBRANCH  13  14
ENDBRANCH  12  13
ENDBRANCH  11  12
ENDBRANCH  10  11
ENDBRANCH   9  10
ENDBRANCH   8   9
ENDBRANCH   7   8
ENDBRANCH   6   7
ENDBRANCH   5   6
ENDBRANCH   4   5
ENDBRANCH   3   4
ENDBRANCH   2   3
ENDBRANCH   1   2
BRANCH   1  18
ATOM     18  C   UNL     1     139.571 141.323 116.071  1.00  0.00     0.000 C 
BRANCH  18  19
ATOM     19  C   UNL     1     139.968 142.789 115.818  1.00  0.00     0.000 C 
BRANCH  19  20
ATOM     20  C   UNL     1     140.375 143.062 114.364  1.00  0.00     0.000 C 
BRANCH  20  21
ATOM     21  C   UNL     1     141.834 143.534 114.279  1.00  0.00     0.000 C 
BRANCH  21  22
ATOM     22  C   UNL     1     142.778 142.682 115.149  1.00  0.00     0.000 C 
BRANCH  22  23
ATOM     23  C   UNL     1     143.607 141.678 114.328  1.00  0.00     0.000 C 
BRANCH  23  24
ATOM     24  C   UNL     1     142.873 140.332 114.141  1.00  0.00    -0.000 C 
BRANCH  24  25
ATOM     25  C   UNL     1     142.405 140.107 112.693  1.00  0.00    -0.000 C 
BRANCH  25  26
ATOM     26  C   UNL     1     141.244 139.095 112.575  1.00  0.00    -0.000 C 
BRANCH  26  27
ATOM     27  C   UNL     1     139.871 139.686 112.945  1.00  0.00    -0.000 C 
BRANCH  27  28
ATOM     28  C   UNL     1     138.758 138.623 112.937  1.00  0.00    -0.000 C 
BRANCH  28  29
ATOM     29  C   UNL     1     137.961 138.587 114.250  1.00  0.00    -0.000 C 
BRANCH  29  30
ATOM     30  C   UNL     1     137.122 137.308 114.402  1.00  0.00    -0.000 C 
BRANCH  30  31
ATOM     31  C   UNL     1     136.818 136.643 113.051  1.00  0.00    -0.003 C 
ATOM     32  C   UNL     1     135.745 135.557 113.152  1.00  0.00     0.004 C 
ENDBRANCH  30  31
ENDBRANCH  29  30
ENDBRANCH  28  29
ENDBRANCH  27  28
ENDBRANCH  26  27
ENDBRANCH  25  26
ENDBRANCH  24  25
ENDBRANCH  23  24
ENDBRANCH  22  23
ENDBRANCH  21  22
ENDBRANCH  20  21
ENDBRANCH  19  20
ENDBRANCH  18  19
ENDBRANCH   1  18
TORSDOF 28
ENDMDL
MODEL 5
REMARK VINA RESULT:    -5.382      3.646      9.034
REMARK INTER + INTRA:         -17.387
REMARK INTER:                 -14.942
REMARK INTRA:                  -2.445
REMARK UNBOUND:                -3.196
REMARK SMILES CCCCCCCCCCCCCCCCCCCCCCCCCCCCCC(=O)[O-]
REMARK SMILES IDX 16 1 17 2 18 3 19 4 20 5 21 6 22 7 23 8 24 9 25 10 26 11
REMARK SMILES IDX 27 12 28 13 29 14 30 15 31 16 32 17 15 18 14 19 13 20 12 21
REMARK SMILES IDX 11 22 10 23 9 24 8 25 7 26 6 27 5 28 4 29 3 30 2 31 1 32
REMARK H PARENT
REMARK Flexibility Score: inf
ROOT
ATOM      1  C   UNL     1     136.641 136.082 114.747  1.00  0.00     0.000 C 
ENDROOT
BRANCH   1   2
ATOM      2  C   UNL     1     135.343 136.873 114.990  1.00  0.00     0.000 C 
BRANCH   2   3
ATOM      3  C   UNL     1     134.268 136.010 115.674  1.00  0.00     0.000 C 
BRANCH   3   4
ATOM      4  C   UNL     1     134.770 134.586 115.957  1.00  0.00     0.000 C 
BRANCH   4   5
ATOM      5  C   UNL     1     134.928 134.342 117.468  1.00  0.00     0.000 C 
BRANCH   5   6
ATOM      6  C   UNL     1     136.307 134.779 118.005  1.00  0.00     0.000 C 
BRANCH   6   7
ATOM      7  C   UNL     1     136.297 136.096 118.806  1.00  0.00     0.000 C 
BRANCH   7   8
ATOM      8  C   UNL     1     135.492 136.072 120.116  1.00  0.00     0.000 C 
BRANCH   8   9
ATOM      9  C   UNL     1     136.304 135.731 121.383  1.00  0.00     0.000 C 
BRANCH   9  10
ATOM     10  C   UNL     1     135.437 135.464 122.635  1.00  0.00     0.000 C 
BRANCH  10  11
ATOM     11  C   UNL     1     136.278 135.087 123.867  1.00  0.00     0.000 C 
BRANCH  11  12
ATOM     12  C   UNL     1     135.954 135.945 125.099  1.00  0.00     0.000 C 
BRANCH  12  13
ATOM     13  C   UNL     1     134.497 136.438 125.112  1.00  0.00     0.006 C 
BRANCH  13  14
ATOM     14  C   UNL     1     133.537 135.388 125.690  1.00  0.00     0.053 C 
BRANCH  14  15
ATOM     15  C   UNL     1     133.578 135.365 127.186  1.00  0.00     0.041 C 
ATOM     16  O   UNL     1     132.966 136.239 127.857  1.00  0.00    -0.550 OA
ATOM     17  O   UNL     1     134.327 134.394 127.841  1.00  0.00    -0.550 OA
ENDBRANCH  14  15
ENDBRANCH  13  14
ENDBRANCH  12  13
ENDBRANCH  11  12
ENDBRANCH  10  11
ENDBRANCH   9  10
ENDBRANCH   8   9
ENDBRANCH   7   8
ENDBRANCH   6   7
ENDBRANCH   5   6
ENDBRANCH   4   5
ENDBRANCH   3   4
ENDBRANCH   2   3
ENDBRANCH   1   2
BRANCH   1  18
ATOM     18  C   UNL     1     137.732 136.922 114.049  1.00  0.00     0.000 C 
BRANCH  18  19
ATOM     19  C   UNL     1     137.250 137.646 112.779  1.00  0.00     0.000 C 
BRANCH  19  20
ATOM     20  C   UNL     1     138.397 138.232 111.946  1.00  0.00     0.000 C 
BRANCH  20  21
ATOM     21  C   UNL     1     139.247 139.200 112.783  1.00  0.00     0.000 C 
BRANCH  21  22
ATOM     22  C   UNL     1     140.602 139.515 112.119  1.00  0.00     0.000 C 
BRANCH  22  23
ATOM     23  C   UNL     1     141.803 139.201 113.029  1.00  0.00     0.000 C 
BRANCH  23  24
ATOM     24  C   UNL     1     141.545 139.611 114.496  1.00  0.00    -0.000 C 
BRANCH  24  25
ATOM     25  C   UNL     1     142.701 140.432 115.094  1.00  0.00    -0.000 C 
BRANCH  25  26
ATOM     26  C   UNL     1     143.550 141.161 114.030  1.00  0.00    -0.000 C 
BRANCH  26  27
ATOM     27  C   UNL     1     142.841 142.373 113.399  1.00  0.00    -0.000 C 
BRANCH  27  28
ATOM     28  C   UNL     1     142.057 143.196 114.438  1.00  0.00    -0.000 C 
BRANCH  28  29
ATOM     29  C   UNL     1     140.536 143.040 114.293  1.00  0.00    -0.000 C 
BRANCH  29  30
ATOM     30  C   UNL     1     139.784 143.292 115.611  1.00  0.00    -0.000 C 
BRANCH  30  31
ATOM     31  C   UNL     1     139.698 142.032 116.486  1.00  0.00    -0.003 C 
ATOM     32  C   UNL     1     140.610 142.097 117.712  1.00  0.00     0.004 C 
ENDBRANCH  30  31
ENDBRANCH  29  30
ENDBRANCH  28  29
ENDBRANCH  27  28
ENDBRANCH  26  27
ENDBRANCH  25  26
ENDBRANCH  24  25
ENDBRANCH  23  24
ENDBRANCH  22  23
ENDBRANCH  21  22
ENDBRANCH  20  21
ENDBRANCH  19  20
ENDBRANCH  18  19
ENDBRANCH   1  18
TORSDOF 28
ENDMDL
MODEL 6
REMARK VINA RESULT:    -5.381      4.380      9.232
REMARK INTER + INTRA:         -17.383
REMARK INTER:                 -14.103
REMARK INTRA:                  -3.280
REMARK UNBOUND:                -3.196
REMARK SMILES CCCCCCCCCCCCCCCCCCCCCCCCCCCCCC(=O)[O-]
REMARK SMILES IDX 16 1 17 2 18 3 19 4 20 5 21 6 22 7 23 8 24 9 25 10 26 11
REMARK SMILES IDX 27 12 28 13 29 14 30 15 31 16 32 17 15 18 14 19 13 20 12 21
REMARK SMILES IDX 11 22 10 23 9 24 8 25 7 26 6 27 5 28 4 29 3 30 2 31 1 32
REMARK H PARENT
REMARK Flexibility Score: inf
ROOT
ATOM      1  C   UNL     1     140.544 140.633 120.913  1.00  0.00     0.000 C 
ENDROOT
BRANCH   1   2
ATOM      2  C   UNL     1     141.926 140.262 121.480  1.00  0.00     0.000 C 
BRANCH   2   3
ATOM      3  C   UNL     1     142.057 140.651 122.963  1.00  0.00     0.000 C 
BRANCH   3   4
ATOM      4  C   UNL     1     140.825 141.417 123.467  1.00  0.00     0.000 C 
BRANCH   4   5
ATOM      5  C   UNL     1     140.204 140.728 124.694  1.00  0.00     0.000 C 
BRANCH   5   6
ATOM      6  C   UNL     1     139.780 141.726 125.792  1.00  0.00     0.000 C 
BRANCH   6   7
ATOM      7  C   UNL     1     140.939 142.265 126.654  1.00  0.00     0.000 C 
BRANCH   7   8
ATOM      8  C   UNL     1     142.096 141.282 126.903  1.00  0.00     0.000 C 
BRANCH   8   9
ATOM      9  C   UNL     1     143.457 141.702 126.309  1.00  0.00     0.000 C 
BRANCH   9  10
ATOM     10  C   UNL     1     143.485 143.145 125.755  1.00  0.00     0.000 C 
BRANCH  10  11
ATOM     11  C   UNL     1     144.283 144.107 126.653  1.00  0.00     0.000 C 
BRANCH  11  12
ATOM     12  C   UNL     1     145.795 144.065 126.381  1.00  0.00     0.000 C 
BRANCH  12  13
ATOM     13  C   UNL     1     146.189 144.821 125.101  1.00  0.00     0.006 C 
BRANCH  13  14
ATOM     14  C   UNL     1     146.054 146.342 125.264  1.00  0.00     0.053 C 
BRANCH  14  15
ATOM     15  C   UNL     1     145.159 146.934 124.222  1.00  0.00     0.041 C 
ATOM     16  O   UNL     1     145.631 147.668 123.313  1.00  0.00    -0.550 OA
ATOM     17  O   UNL     1     143.789 146.702 124.277  1.00  0.00    -0.550 OA
ENDBRANCH  14  15
ENDBRANCH  13  14
ENDBRANCH  12  13
ENDBRANCH  11  12
ENDBRANCH  10  11
ENDBRANCH   9  10
ENDBRANCH   8   9
ENDBRANCH   7   8
ENDBRANCH   6   7
ENDBRANCH   5   6
ENDBRANCH   4   5
ENDBRANCH   3   4
ENDBRANCH   2   3
ENDBRANCH   1   2
BRANCH   1  18
ATOM     18  C   UNL     1     140.390 140.264 119.422  1.00  0.00     0.000 C 
BRANCH  18  19
ATOM     19  C   UNL     1     140.399 141.476 118.472  1.00  0.00     0.000 C 
BRANCH  19  20
ATOM     20  C   UNL     1     139.509 141.281 117.237  1.00  0.00     0.000 C 
BRANCH  20  21
ATOM     21  C   UNL     1     140.133 140.271 116.262  1.00  0.00     0.000 C 
BRANCH  21  22
ATOM     22  C   UNL     1     139.325 140.142 114.956  1.00  0.00     0.000 C 
BRANCH  22  23
ATOM     23  C   UNL     1     140.076 139.363 113.861  1.00  0.00     0.000 C 
BRANCH  23  24
ATOM     24  C   UNL     1     140.070 140.108 112.508  1.00  0.00    -0.000 C 
BRANCH  24  25
ATOM     25  C   UNL     1     141.296 139.773 111.640  1.00  0.00    -0.000 C 
BRANCH  25  26
ATOM     26  C   UNL     1     142.524 140.657 111.949  1.00  0.00    -0.000 C 
BRANCH  26  27
ATOM     27  C   UNL     1     143.608 139.941 112.776  1.00  0.00    -0.000 C 
BRANCH  27  28
ATOM     28  C   UNL     1     144.143 140.819 113.921  1.00  0.00    -0.000 C 
BRANCH  28  29
ATOM     29  C   UNL     1     143.042 141.252 114.901  1.00  0.00    -0.000 C 
BRANCH  29  30
ATOM     30  C   UNL     1     142.877 142.779 114.972  1.00  0.00    -0.000 C 
BRANCH  30  31
ATOM     31  C   UNL     1     141.770 143.293 114.038  1.00  0.00    -0.003 C 
ATOM     32  C   UNL     1     140.472 143.618 114.778  1.00  0.00     0.004 C 
ENDBRANCH  30  31
ENDBRANCH  29  30
ENDBRANCH  28  29
ENDBRANCH  27  28
ENDBRANCH  26  27
ENDBRANCH  25  26
ENDBRANCH  24  25
ENDBRANCH  23  24
ENDBRANCH  22  23
ENDBRANCH  21  22
ENDBRANCH  20  21
ENDBRANCH  19  20
ENDBRANCH  18  19
ENDBRANCH   1  18
TORSDOF 28
ENDMDL
MODEL 7
REMARK VINA RESULT:    -5.334      4.315     10.111
REMARK INTER + INTRA:         -17.259
REMARK INTER:                 -14.967
REMARK INTRA:                  -2.293
REMARK UNBOUND:                -3.196
REMARK SMILES CCCCCCCCCCCCCCCCCCCCCCCCCCCCCC(=O)[O-]
REMARK SMILES IDX 16 1 17 2 18 3 19 4 20 5 21 6 22 7 23 8 24 9 25 10 26 11
REMARK SMILES IDX 27 12 28 13 29 14 30 15 31 16 32 17 15 18 14 19 13 20 12 21
REMARK SMILES IDX 11 22 10 23 9 24 8 25 7 26 6 27 5 28 4 29 3 30 2 31 1 32
REMARK H PARENT
REMARK Flexibility Score: inf
ROOT
ATOM      1  C   UNL     1     140.493 142.503 115.013  1.00  0.00     0.000 C 
ENDROOT
BRANCH   1   2
ATOM      2  C   UNL     1     142.002 142.751 114.842  1.00  0.00     0.000 C 
BRANCH   2   3
ATOM      3  C   UNL     1     142.786 141.434 114.705  1.00  0.00     0.000 C 
BRANCH   3   4
ATOM      4  C   UNL     1     142.305 140.602 113.506  1.00  0.00     0.000 C 
BRANCH   4   5
ATOM      5  C   UNL     1     141.393 139.449 113.959  1.00  0.00     0.000 C 
BRANCH   5   6
ATOM      6  C   UNL     1     140.012 139.470 113.269  1.00  0.00     0.000 C 
BRANCH   6   7
ATOM      7  C   UNL     1     138.815 139.281 114.222  1.00  0.00     0.000 C 
BRANCH   7   8
ATOM      8  C   UNL     1     138.302 137.839 114.369  1.00  0.00     0.000 C 
BRANCH   8   9
ATOM      9  C   UNL     1     137.245 137.406 113.331  1.00  0.00     0.000 C 
BRANCH   9  10
ATOM     10  C   UNL     1     135.811 137.300 113.899  1.00  0.00     0.000 C 
BRANCH  10  11
ATOM     11  C   UNL     1     135.763 136.561 115.248  1.00  0.00     0.000 C 
BRANCH  11  12
ATOM     12  C   UNL     1     134.374 136.601 115.904  1.00  0.00     0.000 C 
BRANCH  12  13
ATOM     13  C   UNL     1     133.312 135.841 115.090  1.00  0.00     0.006 C 
BRANCH  13  14
ATOM     14  C   UNL     1     133.722 134.386 114.822  1.00  0.00     0.053 C 
BRANCH  14  15
ATOM     15  C   UNL     1     134.154 134.185 113.403  1.00  0.00     0.041 C 
ATOM     16  O   UNL     1     133.436 134.592 112.451  1.00  0.00    -0.550 OA
ATOM     17  O   UNL     1     135.340 133.512 113.132  1.00  0.00    -0.550 OA
ENDBRANCH  14  15
ENDBRANCH  13  14
ENDBRANCH  12  13
ENDBRANCH  11  12
ENDBRANCH  10  11
ENDBRANCH   9  10
ENDBRANCH   8   9
ENDBRANCH   7   8
ENDBRANCH   6   7
ENDBRANCH   5   6
ENDBRANCH   4   5
ENDBRANCH   3   4
ENDBRANCH   2   3
ENDBRANCH   1   2
BRANCH   1  18
ATOM     18  C   UNL     1     140.014 142.704 116.467  1.00  0.00     0.000 C 
BRANCH  18  19
ATOM     19  C   UNL     1     139.465 141.427 117.129  1.00  0.00     0.000 C 
BRANCH  19  20
ATOM     20  C   UNL     1     140.549 140.379 117.410  1.00  0.00     0.000 C 
BRANCH  20  21
ATOM     21  C   UNL     1     141.266 140.669 118.737  1.00  0.00     0.000 C 
BRANCH  21  22
ATOM     22  C   UNL     1     140.305 140.643 119.941  1.00  0.00     0.000 C 
BRANCH  22  23
ATOM     23  C   UNL     1     141.034 140.485 121.288  1.00  0.00     0.000 C 
BRANCH  23  24
ATOM     24  C   UNL     1     140.207 141.045 122.467  1.00  0.00    -0.000 C 
BRANCH  24  25
ATOM     25  C   UNL     1     141.003 141.088 123.783  1.00  0.00    -0.000 C 
BRANCH  25  26
ATOM     26  C   UNL     1     142.494 140.727 123.608  1.00  0.00    -0.000 C 
BRANCH  26  27
ATOM     27  C   UNL     1     143.455 141.855 124.026  1.00  0.00    -0.000 C 
BRANCH  27  28
ATOM     28  C   UNL     1     142.799 142.849 125.001  1.00  0.00    -0.000 C 
BRANCH  28  29
ATOM     29  C   UNL     1     143.814 143.803 125.649  1.00  0.00    -0.000 C 
BRANCH  29  30
ATOM     30  C   UNL     1     145.075 144.001 124.791  1.00  0.00    -0.000 C 
BRANCH  30  31
ATOM     31  C   UNL     1     145.042 145.316 123.996  1.00  0.00    -0.003 C 
ATOM     32  C   UNL     1     145.267 146.547 124.875  1.00  0.00     0.004 C 
ENDBRANCH  30  31
ENDBRANCH  29  30
ENDBRANCH  28  29
ENDBRANCH  27  28
ENDBRANCH  26  27
ENDBRANCH  25  26
ENDBRANCH  24  25
ENDBRANCH  23  24
ENDBRANCH  22  23
ENDBRANCH  21  22
ENDBRANCH  20  21
ENDBRANCH  19  20
ENDBRANCH  18  19
ENDBRANCH   1  18
TORSDOF 28
ENDMDL
MODEL 8
REMARK VINA RESULT:    -5.324      4.171     10.007
REMARK INTER + INTRA:         -17.233
REMARK INTER:                 -14.729
REMARK INTRA:                  -2.504
REMARK UNBOUND:                -3.196
REMARK SMILES CCCCCCCCCCCCCCCCCCCCCCCCCCCCCC(=O)[O-]
REMARK SMILES IDX 16 1 17 2 18 3 19 4 20 5 21 6 22 7 23 8 24 9 25 10 26 11
REMARK SMILES IDX 27 12 28 13 29 14 30 15 31 16 32 17 15 18 14 19 13 20 12 21
REMARK SMILES IDX 11 22 10 23 9 24 8 25 7 26 6 27 5 28 4 29 3 30 2 31 1 32
REMARK H PARENT
REMARK Flexibility Score: inf
ROOT
ATOM      1  C   UNL     1     139.634 142.731 115.523  1.00  0.00     0.000 C 
ENDROOT
BRANCH   1   2
ATOM      2  C   UNL     1     140.517 143.352 114.425  1.00  0.00     0.000 C 
BRANCH   2   3
ATOM      3  C   UNL     1     142.015 143.195 114.741  1.00  0.00     0.000 C 
BRANCH   3   4
ATOM      4  C   UNL     1     142.751 142.399 113.653  1.00  0.00     0.000 C 
BRANCH   4   5
ATOM      5  C   UNL     1     143.475 141.180 114.250  1.00  0.00     0.000 C 
BRANCH   5   6
ATOM      6  C   UNL     1     142.504 140.069 114.706  1.00  0.00     0.000 C 
BRANCH   6   7
ATOM      7  C   UNL     1     141.698 139.413 113.567  1.00  0.00     0.000 C 
BRANCH   7   8
ATOM      8  C   UNL     1     140.174 139.605 113.634  1.00  0.00     0.000 C 
BRANCH   8   9
ATOM      9  C   UNL     1     139.399 139.175 112.371  1.00  0.00     0.000 C 
BRANCH   9  10
ATOM     10  C   UNL     1     138.159 138.299 112.660  1.00  0.00     0.000 C 
BRANCH  10  11
ATOM     11  C   UNL     1     137.739 138.338 114.139  1.00  0.00     0.000 C 
BRANCH  11  12
ATOM     12  C   UNL     1     136.651 137.309 114.481  1.00  0.00     0.000 C 
BRANCH  12  13
ATOM     13  C   UNL     1     137.228 136.001 115.049  1.00  0.00     0.006 C 
BRANCH  13  14
ATOM     14  C   UNL     1     136.127 134.999 115.425  1.00  0.00     0.053 C 
BRANCH  14  15
ATOM     15  C   UNL     1     136.079 133.846 114.473  1.00  0.00     0.041 C 
ATOM     16  O   UNL     1     135.513 133.963 113.354  1.00  0.00    -0.550 OA
ATOM     17  O   UNL     1     136.632 132.624 114.840  1.00  0.00    -0.550 OA
ENDBRANCH  14  15
ENDBRANCH  13  14
ENDBRANCH  12  13
ENDBRANCH  11  12
ENDBRANCH  10  11
ENDBRANCH   9  10
ENDBRANCH   8   9
ENDBRANCH   7   8
ENDBRANCH   6   7
ENDBRANCH   5   6
ENDBRANCH   4   5
ENDBRANCH   3   4
ENDBRANCH   2   3
ENDBRANCH   1   2
BRANCH   1  18
ATOM     18  C   UNL     1     140.443 142.283 116.760  1.00  0.00     0.000 C 
BRANCH  18  19
ATOM     19  C   UNL     1     140.088 140.872 117.263  1.00  0.00     0.000 C 
BRANCH  19  20
ATOM     20  C   UNL     1     140.905 140.446 118.490  1.00  0.00     0.000 C 
BRANCH  20  21
ATOM     21  C   UNL     1     140.084 140.597 119.779  1.00  0.00     0.000 C 
BRANCH  21  22
ATOM     22  C   UNL     1     140.960 140.522 121.045  1.00  0.00     0.000 C 
BRANCH  22  23
ATOM     23  C   UNL     1     140.215 140.965 122.317  1.00  0.00     0.000 C 
BRANCH  23  24
ATOM     24  C   UNL     1     141.184 141.423 123.429  1.00  0.00    -0.000 C 
BRANCH  24  25
ATOM     25  C   UNL     1     141.070 140.570 124.705  1.00  0.00    -0.000 C 
BRANCH  25  26
ATOM     26  C   UNL     1     141.937 141.092 125.871  1.00  0.00    -0.000 C 
BRANCH  26  27
ATOM     27  C   UNL     1     143.217 141.814 125.413  1.00  0.00    -0.000 C 
BRANCH  27  28
ATOM     28  C   UNL     1     143.479 143.102 126.214  1.00  0.00    -0.000 C 
BRANCH  28  29
ATOM     29  C   UNL     1     144.977 143.403 126.380  1.00  0.00    -0.000 C 
BRANCH  29  30
ATOM     30  C   UNL     1     145.352 144.824 125.929  1.00  0.00    -0.000 C 
BRANCH  30  31
ATOM     31  C   UNL     1     145.041 145.069 124.444  1.00  0.00    -0.003 C 
ATOM     32  C   UNL     1     144.148 146.290 124.217  1.00  0.00     0.004 C 
ENDBRANCH  30  31
ENDBRANCH  29  30
ENDBRANCH  28  29
ENDBRANCH  27  28
ENDBRANCH  26  27
ENDBRANCH  25  26
ENDBRANCH  24  25
ENDBRANCH  23  24
ENDBRANCH  22  23
ENDBRANCH  21  22
ENDBRANCH  20  21
ENDBRANCH  19  20
ENDBRANCH  18  19
ENDBRANCH   1  18
TORSDOF 28
ENDMDL
MODEL 9
REMARK VINA RESULT:    -5.304      5.897     11.194
REMARK INTER + INTRA:         -17.182
REMARK INTER:                 -13.978
REMARK INTRA:                  -3.204
REMARK UNBOUND:                -3.196
REMARK SMILES CCCCCCCCCCCCCCCCCCCCCCCCCCCCCC(=O)[O-]
REMARK SMILES IDX 16 1 17 2 18 3 19 4 20 5 21 6 22 7 23 8 24 9 25 10 26 11
REMARK SMILES IDX 27 12 28 13 29 14 30 15 31 16 32 17 15 18 14 19 13 20 12 21
REMARK SMILES IDX 11 22 10 23 9 24 8 25 7 26 6 27 5 28 4 29 3 30 2 31 1 32
REMARK H PARENT
REMARK Flexibility Score: inf
ROOT
ATOM      1  C   UNL     1     136.145 135.752 120.939  1.00  0.00     0.000 C 
ENDROOT
BRANCH   1   2
ATOM      2  C   UNL     1     135.690 135.724 122.410  1.00  0.00     0.000 C 
BRANCH   2   3
ATOM      3  C   UNL     1     134.210 136.119 122.556  1.00  0.00     0.000 C 
BRANCH   3   4
ATOM      4  C   UNL     1     133.651 135.749 123.939  1.00  0.00     0.000 C 
BRANCH   4   5
ATOM      5  C   UNL     1     133.986 134.293 124.304  1.00  0.00     0.000 C 
BRANCH   5   6
ATOM      6  C   UNL     1     132.758 133.504 124.807  1.00  0.00     0.000 C 
BRANCH   6   7
ATOM      7  C   UNL     1     132.116 132.575 123.757  1.00  0.00     0.000 C 
BRANCH   7   8
ATOM      8  C   UNL     1     131.381 131.346 124.316  1.00  0.00     0.000 C 
BRANCH   8   9
ATOM      9  C   UNL     1     130.300 131.648 125.375  1.00  0.00     0.000 C 
BRANCH   9  10
ATOM     10  C   UNL     1     130.699 131.250 126.814  1.00  0.00     0.000 C 
BRANCH  10  11
ATOM     11  C   UNL     1     130.166 132.236 127.869  1.00  0.00     0.000 C 
BRANCH  11  12
ATOM     12  C   UNL     1     131.244 133.200 128.387  1.00  0.00     0.000 C 
BRANCH  12  13
ATOM     13  C   UNL     1     131.160 134.590 127.733  1.00  0.00     0.006 C 
BRANCH  13  14
ATOM     14  C   UNL     1     132.392 135.452 128.048  1.00  0.00     0.053 C 
BRANCH  14  15
ATOM     15  C   UNL     1     132.019 136.703 128.780  1.00  0.00     0.041 C 
ATOM     16  O   UNL     1     132.480 136.935 129.929  1.00  0.00    -0.550 OA
ATOM     17  O   UNL     1     131.128 137.600 128.202  1.00  0.00    -0.550 OA
ENDBRANCH  14  15
ENDBRANCH  13  14
ENDBRANCH  12  13
ENDBRANCH  11  12
ENDBRANCH  10  11
ENDBRANCH   9  10
ENDBRANCH   8   9
ENDBRANCH   7   8
ENDBRANCH   6   7
ENDBRANCH   5   6
ENDBRANCH   4   5
ENDBRANCH   3   4
ENDBRANCH   2   3
ENDBRANCH   1   2
BRANCH   1  18
ATOM     18  C   UNL     1     135.001 136.110 119.965  1.00  0.00     0.000 C 
BRANCH  18  19
ATOM     19  C   UNL     1     135.361 135.924 118.480  1.00  0.00     0.000 C 
BRANCH  19  20
ATOM     20  C   UNL     1     136.846 135.613 118.253  1.00  0.00     0.000 C 
BRANCH  20  21
ATOM     21  C   UNL     1     137.070 134.959 116.882  1.00  0.00     0.000 C 
BRANCH  21  22
ATOM     22  C   UNL     1     135.782 134.328 116.316  1.00  0.00     0.000 C 
BRANCH  22  23
ATOM     23  C   UNL     1     136.016 133.566 114.999  1.00  0.00     0.000 C 
BRANCH  23  24
ATOM     24  C   UNL     1     134.690 133.202 114.295  1.00  0.00    -0.000 C 
BRANCH  24  25
ATOM     25  C   UNL     1     133.474 133.917 114.911  1.00  0.00    -0.000 C 
BRANCH  25  26
ATOM     26  C   UNL     1     132.806 134.925 113.951  1.00  0.00    -0.000 C 
BRANCH  26  27
ATOM     27  C   UNL     1     133.422 134.936 112.540  1.00  0.00    -0.000 C 
BRANCH  27  28
ATOM     28  C   UNL     1     133.824 136.351 112.090  1.00  0.00    -0.000 C 
BRANCH  28  29
ATOM     29  C   UNL     1     134.526 137.150 113.199  1.00  0.00    -0.000 C 
BRANCH  29  30
ATOM     30  C   UNL     1     136.042 136.895 113.246  1.00  0.00    -0.000 C 
BRANCH  30  31
ATOM     31  C   UNL     1     136.712 137.571 114.453  1.00  0.00    -0.003 C 
ATOM     32  C   UNL     1     138.238 137.603 114.343  1.00  0.00     0.004 C 
ENDBRANCH  30  31
ENDBRANCH  29  30
ENDBRANCH  28  29
ENDBRANCH  27  28
ENDBRANCH  26  27
ENDBRANCH  25  26
ENDBRANCH  24  25
ENDBRANCH  23  24
ENDBRANCH  22  23
ENDBRANCH  21  22
ENDBRANCH  20  21
ENDBRANCH  19  20
ENDBRANCH  18  19
ENDBRANCH   1  18
TORSDOF 28
ENDMDL
