MODEL 1
REMARK VINA RESULT:    -4.108      0.000      0.000
REMARK INTER + INTRA:          -4.849
REMARK INTER:                  -4.949
REMARK INTRA:                   0.100
REMARK UNBOUND:                 0.100
REMARK SMILES O=c1c(O)c(-c2ccc(O)c(O)c2)oc2cc(O)cc(O)c12
REMARK SMILES IDX 5 1 3 2 2 3 1 4 22 5 20 6 19 7 17 8 16 9 15 10 14 11 6 12
REMARK SMILES IDX 7 13 8 14 9 15 13 16 11 17 10 18 12 20 4 22 21 24 18 26
REMARK H PARENT 10 19 12 21 4 23 21 25 18 27
REMARK Flexibility Score: inf
ROOT
ATOM      1  C   UNL     1       5.197  -5.607 -14.506  1.00  0.00     0.180 A 
ATOM      2  C   UNL     1       6.576  -5.464 -14.275  1.00  0.00     0.208 A 
ATOM      3  C   UNL     1       7.038  -5.349 -12.954  1.00  0.00     0.238 A 
ATOM      4  O   UNL     1       8.278  -5.276 -12.752  1.00  0.00    -0.285 OA
ATOM      5  C   UNL     1       6.115  -5.363 -11.882  1.00  0.00     0.111 A 
ATOM      6  C   UNL     1       6.468  -5.214 -10.507  1.00  0.00     0.134 A 
ATOM      7  C   UNL     1       5.487  -5.373  -9.520  1.00  0.00     0.093 A 
ATOM      8  C   UNL     1       4.153  -5.613  -9.863  1.00  0.00     0.123 A 
ATOM      9  C   UNL     1       3.789  -5.700 -11.204  1.00  0.00     0.094 A 
ATOM     10  C   UNL     1       4.751  -5.582 -12.210  1.00  0.00     0.146 A 
ATOM     11  O   UNL     1       4.363  -5.682 -13.475  1.00  0.00    -0.452 OA
ENDROOT
BRANCH   1  12
ATOM     12  C   UNL     1       4.632  -5.708 -15.870  1.00  0.00     0.025 A 
ATOM     13  C   UNL     1       3.482  -4.990 -16.241  1.00  0.00     0.016 A 
ATOM     14  C   UNL     1       2.953  -5.120 -17.528  1.00  0.00     0.051 A 
ATOM     15  C   UNL     1       3.556  -5.976 -18.458  1.00  0.00     0.157 A 
ATOM     16  C   UNL     1       5.221  -6.581 -16.800  1.00  0.00     0.062 A 
ATOM     17  C   UNL     1       4.694  -6.712 -18.090  1.00  0.00     0.158 A 
BRANCH  15  18
ATOM     18  O   UNL     1       3.027  -6.101 -19.742  1.00  0.00    -0.504 OA
ATOM     19  H   UNL     1       2.620  -5.310 -20.227  1.00  0.00     0.293 HD
ENDBRANCH  15  18
BRANCH  17  20
ATOM     20  O   UNL     1       5.314  -7.578 -18.990  1.00  0.00    -0.504 OA
ATOM     21  H   UNL     1       6.263  -7.430 -19.314  1.00  0.00     0.293 HD
ENDBRANCH  17  20
ENDBRANCH   1  12
BRANCH   2  22
ATOM     22  O   UNL     1       7.473  -5.475 -15.348  1.00  0.00    -0.502 OA
ATOM     23  H   UNL     1       7.950  -4.641 -15.667  1.00  0.00     0.293 HD
ENDBRANCH   2  22
BRANCH   6  24
ATOM     24  O   UNL     1       7.751  -4.884 -10.062  1.00  0.00    -0.507 OA
ATOM     25  H   UNL     1       8.175  -5.239  -9.218  1.00  0.00     0.293 HD
ENDBRANCH   6  24
BRANCH   8  26
ATOM     26  O   UNL     1       3.180  -5.754  -8.876  1.00  0.00    -0.508 OA
ATOM     27  H   UNL     1       2.440  -6.441  -8.956  1.00  0.00     0.293 HD
ENDBRANCH   8  26
TORSDOF 6
ENDMDL
