MODEL 1
REMARK VINA RESULT:    -6.709      0.000      0.000
REMARK INTER + INTRA:          -8.392
REMARK INTER:                  -8.082
REMARK INTRA:                  -0.311
REMARK UNBOUND:                -0.311
REMARK SMILES O=c1c(O)c(-c2ccc(O)c(O)c2)oc2cc(O)cc(O)c12
REMARK SMILES IDX 5 1 3 2 2 3 1 4 22 5 20 6 19 7 17 8 16 9 15 10 14 11 6 12
REMARK SMILES IDX 7 13 8 14 9 15 13 16 11 17 10 18 12 20 4 22 21 24 18 26
REMARK H PARENT 10 19 12 21 4 23 21 25 18 27
REMARK Flexibility Score: inf
ROOT
ATOM      1  C   UNL     1      48.286  -3.596   0.394  1.00  0.00     0.180 A 
ATOM      2  C   UNL     1      48.930  -4.716   0.948  1.00  0.00     0.208 A 
ATOM      3  C   UNL     1      50.291  -4.624   1.281  1.00  0.00     0.238 A 
ATOM      4  O   UNL     1      50.878  -5.652   1.707  1.00  0.00    -0.285 OA
ATOM      5  C   UNL     1      50.978  -3.397   1.110  1.00  0.00     0.111 A 
ATOM      6  C   UNL     1      52.346  -3.177   1.455  1.00  0.00     0.134 A 
ATOM      7  C   UNL     1      52.949  -1.952   1.142  1.00  0.00     0.093 A 
ATOM      8  C   UNL     1      52.219  -0.920   0.554  1.00  0.00     0.123 A 
ATOM      9  C   UNL     1      50.867  -1.105   0.262  1.00  0.00     0.094 A 
ATOM     10  C   UNL     1      50.247  -2.329   0.528  1.00  0.00     0.146 A 
ATOM     11  O   UNL     1      48.965  -2.469   0.214  1.00  0.00    -0.452 OA
ENDROOT
BRANCH   1  12
ATOM     12  C   UNL     1      46.859  -3.620   0.004  1.00  0.00     0.025 A 
ATOM     13  C   UNL     1      46.492  -4.148  -1.241  1.00  0.00     0.016 A 
ATOM     14  C   UNL     1      45.150  -4.199  -1.620  1.00  0.00     0.051 A 
ATOM     15  C   UNL     1      44.147  -3.739  -0.761  1.00  0.00     0.157 A 
ATOM     16  C   UNL     1      45.852  -3.177   0.881  1.00  0.00     0.062 A 
ATOM     17  C   UNL     1      44.502  -3.227   0.510  1.00  0.00     0.158 A 
BRANCH  15  18
ATOM     18  O   UNL     1      42.824  -3.810  -1.203  1.00  0.00    -0.504 OA
ATOM     19  H   UNL     1      42.274  -3.006  -1.470  1.00  0.00     0.293 HD
ENDBRANCH  15  18
BRANCH  17  20
ATOM     20  O   UNL     1      43.557  -2.769   1.429  1.00  0.00    -0.504 OA
ATOM     21  H   UNL     1      43.363  -1.792   1.601  1.00  0.00     0.293 HD
ENDBRANCH  17  20
ENDBRANCH   1  12
BRANCH   2  22
ATOM     22  O   UNL     1      48.215  -5.894   1.181  1.00  0.00    -0.502 OA
ATOM     23  H   UNL     1      47.616  -6.314   0.482  1.00  0.00     0.293 HD
ENDBRANCH   2  22
BRANCH   6  24
ATOM     24  O   UNL     1      53.145  -4.109   2.125  1.00  0.00    -0.507 OA
ATOM     25  H   UNL     1      53.972  -3.884   2.656  1.00  0.00     0.293 HD
ENDBRANCH   6  24
BRANCH   8  26
ATOM     26  O   UNL     1      52.848   0.291   0.272  1.00  0.00    -0.508 OA
ATOM     27  H   UNL     1      53.139   0.531  -0.669  1.00  0.00     0.293 HD
ENDBRANCH   8  26
TORSDOF 6
ENDMDL
MODEL 2
REMARK VINA RESULT:    -6.462      2.809      5.051
REMARK INTER + INTRA:          -8.095
REMARK INTER:                  -8.016
REMARK INTRA:                  -0.079
REMARK UNBOUND:                -0.311
REMARK SMILES O=c1c(O)c(-c2ccc(O)c(O)c2)oc2cc(O)cc(O)c12
REMARK SMILES IDX 5 1 3 2 2 3 1 4 22 5 20 6 19 7 17 8 16 9 15 10 14 11 6 12
REMARK SMILES IDX 7 13 8 14 9 15 13 16 11 17 10 18 12 20 4 22 21 24 18 26
REMARK H PARENT 10 19 12 21 4 23 21 25 18 27
REMARK Flexibility Score: inf
ROOT
ATOM      1  C   UNL     1      44.584  -2.006   0.257  1.00  0.00     0.180 A 
ATOM      2  C   UNL     1      44.358  -2.973  -0.738  1.00  0.00     0.208 A 
ATOM      3  C   UNL     1      45.412  -3.817  -1.121  1.00  0.00     0.238 A 
ATOM      4  O   UNL     1      45.222  -4.629  -2.063  1.00  0.00    -0.285 OA
ATOM      5  C   UNL     1      46.664  -3.723  -0.466  1.00  0.00     0.111 A 
ATOM      6  C   UNL     1      47.790  -4.557  -0.741  1.00  0.00     0.134 A 
ATOM      7  C   UNL     1      49.011  -4.302  -0.103  1.00  0.00     0.093 A 
ATOM      8  C   UNL     1      49.131  -3.287   0.843  1.00  0.00     0.123 A 
ATOM      9  C   UNL     1      48.023  -2.499   1.161  1.00  0.00     0.094 A 
ATOM     10  C   UNL     1      46.801  -2.705   0.514  1.00  0.00     0.146 A 
ATOM     11  O   UNL     1      45.779  -1.919   0.830  1.00  0.00    -0.452 OA
ENDROOT
BRANCH   1  12
ATOM     12  C   UNL     1      43.527  -1.071   0.703  1.00  0.00     0.025 A 
ATOM     13  C   UNL     1      43.727   0.310   0.570  1.00  0.00     0.016 A 
ATOM     14  C   UNL     1      42.735   1.208   0.966  1.00  0.00     0.051 A 
ATOM     15  C   UNL     1      41.520   0.749   1.488  1.00  0.00     0.157 A 
ATOM     16  C   UNL     1      42.300  -1.539   1.205  1.00  0.00     0.062 A 
ATOM     17  C   UNL     1      41.297  -0.644   1.602  1.00  0.00     0.158 A 
BRANCH  15  18
ATOM     18  O   UNL     1      40.573   1.699   1.872  1.00  0.00    -0.504 OA
ATOM     19  H   UNL     1      40.708   2.359   2.625  1.00  0.00     0.293 HD
ENDBRANCH  15  18
BRANCH  17  20
ATOM     20  O   UNL     1      40.105  -1.178   2.093  1.00  0.00    -0.504 OA
ATOM     21  H   UNL     1      39.196  -0.759   1.950  1.00  0.00     0.293 HD
ENDBRANCH  17  20
ENDBRANCH   1  12
BRANCH   2  22
ATOM     22  O   UNL     1      43.093  -3.101  -1.319  1.00  0.00    -0.502 OA
ATOM     23  H   UNL     1      42.912  -3.724  -2.097  1.00  0.00     0.293 HD
ENDBRANCH   2  22
BRANCH   6  24
ATOM     24  O   UNL     1      47.758  -5.657  -1.604  1.00  0.00    -0.507 OA
ATOM     25  H   UNL     1      48.547  -6.249  -1.814  1.00  0.00     0.293 HD
ENDBRANCH   6  24
BRANCH   8  26
ATOM     26  O   UNL     1      50.357  -3.072   1.470  1.00  0.00    -0.508 OA
ATOM     27  H   UNL     1      50.972  -3.842   1.708  1.00  0.00     0.293 HD
ENDBRANCH   8  26
TORSDOF 6
ENDMDL
MODEL 3
REMARK VINA RESULT:    -6.277      2.164      3.348
REMARK INTER + INTRA:          -7.872
REMARK INTER:                  -7.640
REMARK INTRA:                  -0.231
REMARK UNBOUND:                -0.311
REMARK SMILES O=c1c(O)c(-c2ccc(O)c(O)c2)oc2cc(O)cc(O)c12
REMARK SMILES IDX 5 1 3 2 2 3 1 4 22 5 20 6 19 7 17 8 16 9 15 10 14 11 6 12
REMARK SMILES IDX 7 13 8 14 9 15 13 16 11 17 10 18 12 20 4 22 21 24 18 26
REMARK H PARENT 10 19 12 21 4 23 21 25 18 27
REMARK Flexibility Score: inf
ROOT
ATOM      1  C   UNL     1      45.893  -2.754   0.584  1.00  0.00     0.180 A 
ATOM      2  C   UNL     1      46.077  -4.007  -0.026  1.00  0.00     0.208 A 
ATOM      3  C   UNL     1      47.377  -4.523  -0.145  1.00  0.00     0.238 A 
ATOM      4  O   UNL     1      47.541  -5.610  -0.757  1.00  0.00    -0.285 OA
ATOM      5  C   UNL     1      48.472  -3.806   0.398  1.00  0.00     0.111 A 
ATOM      6  C   UNL     1      49.828  -4.254   0.375  1.00  0.00     0.134 A 
ATOM      7  C   UNL     1      50.842  -3.412   0.848  1.00  0.00     0.093 A 
ATOM      8  C   UNL     1      50.545  -2.168   1.400  1.00  0.00     0.123 A 
ATOM      9  C   UNL     1      49.218  -1.741   1.477  1.00  0.00     0.094 A 
ATOM     10  C   UNL     1      48.188  -2.543   0.979  1.00  0.00     0.146 A 
ATOM     11  O   UNL     1      46.942  -2.090   1.053  1.00  0.00    -0.452 OA
ENDROOT
BRANCH   1  12
ATOM     12  C   UNL     1      44.555  -2.139   0.732  1.00  0.00     0.025 A 
ATOM     13  C   UNL     1      43.660  -2.653   1.681  1.00  0.00     0.016 A 
ATOM     14  C   UNL     1      42.402  -2.075   1.851  1.00  0.00     0.051 A 
ATOM     15  C   UNL     1      42.016  -0.965   1.092  1.00  0.00     0.157 A 
ATOM     16  C   UNL     1      44.181  -1.009  -0.017  1.00  0.00     0.062 A 
ATOM     17  C   UNL     1      42.921  -0.420   0.150  1.00  0.00     0.158 A 
BRANCH  15  18
ATOM     18  O   UNL     1      40.740  -0.439   1.305  1.00  0.00    -0.504 OA
ATOM     19  H   UNL     1      40.097  -0.200   0.565  1.00  0.00     0.293 HD
ENDBRANCH  15  18
BRANCH  17  20
ATOM     20  O   UNL     1      42.616   0.698  -0.629  1.00  0.00    -0.504 OA
ATOM     21  H   UNL     1      41.807   1.286  -0.481  1.00  0.00     0.293 HD
ENDBRANCH  17  20
ENDBRANCH   1  12
BRANCH   2  22
ATOM     22  O   UNL     1      44.975  -4.734  -0.486  1.00  0.00    -0.502 OA
ATOM     23  H   UNL     1      44.763  -5.667  -0.156  1.00  0.00     0.293 HD
ENDBRANCH   2  22
BRANCH   6  24
ATOM     24  O   UNL     1      50.228  -5.517  -0.073  1.00  0.00    -0.507 OA
ATOM     25  H   UNL     1      50.654  -5.704  -0.968  1.00  0.00     0.293 HD
ENDBRANCH   6  24
BRANCH   8  26
ATOM     26  O   UNL     1      51.578  -1.363   1.876  1.00  0.00    -0.508 OA
ATOM     27  H   UNL     1      52.255  -1.711   2.547  1.00  0.00     0.293 HD
ENDBRANCH   8  26
TORSDOF 6
ENDMDL
MODEL 4
REMARK VINA RESULT:    -5.892     17.505     19.153
REMARK INTER + INTRA:          -7.408
REMARK INTER:                  -7.085
REMARK INTRA:                  -0.323
REMARK UNBOUND:                -0.311
REMARK SMILES O=c1c(O)c(-c2ccc(O)c(O)c2)oc2cc(O)cc(O)c12
REMARK SMILES IDX 5 1 3 2 2 3 1 4 22 5 20 6 19 7 17 8 16 9 15 10 14 11 6 12
REMARK SMILES IDX 7 13 8 14 9 15 13 16 11 17 10 18 12 20 4 22 21 24 18 26
REMARK H PARENT 10 19 12 21 4 23 21 25 18 27
REMARK Flexibility Score: inf
ROOT
ATOM      1  C   UNL     1      41.640  10.871  -8.895  1.00  0.00     0.180 A 
ATOM      2  C   UNL     1      42.232  11.999  -8.302  1.00  0.00     0.208 A 
ATOM      3  C   UNL     1      41.703  12.493  -7.099  1.00  0.00     0.238 A 
ATOM      4  O   UNL     1      42.191  13.547  -6.614  1.00  0.00    -0.285 OA
ATOM      5  C   UNL     1      40.625  11.820  -6.474  1.00  0.00     0.111 A 
ATOM      6  C   UNL     1      40.038  12.206  -5.230  1.00  0.00     0.134 A 
ATOM      7  C   UNL     1      38.906  11.528  -4.761  1.00  0.00     0.093 A 
ATOM      8  C   UNL     1      38.379  10.440  -5.455  1.00  0.00     0.123 A 
ATOM      9  C   UNL     1      38.977  10.020  -6.644  1.00  0.00     0.094 A 
ATOM     10  C   UNL     1      40.084  10.700  -7.158  1.00  0.00     0.146 A 
ATOM     11  O   UNL     1      40.609  10.280  -8.302  1.00  0.00    -0.452 OA
ENDROOT
BRANCH   1  12
ATOM     12  C   UNL     1      42.132  10.300 -10.169  1.00  0.00     0.025 A 
ATOM     13  C   UNL     1      41.606  10.767 -11.383  1.00  0.00     0.016 A 
ATOM     14  C   UNL     1      42.070  10.257 -12.595  1.00  0.00     0.051 A 
ATOM     15  C   UNL     1      43.076   9.285 -12.625  1.00  0.00     0.157 A 
ATOM     16  C   UNL     1      43.158   9.339 -10.195  1.00  0.00     0.062 A 
ATOM     17  C   UNL     1      43.632   8.825 -11.408  1.00  0.00     0.158 A 
BRANCH  15  18
ATOM     18  O   UNL     1      43.490   8.810 -13.872  1.00  0.00    -0.504 OA
ATOM     19  H   UNL     1      44.129   9.302 -14.479  1.00  0.00     0.293 HD
ENDBRANCH  15  18
BRANCH  17  20
ATOM     20  O   UNL     1      44.652   7.872 -11.358  1.00  0.00    -0.504 OA
ATOM     21  H   UNL     1      45.608   8.053 -11.631  1.00  0.00     0.293 HD
ENDBRANCH  17  20
ENDBRANCH   1  12
BRANCH   2  22
ATOM     22  O   UNL     1      43.344  12.604  -8.895  1.00  0.00    -0.502 OA
ATOM     23  H   UNL     1      43.280  13.471  -9.413  1.00  0.00     0.293 HD
ENDBRANCH   2  22
BRANCH   6  24
ATOM     24  O   UNL     1      40.538  13.222  -4.410  1.00  0.00    -0.507 OA
ATOM     25  H   UNL     1      41.433  13.202  -3.946  1.00  0.00     0.293 HD
ENDBRANCH   6  24
BRANCH   8  26
ATOM     26  O   UNL     1      37.262   9.778  -4.949  1.00  0.00    -0.508 OA
ATOM     27  H   UNL     1      37.281   9.321  -4.045  1.00  0.00     0.293 HD
ENDBRANCH   8  26
TORSDOF 6
ENDMDL
MODEL 5
REMARK VINA RESULT:    -5.877     15.838     17.884
REMARK INTER + INTRA:          -7.391
REMARK INTER:                  -7.069
REMARK INTRA:                  -0.321
REMARK UNBOUND:                -0.311
REMARK SMILES O=c1c(O)c(-c2ccc(O)c(O)c2)oc2cc(O)cc(O)c12
REMARK SMILES IDX 5 1 3 2 2 3 1 4 22 5 20 6 19 7 17 8 16 9 15 10 14 11 6 12
REMARK SMILES IDX 7 13 8 14 9 15 13 16 11 17 10 18 12 20 4 22 21 24 18 26
REMARK H PARENT 10 19 12 21 4 23 21 25 18 27
REMARK Flexibility Score: inf
ROOT
ATOM      1  C   UNL     1      41.045   9.977  -8.139  1.00  0.00     0.180 A 
ATOM      2  C   UNL     1      40.753  10.360  -9.459  1.00  0.00     0.208 A 
ATOM      3  C   UNL     1      41.406   9.707 -10.518  1.00  0.00     0.238 A 
ATOM      4  O   UNL     1      41.195  10.105 -11.693  1.00  0.00    -0.285 OA
ATOM      5  C   UNL     1      42.299   8.643 -10.246  1.00  0.00     0.111 A 
ATOM      6  C   UNL     1      42.983   7.881 -11.242  1.00  0.00     0.134 A 
ATOM      7  C   UNL     1      43.924   6.920 -10.852  1.00  0.00     0.093 A 
ATOM      8  C   UNL     1      44.162   6.649  -9.506  1.00  0.00     0.123 A 
ATOM      9  C   UNL     1      43.460   7.349  -8.523  1.00  0.00     0.094 A 
ATOM     10  C   UNL     1      42.542   8.340  -8.880  1.00  0.00     0.146 A 
ATOM     11  O   UNL     1      41.912   8.997  -7.914  1.00  0.00    -0.452 OA
ENDROOT
BRANCH   1  12
ATOM     12  C   UNL     1      40.409  10.627  -6.971  1.00  0.00     0.025 A 
ATOM     13  C   UNL     1      40.972  11.796  -6.441  1.00  0.00     0.016 A 
ATOM     14  C   UNL     1      40.377  12.436  -5.353  1.00  0.00     0.051 A 
ATOM     15  C   UNL     1      39.203  11.933  -4.781  1.00  0.00     0.157 A 
ATOM     16  C   UNL     1      39.217  10.130  -6.415  1.00  0.00     0.062 A 
ATOM     17  C   UNL     1      38.611  10.768  -5.325  1.00  0.00     0.158 A 
BRANCH  15  18
ATOM     18  O   UNL     1      38.662  12.616  -3.690  1.00  0.00    -0.504 OA
ATOM     19  H   UNL     1      38.091  12.182  -2.979  1.00  0.00     0.293 HD
ENDBRANCH  15  18
BRANCH  17  20
ATOM     20  O   UNL     1      37.430  10.218  -4.822  1.00  0.00    -0.504 OA
ATOM     21  H   UNL     1      37.115  10.332  -3.869  1.00  0.00     0.293 HD
ENDBRANCH  17  20
ENDBRANCH   1  12
BRANCH   2  22
ATOM     22  O   UNL     1      39.811  11.361  -9.710  1.00  0.00    -0.502 OA
ATOM     23  H   UNL     1      39.539  11.629 -10.647  1.00  0.00     0.293 HD
ENDBRANCH   2  22
BRANCH   6  24
ATOM     24  O   UNL     1      42.757   8.007 -12.617  1.00  0.00    -0.507 OA
ATOM     25  H   UNL     1      42.875   7.267 -13.291  1.00  0.00     0.293 HD
ENDBRANCH   6  24
BRANCH   8  26
ATOM     26  O   UNL     1      45.093   5.675  -9.155  1.00  0.00    -0.508 OA
ATOM     27  H   UNL     1      45.335   5.497  -8.186  1.00  0.00     0.293 HD
ENDBRANCH   8  26
TORSDOF 6
ENDMDL
MODEL 6
REMARK VINA RESULT:    -5.703     17.342     19.277
REMARK INTER + INTRA:          -7.181
REMARK INTER:                  -6.859
REMARK INTRA:                  -0.322
REMARK UNBOUND:                -0.311
REMARK SMILES O=c1c(O)c(-c2ccc(O)c(O)c2)oc2cc(O)cc(O)c12
REMARK SMILES IDX 5 1 3 2 2 3 1 4 22 5 20 6 19 7 17 8 16 9 15 10 14 11 6 12
REMARK SMILES IDX 7 13 8 14 9 15 13 16 11 17 10 18 12 20 4 22 21 24 18 26
REMARK H PARENT 10 19 12 21 4 23 21 25 18 27
REMARK Flexibility Score: inf
ROOT
ATOM      1  C   UNL     1      40.191  10.717  -8.907  1.00  0.00     0.180 A 
ATOM      2  C   UNL     1      39.732  11.454 -10.012  1.00  0.00     0.208 A 
ATOM      3  C   UNL     1      40.376  11.298 -11.250  1.00  0.00     0.238 A 
ATOM      4  O   UNL     1      40.007  12.016 -12.216  1.00  0.00    -0.285 OA
ATOM      5  C   UNL     1      41.434  10.366 -11.382  1.00  0.00     0.111 A 
ATOM      6  C   UNL     1      42.129  10.092 -12.600  1.00  0.00     0.134 A 
ATOM      7  C   UNL     1      43.229   9.226 -12.587  1.00  0.00     0.093 A 
ATOM      8  C   UNL     1      43.621   8.576 -11.419  1.00  0.00     0.123 A 
ATOM      9  C   UNL     1      42.916   8.793 -10.234  1.00  0.00     0.094 A 
ATOM     10  C   UNL     1      41.836   9.681 -10.206  1.00  0.00     0.146 A 
ATOM     11  O   UNL     1      41.207   9.874  -9.054  1.00  0.00    -0.452 OA
ENDROOT
BRANCH   1  12
ATOM     12  C   UNL     1      39.574  10.838  -7.567  1.00  0.00     0.025 A 
ATOM     13  C   UNL     1      40.012  11.843  -6.693  1.00  0.00     0.016 A 
ATOM     14  C   UNL     1      39.430  11.987  -5.434  1.00  0.00     0.051 A 
ATOM     15  C   UNL     1      38.390  11.144  -5.026  1.00  0.00     0.157 A 
ATOM     16  C   UNL     1      38.514  10.003  -7.171  1.00  0.00     0.062 A 
ATOM     17  C   UNL     1      37.921  10.143  -5.909  1.00  0.00     0.158 A 
BRANCH  15  18
ATOM     18  O   UNL     1      37.856  11.336  -3.750  1.00  0.00    -0.504 OA
ATOM     19  H   UNL     1      36.894  11.584  -3.573  1.00  0.00     0.293 HD
ENDBRANCH  15  18
BRANCH  17  20
ATOM     20  O   UNL     1      36.875   9.279  -5.581  1.00  0.00    -0.504 OA
ATOM     21  H   UNL     1      35.904   9.555  -5.545  1.00  0.00     0.293 HD
ENDBRANCH  17  20
ENDBRANCH   1  12
BRANCH   2  22
ATOM     22  O   UNL     1      38.637  12.313  -9.880  1.00  0.00    -0.502 OA
ATOM     23  H   UNL     1      37.978  12.474 -10.631  1.00  0.00     0.293 HD
ENDBRANCH   2  22
BRANCH   6  24
ATOM     24  O   UNL     1      41.767  10.619 -13.844  1.00  0.00    -0.507 OA
ATOM     25  H   UNL     1      40.824  10.841 -14.125  1.00  0.00     0.293 HD
ENDBRANCH   6  24
BRANCH   8  26
ATOM     26  O   UNL     1      44.710   7.708 -11.447  1.00  0.00    -0.508 OA
ATOM     27  H   UNL     1      44.869   7.031 -10.709  1.00  0.00     0.293 HD
ENDBRANCH   8  26
TORSDOF 6
ENDMDL
MODEL 7
REMARK VINA RESULT:    -5.675     17.378     19.126
REMARK INTER + INTRA:          -7.147
REMARK INTER:                  -7.029
REMARK INTRA:                  -0.118
REMARK UNBOUND:                -0.311
REMARK SMILES O=c1c(O)c(-c2ccc(O)c(O)c2)oc2cc(O)cc(O)c12
REMARK SMILES IDX 5 1 3 2 2 3 1 4 22 5 20 6 19 7 17 8 16 9 15 10 14 11 6 12
REMARK SMILES IDX 7 13 8 14 9 15 13 16 11 17 10 18 12 20 4 22 21 24 18 26
REMARK H PARENT 10 19 12 21 4 23 21 25 18 27
REMARK Flexibility Score: inf
ROOT
ATOM      1  C   UNL     1      40.754  10.161  -9.294  1.00  0.00     0.180 A 
ATOM      2  C   UNL     1      39.360  10.013  -9.401  1.00  0.00     0.208 A 
ATOM      3  C   UNL     1      38.552  10.355  -8.304  1.00  0.00     0.238 A 
ATOM      4  O   UNL     1      37.313  10.150  -8.382  1.00  0.00    -0.285 OA
ATOM      5  C   UNL     1      39.142  10.893  -7.135  1.00  0.00     0.111 A 
ATOM      6  C   UNL     1      38.417  11.316  -5.979  1.00  0.00     0.134 A 
ATOM      7  C   UNL     1      39.115  11.734  -4.840  1.00  0.00     0.093 A 
ATOM      8  C   UNL     1      40.507  11.805  -4.834  1.00  0.00     0.123 A 
ATOM      9  C   UNL     1      41.225  11.446  -5.975  1.00  0.00     0.094 A 
ATOM     10  C   UNL     1      40.558  10.989  -7.115  1.00  0.00     0.146 A 
ATOM     11  O   UNL     1      41.281  10.638  -8.172  1.00  0.00    -0.452 OA
ENDROOT
BRANCH   1  12
ATOM     12  C   UNL     1      41.671   9.809 -10.400  1.00  0.00     0.025 A 
ATOM     13  C   UNL     1      41.582  10.499 -11.617  1.00  0.00     0.016 A 
ATOM     14  C   UNL     1      42.451  10.197 -12.666  1.00  0.00     0.051 A 
ATOM     15  C   UNL     1      43.434   9.213 -12.519  1.00  0.00     0.157 A 
ATOM     16  C   UNL     1      42.673   8.835 -10.240  1.00  0.00     0.062 A 
ATOM     17  C   UNL     1      43.551   8.527 -11.287  1.00  0.00     0.158 A 
BRANCH  15  18
ATOM     18  O   UNL     1      44.267   8.953 -13.610  1.00  0.00    -0.504 OA
ATOM     19  H   UNL     1      43.990   9.078 -14.573  1.00  0.00     0.293 HD
ENDBRANCH  15  18
BRANCH  17  20
ATOM     20  O   UNL     1      44.520   7.548 -11.058  1.00  0.00    -0.504 OA
ATOM     21  H   UNL     1      45.469   7.601 -11.401  1.00  0.00     0.293 HD
ENDBRANCH  17  20
ENDBRANCH   1  12
BRANCH   2  22
ATOM     22  O   UNL     1      38.791   9.552 -10.591  1.00  0.00    -0.502 OA
ATOM     23  H   UNL     1      37.790   9.529 -10.742  1.00  0.00     0.293 HD
ENDBRANCH   2  22
BRANCH   6  24
ATOM     24  O   UNL     1      37.021  11.370  -5.907  1.00  0.00    -0.507 OA
ATOM     25  H   UNL     1      36.493  12.125  -5.497  1.00  0.00     0.293 HD
ENDBRANCH   6  24
BRANCH   8  26
ATOM     26  O   UNL     1      41.168  12.242  -3.687  1.00  0.00    -0.508 OA
ATOM     27  H   UNL     1      41.987  12.837  -3.742  1.00  0.00     0.293 HD
ENDBRANCH   8  26
TORSDOF 6
ENDMDL
MODEL 8
REMARK VINA RESULT:    -5.556      4.802      8.047
REMARK INTER + INTRA:          -7.004
REMARK INTER:                  -6.681
REMARK INTRA:                  -0.322
REMARK UNBOUND:                -0.311
REMARK SMILES O=c1c(O)c(-c2ccc(O)c(O)c2)oc2cc(O)cc(O)c12
REMARK SMILES IDX 5 1 3 2 2 3 1 4 22 5 20 6 19 7 17 8 16 9 15 10 14 11 6 12
REMARK SMILES IDX 7 13 8 14 9 15 13 16 11 17 10 18 12 20 4 22 21 24 18 26
REMARK H PARENT 10 19 12 21 4 23 21 25 18 27
REMARK Flexibility Score: inf
ROOT
ATOM      1  C   UNL     1      42.530   0.091   0.826  1.00  0.00     0.180 A 
ATOM      2  C   UNL     1      43.796   0.188   1.428  1.00  0.00     0.208 A 
ATOM      3  C   UNL     1      44.695  -0.883   1.299  1.00  0.00     0.238 A 
ATOM      4  O   UNL     1      45.798  -0.819   1.902  1.00  0.00    -0.285 OA
ATOM      5  C   UNL     1      44.340  -2.013   0.524  1.00  0.00     0.111 A 
ATOM      6  C   UNL     1      45.189  -3.137   0.288  1.00  0.00     0.134 A 
ATOM      7  C   UNL     1      44.691  -4.246  -0.408  1.00  0.00     0.093 A 
ATOM      8  C   UNL     1      43.399  -4.247  -0.930  1.00  0.00     0.123 A 
ATOM      9  C   UNL     1      42.577  -3.133  -0.753  1.00  0.00     0.094 A 
ATOM     10  C   UNL     1      43.033  -2.026  -0.031  1.00  0.00     0.146 A 
ATOM     11  O   UNL     1      42.212  -0.996   0.132  1.00  0.00    -0.452 OA
ENDROOT
BRANCH   1  12
ATOM     12  C   UNL     1      41.523   1.171   0.929  1.00  0.00     0.025 A 
ATOM     13  C   UNL     1      40.615   1.168   1.998  1.00  0.00     0.016 A 
ATOM     14  C   UNL     1      39.671   2.187   2.125  1.00  0.00     0.051 A 
ATOM     15  C   UNL     1      39.622   3.237   1.201  1.00  0.00     0.157 A 
ATOM     16  C   UNL     1      41.492   2.235   0.011  1.00  0.00     0.062 A 
ATOM     17  C   UNL     1      40.550   3.264   0.133  1.00  0.00     0.158 A 
BRANCH  15  18
ATOM     18  O   UNL     1      38.649   4.221   1.381  1.00  0.00    -0.504 OA
ATOM     19  H   UNL     1      38.755   5.014   1.998  1.00  0.00     0.293 HD
ENDBRANCH  15  18
BRANCH  17  20
ATOM     20  O   UNL     1      40.577   4.288  -0.816  1.00  0.00    -0.504 OA
ATOM     21  H   UNL     1      41.101   5.145  -0.709  1.00  0.00     0.293 HD
ENDBRANCH  17  20
ENDBRANCH   1  12
BRANCH   2  22
ATOM     22  O   UNL     1      44.157   1.344   2.125  1.00  0.00    -0.502 OA
ATOM     23  H   UNL     1      43.648   1.671   2.937  1.00  0.00     0.293 HD
ENDBRANCH   2  22
BRANCH   6  24
ATOM     24  O   UNL     1      46.527  -3.205   0.689  1.00  0.00    -0.507 OA
ATOM     25  H   UNL     1      46.839  -3.386   1.630  1.00  0.00     0.293 HD
ENDBRANCH   6  24
BRANCH   8  26
ATOM     26  O   UNL     1      42.942  -5.361  -1.632  1.00  0.00    -0.508 OA
ATOM     27  H   UNL     1      43.319  -6.287  -1.460  1.00  0.00     0.293 HD
ENDBRANCH   8  26
TORSDOF 6
ENDMDL
MODEL 9
REMARK VINA RESULT:    -5.148      5.525      8.813
REMARK INTER + INTRA:          -6.512
REMARK INTER:                  -6.690
REMARK INTRA:                   0.178
REMARK UNBOUND:                -0.311
REMARK SMILES O=c1c(O)c(-c2ccc(O)c(O)c2)oc2cc(O)cc(O)c12
REMARK SMILES IDX 5 1 3 2 2 3 1 4 22 5 20 6 19 7 17 8 16 9 15 10 14 11 6 12
REMARK SMILES IDX 7 13 8 14 9 15 13 16 11 17 10 18 12 20 4 22 21 24 18 26
REMARK H PARENT 10 19 12 21 4 23 21 25 18 27
REMARK Flexibility Score: inf
ROOT
ATOM      1  C   UNL     1      42.212   1.067   0.740  1.00  0.00     0.180 A 
ATOM      2  C   UNL     1      41.143   0.188   0.494  1.00  0.00     0.208 A 
ATOM      3  C   UNL     1      41.419  -1.164   0.236  1.00  0.00     0.238 A 
ATOM      4  O   UNL     1      40.463  -1.929  -0.056  1.00  0.00    -0.285 OA
ATOM      5  C   UNL     1      42.755  -1.633   0.282  1.00  0.00     0.111 A 
ATOM      6  C   UNL     1      43.147  -2.991   0.081  1.00  0.00     0.134 A 
ATOM      7  C   UNL     1      44.508  -3.320   0.045  1.00  0.00     0.093 A 
ATOM      8  C   UNL     1      45.488  -2.353   0.265  1.00  0.00     0.123 A 
ATOM      9  C   UNL     1      45.115  -1.032   0.517  1.00  0.00     0.094 A 
ATOM     10  C   UNL     1      43.766  -0.666   0.521  1.00  0.00     0.146 A 
ATOM     11  O   UNL     1      43.457   0.605   0.744  1.00  0.00    -0.452 OA
ENDROOT
BRANCH   1  12
ATOM     12  C   UNL     1      42.003   2.508   1.005  1.00  0.00     0.025 A 
ATOM     13  C   UNL     1      42.869   3.183   1.877  1.00  0.00     0.016 A 
ATOM     14  C   UNL     1      42.702   4.545   2.125  1.00  0.00     0.051 A 
ATOM     15  C   UNL     1      41.679   5.266   1.499  1.00  0.00     0.157 A 
ATOM     16  C   UNL     1      40.987   3.233   0.356  1.00  0.00     0.062 A 
ATOM     17  C   UNL     1      40.814   4.602   0.597  1.00  0.00     0.158 A 
BRANCH  15  18
ATOM     18  O   UNL     1      41.561   6.625   1.797  1.00  0.00    -0.504 OA
ATOM     19  H   UNL     1      41.816   7.367   1.160  1.00  0.00     0.293 HD
ENDBRANCH  15  18
BRANCH  17  20
ATOM     20  O   UNL     1      39.784   5.258  -0.080  1.00  0.00    -0.504 OA
ATOM     21  H   UNL     1      39.693   5.278  -1.086  1.00  0.00     0.293 HD
ENDBRANCH  17  20
ENDBRANCH   1  12
BRANCH   2  22
ATOM     22  O   UNL     1      39.826   0.655   0.528  1.00  0.00    -0.502 OA
ATOM     23  H   UNL     1      39.029   0.040   0.429  1.00  0.00     0.293 HD
ENDBRANCH   2  22
BRANCH   6  24
ATOM     24  O   UNL     1      42.248  -4.053  -0.061  1.00  0.00    -0.507 OA
ATOM     25  H   UNL     1      41.255  -3.996   0.107  1.00  0.00     0.293 HD
ENDBRANCH   6  24
BRANCH   8  26
ATOM     26  O   UNL     1      46.832  -2.719   0.238  1.00  0.00    -0.508 OA
ATOM     27  H   UNL     1      47.172  -3.527   0.749  1.00  0.00     0.293 HD
ENDBRANCH   8  26
TORSDOF 6
ENDMDL
