MODEL 1
REMARK VINA RESULT:    -4.736      0.000      0.000
REMARK INTER + INTRA:          -5.609
REMARK INTER:                  -5.428
REMARK INTRA:                  -0.181
REMARK UNBOUND:                -0.181
REMARK SMILES O=C([O-])C=Cc1ccc(O)cc1
REMARK SMILES IDX 6 1 7 2 12 3 8 4 11 5 9 6 5 7 4 8 2 9 1 10 3 11 10 12
REMARK H PARENT 10 13
REMARK Flexibility Score: inf
ROOT
ATOM      1  C   UNL     1      37.578   3.030   8.565  1.00  0.00    -0.025 A 
ATOM      2  C   UNL     1      36.438   2.337   8.123  1.00  0.00     0.012 A 
ATOM      3  C   UNL     1      38.378   2.464   9.569  1.00  0.00     0.012 A 
ATOM      4  C   UNL     1      36.136   1.074   8.640  1.00  0.00     0.047 A 
ATOM      5  C   UNL     1      38.074   1.200  10.086  1.00  0.00     0.047 A 
ATOM      6  C   UNL     1      36.953   0.501   9.619  1.00  0.00     0.115 A 
ENDROOT
BRANCH   1   7
ATOM      7  C   UNL     1      37.890   4.388   8.073  1.00  0.00     0.010 C 
ATOM      8  C   UNL     1      38.853   4.692   7.191  1.00  0.00     0.025 C 
BRANCH   8   9
ATOM      9  C   UNL     1      39.892   3.764   6.703  1.00  0.00     0.064 C 
ATOM     10  O   UNL     1      39.819   3.322   5.527  1.00  0.00    -0.545 OA
ATOM     11  O   UNL     1      40.987   3.422   7.488  1.00  0.00    -0.545 OA
ENDBRANCH   8   9
ENDBRANCH   1   7
BRANCH   6  12
ATOM     12  O   UNL     1      36.641  -0.759  10.125  1.00  0.00    -0.508 OA
ATOM     13  H   UNL     1      37.326  -1.314  10.624  1.00  0.00     0.293 HD
ENDBRANCH   6  12
TORSDOF 3
ENDMDL
MODEL 2
REMARK VINA RESULT:    -4.592      1.913      2.370
REMARK INTER + INTRA:          -5.444
REMARK INTER:                  -5.224
REMARK INTRA:                  -0.219
REMARK UNBOUND:                -0.181
REMARK SMILES O=C([O-])C=Cc1ccc(O)cc1
REMARK SMILES IDX 6 1 7 2 12 3 8 4 11 5 9 6 5 7 4 8 2 9 1 10 3 11 10 12
REMARK H PARENT 10 13
REMARK Flexibility Score: inf
ROOT
ATOM      1  C   UNL     1      37.597   2.705   9.504  1.00  0.00    -0.025 A 
ATOM      2  C   UNL     1      36.671   3.605  10.059  1.00  0.00     0.012 A 
ATOM      3  C   UNL     1      37.152   1.448   9.065  1.00  0.00     0.012 A 
ATOM      4  C   UNL     1      35.315   3.271  10.124  1.00  0.00     0.047 A 
ATOM      5  C   UNL     1      35.796   1.115   9.131  1.00  0.00     0.047 A 
ATOM      6  C   UNL     1      34.873   2.029   9.658  1.00  0.00     0.115 A 
ENDROOT
BRANCH   1   7
ATOM      7  C   UNL     1      39.041   3.011   9.472  1.00  0.00     0.010 C 
ATOM      8  C   UNL     1      39.674   3.669   8.489  1.00  0.00     0.025 C 
BRANCH   8   9
ATOM      9  C   UNL     1      39.086   4.032   7.185  1.00  0.00     0.064 C 
ATOM     10  O   UNL     1      38.256   4.975   7.126  1.00  0.00    -0.545 OA
ATOM     11  O   UNL     1      39.481   3.403   6.010  1.00  0.00    -0.545 OA
ENDBRANCH   8   9
ENDBRANCH   1   7
BRANCH   6  12
ATOM     12  O   UNL     1      33.518   1.710   9.728  1.00  0.00    -0.508 OA
ATOM     13  H   UNL     1      33.150   1.124  10.469  1.00  0.00     0.293 HD
ENDBRANCH   6  12
TORSDOF 3
ENDMDL
MODEL 3
REMARK VINA RESULT:    -4.286     11.539     12.741
REMARK INTER + INTRA:          -5.093
REMARK INTER:                  -4.925
REMARK INTRA:                  -0.168
REMARK UNBOUND:                -0.181
REMARK SMILES O=C([O-])C=Cc1ccc(O)cc1
REMARK SMILES IDX 6 1 7 2 12 3 8 4 11 5 9 6 5 7 4 8 2 9 1 10 3 11 10 12
REMARK H PARENT 10 13
REMARK Flexibility Score: inf
ROOT
ATOM      1  C   UNL     1      40.064  -7.492   1.023  1.00  0.00    -0.025 A 
ATOM      2  C   UNL     1      41.000  -6.448   1.129  1.00  0.00     0.012 A 
ATOM      3  C   UNL     1      38.754  -7.287   1.479  1.00  0.00     0.012 A 
ATOM      4  C   UNL     1      40.613  -5.203   1.634  1.00  0.00     0.047 A 
ATOM      5  C   UNL     1      38.368  -6.041   1.985  1.00  0.00     0.047 A 
ATOM      6  C   UNL     1      39.297  -4.995   2.060  1.00  0.00     0.115 A 
ENDROOT
BRANCH   1   7
ATOM      7  C   UNL     1      40.461  -8.832   0.543  1.00  0.00     0.010 C 
ATOM      8  C   UNL     1      40.548  -9.934   1.303  1.00  0.00     0.025 C 
BRANCH   8   9
ATOM      9  C   UNL     1      40.453  -9.968   2.776  1.00  0.00     0.064 C 
ATOM     10  O   UNL     1      41.490  -9.788   3.464  1.00  0.00    -0.545 OA
ATOM     11  O   UNL     1      39.232 -10.125   3.421  1.00  0.00    -0.545 OA
ENDBRANCH   8   9
ENDBRANCH   1   7
BRANCH   6  12
ATOM     12  O   UNL     1      38.925  -3.748   2.560  1.00  0.00    -0.508 OA
ATOM     13  H   UNL     1      38.705  -3.616   3.541  1.00  0.00     0.293 HD
ENDBRANCH   6  12
TORSDOF 3
ENDMDL
MODEL 4
REMARK VINA RESULT:    -4.202      2.899      5.434
REMARK INTER + INTRA:          -4.997
REMARK INTER:                  -4.725
REMARK INTRA:                  -0.272
REMARK UNBOUND:                -0.181
REMARK SMILES O=C([O-])C=Cc1ccc(O)cc1
REMARK SMILES IDX 6 1 7 2 12 3 8 4 11 5 9 6 5 7 4 8 2 9 1 10 3 11 10 12
REMARK H PARENT 10 13
REMARK Flexibility Score: inf
ROOT
ATOM      1  C   UNL     1      36.845   4.403   9.181  1.00  0.00    -0.025 A 
ATOM      2  C   UNL     1      37.586   4.506   7.991  1.00  0.00     0.012 A 
ATOM      3  C   UNL     1      35.959   5.434   9.528  1.00  0.00     0.012 A 
ATOM      4  C   UNL     1      37.402   5.598   7.138  1.00  0.00     0.047 A 
ATOM      5  C   UNL     1      35.776   6.526   8.674  1.00  0.00     0.047 A 
ATOM      6  C   UNL     1      36.496   6.608   7.474  1.00  0.00     0.115 A 
ENDROOT
BRANCH   1   7
ATOM      7  C   UNL     1      37.059   3.287  10.125  1.00  0.00     0.010 C 
ATOM      8  C   UNL     1      36.419   2.108  10.092  1.00  0.00     0.025 C 
BRANCH   8   9
ATOM      9  C   UNL     1      35.260   1.787   9.237  1.00  0.00     0.064 C 
ATOM     10  O   UNL     1      35.455   1.401   8.056  1.00  0.00    -0.545 OA
ATOM     11  O   UNL     1      33.960   1.833   9.728  1.00  0.00    -0.545 OA
ENDBRANCH   8   9
ENDBRANCH   1   7
BRANCH   6  12
ATOM     12  O   UNL     1      36.321   7.691   6.614  1.00  0.00    -0.508 OA
ATOM     13  H   UNL     1      36.693   7.683   5.672  1.00  0.00     0.293 HD
ENDBRANCH   6  12
TORSDOF 3
ENDMDL
MODEL 5
REMARK VINA RESULT:    -4.120      4.495      5.349
REMARK INTER + INTRA:          -4.903
REMARK INTER:                  -4.652
REMARK INTRA:                  -0.251
REMARK UNBOUND:                -0.181
REMARK SMILES O=C([O-])C=Cc1ccc(O)cc1
REMARK SMILES IDX 6 1 7 2 12 3 8 4 11 5 9 6 5 7 4 8 2 9 1 10 3 11 10 12
REMARK H PARENT 10 13
REMARK Flexibility Score: inf
ROOT
ATOM      1  C   UNL     1      36.093   5.640   9.457  1.00  0.00    -0.025 A 
ATOM      2  C   UNL     1      35.710   4.431  10.063  1.00  0.00     0.012 A 
ATOM      3  C   UNL     1      36.797   5.605   8.244  1.00  0.00     0.012 A 
ATOM      4  C   UNL     1      35.979   3.211   9.436  1.00  0.00     0.047 A 
ATOM      5  C   UNL     1      37.066   4.384   7.617  1.00  0.00     0.047 A 
ATOM      6  C   UNL     1      36.654   3.183   8.212  1.00  0.00     0.115 A 
ENDROOT
BRANCH   1   7
ATOM      7  C   UNL     1      35.868   6.938  10.125  1.00  0.00     0.010 C 
ATOM      8  C   UNL     1      34.727   7.644  10.086  1.00  0.00     0.025 C 
BRANCH   8   9
ATOM      9  C   UNL     1      33.567   7.349   9.222  1.00  0.00     0.064 C 
ATOM     10  O   UNL     1      32.754   6.454   9.568  1.00  0.00    -0.545 OA
ATOM     11  O   UNL     1      33.314   8.086   8.071  1.00  0.00    -0.545 OA
ENDBRANCH   8   9
ENDBRANCH   1   7
BRANCH   6  12
ATOM     12  O   UNL     1      36.915   1.960   7.597  1.00  0.00    -0.508 OA
ATOM     13  H   UNL     1      37.561   1.886   6.820  1.00  0.00     0.293 HD
ENDBRANCH   6  12
TORSDOF 3
ENDMDL
MODEL 6
REMARK VINA RESULT:    -4.094      2.068      2.369
REMARK INTER + INTRA:          -4.874
REMARK INTER:                  -4.653
REMARK INTRA:                  -0.221
REMARK UNBOUND:                -0.181
REMARK SMILES O=C([O-])C=Cc1ccc(O)cc1
REMARK SMILES IDX 6 1 7 2 12 3 8 4 11 5 9 6 5 7 4 8 2 9 1 10 3 11 10 12
REMARK H PARENT 10 13
REMARK Flexibility Score: inf
ROOT
ATOM      1  C   UNL     1      36.369   3.369   9.828  1.00  0.00    -0.025 A 
ATOM      2  C   UNL     1      35.324   2.546   9.373  1.00  0.00     0.012 A 
ATOM      3  C   UNL     1      37.614   2.794  10.124  1.00  0.00     0.012 A 
ATOM      4  C   UNL     1      35.540   1.181   9.166  1.00  0.00     0.047 A 
ATOM      5  C   UNL     1      37.829   1.427   9.918  1.00  0.00     0.047 A 
ATOM      6  C   UNL     1      36.791   0.618   9.434  1.00  0.00     0.115 A 
ENDROOT
BRANCH   1   7
ATOM      7  C   UNL     1      36.151   4.803  10.106  1.00  0.00     0.010 C 
ATOM      8  C   UNL     1      36.487   5.812   9.287  1.00  0.00     0.025 C 
BRANCH   8   9
ATOM      9  C   UNL     1      37.301   5.685   8.062  1.00  0.00     0.064 C 
ATOM     10  O   UNL     1      36.753   5.844   6.941  1.00  0.00    -0.545 OA
ATOM     11  O   UNL     1      38.672   5.465   8.121  1.00  0.00    -0.545 OA
ENDBRANCH   8   9
ENDBRANCH   1   7
BRANCH   6  12
ATOM     12  O   UNL     1      36.993  -0.744   9.223  1.00  0.00    -0.508 OA
ATOM     13  H   UNL     1      36.705  -1.195   8.362  1.00  0.00     0.293 HD
ENDBRANCH   6  12
TORSDOF 3
ENDMDL
MODEL 7
REMARK VINA RESULT:    -4.036      1.640      4.695
REMARK INTER + INTRA:          -4.807
REMARK INTER:                  -4.755
REMARK INTRA:                  -0.053
REMARK UNBOUND:                -0.181
REMARK SMILES O=C([O-])C=Cc1ccc(O)cc1
REMARK SMILES IDX 6 1 7 2 12 3 8 4 11 5 9 6 5 7 4 8 2 9 1 10 3 11 10 12
REMARK H PARENT 10 13
REMARK Flexibility Score: inf
ROOT
ATOM      1  C   UNL     1      37.327   4.010   8.950  1.00  0.00    -0.025 A 
ATOM      2  C   UNL     1      36.840   5.100   8.208  1.00  0.00     0.012 A 
ATOM      3  C   UNL     1      38.524   3.393   8.556  1.00  0.00     0.012 A 
ATOM      4  C   UNL     1      37.568   5.596   7.123  1.00  0.00     0.047 A 
ATOM      5  C   UNL     1      39.251   3.889   7.469  1.00  0.00     0.047 A 
ATOM      6  C   UNL     1      38.775   4.996   6.752  1.00  0.00     0.115 A 
ENDROOT
BRANCH   1   7
ATOM      7  C   UNL     1      36.551   3.434  10.067  1.00  0.00     0.010 C 
ATOM      8  C   UNL     1      36.091   2.175  10.125  1.00  0.00     0.025 C 
BRANCH   8   9
ATOM      9  C   UNL     1      36.108   1.205   9.012  1.00  0.00     0.064 C 
ATOM     10  O   UNL     1      35.354   1.391   8.022  1.00  0.00    -0.545 OA
ATOM     11  O   UNL     1      36.990   0.131   9.000  1.00  0.00    -0.545 OA
ENDBRANCH   8   9
ENDBRANCH   1   7
BRANCH   6  12
ATOM     12  O   UNL     1      39.491   5.501   5.668  1.00  0.00    -0.508 OA
ATOM     13  H   UNL     1      39.022   5.889   4.858  1.00  0.00     0.293 HD
ENDBRANCH   6  12
TORSDOF 3
ENDMDL
MODEL 8
REMARK VINA RESULT:    -4.032      3.113      3.634
REMARK INTER + INTRA:          -4.802
REMARK INTER:                  -4.516
REMARK INTRA:                  -0.286
REMARK UNBOUND:                -0.181
REMARK SMILES O=C([O-])C=Cc1ccc(O)cc1
REMARK SMILES IDX 6 1 7 2 12 3 8 4 11 5 9 6 5 7 4 8 2 9 1 10 3 11 10 12
REMARK H PARENT 10 13
REMARK Flexibility Score: inf
ROOT
ATOM      1  C   UNL     1      36.915   4.517   9.256  1.00  0.00    -0.025 A 
ATOM      2  C   UNL     1      35.800   3.988   9.929  1.00  0.00     0.012 A 
ATOM      3  C   UNL     1      37.591   3.721   8.318  1.00  0.00     0.012 A 
ATOM      4  C   UNL     1      35.338   2.704   9.627  1.00  0.00     0.047 A 
ATOM      5  C   UNL     1      37.127   2.436   8.017  1.00  0.00     0.047 A 
ATOM      6  C   UNL     1      35.996   1.926   8.670  1.00  0.00     0.115 A 
ENDROOT
BRANCH   1   7
ATOM      7  C   UNL     1      37.455   5.849   9.595  1.00  0.00     0.010 C 
ATOM      8  C   UNL     1      37.052   7.010   9.057  1.00  0.00     0.025 C 
BRANCH   8   9
ATOM      9  C   UNL     1      36.142   7.149   7.903  1.00  0.00     0.064 C 
ATOM     10  O   UNL     1      34.981   7.598   8.085  1.00  0.00    -0.545 OA
ATOM     11  O   UNL     1      36.562   6.861   6.610  1.00  0.00    -0.545 OA
ENDBRANCH   8   9
ENDBRANCH   1   7
BRANCH   6  12
ATOM     12  O   UNL     1      35.524   0.648   8.377  1.00  0.00    -0.508 OA
ATOM     13  H   UNL     1      34.730   0.504   7.764  1.00  0.00     0.293 HD
ENDBRANCH   6  12
TORSDOF 3
ENDMDL
