MODEL 1
REMARK VINA RESULT:    -5.740      0.000      0.000
REMARK INTER + INTRA:         -12.633
REMARK INTER:                 -10.774
REMARK INTRA:                  -1.859
REMARK UNBOUND:                -1.859
REMARK SMILES CCCCCCCCC=CCCCCCCCC(=O)[O-]
REMARK SMILES IDX 10 1 9 2 11 3 12 4 13 5 14 6 15 7 16 8 17 9 18 10 19 11
REMARK SMILES IDX 20 12 8 13 7 14 6 15 5 16 4 17 3 18 2 19 1 20
REMARK H PARENT
REMARK Flexibility Score: inf
ROOT
ATOM      1  C   UNL     1     -27.907  -0.919  21.383  1.00  0.00    -0.031 C 
ATOM      2  C   UNL     1     -27.287  -0.609  22.538  1.00  0.00    -0.031 C 
ENDROOT
BRANCH   1   3
ATOM      3  C   UNL     1     -28.530  -2.255  21.069  1.00  0.00     0.027 C 
BRANCH   3   4
ATOM      4  C   UNL     1     -29.310  -2.206  19.748  1.00  0.00     0.004 C 
BRANCH   4   5
ATOM      5  C   UNL     1     -28.404  -1.962  18.526  1.00  0.00     0.000 C 
BRANCH   5   6
ATOM      6  C   UNL     1     -28.772  -2.774  17.270  1.00  0.00     0.000 C 
BRANCH   6   7
ATOM      7  C   UNL     1     -28.067  -2.327  15.975  1.00  0.00     0.000 C 
BRANCH   7   8
ATOM      8  C   UNL     1     -27.588  -3.500  15.088  1.00  0.00     0.006 C 
BRANCH   8   9
ATOM      9  C   UNL     1     -28.571  -3.866  13.964  1.00  0.00     0.053 C 
BRANCH   9  10
ATOM     10  C   UNL     1     -29.783  -4.574  14.489  1.00  0.00     0.041 C 
ATOM     11  O   UNL     1     -29.655  -5.569  15.250  1.00  0.00    -0.550 OA
ATOM     12  O   UNL     1     -31.054  -4.121  14.158  1.00  0.00    -0.550 OA
ENDBRANCH   9  10
ENDBRANCH   8   9
ENDBRANCH   7   8
ENDBRANCH   6   7
ENDBRANCH   5   6
ENDBRANCH   4   5
ENDBRANCH   3   4
ENDBRANCH   1   3
BRANCH   2  13
ATOM     13  C   UNL     1     -27.115  -1.542  23.712  1.00  0.00     0.027 C 
BRANCH  13  14
ATOM     14  C   UNL     1     -27.322  -0.828  25.058  1.00  0.00     0.004 C 
BRANCH  14  15
ATOM     15  C   UNL     1     -27.985   0.557  24.926  1.00  0.00     0.000 C 
BRANCH  15  16
ATOM     16  C   UNL     1     -29.196   0.727  25.859  1.00  0.00     0.000 C 
BRANCH  16  17
ATOM     17  C   UNL     1     -30.442  -0.012  25.347  1.00  0.00    -0.000 C 
BRANCH  17  18
ATOM     18  C   UNL     1     -30.707   0.238  23.852  1.00  0.00    -0.000 C 
BRANCH  18  19
ATOM     19  C   UNL     1     -31.345  -0.975  23.157  1.00  0.00    -0.003 C 
ATOM     20  C   UNL     1     -30.918  -2.303  23.780  1.00  0.00     0.004 C 
ENDBRANCH  18  19
ENDBRANCH  17  18
ENDBRANCH  16  17
ENDBRANCH  15  16
ENDBRANCH  14  15
ENDBRANCH  13  14
ENDBRANCH   2  13
TORSDOF 15
ENDMDL
MODEL 2
REMARK VINA RESULT:    -5.705      1.382      3.050
REMARK INTER + INTRA:         -12.567
REMARK INTER:                 -10.093
REMARK INTRA:                  -2.474
REMARK UNBOUND:                -1.859
REMARK SMILES CCCCCCCCC=CCCCCCCCC(=O)[O-]
REMARK SMILES IDX 10 1 9 2 11 3 12 4 13 5 14 6 15 7 16 8 17 9 18 10 19 11
REMARK SMILES IDX 20 12 8 13 7 14 6 15 5 16 4 17 3 18 2 19 1 20
REMARK H PARENT
REMARK Flexibility Score: inf
ROOT
ATOM      1  C   UNL     1     -30.940  -0.036  22.867  1.00  0.00    -0.031 C 
ATOM      2  C   UNL     1     -30.077   0.926  23.244  1.00  0.00    -0.031 C 
ENDROOT
BRANCH   1   3
ATOM      3  C   UNL     1     -30.830  -0.846  21.601  1.00  0.00     0.027 C 
BRANCH   3   4
ATOM      4  C   UNL     1     -30.014  -2.126  21.831  1.00  0.00     0.004 C 
BRANCH   4   5
ATOM      5  C   UNL     1     -28.807  -2.246  20.882  1.00  0.00     0.000 C 
BRANCH   5   6
ATOM      6  C   UNL     1     -28.708  -1.143  19.811  1.00  0.00     0.000 C 
BRANCH   6   7
ATOM      7  C   UNL     1     -27.919  -1.532  18.546  1.00  0.00     0.000 C 
BRANCH   7   8
ATOM      8  C   UNL     1     -28.683  -2.494  17.606  1.00  0.00     0.006 C 
BRANCH   8   9
ATOM      9  C   UNL     1     -28.182  -2.465  16.153  1.00  0.00     0.053 C 
BRANCH   9  10
ATOM     10  C   UNL     1     -29.073  -3.247  15.238  1.00  0.00     0.041 C 
ATOM     11  O   UNL     1     -30.302  -2.982  15.171  1.00  0.00    -0.550 OA
ATOM     12  O   UNL     1     -28.544  -4.254  14.440  1.00  0.00    -0.550 OA
ENDBRANCH   9  10
ENDBRANCH   8   9
ENDBRANCH   7   8
ENDBRANCH   6   7
ENDBRANCH   5   6
ENDBRANCH   4   5
ENDBRANCH   3   4
ENDBRANCH   1   3
BRANCH   2  13
ATOM     13  C   UNL     1     -28.854   1.354  22.469  1.00  0.00     0.027 C 
BRANCH  13  14
ATOM     14  C   UNL     1     -27.552   1.096  23.245  1.00  0.00     0.004 C 
BRANCH  14  15
ATOM     15  C   UNL     1     -26.975  -0.317  23.029  1.00  0.00     0.000 C 
BRANCH  15  16
ATOM     16  C   UNL     1     -26.752  -1.074  24.349  1.00  0.00     0.000 C 
BRANCH  16  17
ATOM     17  C   UNL     1     -27.883  -2.068  24.656  1.00  0.00    -0.000 C 
BRANCH  17  18
ATOM     18  C   UNL     1     -28.991  -1.453  25.529  1.00  0.00    -0.000 C 
BRANCH  18  19
ATOM     19  C   UNL     1     -28.454  -0.388  26.498  1.00  0.00    -0.003 C 
ATOM     20  C   UNL     1     -29.510   0.649  26.877  1.00  0.00     0.004 C 
ENDBRANCH  18  19
ENDBRANCH  17  18
ENDBRANCH  16  17
ENDBRANCH  15  16
ENDBRANCH  14  15
ENDBRANCH  13  14
ENDBRANCH   2  13
TORSDOF 15
ENDMDL
MODEL 3
REMARK VINA RESULT:    -5.678      1.657      1.993
REMARK INTER + INTRA:         -12.516
REMARK INTER:                 -10.580
REMARK INTRA:                  -1.936
REMARK UNBOUND:                -1.859
REMARK SMILES CCCCCCCCC=CCCCCCCCC(=O)[O-]
REMARK SMILES IDX 10 1 9 2 11 3 12 4 13 5 14 6 15 7 16 8 17 9 18 10 19 11
REMARK SMILES IDX 20 12 8 13 7 14 6 15 5 16 4 17 3 18 2 19 1 20
REMARK H PARENT
REMARK Flexibility Score: inf
ROOT
ATOM      1  C   UNL     1     -27.629  -0.474  21.557  1.00  0.00    -0.031 C 
ATOM      2  C   UNL     1     -27.047  -0.274  22.755  1.00  0.00    -0.031 C 
ENDROOT
BRANCH   1   3
ATOM      3  C   UNL     1     -28.141  -1.800  21.056  1.00  0.00     0.027 C 
BRANCH   3   4
ATOM      4  C   UNL     1     -29.091  -1.613  19.865  1.00  0.00     0.004 C 
BRANCH   4   5
ATOM      5  C   UNL     1     -29.021  -2.773  18.854  1.00  0.00     0.000 C 
BRANCH   5   6
ATOM      6  C   UNL     1     -28.635  -2.365  17.419  1.00  0.00     0.000 C 
BRANCH   6   7
ATOM      7  C   UNL     1     -28.899  -3.436  16.343  1.00  0.00     0.000 C 
BRANCH   7   8
ATOM      8  C   UNL     1     -28.714  -2.925  14.895  1.00  0.00     0.006 C 
BRANCH   8   9
ATOM      9  C   UNL     1     -27.394  -2.171  14.670  1.00  0.00     0.053 C 
BRANCH   9  10
ATOM     10  C   UNL     1     -26.258  -3.104  14.381  1.00  0.00     0.041 C 
ATOM     11  O   UNL     1     -26.482  -4.239  13.883  1.00  0.00    -0.550 OA
ATOM     12  O   UNL     1     -24.951  -2.713  14.638  1.00  0.00    -0.550 OA
ENDBRANCH   9  10
ENDBRANCH   8   9
ENDBRANCH   7   8
ENDBRANCH   6   7
ENDBRANCH   5   6
ENDBRANCH   4   5
ENDBRANCH   3   4
ENDBRANCH   1   3
BRANCH   2  13
ATOM     13  C   UNL     1     -26.813  -1.339  23.798  1.00  0.00     0.027 C 
BRANCH  13  14
ATOM     14  C   UNL     1     -27.505  -1.011  25.132  1.00  0.00     0.004 C 
BRANCH  14  15
ATOM     15  C   UNL     1     -28.048   0.429  25.206  1.00  0.00     0.000 C 
BRANCH  15  16
ATOM     16  C   UNL     1     -29.306   0.544  26.085  1.00  0.00     0.000 C 
BRANCH  16  17
ATOM     17  C   UNL     1     -30.558  -0.022  25.397  1.00  0.00    -0.000 C 
BRANCH  17  18
ATOM     18  C   UNL     1     -30.619   0.323  23.899  1.00  0.00    -0.000 C 
BRANCH  18  19
ATOM     19  C   UNL     1     -31.132  -0.847  23.046  1.00  0.00    -0.003 C 
ATOM     20  C   UNL     1     -30.800  -2.210  23.653  1.00  0.00     0.004 C 
ENDBRANCH  18  19
ENDBRANCH  17  18
ENDBRANCH  16  17
ENDBRANCH  15  16
ENDBRANCH  14  15
ENDBRANCH  13  14
ENDBRANCH   2  13
TORSDOF 15
ENDMDL
MODEL 4
REMARK VINA RESULT:    -5.677      1.937      3.035
REMARK INTER + INTRA:         -12.514
REMARK INTER:                 -10.623
REMARK INTRA:                  -1.891
REMARK UNBOUND:                -1.859
REMARK SMILES CCCCCCCCC=CCCCCCCCC(=O)[O-]
REMARK SMILES IDX 10 1 9 2 11 3 12 4 13 5 14 6 15 7 16 8 17 9 18 10 19 11
REMARK SMILES IDX 20 12 8 13 7 14 6 15 5 16 4 17 3 18 2 19 1 20
REMARK H PARENT
REMARK Flexibility Score: inf
ROOT
ATOM      1  C   UNL     1     -29.090  -0.195  21.240  1.00  0.00    -0.031 C 
ATOM      2  C   UNL     1     -30.175  -0.530  21.963  1.00  0.00    -0.031 C 
ENDROOT
BRANCH   1   3
ATOM      3  C   UNL     1     -27.972  -1.138  20.874  1.00  0.00     0.027 C 
BRANCH   3   4
ATOM      4  C   UNL     1     -27.987  -1.458  19.372  1.00  0.00     0.004 C 
BRANCH   4   5
ATOM      5  C   UNL     1     -29.009  -2.549  19.003  1.00  0.00     0.000 C 
BRANCH   5   6
ATOM      6  C   UNL     1     -28.980  -2.998  17.529  1.00  0.00     0.000 C 
BRANCH   6   7
ATOM      7  C   UNL     1     -28.017  -2.205  16.625  1.00  0.00     0.000 C 
BRANCH   7   8
ATOM      8  C   UNL     1     -28.337  -2.323  15.117  1.00  0.00     0.006 C 
BRANCH   8   9
ATOM      9  C   UNL     1     -27.717  -3.561  14.449  1.00  0.00     0.053 C 
BRANCH   9  10
ATOM     10  C   UNL     1     -26.262  -3.365  14.148  1.00  0.00     0.041 C 
ATOM     11  O   UNL     1     -25.821  -2.217  13.877  1.00  0.00    -0.550 OA
ATOM     12  O   UNL     1     -25.389  -4.445  14.189  1.00  0.00    -0.550 OA
ENDBRANCH   9  10
ENDBRANCH   8   9
ENDBRANCH   7   8
ENDBRANCH   6   7
ENDBRANCH   5   6
ENDBRANCH   4   5
ENDBRANCH   3   4
ENDBRANCH   1   3
BRANCH   2  13
ATOM     13  C   UNL     1     -30.459  -1.902  22.526  1.00  0.00     0.027 C 
BRANCH  13  14
ATOM     14  C   UNL     1     -30.508  -1.903  24.063  1.00  0.00     0.004 C 
BRANCH  14  15
ATOM     15  C   UNL     1     -30.795  -0.516  24.672  1.00  0.00     0.000 C 
BRANCH  15  16
ATOM     16  C   UNL     1     -30.221  -0.361  26.090  1.00  0.00     0.000 C 
BRANCH  16  17
ATOM     17  C   UNL     1     -28.739  -0.760  26.173  1.00  0.00    -0.000 C 
BRANCH  17  18
ATOM     18  C   UNL     1     -27.798   0.340  25.654  1.00  0.00    -0.000 C 
BRANCH  18  19
ATOM     19  C   UNL     1     -27.088  -0.058  24.351  1.00  0.00    -0.003 C 
ATOM     20  C   UNL     1     -26.727  -1.543  24.307  1.00  0.00     0.004 C 
ENDBRANCH  18  19
ENDBRANCH  17  18
ENDBRANCH  16  17
ENDBRANCH  15  16
ENDBRANCH  14  15
ENDBRANCH  13  14
ENDBRANCH   2  13
TORSDOF 15
ENDMDL
MODEL 5
REMARK VINA RESULT:    -5.585      7.673     12.596
REMARK INTER + INTRA:         -12.341
REMARK INTER:                 -10.779
REMARK INTRA:                  -1.562
REMARK UNBOUND:                -1.859
REMARK SMILES CCCCCCCCC=CCCCCCCCC(=O)[O-]
REMARK SMILES IDX 10 1 9 2 11 3 12 4 13 5 14 6 15 7 16 8 17 9 18 10 19 11
REMARK SMILES IDX 20 12 8 13 7 14 6 15 5 16 4 17 3 18 2 19 1 20
REMARK H PARENT
REMARK Flexibility Score: inf
ROOT
ATOM      1  C   UNL     1     -30.182   1.198  28.119  1.00  0.00    -0.031 C 
ATOM      2  C   UNL     1     -29.718   0.653  26.979  1.00  0.00    -0.031 C 
ENDROOT
BRANCH   1   3
ATOM      3  C   UNL     1     -29.500   1.103  29.461  1.00  0.00     0.027 C 
BRANCH   3   4
ATOM      4  C   UNL     1     -30.185   2.008  30.495  1.00  0.00     0.004 C 
BRANCH   4   5
ATOM      5  C   UNL     1     -30.915   1.215  31.595  1.00  0.00     0.000 C 
BRANCH   5   6
ATOM      6  C   UNL     1     -31.519   2.070  32.725  1.00  0.00     0.000 C 
BRANCH   6   7
ATOM      7  C   UNL     1     -30.822   3.425  32.960  1.00  0.00     0.000 C 
BRANCH   7   8
ATOM      8  C   UNL     1     -29.707   3.376  34.029  1.00  0.00     0.006 C 
BRANCH   8   9
ATOM      9  C   UNL     1     -28.309   3.705  33.480  1.00  0.00     0.053 C 
BRANCH   9  10
ATOM     10  C   UNL     1     -27.547   2.469  33.113  1.00  0.00     0.041 C 
ATOM     11  O   UNL     1     -27.975   1.335  33.456  1.00  0.00    -0.550 OA
ATOM     12  O   UNL     1     -26.377   2.565  32.371  1.00  0.00    -0.550 OA
ENDBRANCH   9  10
ENDBRANCH   8   9
ENDBRANCH   7   8
ENDBRANCH   6   7
ENDBRANCH   5   6
ENDBRANCH   4   5
ENDBRANCH   3   4
ENDBRANCH   1   3
BRANCH   2  13
ATOM     13  C   UNL     1     -28.440  -0.140  26.848  1.00  0.00     0.027 C 
BRANCH  13  14
ATOM     14  C   UNL     1     -28.448  -1.059  25.615  1.00  0.00     0.004 C 
BRANCH  14  15
ATOM     15  C   UNL     1     -27.209  -0.894  24.714  1.00  0.00     0.000 C 
BRANCH  15  16
ATOM     16  C   UNL     1     -27.573  -0.513  23.269  1.00  0.00     0.000 C 
BRANCH  16  17
ATOM     17  C   UNL     1     -27.767   1.001  23.092  1.00  0.00    -0.000 C 
BRANCH  17  18
ATOM     18  C   UNL     1     -29.170   1.363  22.575  1.00  0.00    -0.000 C 
BRANCH  18  19
ATOM     19  C   UNL     1     -30.094   0.139  22.476  1.00  0.00    -0.003 C 
ATOM     20  C   UNL     1     -31.352   0.279  23.333  1.00  0.00     0.004 C 
ENDBRANCH  18  19
ENDBRANCH  17  18
ENDBRANCH  16  17
ENDBRANCH  15  16
ENDBRANCH  14  15
ENDBRANCH  13  14
ENDBRANCH   2  13
TORSDOF 15
ENDMDL
MODEL 6
REMARK VINA RESULT:    -5.551      1.754      3.151
REMARK INTER + INTRA:         -12.278
REMARK INTER:                 -10.251
REMARK INTRA:                  -2.027
REMARK UNBOUND:                -1.859
REMARK SMILES CCCCCCCCC=CCCCCCCCC(=O)[O-]
REMARK SMILES IDX 10 1 9 2 11 3 12 4 13 5 14 6 15 7 16 8 17 9 18 10 19 11
REMARK SMILES IDX 20 12 8 13 7 14 6 15 5 16 4 17 3 18 2 19 1 20
REMARK H PARENT
REMARK Flexibility Score: inf
ROOT
ATOM      1  C   UNL     1     -30.238  -2.131  22.338  1.00  0.00    -0.031 C 
ATOM      2  C   UNL     1     -30.681  -1.578  23.483  1.00  0.00    -0.031 C 
ENDROOT
BRANCH   1   3
ATOM      3  C   UNL     1     -29.868  -1.362  21.095  1.00  0.00     0.027 C 
BRANCH   3   4
ATOM      4  C   UNL     1     -29.065  -2.236  20.121  1.00  0.00     0.004 C 
BRANCH   4   5
ATOM      5  C   UNL     1     -28.039  -1.432  19.301  1.00  0.00     0.000 C 
BRANCH   5   6
ATOM      6  C   UNL     1     -28.155  -1.594  17.774  1.00  0.00     0.000 C 
BRANCH   6   7
ATOM      7  C   UNL     1     -28.719  -2.947  17.302  1.00  0.00     0.000 C 
BRANCH   7   8
ATOM      8  C   UNL     1     -29.091  -2.980  15.801  1.00  0.00     0.006 C 
BRANCH   8   9
ATOM      9  C   UNL     1     -28.189  -3.896  14.960  1.00  0.00     0.053 C 
BRANCH   9  10
ATOM     10  C   UNL     1     -26.932  -3.203  14.529  1.00  0.00     0.041 C 
ATOM     11  O   UNL     1     -25.835  -3.821  14.535  1.00  0.00    -0.550 OA
ATOM     12  O   UNL     1     -26.975  -1.883  14.099  1.00  0.00    -0.550 OA
ENDBRANCH   9  10
ENDBRANCH   8   9
ENDBRANCH   7   8
ENDBRANCH   6   7
ENDBRANCH   5   6
ENDBRANCH   4   5
ENDBRANCH   3   4
ENDBRANCH   1   3
BRANCH   2  13
ATOM     13  C   UNL     1     -30.876  -0.100  23.720  1.00  0.00     0.027 C 
BRANCH  13  14
ATOM     14  C   UNL     1     -30.235   0.369  25.036  1.00  0.00     0.004 C 
BRANCH  14  15
ATOM     15  C   UNL     1     -29.463  -0.741  25.777  1.00  0.00     0.000 C 
BRANCH  15  16
ATOM     16  C   UNL     1     -27.938  -0.579  25.664  1.00  0.00     0.000 C 
BRANCH  16  17
ATOM     17  C   UNL     1     -27.314  -1.561  24.659  1.00  0.00    -0.000 C 
BRANCH  17  18
ATOM     18  C   UNL     1     -26.514  -0.850  23.555  1.00  0.00    -0.000 C 
BRANCH  18  19
ATOM     19  C   UNL     1     -26.690   0.676  23.589  1.00  0.00    -0.003 C 
ATOM     20  C   UNL     1     -27.604   1.189  22.477  1.00  0.00     0.004 C 
ENDBRANCH  18  19
ENDBRANCH  17  18
ENDBRANCH  16  17
ENDBRANCH  15  16
ENDBRANCH  14  15
ENDBRANCH  13  14
ENDBRANCH   2  13
TORSDOF 15
ENDMDL
MODEL 7
REMARK VINA RESULT:    -5.551      7.371     11.853
REMARK INTER + INTRA:         -12.278
REMARK INTER:                 -10.276
REMARK INTRA:                  -2.002
REMARK UNBOUND:                -1.859
REMARK SMILES CCCCCCCCC=CCCCCCCCC(=O)[O-]
REMARK SMILES IDX 10 1 9 2 11 3 12 4 13 5 14 6 15 7 16 8 17 9 18 10 19 11
REMARK SMILES IDX 20 12 8 13 7 14 6 15 5 16 4 17 3 18 2 19 1 20
REMARK H PARENT
REMARK Flexibility Score: inf
ROOT
ATOM      1  C   UNL     1     -29.945   0.642  26.125  1.00  0.00    -0.031 C 
ATOM      2  C   UNL     1     -30.548  -0.116  25.191  1.00  0.00    -0.031 C 
ENDROOT
BRANCH   1   3
ATOM      3  C   UNL     1     -28.721   0.238  26.907  1.00  0.00     0.027 C 
BRANCH   3   4
ATOM      4  C   UNL     1     -28.959   0.376  28.418  1.00  0.00     0.004 C 
BRANCH   4   5
ATOM      5  C   UNL     1     -30.124   1.326  28.756  1.00  0.00     0.000 C 
BRANCH   5   6
ATOM      6  C   UNL     1     -30.114   1.883  30.192  1.00  0.00     0.000 C 
BRANCH   6   7
ATOM      7  C   UNL     1     -29.196   1.134  31.177  1.00  0.00     0.000 C 
BRANCH   7   8
ATOM      8  C   UNL     1     -29.487   1.446  32.663  1.00  0.00     0.006 C 
BRANCH   8   9
ATOM      9  C   UNL     1     -28.223   1.685  33.503  1.00  0.00     0.053 C 
BRANCH   9  10
ATOM     10  C   UNL     1     -27.421   2.843  32.992  1.00  0.00     0.041 C 
ATOM     11  O   UNL     1     -27.792   4.023  33.229  1.00  0.00    -0.550 OA
ATOM     12  O   UNL     1     -26.253   2.622  32.275  1.00  0.00    -0.550 OA
ENDBRANCH   9  10
ENDBRANCH   8   9
ENDBRANCH   7   8
ENDBRANCH   6   7
ENDBRANCH   5   6
ENDBRANCH   4   5
ENDBRANCH   3   4
ENDBRANCH   1   3
BRANCH   2  13
ATOM     13  C   UNL     1     -30.103  -1.495  24.766  1.00  0.00     0.027 C 
BRANCH  13  14
ATOM     14  C   UNL     1     -30.373  -1.761  23.275  1.00  0.00     0.004 C 
BRANCH  14  15
ATOM     15  C   UNL     1     -30.510  -0.476  22.435  1.00  0.00     0.000 C 
BRANCH  15  16
ATOM     16  C   UNL     1     -29.181  -0.042  21.794  1.00  0.00     0.000 C 
BRANCH  16  17
ATOM     17  C   UNL     1     -28.524   1.131  22.538  1.00  0.00    -0.000 C 
BRANCH  17  18
ATOM     18  C   UNL     1     -27.350   0.687  23.426  1.00  0.00    -0.000 C 
BRANCH  18  19
ATOM     19  C   UNL     1     -26.823  -0.707  23.052  1.00  0.00    -0.003 C 
ATOM     20  C   UNL     1     -26.502  -1.564  24.276  1.00  0.00     0.004 C 
ENDBRANCH  18  19
ENDBRANCH  17  18
ENDBRANCH  16  17
ENDBRANCH  15  16
ENDBRANCH  14  15
ENDBRANCH  13  14
ENDBRANCH   2  13
TORSDOF 15
ENDMDL
MODEL 8
REMARK VINA RESULT:    -5.551      3.390      8.601
REMARK INTER + INTRA:         -12.277
REMARK INTER:                 -10.599
REMARK INTRA:                  -1.679
REMARK UNBOUND:                -1.859
REMARK SMILES CCCCCCCCC=CCCCCCCCC(=O)[O-]
REMARK SMILES IDX 10 1 9 2 11 3 12 4 13 5 14 6 15 7 16 8 17 9 18 10 19 11
REMARK SMILES IDX 20 12 8 13 7 14 6 15 5 16 4 17 3 18 2 19 1 20
REMARK H PARENT
REMARK Flexibility Score: inf
ROOT
ATOM      1  C   UNL     1     -29.895  -0.696  21.739  1.00  0.00    -0.031 C 
ATOM      2  C   UNL     1     -29.010  -0.390  20.771  1.00  0.00    -0.031 C 
ENDROOT
BRANCH   1   3
ATOM      3  C   UNL     1     -29.953  -2.013  22.471  1.00  0.00     0.027 C 
BRANCH   3   4
ATOM      4  C   UNL     1     -30.983  -1.968  23.609  1.00  0.00     0.004 C 
BRANCH   4   5
ATOM      5  C   UNL     1     -31.081  -0.582  24.274  1.00  0.00     0.000 C 
BRANCH   5   6
ATOM      6  C   UNL     1     -30.331  -0.447  25.613  1.00  0.00     0.000 C 
BRANCH   6   7
ATOM      7  C   UNL     1     -29.404   0.779  25.721  1.00  0.00     0.000 C 
BRANCH   7   8
ATOM      8  C   UNL     1     -27.907   0.419  25.860  1.00  0.00     0.006 C 
BRANCH   8   9
ATOM      9  C   UNL     1     -27.499  -0.840  25.080  1.00  0.00     0.053 C 
BRANCH   9  10
ATOM     10  C   UNL     1     -26.758  -0.505  23.821  1.00  0.00     0.041 C 
ATOM     11  O   UNL     1     -26.100  -1.393  23.218  1.00  0.00    -0.550 OA
ATOM     12  O   UNL     1     -26.813   0.782  23.301  1.00  0.00    -0.550 OA
ENDBRANCH   9  10
ENDBRANCH   8   9
ENDBRANCH   7   8
ENDBRANCH   6   7
ENDBRANCH   5   6
ENDBRANCH   4   5
ENDBRANCH   3   4
ENDBRANCH   1   3
BRANCH   2  13
ATOM     13  C   UNL     1     -27.927  -1.308  20.258  1.00  0.00     0.027 C 
BRANCH  13  14
ATOM     14  C   UNL     1     -28.007  -1.510  18.736  1.00  0.00     0.004 C 
BRANCH  14  15
ATOM     15  C   UNL     1     -28.970  -2.637  18.313  1.00  0.00     0.000 C 
BRANCH  15  16
ATOM     16  C   UNL     1     -28.716  -3.127  16.877  1.00  0.00     0.000 C 
BRANCH  16  17
ATOM     17  C   UNL     1     -28.149  -2.023  15.971  1.00  0.00    -0.000 C 
BRANCH  17  18
ATOM     18  C   UNL     1     -27.877  -2.514  14.538  1.00  0.00    -0.000 C 
BRANCH  18  19
ATOM     19  C   UNL     1     -27.326  -3.947  14.502  1.00  0.00    -0.003 C 
ATOM     20  C   UNL     1     -25.829  -3.995  14.195  1.00  0.00     0.004 C 
ENDBRANCH  18  19
ENDBRANCH  17  18
ENDBRANCH  16  17
ENDBRANCH  15  16
ENDBRANCH  14  15
ENDBRANCH  13  14
ENDBRANCH   2  13
TORSDOF 15
ENDMDL
MODEL 9
REMARK VINA RESULT:    -5.516      5.109      8.179
REMARK INTER + INTRA:         -12.213
REMARK INTER:                 -10.595
REMARK INTRA:                  -1.618
REMARK UNBOUND:                -1.859
REMARK SMILES CCCCCCCCC=CCCCCCCCC(=O)[O-]
REMARK SMILES IDX 10 1 9 2 11 3 12 4 13 5 14 6 15 7 16 8 17 9 18 10 19 11
REMARK SMILES IDX 20 12 8 13 7 14 6 15 5 16 4 17 3 18 2 19 1 20
REMARK H PARENT
REMARK Flexibility Score: inf
ROOT
ATOM      1  C   UNL     1     -29.694   0.819  26.967  1.00  0.00    -0.031 C 
ATOM      2  C   UNL     1     -30.127   1.160  28.196  1.00  0.00    -0.031 C 
ENDROOT
BRANCH   1   3
ATOM      3  C   UNL     1     -28.292   0.375  26.638  1.00  0.00     0.027 C 
BRANCH   3   4
ATOM      4  C   UNL     1     -28.297  -0.957  25.875  1.00  0.00     0.004 C 
BRANCH   4   5
ATOM      5  C   UNL     1     -27.310  -0.974  24.692  1.00  0.00     0.000 C 
BRANCH   5   6
ATOM      6  C   UNL     1     -27.219   0.344  23.900  1.00  0.00     0.000 C 
BRANCH   6   7
ATOM      7  C   UNL     1     -28.175   0.449  22.696  1.00  0.00     0.000 C 
BRANCH   7   8
ATOM      8  C   UNL     1     -29.522   1.133  23.026  1.00  0.00     0.006 C 
BRANCH   8   9
ATOM      9  C   UNL     1     -30.688   0.147  23.205  1.00  0.00     0.053 C 
BRANCH   9  10
ATOM     10  C   UNL     1     -30.467  -1.126  22.446  1.00  0.00     0.041 C 
ATOM     11  O   UNL     1     -30.170  -2.185  23.060  1.00  0.00    -0.550 OA
ATOM     12  O   UNL     1     -30.611  -1.149  21.065  1.00  0.00    -0.550 OA
ENDBRANCH   9  10
ENDBRANCH   8   9
ENDBRANCH   7   8
ENDBRANCH   6   7
ENDBRANCH   5   6
ENDBRANCH   4   5
ENDBRANCH   3   4
ENDBRANCH   1   3
BRANCH   2  13
ATOM     13  C   UNL     1     -29.285   1.154  29.449  1.00  0.00     0.027 C 
BRANCH  13  14
ATOM     14  C   UNL     1     -30.125   1.389  30.716  1.00  0.00     0.004 C 
BRANCH  14  15
ATOM     15  C   UNL     1     -30.472   2.871  30.959  1.00  0.00     0.000 C 
BRANCH  15  16
ATOM     16  C   UNL     1     -30.882   3.153  32.414  1.00  0.00     0.000 C 
BRANCH  16  17
ATOM     17  C   UNL     1     -29.811   2.711  33.424  1.00  0.00    -0.000 C 
BRANCH  17  18
ATOM     18  C   UNL     1     -28.850   3.851  33.806  1.00  0.00    -0.000 C 
BRANCH  18  19
ATOM     19  C   UNL     1     -27.515   3.773  33.050  1.00  0.00    -0.003 C 
ATOM     20  C   UNL     1     -27.065   2.335  32.794  1.00  0.00     0.004 C 
ENDBRANCH  18  19
ENDBRANCH  17  18
ENDBRANCH  16  17
ENDBRANCH  15  16
ENDBRANCH  14  15
ENDBRANCH  13  14
ENDBRANCH   2  13
TORSDOF 15
ENDMDL
