MODEL 1
REMARK VINA RESULT:    -3.500      0.000      0.000
REMARK INTER + INTRA:          -8.932
REMARK INTER:                  -6.773
REMARK INTRA:                  -2.159
REMARK UNBOUND:                -2.159
REMARK SMILES CCCCCCCCCCCCCCCCCC(=O)[O-]
REMARK SMILES IDX 10 1 11 2 12 3 13 4 14 5 15 6 16 7 17 8 18 9 19 10 20 11
REMARK SMILES IDX 9 12 8 13 7 14 6 15 5 16 4 17 3 18 2 19 1 20
REMARK H PARENT
REMARK Flexibility Score: inf
ROOT
ATOM      1  C   UNL     1     -42.450 -45.231  67.265  1.00  0.00     0.000 C 
ENDROOT
BRANCH   1   2
ATOM      2  C   UNL     1     -41.738 -44.144  68.098  1.00  0.00     0.000 C 
BRANCH   2   3
ATOM      3  C   UNL     1     -42.722 -43.243  68.858  1.00  0.00     0.000 C 
BRANCH   3   4
ATOM      4  C   UNL     1     -42.553 -43.403  70.377  1.00  0.00     0.000 C 
BRANCH   4   5
ATOM      5  C   UNL     1     -43.212 -44.683  70.922  1.00  0.00     0.000 C 
BRANCH   5   6
ATOM      6  C   UNL     1     -42.261 -45.644  71.661  1.00  0.00     0.000 C 
BRANCH   6   7
ATOM      7  C   UNL     1     -42.594 -45.889  73.147  1.00  0.00     0.006 C 
BRANCH   7   8
ATOM      8  C   UNL     1     -43.866 -45.169  73.629  1.00  0.00     0.053 C 
BRANCH   8   9
ATOM      9  C   UNL     1     -43.887 -44.975  75.115  1.00  0.00     0.041 C 
ATOM     10  O   UNL     1     -43.479 -45.888  75.881  1.00  0.00    -0.550 OA
ATOM     11  O   UNL     1     -44.322 -43.771  75.654  1.00  0.00    -0.550 OA
ENDBRANCH   8   9
ENDBRANCH   7   8
ENDBRANCH   6   7
ENDBRANCH   5   6
ENDBRANCH   4   5
ENDBRANCH   3   4
ENDBRANCH   2   3
ENDBRANCH   1   2
BRANCH   1  12
ATOM     12  C   UNL     1     -42.487 -46.611  67.948  1.00  0.00     0.000 C 
BRANCH  12  13
ATOM     13  C   UNL     1     -43.469 -47.619  67.323  1.00  0.00    -0.000 C 
BRANCH  13  14
ATOM     14  C   UNL     1     -44.424 -48.308  68.321  1.00  0.00    -0.000 C 
BRANCH  14  15
ATOM     15  C   UNL     1     -43.916 -48.368  69.771  1.00  0.00    -0.000 C 
BRANCH  15  16
ATOM     16  C   UNL     1     -45.058 -48.360  70.803  1.00  0.00    -0.000 C 
BRANCH  16  17
ATOM     17  C   UNL     1     -45.861 -47.050  70.789  1.00  0.00    -0.000 C 
BRANCH  17  18
ATOM     18  C   UNL     1     -47.379 -47.290  70.855  1.00  0.00    -0.000 C 
BRANCH  18  19
ATOM     19  C   UNL     1     -47.853 -48.342  69.840  1.00  0.00    -0.003 C 
ATOM     20  C   UNL     1     -48.372 -47.722  68.543  1.00  0.00     0.004 C 
ENDBRANCH  18  19
ENDBRANCH  17  18
ENDBRANCH  16  17
ENDBRANCH  15  16
ENDBRANCH  14  15
ENDBRANCH  13  14
ENDBRANCH  12  13
ENDBRANCH   1  12
TORSDOF 16
ENDMDL
MODEL 2
REMARK VINA RESULT:    -3.412      2.341      4.737
REMARK INTER + INTRA:          -8.762
REMARK INTER:                  -6.735
REMARK INTRA:                  -2.027
REMARK UNBOUND:                -2.159
REMARK SMILES CCCCCCCCCCCCCCCCCC(=O)[O-]
REMARK SMILES IDX 10 1 11 2 12 3 13 4 14 5 15 6 16 7 17 8 18 9 19 10 20 11
REMARK SMILES IDX 9 12 8 13 7 14 6 15 5 16 4 17 3 18 2 19 1 20
REMARK H PARENT
REMARK Flexibility Score: inf
ROOT
ATOM      1  C   UNL     1     -47.997 -47.553  70.914  1.00  0.00     0.000 C 
ENDROOT
BRANCH   1   2
ATOM      2  C   UNL     1     -46.578 -48.152  70.805  1.00  0.00     0.000 C 
BRANCH   2   3
ATOM      3  C   UNL     1     -45.480 -47.130  71.133  1.00  0.00     0.000 C 
BRANCH   3   4
ATOM      4  C   UNL     1     -44.090 -47.683  70.781  1.00  0.00     0.000 C 
BRANCH   4   5
ATOM      5  C   UNL     1     -42.943 -46.833  71.354  1.00  0.00     0.000 C 
BRANCH   5   6
ATOM      6  C   UNL     1     -43.370 -45.486  71.968  1.00  0.00     0.000 C 
BRANCH   6   7
ATOM      7  C   UNL     1     -42.973 -45.277  73.444  1.00  0.00     0.006 C 
BRANCH   7   8
ATOM      8  C   UNL     1     -44.170 -45.098  74.394  1.00  0.00     0.053 C 
BRANCH   8   9
ATOM      9  C   UNL     1     -44.137 -43.786  75.116  1.00  0.00     0.041 C 
ATOM     10  O   UNL     1     -44.212 -43.749  76.372  1.00  0.00    -0.550 OA
ATOM     11  O   UNL     1     -43.987 -42.602  74.404  1.00  0.00    -0.550 OA
ENDBRANCH   8   9
ENDBRANCH   7   8
ENDBRANCH   6   7
ENDBRANCH   5   6
ENDBRANCH   4   5
ENDBRANCH   3   4
ENDBRANCH   2   3
ENDBRANCH   1   2
BRANCH   1  12
ATOM     12  C   UNL     1     -49.118 -48.609  70.899  1.00  0.00     0.000 C 
BRANCH  12  13
ATOM     13  C   UNL     1     -48.661 -50.037  70.551  1.00  0.00    -0.000 C 
BRANCH  13  14
ATOM     14  C   UNL     1     -49.420 -50.701  69.382  1.00  0.00    -0.000 C 
BRANCH  14  15
ATOM     15  C   UNL     1     -50.663 -49.936  68.896  1.00  0.00    -0.000 C 
BRANCH  15  16
ATOM     16  C   UNL     1     -50.520 -49.420  67.454  1.00  0.00    -0.000 C 
BRANCH  16  17
ATOM     17  C   UNL     1     -50.380 -47.892  67.381  1.00  0.00    -0.000 C 
BRANCH  17  18
ATOM     18  C   UNL     1     -48.912 -47.438  67.303  1.00  0.00    -0.000 C 
BRANCH  18  19
ATOM     19  C   UNL     1     -48.020 -48.454  66.571  1.00  0.00    -0.003 C 
ATOM     20  C   UNL     1     -46.706 -48.724  67.303  1.00  0.00     0.004 C 
ENDBRANCH  18  19
ENDBRANCH  17  18
ENDBRANCH  16  17
ENDBRANCH  15  16
ENDBRANCH  14  15
ENDBRANCH  13  14
ENDBRANCH  12  13
ENDBRANCH   1  12
TORSDOF 16
ENDMDL
MODEL 3
REMARK VINA RESULT:    -3.399      5.253      7.550
REMARK INTER + INTRA:          -8.737
REMARK INTER:                  -6.434
REMARK INTRA:                  -2.303
REMARK UNBOUND:                -2.159
REMARK SMILES CCCCCCCCCCCCCCCCCC(=O)[O-]
REMARK SMILES IDX 10 1 11 2 12 3 13 4 14 5 15 6 16 7 17 8 18 9 19 10 20 11
REMARK SMILES IDX 9 12 8 13 7 14 6 15 5 16 4 17 3 18 2 19 1 20
REMARK H PARENT
REMARK Flexibility Score: inf
ROOT
ATOM      1  C   UNL     1     -44.656 -49.783  68.748  1.00  0.00     0.000 C 
ENDROOT
BRANCH   1   2
ATOM      2  C   UNL     1     -44.589 -48.555  67.815  1.00  0.00     0.000 C 
BRANCH   2   3
ATOM      3  C   UNL     1     -45.664 -48.586  66.719  1.00  0.00     0.000 C 
BRANCH   3   4
ATOM      4  C   UNL     1     -46.571 -49.816  66.873  1.00  0.00     0.000 C 
BRANCH   4   5
ATOM      5  C   UNL     1     -47.985 -49.461  67.367  1.00  0.00     0.000 C 
BRANCH   5   6
ATOM      6  C   UNL     1     -48.358 -47.970  67.267  1.00  0.00     0.000 C 
BRANCH   6   7
ATOM      7  C   UNL     1     -49.655 -47.664  66.490  1.00  0.00     0.006 C 
BRANCH   7   8
ATOM      8  C   UNL     1     -49.421 -47.206  65.039  1.00  0.00     0.053 C 
BRANCH   8   9
ATOM      9  C   UNL     1     -50.489 -46.273  64.554  1.00  0.00     0.041 C 
ATOM     10  O   UNL     1     -50.179 -45.208  63.958  1.00  0.00    -0.550 OA
ATOM     11  O   UNL     1     -51.829 -46.598  64.726  1.00  0.00    -0.550 OA
ENDBRANCH   8   9
ENDBRANCH   7   8
ENDBRANCH   6   7
ENDBRANCH   5   6
ENDBRANCH   4   5
ENDBRANCH   3   4
ENDBRANCH   2   3
ENDBRANCH   1   2
BRANCH   1  12
ATOM     12  C   UNL     1     -45.023 -49.437  70.203  1.00  0.00     0.000 C 
BRANCH  12  13
ATOM     13  C   UNL     1     -44.592 -48.033  70.666  1.00  0.00    -0.000 C 
BRANCH  13  14
ATOM     14  C   UNL     1     -45.733 -47.141  71.200  1.00  0.00    -0.000 C 
BRANCH  14  15
ATOM     15  C   UNL     1     -47.017 -47.152  70.353  1.00  0.00    -0.000 C 
BRANCH  15  16
ATOM     16  C   UNL     1     -48.243 -47.653  71.136  1.00  0.00    -0.000 C 
BRANCH  16  17
ATOM     17  C   UNL     1     -48.544 -49.138  70.880  1.00  0.00    -0.000 C 
BRANCH  17  18
ATOM     18  C   UNL     1     -50.034 -49.476  71.062  1.00  0.00    -0.000 C 
BRANCH  18  19
ATOM     19  C   UNL     1     -50.808 -49.459  69.734  1.00  0.00    -0.003 C 
ATOM     20  C   UNL     1     -52.313 -49.280  69.927  1.00  0.00     0.004 C 
ENDBRANCH  18  19
ENDBRANCH  17  18
ENDBRANCH  16  17
ENDBRANCH  15  16
ENDBRANCH  14  15
ENDBRANCH  13  14
ENDBRANCH  12  13
ENDBRANCH   1  12
TORSDOF 16
ENDMDL
MODEL 4
REMARK VINA RESULT:    -3.302      2.764      4.602
REMARK INTER + INTRA:          -8.550
REMARK INTER:                  -6.213
REMARK INTRA:                  -2.337
REMARK UNBOUND:                -2.159
REMARK SMILES CCCCCCCCCCCCCCCCCC(=O)[O-]
REMARK SMILES IDX 10 1 11 2 12 3 13 4 14 5 15 6 16 7 17 8 18 9 19 10 20 11
REMARK SMILES IDX 9 12 8 13 7 14 6 15 5 16 4 17 3 18 2 19 1 20
REMARK H PARENT
REMARK Flexibility Score: inf
ROOT
ATOM      1  C   UNL     1     -44.378 -48.951  66.690  1.00  0.00     0.000 C 
ENDROOT
BRANCH   1   2
ATOM      2  C   UNL     1     -43.543 -47.672  66.911  1.00  0.00     0.000 C 
BRANCH   2   3
ATOM      3  C   UNL     1     -42.134 -47.972  67.444  1.00  0.00     0.000 C 
BRANCH   3   4
ATOM      4  C   UNL     1     -41.357 -46.673  67.708  1.00  0.00     0.000 C 
BRANCH   4   5
ATOM      5  C   UNL     1     -42.106 -45.418  67.225  1.00  0.00     0.000 C 
BRANCH   5   6
ATOM      6  C   UNL     1     -41.920 -44.165  68.103  1.00  0.00     0.000 C 
BRANCH   6   7
ATOM      7  C   UNL     1     -42.963 -43.983  69.224  1.00  0.00     0.006 C 
BRANCH   7   8
ATOM      8  C   UNL     1     -43.511 -42.549  69.340  1.00  0.00     0.053 C 
BRANCH   8   9
ATOM      9  C   UNL     1     -42.459 -41.565  69.752  1.00  0.00     0.041 C 
ATOM     10  O   UNL     1     -42.148 -40.611  68.992  1.00  0.00    -0.550 OA
ATOM     11  O   UNL     1     -41.846 -41.680  70.994  1.00  0.00    -0.550 OA
ENDBRANCH   8   9
ENDBRANCH   7   8
ENDBRANCH   6   7
ENDBRANCH   5   6
ENDBRANCH   4   5
ENDBRANCH   3   4
ENDBRANCH   2   3
ENDBRANCH   1   2
BRANCH   1  12
ATOM     12  C   UNL     1     -45.897 -48.701  66.651  1.00  0.00     0.000 C 
BRANCH  12  13
ATOM     13  C   UNL     1     -46.676 -49.245  67.862  1.00  0.00    -0.000 C 
BRANCH  13  14
ATOM     14  C   UNL     1     -47.909 -48.414  68.275  1.00  0.00    -0.000 C 
BRANCH  14  15
ATOM     15  C   UNL     1     -48.127 -48.283  69.792  1.00  0.00    -0.000 C 
BRANCH  15  16
ATOM     16  C   UNL     1     -47.500 -47.005  70.376  1.00  0.00    -0.000 C 
BRANCH  16  17
ATOM     17  C   UNL     1     -46.215 -47.285  71.171  1.00  0.00    -0.000 C 
BRANCH  17  18
ATOM     18  C   UNL     1     -44.943 -46.989  70.357  1.00  0.00    -0.000 C 
BRANCH  18  19
ATOM     19  C   UNL     1     -43.773 -47.911  70.737  1.00  0.00    -0.003 C 
ATOM     20  C   UNL     1     -44.042 -49.378  70.402  1.00  0.00     0.004 C 
ENDBRANCH  18  19
ENDBRANCH  17  18
ENDBRANCH  16  17
ENDBRANCH  15  16
ENDBRANCH  14  15
ENDBRANCH  13  14
ENDBRANCH  12  13
ENDBRANCH   1  12
TORSDOF 16
ENDMDL
MODEL 5
REMARK VINA RESULT:    -3.277      2.245      4.913
REMARK INTER + INTRA:          -8.501
REMARK INTER:                  -6.595
REMARK INTRA:                  -1.906
REMARK UNBOUND:                -2.159
REMARK SMILES CCCCCCCCCCCCCCCCCC(=O)[O-]
REMARK SMILES IDX 10 1 11 2 12 3 13 4 14 5 15 6 16 7 17 8 18 9 19 10 20 11
REMARK SMILES IDX 9 12 8 13 7 14 6 15 5 16 4 17 3 18 2 19 1 20
REMARK H PARENT
REMARK Flexibility Score: inf
ROOT
ATOM      1  C   UNL     1     -45.517 -48.575  70.698  1.00  0.00     0.000 C 
ENDROOT
BRANCH   1   2
ATOM      2  C   UNL     1     -45.814 -47.107  71.071  1.00  0.00     0.000 C 
BRANCH   2   3
ATOM      3  C   UNL     1     -44.556 -46.341  71.504  1.00  0.00     0.000 C 
BRANCH   3   4
ATOM      4  C   UNL     1     -43.510 -46.320  70.378  1.00  0.00     0.000 C 
BRANCH   4   5
ATOM      5  C   UNL     1     -42.665 -45.034  70.369  1.00  0.00     0.000 C 
BRANCH   5   6
ATOM      6  C   UNL     1     -42.796 -44.174  69.098  1.00  0.00     0.000 C 
BRANCH   6   7
ATOM      7  C   UNL     1     -43.657 -42.903  69.245  1.00  0.00     0.006 C 
BRANCH   7   8
ATOM      8  C   UNL     1     -42.876 -41.673  69.740  1.00  0.00     0.053 C 
BRANCH   8   9
ATOM      9  C   UNL     1     -43.358 -41.186  71.073  1.00  0.00     0.041 C 
ATOM     10  O   UNL     1     -44.030 -40.126  71.158  1.00  0.00    -0.550 OA
ATOM     11  O   UNL     1     -43.096 -41.925  72.221  1.00  0.00    -0.550 OA
ENDBRANCH   8   9
ENDBRANCH   7   8
ENDBRANCH   6   7
ENDBRANCH   5   6
ENDBRANCH   4   5
ENDBRANCH   3   4
ENDBRANCH   2   3
ENDBRANCH   1   2
BRANCH   1  12
ATOM     12  C   UNL     1     -46.777 -49.453  70.578  1.00  0.00     0.000 C 
BRANCH  12  13
ATOM     13  C   UNL     1     -48.111 -48.689  70.666  1.00  0.00    -0.000 C 
BRANCH  13  14
ATOM     14  C   UNL     1     -48.870 -48.542  69.330  1.00  0.00    -0.000 C 
BRANCH  14  15
ATOM     15  C   UNL     1     -48.076 -47.861  68.203  1.00  0.00    -0.000 C 
BRANCH  15  16
ATOM     16  C   UNL     1     -47.739 -48.820  67.047  1.00  0.00    -0.000 C 
BRANCH  16  17
ATOM     17  C   UNL     1     -46.280 -48.698  66.582  1.00  0.00    -0.000 C 
BRANCH  17  18
ATOM     18  C   UNL     1     -45.398 -49.845  67.103  1.00  0.00    -0.000 C 
BRANCH  18  19
ATOM     19  C   UNL     1     -43.999 -49.368  67.525  1.00  0.00    -0.003 C 
ATOM     20  C   UNL     1     -43.709 -47.930  67.094  1.00  0.00     0.004 C 
ENDBRANCH  18  19
ENDBRANCH  17  18
ENDBRANCH  16  17
ENDBRANCH  15  16
ENDBRANCH  14  15
ENDBRANCH  13  14
ENDBRANCH  12  13
ENDBRANCH   1  12
TORSDOF 16
ENDMDL
MODEL 6
REMARK VINA RESULT:    -3.271      2.762      4.961
REMARK INTER + INTRA:          -8.489
REMARK INTER:                  -5.891
REMARK INTRA:                  -2.598
REMARK UNBOUND:                -2.159
REMARK SMILES CCCCCCCCCCCCCCCCCC(=O)[O-]
REMARK SMILES IDX 10 1 11 2 12 3 13 4 14 5 15 6 16 7 17 8 18 9 19 10 20 11
REMARK SMILES IDX 9 12 8 13 7 14 6 15 5 16 4 17 3 18 2 19 1 20
REMARK H PARENT
REMARK Flexibility Score: inf
ROOT
ATOM      1  C   UNL     1     -45.678 -49.257  70.508  1.00  0.00     0.000 C 
ENDROOT
BRANCH   1   2
ATOM      2  C   UNL     1     -44.197 -49.690  70.566  1.00  0.00     0.000 C 
BRANCH   2   3
ATOM      3  C   UNL     1     -43.241 -48.591  70.080  1.00  0.00     0.000 C 
BRANCH   3   4
ATOM      4  C   UNL     1     -41.914 -48.635  70.853  1.00  0.00     0.000 C 
BRANCH   4   5
ATOM      5  C   UNL     1     -41.541 -47.280  71.481  1.00  0.00     0.000 C 
BRANCH   5   6
ATOM      6  C   UNL     1     -42.715 -46.505  72.110  1.00  0.00     0.000 C 
BRANCH   6   7
ATOM      7  C   UNL     1     -42.890 -45.055  71.616  1.00  0.00     0.006 C 
BRANCH   7   8
ATOM      8  C   UNL     1     -43.527 -44.944  70.219  1.00  0.00     0.053 C 
BRANCH   8   9
ATOM      9  C   UNL     1     -42.526 -44.605  69.158  1.00  0.00     0.041 C 
ATOM     10  O   UNL     1     -42.120 -45.490  68.361  1.00  0.00    -0.550 OA
ATOM     11  O   UNL     1     -42.066 -43.300  69.024  1.00  0.00    -0.550 OA
ENDBRANCH   8   9
ENDBRANCH   7   8
ENDBRANCH   6   7
ENDBRANCH   5   6
ENDBRANCH   4   5
ENDBRANCH   3   4
ENDBRANCH   2   3
ENDBRANCH   1   2
BRANCH   1  12
ATOM     12  C   UNL     1     -45.909 -47.784  70.893  1.00  0.00     0.000 C 
BRANCH  12  13
ATOM     13  C   UNL     1     -47.374 -47.316  70.821  1.00  0.00    -0.000 C 
BRANCH  13  14
ATOM     14  C   UNL     1     -48.420 -48.448  70.734  1.00  0.00    -0.000 C 
BRANCH  14  15
ATOM     15  C   UNL     1     -49.040 -48.655  69.342  1.00  0.00    -0.000 C 
BRANCH  15  16
ATOM     16  C   UNL     1     -48.567 -47.609  68.317  1.00  0.00    -0.000 C 
BRANCH  16  17
ATOM     17  C   UNL     1     -47.947 -48.245  67.063  1.00  0.00    -0.000 C 
BRANCH  17  18
ATOM     18  C   UNL     1     -47.507 -49.701  67.298  1.00  0.00    -0.000 C 
BRANCH  18  19
ATOM     19  C   UNL     1     -46.027 -49.931  66.955  1.00  0.00    -0.003 C 
ATOM     20  C   UNL     1     -45.229 -48.630  66.873  1.00  0.00     0.004 C 
ENDBRANCH  18  19
ENDBRANCH  17  18
ENDBRANCH  16  17
ENDBRANCH  15  16
ENDBRANCH  14  15
ENDBRANCH  13  14
ENDBRANCH  12  13
ENDBRANCH   1  12
TORSDOF 16
ENDMDL
MODEL 7
REMARK VINA RESULT:    -3.255      1.540      3.824
REMARK INTER + INTRA:          -8.458
REMARK INTER:                  -6.190
REMARK INTRA:                  -2.268
REMARK UNBOUND:                -2.159
REMARK SMILES CCCCCCCCCCCCCCCCCC(=O)[O-]
REMARK SMILES IDX 10 1 11 2 12 3 13 4 14 5 15 6 16 7 17 8 18 9 19 10 20 11
REMARK SMILES IDX 9 12 8 13 7 14 6 15 5 16 4 17 3 18 2 19 1 20
REMARK H PARENT
REMARK Flexibility Score: inf
ROOT
ATOM      1  C   UNL     1     -45.311 -48.452  70.771  1.00  0.00     0.000 C 
ENDROOT
BRANCH   1   2
ATOM      2  C   UNL     1     -43.805 -48.173  70.577  1.00  0.00     0.000 C 
BRANCH   2   3
ATOM      3  C   UNL     1     -43.528 -47.211  69.413  1.00  0.00     0.000 C 
BRANCH   3   4
ATOM      4  C   UNL     1     -42.526 -46.121  69.826  1.00  0.00     0.000 C 
BRANCH   4   5
ATOM      5  C   UNL     1     -43.174 -44.991  70.645  1.00  0.00     0.000 C 
BRANCH   5   6
ATOM      6  C   UNL     1     -42.798 -44.966  72.139  1.00  0.00     0.000 C 
BRANCH   6   7
ATOM      7  C   UNL     1     -43.930 -45.354  73.112  1.00  0.00     0.006 C 
BRANCH   7   8
ATOM      8  C   UNL     1     -43.551 -45.221  74.597  1.00  0.00     0.053 C 
BRANCH   8   9
ATOM      9  C   UNL     1     -43.960 -43.902  75.177  1.00  0.00     0.041 C 
ATOM     10  O   UNL     1     -44.242 -42.935  74.421  1.00  0.00    -0.550 OA
ATOM     11  O   UNL     1     -44.067 -43.749  76.554  1.00  0.00    -0.550 OA
ENDBRANCH   8   9
ENDBRANCH   7   8
ENDBRANCH   6   7
ENDBRANCH   5   6
ENDBRANCH   4   5
ENDBRANCH   3   4
ENDBRANCH   2   3
ENDBRANCH   1   2
BRANCH   1  12
ATOM     12  C   UNL     1     -46.171 -47.178  70.856  1.00  0.00     0.000 C 
BRANCH  12  13
ATOM     13  C   UNL     1     -47.688 -47.423  70.964  1.00  0.00    -0.000 C 
BRANCH  13  14
ATOM     14  C   UNL     1     -48.288 -48.313  69.854  1.00  0.00    -0.000 C 
BRANCH  14  15
ATOM     15  C   UNL     1     -48.373 -47.653  68.467  1.00  0.00    -0.000 C 
BRANCH  15  16
ATOM     16  C   UNL     1     -47.848 -48.562  67.342  1.00  0.00    -0.000 C 
BRANCH  16  17
ATOM     17  C   UNL     1     -46.314 -48.643  67.313  1.00  0.00    -0.000 C 
BRANCH  17  18
ATOM     18  C   UNL     1     -45.805 -50.072  67.053  1.00  0.00    -0.000 C 
BRANCH  18  19
ATOM     19  C   UNL     1     -46.060 -51.013  68.242  1.00  0.00    -0.003 C 
ATOM     20  C   UNL     1     -44.770 -51.567  68.846  1.00  0.00     0.004 C 
ENDBRANCH  18  19
ENDBRANCH  17  18
ENDBRANCH  16  17
ENDBRANCH  15  16
ENDBRANCH  14  15
ENDBRANCH  13  14
ENDBRANCH  12  13
ENDBRANCH   1  12
TORSDOF 16
ENDMDL
MODEL 8
REMARK VINA RESULT:    -3.246      4.158      7.232
REMARK INTER + INTRA:          -8.442
REMARK INTER:                  -6.328
REMARK INTRA:                  -2.113
REMARK UNBOUND:                -2.159
REMARK SMILES CCCCCCCCCCCCCCCCCC(=O)[O-]
REMARK SMILES IDX 10 1 11 2 12 3 13 4 14 5 15 6 16 7 17 8 18 9 19 10 20 11
REMARK SMILES IDX 9 12 8 13 7 14 6 15 5 16 4 17 3 18 2 19 1 20
REMARK H PARENT
REMARK Flexibility Score: inf
ROOT
ATOM      1  C   UNL     1     -45.017 -48.660  69.314  1.00  0.00     0.000 C 
ENDROOT
BRANCH   1   2
ATOM      2  C   UNL     1     -45.675 -48.724  70.709  1.00  0.00     0.000 C 
BRANCH   2   3
ATOM      3  C   UNL     1     -46.267 -47.376  71.145  1.00  0.00     0.000 C 
BRANCH   3   4
ATOM      4  C   UNL     1     -47.590 -47.094  70.417  1.00  0.00     0.000 C 
BRANCH   4   5
ATOM      5  C   UNL     1     -48.571 -48.278  70.477  1.00  0.00     0.000 C 
BRANCH   5   6
ATOM      6  C   UNL     1     -49.094 -48.765  69.113  1.00  0.00     0.000 C 
BRANCH   6   7
ATOM      7  C   UNL     1     -48.474 -48.073  67.882  1.00  0.00     0.006 C 
BRANCH   7   8
ATOM      8  C   UNL     1     -49.400 -47.045  67.210  1.00  0.00     0.053 C 
BRANCH   8   9
ATOM      9  C   UNL     1     -50.353 -47.678  66.242  1.00  0.00     0.041 C 
ATOM     10  O   UNL     1     -51.439 -47.109  65.955  1.00  0.00    -0.550 OA
ATOM     11  O   UNL     1     -50.026 -48.881  65.628  1.00  0.00    -0.550 OA
ENDBRANCH   8   9
ENDBRANCH   7   8
ENDBRANCH   6   7
ENDBRANCH   5   6
ENDBRANCH   4   5
ENDBRANCH   3   4
ENDBRANCH   2   3
ENDBRANCH   1   2
BRANCH   1  12
ATOM     12  C   UNL     1     -43.718 -47.833  69.278  1.00  0.00     0.000 C 
BRANCH  12  13
ATOM     13  C   UNL     1     -42.635 -48.282  70.275  1.00  0.00    -0.000 C 
BRANCH  13  14
ATOM     14  C   UNL     1     -41.972 -47.143  71.079  1.00  0.00    -0.000 C 
BRANCH  14  15
ATOM     15  C   UNL     1     -42.889 -46.453  72.104  1.00  0.00    -0.000 C 
BRANCH  15  16
ATOM     16  C   UNL     1     -43.132 -44.969  71.782  1.00  0.00    -0.000 C 
BRANCH  16  17
ATOM     17  C   UNL     1     -42.217 -44.447  70.663  1.00  0.00    -0.000 C 
BRANCH  17  18
ATOM     18  C   UNL     1     -43.004 -44.007  69.416  1.00  0.00    -0.000 C 
BRANCH  18  19
ATOM     19  C   UNL     1     -42.121 -43.929  68.160  1.00  0.00    -0.003 C 
ATOM     20  C   UNL     1     -42.248 -45.164  67.269  1.00  0.00     0.004 C 
ENDBRANCH  18  19
ENDBRANCH  17  18
ENDBRANCH  16  17
ENDBRANCH  15  16
ENDBRANCH  14  15
ENDBRANCH  13  14
ENDBRANCH  12  13
ENDBRANCH   1  12
TORSDOF 16
ENDMDL
MODEL 9
REMARK VINA RESULT:    -3.233      4.501      7.986
REMARK INTER + INTRA:          -8.416
REMARK INTER:                  -6.103
REMARK INTRA:                  -2.313
REMARK UNBOUND:                -2.159
REMARK SMILES CCCCCCCCCCCCCCCCCC(=O)[O-]
REMARK SMILES IDX 10 1 11 2 12 3 13 4 14 5 15 6 16 7 17 8 18 9 19 10 20 11
REMARK SMILES IDX 9 12 8 13 7 14 6 15 5 16 4 17 3 18 2 19 1 20
REMARK H PARENT
REMARK Flexibility Score: inf
ROOT
ATOM      1  C   UNL     1     -47.548 -47.212  70.395  1.00  0.00     0.000 C 
ENDROOT
BRANCH   1   2
ATOM      2  C   UNL     1     -48.687 -47.923  71.157  1.00  0.00     0.000 C 
BRANCH   2   3
ATOM      3  C   UNL     1     -48.958 -49.339  70.628  1.00  0.00     0.000 C 
BRANCH   3   4
ATOM      4  C   UNL     1     -49.763 -49.293  69.320  1.00  0.00     0.000 C 
BRANCH   4   5
ATOM      5  C   UNL     1     -48.963 -49.798  68.106  1.00  0.00     0.000 C 
BRANCH   5   6
ATOM      6  C   UNL     1     -49.007 -48.884  66.867  1.00  0.00     0.000 C 
BRANCH   6   7
ATOM      7  C   UNL     1     -49.101 -47.374  67.163  1.00  0.00     0.006 C 
BRANCH   7   8
ATOM      8  C   UNL     1     -50.386 -46.712  66.635  1.00  0.00     0.053 C 
BRANCH   8   9
ATOM      9  C   UNL     1     -50.470 -46.735  65.139  1.00  0.00     0.041 C 
ATOM     10  O   UNL     1     -49.667 -46.056  64.447  1.00  0.00    -0.550 OA
ATOM     11  O   UNL     1     -51.413 -47.536  64.506  1.00  0.00    -0.550 OA
ENDBRANCH   8   9
ENDBRANCH   7   8
ENDBRANCH   6   7
ENDBRANCH   5   6
ENDBRANCH   4   5
ENDBRANCH   3   4
ENDBRANCH   2   3
ENDBRANCH   1   2
BRANCH   1  12
ATOM     12  C   UNL     1     -46.193 -47.255  71.124  1.00  0.00     0.000 C 
BRANCH  12  13
ATOM     13  C   UNL     1     -45.251 -48.390  70.680  1.00  0.00    -0.000 C 
BRANCH  13  14
ATOM     14  C   UNL     1     -45.616 -49.054  69.335  1.00  0.00    -0.000 C 
BRANCH  14  15
ATOM     15  C   UNL     1     -44.858 -48.508  68.113  1.00  0.00    -0.000 C 
BRANCH  15  16
ATOM     16  C   UNL     1     -43.354 -48.321  68.379  1.00  0.00    -0.000 C 
BRANCH  16  17
ATOM     17  C   UNL     1     -42.898 -46.864  68.205  1.00  0.00    -0.000 C 
BRANCH  17  18
ATOM     18  C   UNL     1     -42.324 -46.268  69.502  1.00  0.00    -0.000 C 
BRANCH  18  19
ATOM     19  C   UNL     1     -43.253 -45.216  70.128  1.00  0.00    -0.003 C 
ATOM     20  C   UNL     1     -43.180 -45.195  71.655  1.00  0.00     0.004 C 
ENDBRANCH  18  19
ENDBRANCH  17  18
ENDBRANCH  16  17
ENDBRANCH  15  16
ENDBRANCH  14  15
ENDBRANCH  13  14
ENDBRANCH  12  13
ENDBRANCH   1  12
TORSDOF 16
ENDMDL
