MODEL 1
REMARK VINA RESULT:    -7.170      0.000      0.000
REMARK INTER + INTRA:          -8.945
REMARK INTER:                  -8.637
REMARK INTRA:                  -0.307
REMARK UNBOUND:                -0.307
REMARK SMILES Oc1cc(O)c2cc(O)c(-c3ccc(O)c(O)c3)[o+]c2c1
REMARK SMILES IDX 10 1 19 2 20 3 21 4 2 5 3 6 4 7 6 8 7 9 8 10 11 11 12 12
REMARK SMILES IDX 13 13 14 14 18 15 16 16 15 17 17 19 9 21 1 23 5 25
REMARK H PARENT 15 18 17 20 9 22 1 24 5 26
REMARK Flexibility Score: inf
ROOT
ATOM      1  C   UNL     1      21.800  46.681  -5.630  1.00  0.00     0.402 A 
ATOM      2  O   UNL     1      21.684  47.426  -4.532  1.00  0.00    -0.202 OA
ATOM      3  C   UNL     1      21.245  46.949  -3.372  1.00  0.00     0.368 A 
ATOM      4  C   UNL     1      21.149  47.799  -2.265  1.00  0.00     0.162 A 
ATOM      5  C   UNL     1      20.685  47.308  -1.038  1.00  0.00     0.128 A 
ATOM      6  C   UNL     1      20.318  45.964  -0.917  1.00  0.00     0.093 A 
ATOM      7  C   UNL     1      20.411  45.098  -2.018  1.00  0.00     0.136 A 
ATOM      8  C   UNL     1      20.877  45.591  -3.252  1.00  0.00     0.125 A 
ATOM      9  C   UNL     1      20.998  44.773  -4.380  1.00  0.00     0.078 A 
ATOM     10  C   UNL     1      21.473  45.310  -5.581  1.00  0.00     0.223 A 
ENDROOT
BRANCH   1  11
ATOM     11  C   UNL     1      22.292  47.329  -6.867  1.00  0.00     0.087 A 
ATOM     12  C   UNL     1      23.643  47.699  -6.961  1.00  0.00     0.022 A 
ATOM     13  C   UNL     1      24.125  48.330  -8.112  1.00  0.00     0.051 A 
ATOM     14  C   UNL     1      23.260  48.612  -9.177  1.00  0.00     0.157 A 
ATOM     15  C   UNL     1      21.423  47.632  -7.931  1.00  0.00     0.068 A 
ATOM     16  C   UNL     1      21.906  48.266  -9.085  1.00  0.00     0.158 A 
BRANCH  14  17
ATOM     17  O   UNL     1      23.737  49.239 -10.326  1.00  0.00    -0.504 OA
ATOM     18  H   UNL     1      24.273  48.733 -11.022  1.00  0.00     0.293 HD
ENDBRANCH  14  17
BRANCH  16  19
ATOM     19  O   UNL     1      21.045  48.561 -10.141  1.00  0.00    -0.504 OA
ATOM     20  H   UNL     1      20.217  48.006 -10.322  1.00  0.00     0.293 HD
ENDBRANCH  16  19
ENDBRANCH   1  11
BRANCH  10  21
ATOM     21  O   UNL     1      21.644  44.489  -6.695  1.00  0.00    -0.500 OA
ATOM     22  H   UNL     1      21.379  43.511  -6.681  1.00  0.00     0.294 HD
ENDBRANCH  10  21
BRANCH   5  23
ATOM     23  O   UNL     1      20.584  48.149   0.068  1.00  0.00    -0.507 OA
ATOM     24  H   UNL     1      20.897  47.856   0.987  1.00  0.00     0.293 HD
ENDBRANCH   5  23
BRANCH   7  25
ATOM     25  O   UNL     1      20.043  43.759  -1.885  1.00  0.00    -0.507 OA
ATOM     26  H   UNL     1      19.506  43.433  -1.089  1.00  0.00     0.293 HD
ENDBRANCH   7  25
TORSDOF 6
ENDMDL
MODEL 2
REMARK VINA RESULT:    -6.823      1.314      2.730
REMARK INTER + INTRA:          -8.526
REMARK INTER:                  -8.176
REMARK INTRA:                  -0.350
REMARK UNBOUND:                -0.307
REMARK SMILES Oc1cc(O)c2cc(O)c(-c3ccc(O)c(O)c3)[o+]c2c1
REMARK SMILES IDX 10 1 19 2 20 3 21 4 2 5 3 6 4 7 6 8 7 9 8 10 11 11 12 12
REMARK SMILES IDX 13 13 14 14 18 15 16 16 15 17 17 19 9 21 1 23 5 25
REMARK H PARENT 15 18 17 20 9 22 1 24 5 26
REMARK Flexibility Score: inf
ROOT
ATOM      1  C   UNL     1      21.620  47.746  -4.540  1.00  0.00     0.402 A 
ATOM      2  O   UNL     1      21.541  46.485  -4.119  1.00  0.00    -0.202 OA
ATOM      3  C   UNL     1      21.141  46.150  -2.897  1.00  0.00     0.368 A 
ATOM      4  C   UNL     1      21.091  44.801  -2.530  1.00  0.00     0.162 A 
ATOM      5  C   UNL     1      20.675  44.436  -1.243  1.00  0.00     0.128 A 
ATOM      6  C   UNL     1      20.307  45.422  -0.322  1.00  0.00     0.093 A 
ATOM      7  C   UNL     1      20.351  46.779  -0.676  1.00  0.00     0.136 A 
ATOM      8  C   UNL     1      20.769  47.147  -1.969  1.00  0.00     0.125 A 
ATOM      9  C   UNL     1      20.826  48.483  -2.379  1.00  0.00     0.078 A 
ATOM     10  C   UNL     1      21.242  48.795  -3.677  1.00  0.00     0.223 A 
ENDROOT
BRANCH   1  11
ATOM     11  C   UNL     1      22.089  47.995  -5.923  1.00  0.00     0.087 A 
ATOM     12  C   UNL     1      23.453  48.231  -6.155  1.00  0.00     0.022 A 
ATOM     13  C   UNL     1      23.916  48.489  -7.449  1.00  0.00     0.051 A 
ATOM     14  C   UNL     1      23.020  48.528  -8.524  1.00  0.00     0.157 A 
ATOM     15  C   UNL     1      21.189  48.055  -7.002  1.00  0.00     0.068 A 
ATOM     16  C   UNL     1      21.653  48.314  -8.301  1.00  0.00     0.158 A 
BRANCH  14  17
ATOM     17  O   UNL     1      23.477  48.781  -9.816  1.00  0.00    -0.504 OA
ATOM     18  H   UNL     1      23.021  48.380 -10.628  1.00  0.00     0.293 HD
ENDBRANCH  14  17
BRANCH  16  19
ATOM     19  O   UNL     1      20.762  48.368  -9.370  1.00  0.00    -0.504 OA
ATOM     20  H   UNL     1      19.891  48.881  -9.310  1.00  0.00     0.293 HD
ENDBRANCH  16  19
ENDBRANCH   1  11
BRANCH  10  21
ATOM     21  O   UNL     1      21.252  50.121  -4.108  1.00  0.00    -0.500 OA
ATOM     22  H   UNL     1      22.117  50.616  -4.290  1.00  0.00     0.294 HD
ENDBRANCH  10  21
BRANCH   5  23
ATOM     23  O   UNL     1      20.623  43.095  -0.870  1.00  0.00    -0.507 OA
ATOM     24  H   UNL     1      20.199  42.803   0.004  1.00  0.00     0.293 HD
ENDBRANCH   5  23
BRANCH   7  25
ATOM     25  O   UNL     1      19.981  47.753   0.252  1.00  0.00    -0.507 OA
ATOM     26  H   UNL     1      19.224  47.601   0.908  1.00  0.00     0.293 HD
ENDBRANCH   7  25
TORSDOF 6
ENDMDL
MODEL 3
REMARK VINA RESULT:    -6.577      1.444      3.002
REMARK INTER + INTRA:          -8.230
REMARK INTER:                  -8.139
REMARK INTRA:                  -0.091
REMARK UNBOUND:                -0.307
REMARK SMILES Oc1cc(O)c2cc(O)c(-c3ccc(O)c(O)c3)[o+]c2c1
REMARK SMILES IDX 10 1 19 2 20 3 21 4 2 5 3 6 4 7 6 8 7 9 8 10 11 11 12 12
REMARK SMILES IDX 13 13 14 14 18 15 16 16 15 17 17 19 9 21 1 23 5 25
REMARK H PARENT 15 18 17 20 9 22 1 24 5 26
REMARK Flexibility Score: inf
ROOT
ATOM      1  C   UNL     1      21.325  47.217  -4.630  1.00  0.00     0.402 A 
ATOM      2  O   UNL     1      21.249  46.028  -4.035  1.00  0.00    -0.202 OA
ATOM      3  C   UNL     1      20.963  45.877  -2.745  1.00  0.00     0.368 A 
ATOM      4  C   UNL     1      20.907  44.592  -2.195  1.00  0.00     0.162 A 
ATOM      5  C   UNL     1      20.610  44.421  -0.837  1.00  0.00     0.128 A 
ATOM      6  C   UNL     1      20.367  45.537  -0.028  1.00  0.00     0.093 A 
ATOM      7  C   UNL     1      20.418  46.832  -0.567  1.00  0.00     0.136 A 
ATOM      8  C   UNL     1      20.717  47.004  -1.932  1.00  0.00     0.125 A 
ATOM      9  C   UNL     1      20.774  48.270  -2.525  1.00  0.00     0.078 A 
ATOM     10  C   UNL     1      21.069  48.388  -3.887  1.00  0.00     0.223 A 
ENDROOT
BRANCH   1  11
ATOM     11  C   UNL     1      21.662  47.258  -6.072  1.00  0.00     0.087 A 
ATOM     12  C   UNL     1      20.964  46.430  -6.966  1.00  0.00     0.022 A 
ATOM     13  C   UNL     1      21.279  46.438  -8.328  1.00  0.00     0.051 A 
ATOM     14  C   UNL     1      22.303  47.261  -8.811  1.00  0.00     0.157 A 
ATOM     15  C   UNL     1      22.703  48.068  -6.558  1.00  0.00     0.068 A 
ATOM     16  C   UNL     1      23.020  48.075  -7.925  1.00  0.00     0.158 A 
BRANCH  14  17
ATOM     17  O   UNL     1      22.619  47.273 -10.169  1.00  0.00    -0.504 OA
ATOM     18  H   UNL     1      22.015  46.837 -10.857  1.00  0.00     0.293 HD
ENDBRANCH  14  17
BRANCH  16  19
ATOM     19  O   UNL     1      24.049  48.883  -8.406  1.00  0.00    -0.504 OA
ATOM     20  H   UNL     1      24.353  48.836  -9.371  1.00  0.00     0.293 HD
ENDBRANCH  16  19
ENDBRANCH   1  11
BRANCH  10  21
ATOM     21  O   UNL     1      21.077  49.643  -4.495  1.00  0.00    -0.500 OA
ATOM     22  H   UNL     1      21.545  50.436  -4.072  1.00  0.00     0.294 HD
ENDBRANCH  10  21
BRANCH   5  23
ATOM     23  O   UNL     1      20.553  43.145  -0.280  1.00  0.00    -0.507 OA
ATOM     24  H   UNL     1      21.390  42.593  -0.132  1.00  0.00     0.293 HD
ENDBRANCH   5  23
BRANCH   7  25
ATOM     25  O   UNL     1      20.173  47.936   0.249  1.00  0.00    -0.507 OA
ATOM     26  H   UNL     1      19.304  48.036   0.761  1.00  0.00     0.293 HD
ENDBRANCH   7  25
TORSDOF 6
ENDMDL
MODEL 4
REMARK VINA RESULT:    -6.497      1.710      2.414
REMARK INTER + INTRA:          -8.134
REMARK INTER:                  -7.903
REMARK INTRA:                  -0.230
REMARK UNBOUND:                -0.307
REMARK SMILES Oc1cc(O)c2cc(O)c(-c3ccc(O)c(O)c3)[o+]c2c1
REMARK SMILES IDX 10 1 19 2 20 3 21 4 2 5 3 6 4 7 6 8 7 9 8 10 11 11 12 12
REMARK SMILES IDX 13 13 14 14 18 15 16 16 15 17 17 19 9 21 1 23 5 25
REMARK H PARENT 15 18 17 20 9 22 1 24 5 26
REMARK Flexibility Score: inf
ROOT
ATOM      1  C   UNL     1      21.308  46.550  -3.868  1.00  0.00     0.402 A 
ATOM      2  O   UNL     1      21.796  47.509  -3.083  1.00  0.00    -0.202 OA
ATOM      3  C   UNL     1      21.543  47.581  -1.780  1.00  0.00     0.368 A 
ATOM      4  C   UNL     1      22.091  48.623  -1.025  1.00  0.00     0.162 A 
ATOM      5  C   UNL     1      21.829  48.711   0.348  1.00  0.00     0.128 A 
ATOM      6  C   UNL     1      21.018  47.754   0.968  1.00  0.00     0.093 A 
ATOM      7  C   UNL     1      20.462  46.702   0.223  1.00  0.00     0.136 A 
ATOM      8  C   UNL     1      20.725  46.613  -1.157  1.00  0.00     0.125 A 
ATOM      9  C   UNL     1      20.205  45.583  -1.947  1.00  0.00     0.078 A 
ATOM     10  C   UNL     1      20.502  45.535  -3.312  1.00  0.00     0.223 A 
ENDROOT
BRANCH   1  11
ATOM     11  C   UNL     1      21.652  46.581  -5.308  1.00  0.00     0.087 A 
ATOM     12  C   UNL     1      22.522  45.610  -5.830  1.00  0.00     0.022 A 
ATOM     13  C   UNL     1      22.877  45.632  -7.182  1.00  0.00     0.051 A 
ATOM     14  C   UNL     1      22.380  46.633  -8.026  1.00  0.00     0.157 A 
ATOM     15  C   UNL     1      21.172  47.596  -6.155  1.00  0.00     0.068 A 
ATOM     16  C   UNL     1      21.529  47.619  -7.512  1.00  0.00     0.158 A 
BRANCH  14  17
ATOM     17  O   UNL     1      22.730  46.657  -9.375  1.00  0.00    -0.504 OA
ATOM     18  H   UNL     1      22.091  46.337 -10.094  1.00  0.00     0.293 HD
ENDBRANCH  14  17
BRANCH  16  19
ATOM     19  O   UNL     1      21.047  48.622  -8.351  1.00  0.00    -0.504 OA
ATOM     20  H   UNL     1      20.523  48.405  -9.190  1.00  0.00     0.293 HD
ENDBRANCH  16  19
ENDBRANCH   1  11
BRANCH  10  21
ATOM     21  O   UNL     1      20.028  44.483  -4.095  1.00  0.00    -0.500 OA
ATOM     22  H   UNL     1      20.398  44.300  -5.020  1.00  0.00     0.294 HD
ENDBRANCH  10  21
BRANCH   5  23
ATOM     23  O   UNL     1      22.370  49.746   1.108  1.00  0.00    -0.507 OA
ATOM     24  H   UNL     1      22.011  50.692   1.047  1.00  0.00     0.293 HD
ENDBRANCH   5  23
BRANCH   7  25
ATOM     25  O   UNL     1      19.656  45.754   0.852  1.00  0.00    -0.507 OA
ATOM     26  H   UNL     1      19.701  44.771   0.607  1.00  0.00     0.293 HD
ENDBRANCH   7  25
TORSDOF 6
ENDMDL
MODEL 5
REMARK VINA RESULT:    -5.292      1.535      6.713
REMARK INTER + INTRA:          -6.682
REMARK INTER:                  -6.756
REMARK INTRA:                   0.074
REMARK UNBOUND:                -0.307
REMARK SMILES Oc1cc(O)c2cc(O)c(-c3ccc(O)c(O)c3)[o+]c2c1
REMARK SMILES IDX 10 1 19 2 20 3 21 4 2 5 3 6 4 7 6 8 7 9 8 10 11 11 12 12
REMARK SMILES IDX 13 13 14 14 18 15 16 16 15 17 17 19 9 21 1 23 5 25
REMARK H PARENT 15 18 17 20 9 22 1 24 5 26
REMARK Flexibility Score: inf
ROOT
ATOM      1  C   UNL     1      21.319  46.579  -4.127  1.00  0.00     0.402 A 
ATOM      2  O   UNL     1      21.985  47.191  -5.105  1.00  0.00    -0.202 OA
ATOM      3  C   UNL     1      21.946  46.791  -6.372  1.00  0.00     0.368 A 
ATOM      4  C   UNL     1      22.679  47.486  -7.340  1.00  0.00     0.162 A 
ATOM      5  C   UNL     1      22.648  47.072  -8.678  1.00  0.00     0.128 A 
ATOM      6  C   UNL     1      21.882  45.962  -9.048  1.00  0.00     0.093 A 
ATOM      7  C   UNL     1      21.140  45.256  -8.089  1.00  0.00     0.136 A 
ATOM      8  C   UNL     1      21.171  45.671  -6.744  1.00  0.00     0.125 A 
ATOM      9  C   UNL     1      20.447  45.010  -5.746  1.00  0.00     0.078 A 
ATOM     10  C   UNL     1      20.505  45.467  -4.426  1.00  0.00     0.223 A 
ENDROOT
BRANCH   1  11
ATOM     11  C   UNL     1      21.449  47.112  -2.751  1.00  0.00     0.087 A 
ATOM     12  C   UNL     1      21.541  48.499  -2.555  1.00  0.00     0.022 A 
ATOM     13  C   UNL     1      21.684  49.023  -1.268  1.00  0.00     0.051 A 
ATOM     14  C   UNL     1      21.752  48.168  -0.161  1.00  0.00     0.157 A 
ATOM     15  C   UNL     1      21.538  46.255  -1.639  1.00  0.00     0.068 A 
ATOM     16  C   UNL     1      21.683  46.781  -0.346  1.00  0.00     0.158 A 
BRANCH  14  17
ATOM     17  O   UNL     1      21.893  48.686   1.125  1.00  0.00    -0.504 OA
ATOM     18  H   UNL     1      21.094  49.025   1.650  1.00  0.00     0.293 HD
ENDBRANCH  14  17
BRANCH  16  19
ATOM     19  O   UNL     1      21.765  45.932   0.755  1.00  0.00    -0.504 OA
ATOM     20  H   UNL     1      22.444  46.082   1.491  1.00  0.00     0.293 HD
ENDBRANCH  16  19
ENDBRANCH   1  11
BRANCH  10  21
ATOM     21  O   UNL     1      19.745  44.844  -3.436  1.00  0.00    -0.500 OA
ATOM     22  H   UNL     1      19.092  45.363  -2.862  1.00  0.00     0.294 HD
ENDBRANCH  10  21
BRANCH   5  23
ATOM     23  O   UNL     1      23.376  47.758  -9.648  1.00  0.00    -0.507 OA
ATOM     24  H   UNL     1      23.594  48.743  -9.549  1.00  0.00     0.293 HD
ENDBRANCH   5  23
BRANCH   7  25
ATOM     25  O   UNL     1      20.380  44.151  -8.471  1.00  0.00    -0.507 OA
ATOM     26  H   UNL     1      20.029  44.049  -9.416  1.00  0.00     0.293 HD
ENDBRANCH   7  25
TORSDOF 6
ENDMDL
MODEL 6
REMARK VINA RESULT:    -5.286      2.043      3.872
REMARK INTER + INTRA:          -6.674
REMARK INTER:                  -6.891
REMARK INTRA:                   0.216
REMARK UNBOUND:                -0.307
REMARK SMILES Oc1cc(O)c2cc(O)c(-c3ccc(O)c(O)c3)[o+]c2c1
REMARK SMILES IDX 10 1 19 2 20 3 21 4 2 5 3 6 4 7 6 8 7 9 8 10 11 11 12 12
REMARK SMILES IDX 13 13 14 14 18 15 16 16 15 17 17 19 9 21 1 23 5 25
REMARK H PARENT 15 18 17 20 9 22 1 24 5 26
REMARK Flexibility Score: inf
ROOT
ATOM      1  C   UNL     1      20.824  45.642  -3.747  1.00  0.00     0.402 A 
ATOM      2  O   UNL     1      21.024  44.550  -3.012  1.00  0.00    -0.202 OA
ATOM      3  C   UNL     1      20.912  44.535  -1.687  1.00  0.00     0.368 A 
ATOM      4  C   UNL     1      21.142  43.346  -0.987  1.00  0.00     0.162 A 
ATOM      5  C   UNL     1      21.030  43.318   0.409  1.00  0.00     0.128 A 
ATOM      6  C   UNL     1      20.686  44.482   1.106  1.00  0.00     0.093 A 
ATOM      7  C   UNL     1      20.451  45.681   0.417  1.00  0.00     0.136 A 
ATOM      8  C   UNL     1      20.563  45.710  -0.986  1.00  0.00     0.125 A 
ATOM      9  C   UNL     1      20.333  46.874  -1.726  1.00  0.00     0.078 A 
ATOM     10  C   UNL     1      20.451  46.849  -3.119  1.00  0.00     0.223 A 
ENDROOT
BRANCH   1  11
ATOM     11  C   UNL     1      20.988  45.538  -5.215  1.00  0.00     0.087 A 
ATOM     12  C   UNL     1      21.451  46.649  -5.938  1.00  0.00     0.022 A 
ATOM     13  C   UNL     1      21.594  46.580  -7.327  1.00  0.00     0.051 A 
ATOM     14  C   UNL     1      21.263  45.405  -8.013  1.00  0.00     0.157 A 
ATOM     15  C   UNL     1      20.638  44.366  -5.910  1.00  0.00     0.068 A 
ATOM     16  C   UNL     1      20.780  44.297  -7.304  1.00  0.00     0.158 A 
BRANCH  14  17
ATOM     17  O   UNL     1      21.406  45.330  -9.397  1.00  0.00    -0.504 OA
ATOM     18  H   UNL     1      22.268  45.602  -9.856  1.00  0.00     0.293 HD
ENDBRANCH  14  17
BRANCH  16  19
ATOM     19  O   UNL     1      20.438  43.133  -7.991  1.00  0.00    -0.504 OA
ATOM     20  H   UNL     1      20.327  42.248  -7.512  1.00  0.00     0.293 HD
ENDBRANCH  16  19
ENDBRANCH   1  11
BRANCH  10  21
ATOM     21  O   UNL     1      20.172  47.993  -3.866  1.00  0.00    -0.500 OA
ATOM     22  H   UNL     1      19.329  48.073  -4.422  1.00  0.00     0.294 HD
ENDBRANCH  10  21
BRANCH   5  23
ATOM     23  O   UNL     1      21.259  42.139   1.115  1.00  0.00    -0.507 OA
ATOM     24  H   UNL     1      21.743  41.354   0.693  1.00  0.00     0.293 HD
ENDBRANCH   5  23
BRANCH   7  25
ATOM     25  O   UNL     1      20.108  46.834   1.122  1.00  0.00    -0.507 OA
ATOM     26  H   UNL     1      19.171  47.220   1.086  1.00  0.00     0.293 HD
ENDBRANCH   7  25
TORSDOF 6
ENDMDL
MODEL 7
REMARK VINA RESULT:    -5.161      1.385      6.862
REMARK INTER + INTRA:          -6.524
REMARK INTER:                  -6.888
REMARK INTRA:                   0.364
REMARK UNBOUND:                -0.307
REMARK SMILES Oc1cc(O)c2cc(O)c(-c3ccc(O)c(O)c3)[o+]c2c1
REMARK SMILES IDX 10 1 19 2 20 3 21 4 2 5 3 6 4 7 6 8 7 9 8 10 11 11 12 12
REMARK SMILES IDX 13 13 14 14 18 15 16 16 15 17 17 19 9 21 1 23 5 25
REMARK H PARENT 15 18 17 20 9 22 1 24 5 26
REMARK Flexibility Score: inf
ROOT
ATOM      1  C   UNL     1      21.630  46.135  -5.615  1.00  0.00     0.402 A 
ATOM      2  O   UNL     1      22.207  47.260  -6.034  1.00  0.00    -0.202 OA
ATOM      3  C   UNL     1      22.543  47.476  -7.302  1.00  0.00     0.368 A 
ATOM      4  C   UNL     1      23.150  48.684  -7.661  1.00  0.00     0.162 A 
ATOM      5  C   UNL     1      23.511  48.922  -8.994  1.00  0.00     0.128 A 
ATOM      6  C   UNL     1      23.264  47.950  -9.969  1.00  0.00     0.093 A 
ATOM      7  C   UNL     1      22.653  46.734  -9.624  1.00  0.00     0.136 A 
ATOM      8  C   UNL     1      22.290  46.494  -8.285  1.00  0.00     0.125 A 
ATOM      9  C   UNL     1      21.673  45.305  -7.885  1.00  0.00     0.078 A 
ATOM     10  C   UNL     1      21.326  45.118  -6.543  1.00  0.00     0.223 A 
ENDROOT
BRANCH   1  11
ATOM     11  C   UNL     1      21.311  46.007  -4.174  1.00  0.00     0.087 A 
ATOM     12  C   UNL     1      21.433  47.129  -3.339  1.00  0.00     0.022 A 
ATOM     13  C   UNL     1      21.157  47.026  -1.972  1.00  0.00     0.051 A 
ATOM     14  C   UNL     1      20.771  45.798  -1.421  1.00  0.00     0.157 A 
ATOM     15  C   UNL     1      20.943  44.771  -3.613  1.00  0.00     0.068 A 
ATOM     16  C   UNL     1      20.667  44.667  -2.241  1.00  0.00     0.158 A 
BRANCH  14  17
ATOM     17  O   UNL     1      20.492  45.692  -0.059  1.00  0.00    -0.504 OA
ATOM     18  H   UNL     1      19.703  45.153   0.280  1.00  0.00     0.293 HD
ENDBRANCH  14  17
BRANCH  16  19
ATOM     19  O   UNL     1      20.296  43.444  -1.687  1.00  0.00    -0.504 OA
ATOM     20  H   UNL     1      20.811  43.030  -0.920  1.00  0.00     0.293 HD
ENDBRANCH  16  19
ENDBRANCH   1  11
BRANCH  10  21
ATOM     21  O   UNL     1      20.665  43.956  -6.147  1.00  0.00    -0.500 OA
ATOM     22  H   UNL     1      20.163  43.903  -5.268  1.00  0.00     0.294 HD
ENDBRANCH  10  21
BRANCH   5  23
ATOM     23  O   UNL     1      24.117  50.122  -9.360  1.00  0.00    -0.507 OA
ATOM     24  H   UNL     1      23.579  50.895  -9.733  1.00  0.00     0.293 HD
ENDBRANCH   5  23
BRANCH   7  25
ATOM     25  O   UNL     1      22.411  45.773 -10.605  1.00  0.00    -0.507 OA
ATOM     26  H   UNL     1      23.159  45.207 -10.991  1.00  0.00     0.293 HD
ENDBRANCH   7  25
TORSDOF 6
ENDMDL
MODEL 8
REMARK VINA RESULT:    -5.100      2.033      7.324
REMARK INTER + INTRA:          -6.451
REMARK INTER:                  -6.264
REMARK INTRA:                  -0.187
REMARK UNBOUND:                -0.307
REMARK SMILES Oc1cc(O)c2cc(O)c(-c3ccc(O)c(O)c3)[o+]c2c1
REMARK SMILES IDX 10 1 19 2 20 3 21 4 2 5 3 6 4 7 6 8 7 9 8 10 11 11 12 12
REMARK SMILES IDX 13 13 14 14 18 15 16 16 15 17 17 19 9 21 1 23 5 25
REMARK H PARENT 15 18 17 20 9 22 1 24 5 26
REMARK Flexibility Score: inf
ROOT
ATOM      1  C   UNL     1      21.118  46.565  -3.407  1.00  0.00     0.402 A 
ATOM      2  O   UNL     1      21.617  46.173  -4.578  1.00  0.00    -0.202 OA
ATOM      3  C   UNL     1      21.487  46.878  -5.697  1.00  0.00     0.368 A 
ATOM      4  C   UNL     1      22.038  46.394  -6.888  1.00  0.00     0.162 A 
ATOM      5  C   UNL     1      21.904  47.126  -8.075  1.00  0.00     0.128 A 
ATOM      6  C   UNL     1      21.219  48.346  -8.069  1.00  0.00     0.093 A 
ATOM      7  C   UNL     1      20.663  48.846  -6.881  1.00  0.00     0.136 A 
ATOM      8  C   UNL     1      20.797  48.110  -5.689  1.00  0.00     0.125 A 
ATOM      9  C   UNL     1      20.270  48.561  -4.474  1.00  0.00     0.078 A 
ATOM     10  C   UNL     1      20.436  47.796  -3.316  1.00  0.00     0.223 A 
ENDROOT
BRANCH   1  11
ATOM     11  C   UNL     1      21.319  45.688  -2.230  1.00  0.00     0.087 A 
ATOM     12  C   UNL     1      20.682  44.438  -2.185  1.00  0.00     0.022 A 
ATOM     13  C   UNL     1      20.841  43.603  -1.076  1.00  0.00     0.051 A 
ATOM     14  C   UNL     1      21.627  44.011   0.008  1.00  0.00     0.157 A 
ATOM     15  C   UNL     1      22.091  46.104  -1.130  1.00  0.00     0.068 A 
ATOM     16  C   UNL     1      22.251  45.266  -0.016  1.00  0.00     0.158 A 
BRANCH  14  17
ATOM     17  O   UNL     1      21.791  43.181   1.115  1.00  0.00    -0.504 OA
ATOM     18  H   UNL     1      21.130  42.441   1.325  1.00  0.00     0.293 HD
ENDBRANCH  14  17
BRANCH  16  19
ATOM     19  O   UNL     1      23.021  45.676   1.070  1.00  0.00    -0.504 OA
ATOM     20  H   UNL     1      23.279  46.646   1.201  1.00  0.00     0.293 HD
ENDBRANCH  16  19
ENDBRANCH   1  11
BRANCH  10  21
ATOM     21  O   UNL     1      19.957  48.265  -2.093  1.00  0.00    -0.500 OA
ATOM     22  H   UNL     1      20.584  48.581  -1.362  1.00  0.00     0.294 HD
ENDBRANCH  10  21
BRANCH   5  23
ATOM     23  O   UNL     1      22.448  46.651  -9.266  1.00  0.00    -0.507 OA
ATOM     24  H   UNL     1      23.188  47.149  -9.747  1.00  0.00     0.293 HD
ENDBRANCH   5  23
BRANCH   7  25
ATOM     25  O   UNL     1      19.983  50.064  -6.888  1.00  0.00    -0.507 OA
ATOM     26  H   UNL     1      19.130  50.199  -6.358  1.00  0.00     0.293 HD
ENDBRANCH   7  25
TORSDOF 6
ENDMDL
