MODEL 1
REMARK VINA RESULT:    -4.775      0.000      0.000
REMARK INTER + INTRA:          -9.823
REMARK INTER:                  -8.683
REMARK INTRA:                  -1.140
REMARK UNBOUND:                -1.140
REMARK SMILES CCCCCCCCCCCCCCCC(=O)[O-]
REMARK SMILES IDX 9 1 10 2 11 3 12 4 13 5 14 6 15 7 16 8 17 9 18 10 8 11 7 12
REMARK SMILES IDX 6 13 5 14 4 15 3 16 2 17 1 18
REMARK H PARENT
REMARK Flexibility Score: inf
ROOT
ATOM      1  C   UNL     1      23.335  26.179  21.511  1.00  0.00     0.000 C 
ENDROOT
BRANCH   1   2
ATOM      2  C   UNL     1      24.144  24.919  21.166  1.00  0.00     0.000 C 
BRANCH   2   3
ATOM      3  C   UNL     1      23.749  23.705  22.022  1.00  0.00     0.000 C 
BRANCH   3   4
ATOM      4  C   UNL     1      24.842  22.624  22.054  1.00  0.00     0.000 C 
BRANCH   4   5
ATOM      5  C   UNL     1      25.968  22.952  23.048  1.00  0.00     0.000 C 
BRANCH   5   6
ATOM      6  C   UNL     1      27.369  22.803  22.428  1.00  0.00     0.006 C 
BRANCH   6   7
ATOM      7  C   UNL     1      27.765  24.028  21.593  1.00  0.00     0.053 C 
BRANCH   7   8
ATOM      8  C   UNL     1      27.558  23.795  20.127  1.00  0.00     0.041 C 
ATOM      9  O   UNL     1      27.418  24.771  19.345  1.00  0.00    -0.550 OA
ATOM     10  O   UNL     1      27.552  22.502  19.621  1.00  0.00    -0.550 OA
ENDBRANCH   7   8
ENDBRANCH   6   7
ENDBRANCH   5   6
ENDBRANCH   4   5
ENDBRANCH   3   4
ENDBRANCH   2   3
ENDBRANCH   1   2
BRANCH   1  11
ATOM     11  C   UNL     1      24.218  27.224  22.208  1.00  0.00     0.000 C 
BRANCH  11  12
ATOM     12  C   UNL     1      25.610  26.679  22.578  1.00  0.00    -0.000 C 
BRANCH  12  13
ATOM     13  C   UNL     1      26.670  27.757  22.881  1.00  0.00    -0.000 C 
BRANCH  13  14
ATOM     14  C   UNL     1      26.219  28.865  23.854  1.00  0.00    -0.000 C 
BRANCH  14  15
ATOM     15  C   UNL     1      27.280  29.301  24.879  1.00  0.00    -0.000 C 
BRANCH  15  16
ATOM     16  C   UNL     1      27.524  30.816  24.879  1.00  0.00    -0.000 C 
BRANCH  16  17
ATOM     17  C   UNL     1      26.331  31.564  25.486  1.00  0.00    -0.003 C 
ATOM     18  C   UNL     1      26.797  32.666  26.434  1.00  0.00     0.004 C 
ENDBRANCH  16  17
ENDBRANCH  15  16
ENDBRANCH  14  15
ENDBRANCH  13  14
ENDBRANCH  12  13
ENDBRANCH  11  12
ENDBRANCH   1  11
TORSDOF 14
ENDMDL
MODEL 2
REMARK VINA RESULT:    -4.546     17.600     20.152
REMARK INTER + INTRA:          -9.407
REMARK INTER:                  -8.385
REMARK INTRA:                  -1.022
REMARK UNBOUND:                -1.140
REMARK SMILES CCCCCCCCCCCCCCCC(=O)[O-]
REMARK SMILES IDX 9 1 10 2 11 3 12 4 13 5 14 6 15 7 16 8 17 9 18 10 8 11 7 12
REMARK SMILES IDX 6 13 5 14 4 15 3 16 2 17 1 18
REMARK H PARENT
REMARK Flexibility Score: inf
ROOT
ATOM      1  C   UNL     1      12.495  36.372  21.823  1.00  0.00     0.000 C 
ENDROOT
BRANCH   1   2
ATOM      2  C   UNL     1      13.152  37.654  22.357  1.00  0.00     0.000 C 
BRANCH   2   3
ATOM      3  C   UNL     1      12.262  38.406  23.360  1.00  0.00     0.000 C 
BRANCH   3   4
ATOM      4  C   UNL     1      10.824  37.863  23.396  1.00  0.00     0.000 C 
BRANCH   4   5
ATOM      5  C   UNL     1      10.134  38.104  24.749  1.00  0.00     0.000 C 
BRANCH   5   6
ATOM      6  C   UNL     1       8.693  38.621  24.597  1.00  0.00     0.006 C 
BRANCH   6   7
ATOM      7  C   UNL     1       8.035  38.908  25.953  1.00  0.00     0.053 C 
BRANCH   7   8
ATOM      8  C   UNL     1       8.484  40.217  26.526  1.00  0.00     0.041 C 
ATOM      9  O   UNL     1       9.253  40.966  25.868  1.00  0.00    -0.550 OA
ATOM     10  O   UNL     1       8.031  40.623  27.775  1.00  0.00    -0.550 OA
ENDBRANCH   7   8
ENDBRANCH   6   7
ENDBRANCH   5   6
ENDBRANCH   4   5
ENDBRANCH   3   4
ENDBRANCH   2   3
ENDBRANCH   1   2
BRANCH   1  11
ATOM     11  C   UNL     1      13.007  35.139  22.581  1.00  0.00     0.000 C 
BRANCH  11  12
ATOM     12  C   UNL     1      12.738  35.211  24.095  1.00  0.00    -0.000 C 
BRANCH  12  13
ATOM     13  C   UNL     1      12.485  33.851  24.776  1.00  0.00    -0.000 C 
BRANCH  13  14
ATOM     14  C   UNL     1      11.005  33.433  24.876  1.00  0.00    -0.000 C 
BRANCH  14  15
ATOM     15  C   UNL     1      10.501  32.545  23.725  1.00  0.00    -0.000 C 
BRANCH  15  16
ATOM     16  C   UNL     1       9.332  33.175  22.954  1.00  0.00    -0.000 C 
BRANCH  16  17
ATOM     17  C   UNL     1       9.496  34.696  22.855  1.00  0.00    -0.003 C 
ATOM     18  C   UNL     1       8.456  35.302  21.917  1.00  0.00     0.004 C 
ENDBRANCH  16  17
ENDBRANCH  15  16
ENDBRANCH  14  15
ENDBRANCH  13  14
ENDBRANCH  12  13
ENDBRANCH  11  12
ENDBRANCH   1  11
TORSDOF 14
ENDMDL
MODEL 3
REMARK VINA RESULT:    -4.495      2.560      2.883
REMARK INTER + INTRA:          -9.313
REMARK INTER:                  -8.330
REMARK INTRA:                  -0.983
REMARK UNBOUND:                -1.140
REMARK SMILES CCCCCCCCCCCCCCCC(=O)[O-]
REMARK SMILES IDX 9 1 10 2 11 3 12 4 13 5 14 6 15 7 16 8 17 9 18 10 8 11 7 12
REMARK SMILES IDX 6 13 5 14 4 15 3 16 2 17 1 18
REMARK H PARENT
REMARK Flexibility Score: inf
ROOT
ATOM      1  C   UNL     1      24.102  26.150  21.836  1.00  0.00     0.000 C 
ENDROOT
BRANCH   1   2
ATOM      2  C   UNL     1      24.003  24.745  21.224  1.00  0.00     0.000 C 
BRANCH   2   3
ATOM      3  C   UNL     1      24.173  23.628  22.267  1.00  0.00     0.000 C 
BRANCH   3   4
ATOM      4  C   UNL     1      25.214  22.578  21.843  1.00  0.00     0.000 C 
BRANCH   4   5
ATOM      5  C   UNL     1      26.659  23.067  22.036  1.00  0.00     0.000 C 
BRANCH   5   6
ATOM      6  C   UNL     1      27.247  22.656  23.398  1.00  0.00     0.006 C 
BRANCH   6   7
ATOM      7  C   UNL     1      27.371  23.846  24.358  1.00  0.00     0.053 C 
BRANCH   7   8
ATOM      8  C   UNL     1      27.750  23.412  25.740  1.00  0.00     0.041 C 
ATOM      9  O   UNL     1      27.776  24.248  26.682  1.00  0.00    -0.550 OA
ATOM     10  O   UNL     1      28.046  22.079  25.996  1.00  0.00    -0.550 OA
ENDBRANCH   7   8
ENDBRANCH   6   7
ENDBRANCH   5   6
ENDBRANCH   4   5
ENDBRANCH   3   4
ENDBRANCH   2   3
ENDBRANCH   1   2
BRANCH   1  11
ATOM     11  C   UNL     1      25.529  26.436  22.324  1.00  0.00     0.000 C 
BRANCH  11  12
ATOM     12  C   UNL     1      25.669  27.817  22.989  1.00  0.00    -0.000 C 
BRANCH  12  13
ATOM     13  C   UNL     1      26.738  27.900  24.098  1.00  0.00    -0.000 C 
BRANCH  13  14
ATOM     14  C   UNL     1      27.838  28.956  23.870  1.00  0.00    -0.000 C 
BRANCH  14  15
ATOM     15  C   UNL     1      27.757  30.187  24.789  1.00  0.00    -0.000 C 
BRANCH  15  16
ATOM     16  C   UNL     1      26.313  30.592  25.119  1.00  0.00    -0.000 C 
BRANCH  16  17
ATOM     17  C   UNL     1      26.227  32.082  25.470  1.00  0.00    -0.003 C 
ATOM     18  C   UNL     1      27.245  32.455  26.543  1.00  0.00     0.004 C 
ENDBRANCH  16  17
ENDBRANCH  15  16
ENDBRANCH  14  15
ENDBRANCH  13  14
ENDBRANCH  12  13
ENDBRANCH  11  12
ENDBRANCH   1  11
TORSDOF 14
ENDMDL
MODEL 4
REMARK VINA RESULT:    -4.458      3.114      6.485
REMARK INTER + INTRA:          -9.247
REMARK INTER:                  -7.585
REMARK INTRA:                  -1.662
REMARK UNBOUND:                -1.140
REMARK SMILES CCCCCCCCCCCCCCCC(=O)[O-]
REMARK SMILES IDX 9 1 10 2 11 3 12 4 13 5 14 6 15 7 16 8 17 9 18 10 8 11 7 12
REMARK SMILES IDX 6 13 5 14 4 15 3 16 2 17 1 18
REMARK H PARENT
REMARK Flexibility Score: inf
ROOT
ATOM      1  C   UNL     1      23.849  25.806  21.487  1.00  0.00     0.000 C 
ENDROOT
BRANCH   1   2
ATOM      2  C   UNL     1      25.078  26.354  22.228  1.00  0.00     0.000 C 
BRANCH   2   3
ATOM      3  C   UNL     1      26.370  25.595  21.883  1.00  0.00     0.000 C 
BRANCH   3   4
ATOM      4  C   UNL     1      27.635  26.408  22.203  1.00  0.00     0.000 C 
BRANCH   4   5
ATOM      5  C   UNL     1      27.519  27.189  23.522  1.00  0.00     0.000 C 
BRANCH   5   6
ATOM      6  C   UNL     1      27.540  28.714  23.312  1.00  0.00     0.006 C 
BRANCH   6   7
ATOM      7  C   UNL     1      27.632  29.479  24.638  1.00  0.00     0.053 C 
BRANCH   7   8
ATOM      8  C   UNL     1      26.398  30.286  24.904  1.00  0.00     0.041 C 
ATOM      9  O   UNL     1      26.484  31.405  25.475  1.00  0.00    -0.550 OA
ATOM     10  O   UNL     1      25.156  29.817  24.495  1.00  0.00    -0.550 OA
ENDBRANCH   7   8
ENDBRANCH   6   7
ENDBRANCH   5   6
ENDBRANCH   4   5
ENDBRANCH   3   4
ENDBRANCH   2   3
ENDBRANCH   1   2
BRANCH   1  11
ATOM     11  C   UNL     1      24.012  24.309  21.189  1.00  0.00     0.000 C 
BRANCH  11  12
ATOM     12  C   UNL     1      23.351  23.412  22.252  1.00  0.00    -0.000 C 
BRANCH  12  13
ATOM     13  C   UNL     1      24.215  22.229  22.733  1.00  0.00    -0.000 C 
BRANCH  13  14
ATOM     14  C   UNL     1      25.499  21.981  21.917  1.00  0.00    -0.000 C 
BRANCH  14  15
ATOM     15  C   UNL     1      26.806  22.050  22.725  1.00  0.00    -0.000 C 
BRANCH  15  16
ATOM     16  C   UNL     1      26.576  22.393  24.204  1.00  0.00    -0.000 C 
BRANCH  16  17
ATOM     17  C   UNL     1      27.473  23.556  24.643  1.00  0.00    -0.003 C 
ATOM     18  C   UNL     1      27.632  23.587  26.161  1.00  0.00     0.004 C 
ENDBRANCH  16  17
ENDBRANCH  15  16
ENDBRANCH  14  15
ENDBRANCH  13  14
ENDBRANCH  12  13
ENDBRANCH  11  12
ENDBRANCH   1  11
TORSDOF 14
ENDMDL
MODEL 5
REMARK VINA RESULT:    -4.411      3.534      7.158
REMARK INTER + INTRA:          -9.161
REMARK INTER:                  -7.999
REMARK INTRA:                  -1.162
REMARK UNBOUND:                -1.140
REMARK SMILES CCCCCCCCCCCCCCCC(=O)[O-]
REMARK SMILES IDX 9 1 10 2 11 3 12 4 13 5 14 6 15 7 16 8 17 9 18 10 8 11 7 12
REMARK SMILES IDX 6 13 5 14 4 15 3 16 2 17 1 18
REMARK H PARENT
REMARK Flexibility Score: inf
ROOT
ATOM      1  C   UNL     1      23.819  26.672  21.870  1.00  0.00     0.000 C 
ENDROOT
BRANCH   1   2
ATOM      2  C   UNL     1      25.288  26.425  22.247  1.00  0.00     0.000 C 
BRANCH   2   3
ATOM      3  C   UNL     1      25.913  27.603  23.012  1.00  0.00     0.000 C 
BRANCH   3   4
ATOM      4  C   UNL     1      27.408  27.392  23.302  1.00  0.00     0.000 C 
BRANCH   4   5
ATOM      5  C   UNL     1      27.948  28.365  24.363  1.00  0.00     0.000 C 
BRANCH   5   6
ATOM      6  C   UNL     1      27.005  29.557  24.608  1.00  0.00     0.006 C 
BRANCH   6   7
ATOM      7  C   UNL     1      27.613  30.588  25.568  1.00  0.00     0.053 C 
BRANCH   7   8
ATOM      8  C   UNL     1      26.679  31.729  25.828  1.00  0.00     0.041 C 
ATOM      9  O   UNL     1      25.562  31.778  25.249  1.00  0.00    -0.550 OA
ATOM     10  O   UNL     1      27.027  32.724  26.733  1.00  0.00    -0.550 OA
ENDBRANCH   7   8
ENDBRANCH   6   7
ENDBRANCH   5   6
ENDBRANCH   4   5
ENDBRANCH   3   4
ENDBRANCH   2   3
ENDBRANCH   1   2
BRANCH   1  11
ATOM     11  C   UNL     1      23.242  25.475  21.101  1.00  0.00     0.000 C 
BRANCH  11  12
ATOM     12  C   UNL     1      24.197  24.268  21.068  1.00  0.00    -0.000 C 
BRANCH  12  13
ATOM     13  C   UNL     1      24.010  23.260  22.220  1.00  0.00    -0.000 C 
BRANCH  13  14
ATOM     14  C   UNL     1      25.010  22.087  22.234  1.00  0.00    -0.000 C 
BRANCH  14  15
ATOM     15  C   UNL     1      26.314  22.336  21.455  1.00  0.00    -0.000 C 
BRANCH  15  16
ATOM     16  C   UNL     1      27.311  23.214  22.224  1.00  0.00    -0.000 C 
BRANCH  16  17
ATOM     17  C   UNL     1      27.458  22.736  23.674  1.00  0.00    -0.003 C 
ATOM     18  C   UNL     1      27.503  23.916  24.641  1.00  0.00     0.004 C 
ENDBRANCH  16  17
ENDBRANCH  15  16
ENDBRANCH  14  15
ENDBRANCH  13  14
ENDBRANCH  12  13
ENDBRANCH  11  12
ENDBRANCH   1  11
TORSDOF 14
ENDMDL
MODEL 6
REMARK VINA RESULT:    -4.378      3.924      7.759
REMARK INTER + INTRA:          -9.102
REMARK INTER:                  -7.756
REMARK INTRA:                  -1.345
REMARK UNBOUND:                -1.140
REMARK SMILES CCCCCCCCCCCCCCCC(=O)[O-]
REMARK SMILES IDX 9 1 10 2 11 3 12 4 13 5 14 6 15 7 16 8 17 9 18 10 8 11 7 12
REMARK SMILES IDX 6 13 5 14 4 15 3 16 2 17 1 18
REMARK H PARENT
REMARK Flexibility Score: inf
ROOT
ATOM      1  C   UNL     1      27.365  25.858  23.663  1.00  0.00     0.000 C 
ENDROOT
BRANCH   1   2
ATOM      2  C   UNL     1      27.743  26.804  22.513  1.00  0.00     0.000 C 
BRANCH   2   3
ATOM      3  C   UNL     1      27.943  28.256  22.978  1.00  0.00     0.000 C 
BRANCH   3   4
ATOM      4  C   UNL     1      27.251  28.547  24.319  1.00  0.00     0.000 C 
BRANCH   4   5
ATOM      5  C   UNL     1      25.896  29.253  24.144  1.00  0.00     0.000 C 
BRANCH   5   6
ATOM      6  C   UNL     1      25.855  30.635  24.820  1.00  0.00     0.006 C 
BRANCH   6   7
ATOM      7  C   UNL     1      27.137  30.931  25.610  1.00  0.00     0.053 C 
BRANCH   7   8
ATOM      8  C   UNL     1      27.311  32.398  25.863  1.00  0.00     0.041 C 
ATOM      9  O   UNL     1      26.947  32.898  26.960  1.00  0.00    -0.550 OA
ATOM     10  O   UNL     1      27.902  33.206  24.901  1.00  0.00    -0.550 OA
ENDBRANCH   7   8
ENDBRANCH   6   7
ENDBRANCH   5   6
ENDBRANCH   4   5
ENDBRANCH   3   4
ENDBRANCH   2   3
ENDBRANCH   1   2
BRANCH   1  11
ATOM     11  C   UNL     1      27.614  24.394  23.272  1.00  0.00     0.000 C 
BRANCH  11  12
ATOM     12  C   UNL     1      27.360  23.414  24.432  1.00  0.00    -0.000 C 
BRANCH  12  13
ATOM     13  C   UNL     1      26.514  22.178  24.065  1.00  0.00    -0.000 C 
BRANCH  13  14
ATOM     14  C   UNL     1      25.678  22.315  22.778  1.00  0.00    -0.000 C 
BRANCH  14  15
ATOM     15  C   UNL     1      24.154  22.245  22.981  1.00  0.00    -0.000 C 
BRANCH  15  16
ATOM     16  C   UNL     1      23.404  23.377  22.266  1.00  0.00    -0.000 C 
BRANCH  16  17
ATOM     17  C   UNL     1      24.346  24.170  21.354  1.00  0.00    -0.003 C 
ATOM     18  C   UNL     1      24.294  25.662  21.670  1.00  0.00     0.004 C 
ENDBRANCH  16  17
ENDBRANCH  15  16
ENDBRANCH  14  15
ENDBRANCH  13  14
ENDBRANCH  12  13
ENDBRANCH  11  12
ENDBRANCH   1  11
TORSDOF 14
ENDMDL
MODEL 7
REMARK VINA RESULT:    -4.318     17.183     19.328
REMARK INTER + INTRA:          -8.992
REMARK INTER:                  -8.070
REMARK INTRA:                  -0.922
REMARK UNBOUND:                -1.140
REMARK SMILES CCCCCCCCCCCCCCCC(=O)[O-]
REMARK SMILES IDX 9 1 10 2 11 3 12 4 13 5 14 6 15 7 16 8 17 9 18 10 8 11 7 12
REMARK SMILES IDX 6 13 5 14 4 15 3 16 2 17 1 18
REMARK H PARENT
REMARK Flexibility Score: inf
ROOT
ATOM      1  C   UNL     1      10.487  32.956  23.253  1.00  0.00     0.000 C 
ENDROOT
BRANCH   1   2
ATOM      2  C   UNL     1       9.152  33.679  23.019  1.00  0.00     0.000 C 
BRANCH   2   3
ATOM      3  C   UNL     1       9.280  34.869  22.054  1.00  0.00     0.000 C 
BRANCH   3   4
ATOM      4  C   UNL     1       8.999  36.217  22.738  1.00  0.00     0.000 C 
BRANCH   4   5
ATOM      5  C   UNL     1      10.113  36.628  23.714  1.00  0.00     0.000 C 
BRANCH   5   6
ATOM      6  C   UNL     1       9.984  38.089  24.180  1.00  0.00     0.006 C 
BRANCH   6   7
ATOM      7  C   UNL     1       8.544  38.448  24.569  1.00  0.00     0.053 C 
BRANCH   7   8
ATOM      8  C   UNL     1       8.495  39.312  25.792  1.00  0.00     0.041 C 
ATOM      9  O   UNL     1       8.066  38.844  26.880  1.00  0.00    -0.550 OA
ATOM     10  O   UNL     1       8.950  40.623  25.739  1.00  0.00    -0.550 OA
ENDBRANCH   7   8
ENDBRANCH   6   7
ENDBRANCH   5   6
ENDBRANCH   4   5
ENDBRANCH   3   4
ENDBRANCH   2   3
ENDBRANCH   1   2
BRANCH   1  11
ATOM     11  C   UNL     1      10.759  32.779  24.754  1.00  0.00     0.000 C 
BRANCH  11  12
ATOM     12  C   UNL     1      11.667  33.880  25.332  1.00  0.00    -0.000 C 
BRANCH  12  13
ATOM     13  C   UNL     1      12.922  34.195  24.493  1.00  0.00    -0.000 C 
BRANCH  13  14
ATOM     14  C   UNL     1      12.801  35.420  23.566  1.00  0.00    -0.000 C 
BRANCH  14  15
ATOM     15  C   UNL     1      12.939  35.116  22.064  1.00  0.00    -0.000 C 
BRANCH  15  16
ATOM     16  C   UNL     1      12.531  36.298  21.175  1.00  0.00    -0.000 C 
BRANCH  16  17
ATOM     17  C   UNL     1      13.528  37.456  21.311  1.00  0.00    -0.003 C 
ATOM     18  C   UNL     1      13.189  38.337  22.509  1.00  0.00     0.004 C 
ENDBRANCH  16  17
ENDBRANCH  15  16
ENDBRANCH  14  15
ENDBRANCH  13  14
ENDBRANCH  12  13
ENDBRANCH  11  12
ENDBRANCH   1  11
TORSDOF 14
ENDMDL
MODEL 8
REMARK VINA RESULT:    -4.298      1.955      3.360
REMARK INTER + INTRA:          -8.956
REMARK INTER:                  -8.155
REMARK INTRA:                  -0.802
REMARK UNBOUND:                -1.140
REMARK SMILES CCCCCCCCCCCCCCCC(=O)[O-]
REMARK SMILES IDX 9 1 10 2 11 3 12 4 13 5 14 6 15 7 16 8 17 9 18 10 8 11 7 12
REMARK SMILES IDX 6 13 5 14 4 15 3 16 2 17 1 18
REMARK H PARENT
REMARK Flexibility Score: inf
ROOT
ATOM      1  C   UNL     1      27.963  24.891  24.478  1.00  0.00     0.000 C 
ENDROOT
BRANCH   1   2
ATOM      2  C   UNL     1      27.690  24.622  22.991  1.00  0.00     0.000 C 
BRANCH   2   3
ATOM      3  C   UNL     1      27.835  23.137  22.618  1.00  0.00     0.000 C 
BRANCH   3   4
ATOM      4  C   UNL     1      26.598  22.309  23.003  1.00  0.00     0.000 C 
BRANCH   4   5
ATOM      5  C   UNL     1      25.476  22.400  21.955  1.00  0.00     0.000 C 
BRANCH   5   6
ATOM      6  C   UNL     1      24.293  23.265  22.427  1.00  0.00     0.006 C 
BRANCH   6   7
ATOM      7  C   UNL     1      23.677  24.076  21.280  1.00  0.00     0.053 C 
BRANCH   7   8
ATOM      8  C   UNL     1      23.948  25.543  21.424  1.00  0.00     0.041 C 
ATOM      9  O   UNL     1      22.992  26.355  21.538  1.00  0.00    -0.550 OA
ATOM     10  O   UNL     1      25.255  26.010  21.463  1.00  0.00    -0.550 OA
ENDBRANCH   7   8
ENDBRANCH   6   7
ENDBRANCH   5   6
ENDBRANCH   4   5
ENDBRANCH   3   4
ENDBRANCH   2   3
ENDBRANCH   1   2
BRANCH   1  11
ATOM     11  C   UNL     1      27.911  26.396  24.781  1.00  0.00     0.000 C 
BRANCH  11  12
ATOM     12  C   UNL     1      27.892  27.262  23.508  1.00  0.00    -0.000 C 
BRANCH  12  13
ATOM     13  C   UNL     1      26.781  28.330  23.465  1.00  0.00    -0.000 C 
BRANCH  13  14
ATOM     14  C   UNL     1      26.882  29.425  24.545  1.00  0.00    -0.000 C 
BRANCH  14  15
ATOM     15  C   UNL     1      25.649  30.337  24.663  1.00  0.00    -0.000 C 
BRANCH  15  16
ATOM     16  C   UNL     1      25.964  31.684  25.328  1.00  0.00    -0.000 C 
BRANCH  16  17
ATOM     17  C   UNL     1      27.469  31.973  25.296  1.00  0.00    -0.003 C 
ATOM     18  C   UNL     1      28.053  32.013  26.705  1.00  0.00     0.004 C 
ENDBRANCH  16  17
ENDBRANCH  15  16
ENDBRANCH  14  15
ENDBRANCH  13  14
ENDBRANCH  12  13
ENDBRANCH  11  12
ENDBRANCH   1  11
TORSDOF 14
ENDMDL
