MODEL 1
REMARK VINA RESULT:     7.651      0.000      0.000
REMARK INTER + INTRA:           9.192
REMARK INTER:                   8.322
REMARK INTRA:                   0.870
REMARK UNBOUND:                 0.870
REMARK SMILES CC1(C)CC[C@]2(C(=O)[O-])CC[C@]3(C)C(=CC[C@H]4[C@]5(C)CC[C@H](O)C(C)(C)[C@@H]5CC[C@@]43C)[C@H]2C1
REMARK SMILES IDX 6 1 5 2 10 3 32 4 4 5 11 6 14 7 33 8 2 9 12 10 15 11 1 12
REMARK SMILES IDX 3 13 13 14 30 15 16 16 17 17 29 18 31 19 18 20 28 21 27 22
REMARK SMILES IDX 20 23 19 24 24 25 21 26 22 27 25 28 26 29 7 30 8 31 9 32
REMARK SMILES IDX 23 33
REMARK H PARENT 23 34
REMARK Flexibility Score: inf
ROOT
ATOM      1  C   UNL     1      -7.300  -1.614   7.135  1.00  0.00     0.017 C 
ATOM      2  C   UNL     1      -7.072  -0.083   7.009  1.00  0.00     0.014 C 
ATOM      3  C   UNL     1      -6.553  -2.318   5.968  1.00  0.00     0.014 C 
ATOM      4  C   UNL     1      -8.829  -1.907   6.992  1.00  0.00     0.028 C 
ATOM      5  C   UNL     1      -7.904   0.724   8.020  1.00  0.00     0.007 C 
ATOM      6  C   UNL     1      -6.858  -3.833   5.859  1.00  0.00     0.013 C 
ATOM      7  C   UNL     1      -9.070  -3.425   6.955  1.00  0.00    -0.064 C 
ATOM      8  C   UNL     1      -9.686  -1.088   8.000  1.00  0.00     0.015 C 
ATOM      9  C   UNL     1      -9.426   0.441   7.925  1.00  0.00    -0.035 C 
ATOM     10  C   UNL     1      -8.393  -4.199   5.792  1.00  0.00    -0.006 C 
ATOM     11  C   UNL     1      -9.612  -4.054   8.031  1.00  0.00    -0.027 C 
ATOM     12  C   UNL     1     -10.023   1.048   6.632  1.00  0.00     0.011 C 
ATOM     13  C   UNL     1     -10.125   1.118   9.125  1.00  0.00     0.011 C 
ATOM     14  C   UNL     1      -8.951  -3.668   4.433  1.00  0.00     0.017 C 
ATOM     15  C   UNL     1      -8.669  -5.794   5.892  1.00  0.00    -0.020 C 
ATOM     16  C   UNL     1      -9.579  -5.536   8.265  1.00  0.00     0.032 C 
ATOM     17  C   UNL     1      -8.510  -6.229   7.400  1.00  0.00     0.006 C 
ATOM     18  C   UNL     1      -7.698  -6.611   4.965  1.00  0.00     0.008 C 
ATOM     19  C   UNL     1     -10.124  -6.113   5.407  1.00  0.00     0.012 C 
ATOM     20  C   UNL     1      -8.267  -7.772   7.769  1.00  0.00    -0.025 C 
ATOM     21  C   UNL     1      -6.730  -7.528   5.716  1.00  0.00     0.005 C 
ATOM     22  C   UNL     1      -7.529  -8.543   6.581  1.00  0.00     0.003 C 
ATOM     23  C   UNL     1      -7.441  -7.799   9.123  1.00  0.00     0.010 C 
ATOM     24  C   UNL     1      -9.612  -8.510   8.054  1.00  0.00     0.012 C 
ATOM     25  C   UNL     1      -6.735  -9.895   6.971  1.00  0.00    -0.006 C 
ATOM     26  C   UNL     1      -6.157  -8.611   9.075  1.00  0.00     0.033 C 
ATOM     27  C   UNL     1      -6.455  -9.988   8.510  1.00  0.00     0.120 C 
ATOM     28  C   UNL     1      -7.592 -11.125   6.569  1.00  0.00     0.014 C 
ATOM     29  C   UNL     1      -5.392 -10.050   6.195  1.00  0.00     0.014 C 
ENDROOT
BRANCH   1  30
ATOM     30  C   UNL     1      -6.690  -2.097   8.453  1.00  0.00     0.048 C 
ATOM     31  O   UNL     1      -5.952  -1.323   9.120  1.00  0.00    -0.550 OA
ATOM     32  O   UNL     1      -6.925  -3.374   8.950  1.00  0.00    -0.550 OA
ENDBRANCH   1  30
BRANCH  27  33
ATOM     33  O   UNL     1      -5.376 -10.840   8.809  1.00  0.00    -0.393 OA
ATOM     34  H   UNL     1      -4.716 -10.749   8.073  1.00  0.00     0.210 HD
ENDBRANCH  27  33
TORSDOF 2
ENDMDL
