MODEL 1
REMARK VINA RESULT:    -5.603      0.000      0.000
REMARK INTER + INTRA:          -7.067
REMARK INTER:                  -6.750
REMARK INTRA:                  -0.318
REMARK UNBOUND:                -0.318
REMARK SMILES O=c1c(O)c(-c2ccc(O)c(O)c2)oc2cc(O)cc(O)c12
REMARK SMILES IDX 5 1 3 2 2 3 1 4 22 5 20 6 19 7 17 8 16 9 15 10 14 11 6 12
REMARK SMILES IDX 7 13 8 14 9 15 13 16 11 17 10 18 12 20 4 22 21 24 18 26
REMARK H PARENT 10 19 12 21 4 23 21 25 18 27
REMARK Flexibility Score: inf
ROOT
ATOM      1  C   UNL     1      26.411  49.665  61.146  1.00  0.00     0.180 A 
ATOM      2  C   UNL     1      27.619  49.195  60.596  1.00  0.00     0.208 A 
ATOM      3  C   UNL     1      28.456  48.391  61.384  1.00  0.00     0.238 A 
ATOM      4  O   UNL     1      29.546  47.973  60.905  1.00  0.00    -0.285 OA
ATOM      5  C   UNL     1      28.066  48.053  62.696  1.00  0.00     0.111 A 
ATOM      6  C   UNL     1      28.850  47.245  63.554  1.00  0.00     0.134 A 
ATOM      7  C   UNL     1      28.386  46.946  64.844  1.00  0.00     0.093 A 
ATOM      8  C   UNL     1      27.158  47.438  65.292  1.00  0.00     0.123 A 
ATOM      9  C   UNL     1      26.379  48.239  64.449  1.00  0.00     0.094 A 
ATOM     10  C   UNL     1      26.824  48.549  63.161  1.00  0.00     0.146 A 
ATOM     11  O   UNL     1      26.068  49.315  62.382  1.00  0.00    -0.452 OA
ENDROOT
BRANCH   1  12
ATOM     12  C   UNL     1      25.485  50.534  60.385  1.00  0.00     0.025 A 
ATOM     13  C   UNL     1      25.599  51.927  60.497  1.00  0.00     0.016 A 
ATOM     14  C   UNL     1      24.749  52.765  59.773  1.00  0.00     0.051 A 
ATOM     15  C   UNL     1      23.781  52.232  58.914  1.00  0.00     0.157 A 
ATOM     16  C   UNL     1      24.530  49.996  59.507  1.00  0.00     0.062 A 
ATOM     17  C   UNL     1      23.675  50.829  58.774  1.00  0.00     0.158 A 
BRANCH  15  18
ATOM     18  O   UNL     1      22.959  53.125  58.224  1.00  0.00    -0.504 OA
ATOM     19  H   UNL     1      21.949  53.090  58.240  1.00  0.00     0.293 HD
ENDBRANCH  15  18
BRANCH  17  20
ATOM     20  O   UNL     1      22.749  50.225  57.921  1.00  0.00    -0.504 OA
ATOM     21  H   UNL     1      22.604  49.228  57.858  1.00  0.00     0.293 HD
ENDBRANCH  17  20
ENDBRANCH   1  12
BRANCH   2  22
ATOM     22  O   UNL     1      27.960  49.503  59.276  1.00  0.00    -0.502 OA
ATOM     23  H   UNL     1      27.673  50.365  58.827  1.00  0.00     0.293 HD
ENDBRANCH   2  22
BRANCH   6  24
ATOM     24  O   UNL     1      30.080  46.736  63.137  1.00  0.00    -0.507 OA
ATOM     25  H   UNL     1      30.177  45.787  62.797  1.00  0.00     0.293 HD
ENDBRANCH   6  24
BRANCH   8  26
ATOM     26  O   UNL     1      26.721  47.127  66.577  1.00  0.00    -0.508 OA
ATOM     27  H   UNL     1      27.019  47.664  67.384  1.00  0.00     0.293 HD
ENDBRANCH   8  26
TORSDOF 6
ENDMDL
MODEL 2
REMARK VINA RESULT:    -5.553      2.031      6.687
REMARK INTER + INTRA:          -7.007
REMARK INTER:                  -6.689
REMARK INTRA:                  -0.318
REMARK UNBOUND:                -0.318
REMARK SMILES O=c1c(O)c(-c2ccc(O)c(O)c2)oc2cc(O)cc(O)c12
REMARK SMILES IDX 5 1 3 2 2 3 1 4 22 5 20 6 19 7 17 8 16 9 15 10 14 11 6 12
REMARK SMILES IDX 7 13 8 14 9 15 13 16 11 17 10 18 12 20 4 22 21 24 18 26
REMARK H PARENT 10 19 12 21 4 23 21 25 18 27
REMARK Flexibility Score: inf
ROOT
ATOM      1  C   UNL     1      27.434  47.521  63.155  1.00  0.00     0.180 A 
ATOM      2  C   UNL     1      28.725  47.619  62.601  1.00  0.00     0.208 A 
ATOM      3  C   UNL     1      28.968  48.588  61.615  1.00  0.00     0.238 A 
ATOM      4  O   UNL     1      30.118  48.678  61.104  1.00  0.00    -0.285 OA
ATOM      5  C   UNL     1      27.930  49.454  61.215  1.00  0.00     0.111 A 
ATOM      6  C   UNL     1      28.094  50.459  60.232  1.00  0.00     0.134 A 
ATOM      7  C   UNL     1      27.012  51.287  59.897  1.00  0.00     0.093 A 
ATOM      8  C   UNL     1      25.773  51.130  60.523  1.00  0.00     0.123 A 
ATOM      9  C   UNL     1      25.605  50.137  61.494  1.00  0.00     0.094 A 
ATOM     10  C   UNL     1      26.670  49.302  61.842  1.00  0.00     0.146 A 
ATOM     11  O   UNL     1      26.482  48.364  62.764  1.00  0.00    -0.452 OA
ENDROOT
BRANCH   1  12
ATOM     12  C   UNL     1      27.094  46.513  64.183  1.00  0.00     0.025 A 
ATOM     13  C   UNL     1      27.028  46.897  65.530  1.00  0.00     0.016 A 
ATOM     14  C   UNL     1      26.690  45.966  66.514  1.00  0.00     0.051 A 
ATOM     15  C   UNL     1      26.397  44.641  66.174  1.00  0.00     0.157 A 
ATOM     16  C   UNL     1      26.778  45.189  63.836  1.00  0.00     0.062 A 
ATOM     17  C   UNL     1      26.435  44.249  64.815  1.00  0.00     0.158 A 
BRANCH  15  18
ATOM     18  O   UNL     1      26.073  43.759  67.207  1.00  0.00    -0.504 OA
ATOM     19  H   UNL     1      26.052  44.017  68.183  1.00  0.00     0.293 HD
ENDBRANCH  15  18
BRANCH  17  20
ATOM     20  O   UNL     1      26.134  42.950  64.398  1.00  0.00    -0.504 OA
ATOM     21  H   UNL     1      25.569  42.303  64.927  1.00  0.00     0.293 HD
ENDBRANCH  17  20
ENDBRANCH   1  12
BRANCH   2  22
ATOM     22  O   UNL     1      29.750  46.783  63.049  1.00  0.00    -0.502 OA
ATOM     23  H   UNL     1      30.224  46.929  63.932  1.00  0.00     0.293 HD
ENDBRANCH   2  22
BRANCH   6  24
ATOM     24  O   UNL     1      29.318  50.643  59.590  1.00  0.00    -0.507 OA
ATOM     25  H   UNL     1      29.375  50.984  58.638  1.00  0.00     0.293 HD
ENDBRANCH   6  24
BRANCH   8  26
ATOM     26  O   UNL     1      24.715  51.965  60.172  1.00  0.00    -0.508 OA
ATOM     27  H   UNL     1      24.854  52.773  59.575  1.00  0.00     0.293 HD
ENDBRANCH   8  26
TORSDOF 6
ENDMDL
MODEL 3
REMARK VINA RESULT:    -5.502      1.623      6.746
REMARK INTER + INTRA:          -6.946
REMARK INTER:                  -6.694
REMARK INTRA:                  -0.252
REMARK UNBOUND:                -0.318
REMARK SMILES O=c1c(O)c(-c2ccc(O)c(O)c2)oc2cc(O)cc(O)c12
REMARK SMILES IDX 5 1 3 2 2 3 1 4 22 5 20 6 19 7 17 8 16 9 15 10 14 11 6 12
REMARK SMILES IDX 7 13 8 14 9 15 13 16 11 17 10 18 12 20 4 22 21 24 18 26
REMARK H PARENT 10 19 12 21 4 23 21 25 18 27
REMARK Flexibility Score: inf
ROOT
ATOM      1  C   UNL     1      27.591  47.795  62.714  1.00  0.00     0.180 A 
ATOM      2  C   UNL     1      28.806  47.645  62.018  1.00  0.00     0.208 A 
ATOM      3  C   UNL     1      29.045  48.447  60.891  1.00  0.00     0.238 A 
ATOM      4  O   UNL     1      30.125  48.314  60.253  1.00  0.00    -0.285 OA
ATOM      5  C   UNL     1      28.081  49.395  60.491  1.00  0.00     0.111 A 
ATOM      6  C   UNL     1      28.246  50.243  59.370  1.00  0.00     0.134 A 
ATOM      7  C   UNL     1      27.242  51.167  59.043  1.00  0.00     0.093 A 
ATOM      8  C   UNL     1      26.080  51.260  59.813  1.00  0.00     0.123 A 
ATOM      9  C   UNL     1      25.911  50.423  60.922  1.00  0.00     0.094 A 
ATOM     10  C   UNL     1      26.898  49.495  61.263  1.00  0.00     0.146 A 
ATOM     11  O   UNL     1      26.711  48.709  62.317  1.00  0.00    -0.452 OA
ENDROOT
BRANCH   1  12
ATOM     12  C   UNL     1      27.258  46.973  63.899  1.00  0.00     0.025 A 
ATOM     13  C   UNL     1      26.923  45.622  63.729  1.00  0.00     0.016 A 
ATOM     14  C   UNL     1      26.624  44.824  64.834  1.00  0.00     0.051 A 
ATOM     15  C   UNL     1      26.668  45.352  66.130  1.00  0.00     0.157 A 
ATOM     16  C   UNL     1      27.324  47.500  65.200  1.00  0.00     0.062 A 
ATOM     17  C   UNL     1      27.029  46.707  66.315  1.00  0.00     0.158 A 
BRANCH  15  18
ATOM     18  O   UNL     1      26.351  44.502  67.191  1.00  0.00    -0.504 OA
ATOM     19  H   UNL     1      25.460  44.038  67.296  1.00  0.00     0.293 HD
ENDBRANCH  15  18
BRANCH  17  20
ATOM     20  O   UNL     1      27.115  47.297  67.577  1.00  0.00    -0.504 OA
ATOM     21  H   UNL     1      26.323  47.454  68.183  1.00  0.00     0.293 HD
ENDBRANCH  17  20
ENDBRANCH   1  12
BRANCH   2  22
ATOM     22  O   UNL     1      29.767  46.734  62.462  1.00  0.00    -0.502 OA
ATOM     23  H   UNL     1      30.722  46.744  62.124  1.00  0.00     0.293 HD
ENDBRANCH   2  22
BRANCH   6  24
ATOM     24  O   UNL     1      29.395  50.177  58.582  1.00  0.00    -0.507 OA
ATOM     25  H   UNL     1      29.943  49.328  58.508  1.00  0.00     0.293 HD
ENDBRANCH   6  24
BRANCH   8  26
ATOM     26  O   UNL     1      25.100  52.187  59.467  1.00  0.00    -0.508 OA
ATOM     27  H   UNL     1      24.723  52.234  58.527  1.00  0.00     0.293 HD
ENDBRANCH   8  26
TORSDOF 6
ENDMDL
MODEL 4
REMARK VINA RESULT:    -5.254      3.095      4.672
REMARK INTER + INTRA:          -6.647
REMARK INTER:                  -6.477
REMARK INTRA:                  -0.170
REMARK UNBOUND:                -0.318
REMARK SMILES O=c1c(O)c(-c2ccc(O)c(O)c2)oc2cc(O)cc(O)c12
REMARK SMILES IDX 5 1 3 2 2 3 1 4 22 5 20 6 19 7 17 8 16 9 15 10 14 11 6 12
REMARK SMILES IDX 7 13 8 14 9 15 13 16 11 17 10 18 12 20 4 22 21 24 18 26
REMARK H PARENT 10 19 12 21 4 23 21 25 18 27
REMARK Flexibility Score: inf
ROOT
ATOM      1  C   UNL     1      28.353  48.078  62.899  1.00  0.00     0.180 A 
ATOM      2  C   UNL     1      28.516  48.762  64.119  1.00  0.00     0.208 A 
ATOM      3  C   UNL     1      28.078  48.150  65.304  1.00  0.00     0.238 A 
ATOM      4  O   UNL     1      28.209  48.758  66.401  1.00  0.00    -0.285 OA
ATOM      5  C   UNL     1      27.508  46.862  65.254  1.00  0.00     0.111 A 
ATOM      6  C   UNL     1      27.045  46.174  66.402  1.00  0.00     0.134 A 
ATOM      7  C   UNL     1      26.498  44.889  66.269  1.00  0.00     0.093 A 
ATOM      8  C   UNL     1      26.403  44.280  65.016  1.00  0.00     0.123 A 
ATOM      9  C   UNL     1      26.857  44.955  63.877  1.00  0.00     0.094 A 
ATOM     10  C   UNL     1      27.405  46.236  63.988  1.00  0.00     0.146 A 
ATOM     11  O   UNL     1      27.824  46.858  62.891  1.00  0.00    -0.452 OA
ENDROOT
BRANCH   1  12
ATOM     12  C   UNL     1      28.771  48.665  61.606  1.00  0.00     0.025 A 
ATOM     13  C   UNL     1      29.731  48.004  60.826  1.00  0.00     0.016 A 
ATOM     14  C   UNL     1      30.125  48.530  59.595  1.00  0.00     0.051 A 
ATOM     15  C   UNL     1      29.560  49.715  59.110  1.00  0.00     0.157 A 
ATOM     16  C   UNL     1      28.186  49.843  61.112  1.00  0.00     0.062 A 
ATOM     17  C   UNL     1      28.572  50.377  59.877  1.00  0.00     0.158 A 
BRANCH  15  18
ATOM     18  O   UNL     1      30.003  50.191  57.875  1.00  0.00    -0.504 OA
ATOM     19  H   UNL     1      29.470  50.123  57.020  1.00  0.00     0.293 HD
ENDBRANCH  15  18
BRANCH  17  20
ATOM     20  O   UNL     1      27.949  51.551  59.449  1.00  0.00    -0.504 OA
ATOM     21  H   UNL     1      26.955  51.717  59.507  1.00  0.00     0.293 HD
ENDBRANCH  17  20
ENDBRANCH   1  12
BRANCH   2  22
ATOM     22  O   UNL     1      29.130  50.017  64.148  1.00  0.00    -0.502 OA
ATOM     23  H   UNL     1      29.829  50.264  64.839  1.00  0.00     0.293 HD
ENDBRANCH   2  22
BRANCH   6  24
ATOM     24  O   UNL     1      27.127  46.753  67.668  1.00  0.00    -0.507 OA
ATOM     25  H   UNL     1      28.007  46.831  68.163  1.00  0.00     0.293 HD
ENDBRANCH   6  24
BRANCH   8  26
ATOM     26  O   UNL     1      25.855  43.004  64.912  1.00  0.00    -0.508 OA
ATOM     27  H   UNL     1      25.664  42.441  65.733  1.00  0.00     0.293 HD
ENDBRANCH   8  26
TORSDOF 6
ENDMDL
MODEL 5
REMARK VINA RESULT:    -4.987      1.542      6.603
REMARK INTER + INTRA:          -6.325
REMARK INTER:                  -6.015
REMARK INTRA:                  -0.311
REMARK UNBOUND:                -0.318
REMARK SMILES O=c1c(O)c(-c2ccc(O)c(O)c2)oc2cc(O)cc(O)c12
REMARK SMILES IDX 5 1 3 2 2 3 1 4 22 5 20 6 19 7 17 8 16 9 15 10 14 11 6 12
REMARK SMILES IDX 7 13 8 14 9 15 13 16 11 17 10 18 12 20 4 22 21 24 18 26
REMARK H PARENT 10 19 12 21 4 23 21 25 18 27
REMARK Flexibility Score: inf
ROOT
ATOM      1  C   UNL     1      26.834  48.662  62.066  1.00  0.00     0.180 A 
ATOM      2  C   UNL     1      28.006  49.207  61.507  1.00  0.00     0.208 A 
ATOM      3  C   UNL     1      27.908  49.955  60.323  1.00  0.00     0.238 A 
ATOM      4  O   UNL     1      28.953  50.438  59.807  1.00  0.00    -0.285 OA
ATOM      5  C   UNL     1      26.646  50.163  59.731  1.00  0.00     0.111 A 
ATOM      6  C   UNL     1      26.461  50.907  58.541  1.00  0.00     0.134 A 
ATOM      7  C   UNL     1      25.170  51.077  58.020  1.00  0.00     0.093 A 
ATOM      8  C   UNL     1      24.062  50.519  58.663  1.00  0.00     0.123 A 
ATOM      9  C   UNL     1      24.239  49.781  59.839  1.00  0.00     0.094 A 
ATOM     10  C   UNL     1      25.517  49.600  60.374  1.00  0.00     0.146 A 
ATOM     11  O   UNL     1      25.658  48.891  61.488  1.00  0.00    -0.452 OA
ENDROOT
BRANCH   1  12
ATOM     12  C   UNL     1      26.857  47.846  63.300  1.00  0.00     0.025 A 
ATOM     13  C   UNL     1      26.832  48.484  64.549  1.00  0.00     0.016 A 
ATOM     14  C   UNL     1      26.834  47.733  65.726  1.00  0.00     0.051 A 
ATOM     15  C   UNL     1      26.846  46.335  65.681  1.00  0.00     0.157 A 
ATOM     16  C   UNL     1      26.847  46.442  63.252  1.00  0.00     0.062 A 
ATOM     17  C   UNL     1      26.846  45.680  64.427  1.00  0.00     0.158 A 
BRANCH  15  18
ATOM     18  O   UNL     1      26.855  45.643  66.894  1.00  0.00    -0.504 OA
ATOM     19  H   UNL     1      26.569  46.046  67.775  1.00  0.00     0.293 HD
ENDBRANCH  15  18
BRANCH  17  20
ATOM     20  O   UNL     1      26.837  44.289  64.303  1.00  0.00    -0.504 OA
ATOM     21  H   UNL     1      25.997  43.730  64.269  1.00  0.00     0.293 HD
ENDBRANCH  17  20
ENDBRANCH   1  12
BRANCH   2  22
ATOM     22  O   UNL     1      29.239  49.029  62.139  1.00  0.00    -0.502 OA
ATOM     23  H   UNL     1      29.688  49.765  62.671  1.00  0.00     0.293 HD
ENDBRANCH   2  22
BRANCH   6  24
ATOM     24  O   UNL     1      27.545  51.479  57.875  1.00  0.00    -0.507 OA
ATOM     25  H   UNL     1      28.004  52.313  58.221  1.00  0.00     0.293 HD
ENDBRANCH   6  24
BRANCH   8  26
ATOM     26  O   UNL     1      22.791  50.702  58.125  1.00  0.00    -0.508 OA
ATOM     27  H   UNL     1      22.335  51.608  58.139  1.00  0.00     0.293 HD
ENDBRANCH   8  26
TORSDOF 6
ENDMDL
MODEL 6
REMARK VINA RESULT:    -4.966      2.079      2.602
REMARK INTER + INTRA:          -6.300
REMARK INTER:                  -5.970
REMARK INTRA:                  -0.330
REMARK UNBOUND:                -0.318
REMARK SMILES O=c1c(O)c(-c2ccc(O)c(O)c2)oc2cc(O)cc(O)c12
REMARK SMILES IDX 5 1 3 2 2 3 1 4 22 5 20 6 19 7 17 8 16 9 15 10 14 11 6 12
REMARK SMILES IDX 7 13 8 14 9 15 13 16 11 17 10 18 12 20 4 22 21 24 18 26
REMARK H PARENT 10 19 12 21 4 23 21 25 18 27
REMARK Flexibility Score: inf
ROOT
ATOM      1  C   UNL     1      25.765  48.758  61.879  1.00  0.00     0.180 A 
ATOM      2  C   UNL     1      25.367  47.429  61.640  1.00  0.00     0.208 A 
ATOM      3  C   UNL     1      25.717  46.438  62.570  1.00  0.00     0.238 A 
ATOM      4  O   UNL     1      25.376  45.242  62.360  1.00  0.00    -0.285 OA
ATOM      5  C   UNL     1      26.439  46.791  63.728  1.00  0.00     0.111 A 
ATOM      6  C   UNL     1      26.828  45.854  64.716  1.00  0.00     0.134 A 
ATOM      7  C   UNL     1      27.536  46.288  65.846  1.00  0.00     0.093 A 
ATOM      8  C   UNL     1      27.864  47.637  66.008  1.00  0.00     0.123 A 
ATOM      9  C   UNL     1      27.483  48.568  65.035  1.00  0.00     0.094 A 
ATOM     10  C   UNL     1      26.777  48.155  63.902  1.00  0.00     0.146 A 
ATOM     11  O   UNL     1      26.432  49.058  62.990  1.00  0.00    -0.452 OA
ENDROOT
BRANCH   1  12
ATOM     12  C   UNL     1      25.451  49.855  60.937  1.00  0.00     0.025 A 
ATOM     13  C   UNL     1      24.343  50.679  61.183  1.00  0.00     0.016 A 
ATOM     14  C   UNL     1      24.040  51.732  60.317  1.00  0.00     0.051 A 
ATOM     15  C   UNL     1      24.841  51.992  59.201  1.00  0.00     0.157 A 
ATOM     16  C   UNL     1      26.270  50.128  59.829  1.00  0.00     0.062 A 
ATOM     17  C   UNL     1      25.976  51.183  58.957  1.00  0.00     0.158 A 
BRANCH  15  18
ATOM     18  O   UNL     1      24.479  53.055  58.371  1.00  0.00    -0.504 OA
ATOM     19  H   UNL     1      23.774  53.739  58.606  1.00  0.00     0.293 HD
ENDBRANCH  15  18
BRANCH  17  20
ATOM     20  O   UNL     1      26.834  51.395  57.876  1.00  0.00    -0.504 OA
ATOM     21  H   UNL     1      27.832  51.246  57.908  1.00  0.00     0.293 HD
ENDBRANCH  17  20
ENDBRANCH   1  12
BRANCH   2  22
ATOM     22  O   UNL     1      24.610  47.111  60.510  1.00  0.00    -0.502 OA
ATOM     23  H   UNL     1      23.613  47.286  60.456  1.00  0.00     0.293 HD
ENDBRANCH   2  22
BRANCH   6  24
ATOM     24  O   UNL     1      26.516  44.501  64.584  1.00  0.00    -0.507 OA
ATOM     25  H   UNL     1      25.646  44.193  64.167  1.00  0.00     0.293 HD
ENDBRANCH   6  24
BRANCH   8  26
ATOM     26  O   UNL     1      28.567  48.041  67.139  1.00  0.00    -0.508 OA
ATOM     27  H   UNL     1      29.550  47.823  67.259  1.00  0.00     0.293 HD
ENDBRANCH   8  26
TORSDOF 6
ENDMDL
MODEL 7
REMARK VINA RESULT:    -4.713      2.072      6.854
REMARK INTER + INTRA:          -5.996
REMARK INTER:                  -5.671
REMARK INTRA:                  -0.325
REMARK UNBOUND:                -0.318
REMARK SMILES O=c1c(O)c(-c2ccc(O)c(O)c2)oc2cc(O)cc(O)c12
REMARK SMILES IDX 5 1 3 2 2 3 1 4 22 5 20 6 19 7 17 8 16 9 15 10 14 11 6 12
REMARK SMILES IDX 7 13 8 14 9 15 13 16 11 17 10 18 12 20 4 22 21 24 18 26
REMARK H PARENT 10 19 12 21 4 23 21 25 18 27
REMARK Flexibility Score: inf
ROOT
ATOM      1  C   UNL     1      26.469  48.451  62.038  1.00  0.00     0.180 A 
ATOM      2  C   UNL     1      25.209  48.798  61.513  1.00  0.00     0.208 A 
ATOM      3  C   UNL     1      25.151  49.552  60.331  1.00  0.00     0.238 A 
ATOM      4  O   UNL     1      24.028  49.878  59.857  1.00  0.00    -0.285 OA
ATOM      5  C   UNL     1      26.345  49.929  59.684  1.00  0.00     0.111 A 
ATOM      6  C   UNL     1      26.374  50.685  58.488  1.00  0.00     0.134 A 
ATOM      7  C   UNL     1      27.605  51.012  57.900  1.00  0.00     0.093 A 
ATOM      8  C   UNL     1      28.805  50.598  58.483  1.00  0.00     0.123 A 
ATOM      9  C   UNL     1      28.784  49.851  59.666  1.00  0.00     0.094 A 
ATOM     10  C   UNL     1      27.567  49.516  60.267  1.00  0.00     0.146 A 
ATOM     11  O   UNL     1      27.574  48.811  61.393  1.00  0.00    -0.452 OA
ENDROOT
BRANCH   1  12
ATOM     12  C   UNL     1      26.613  47.675  63.290  1.00  0.00     0.025 A 
ATOM     13  C   UNL     1      26.668  48.351  64.517  1.00  0.00     0.016 A 
ATOM     14  C   UNL     1      26.784  47.637  65.711  1.00  0.00     0.051 A 
ATOM     15  C   UNL     1      26.831  46.239  65.707  1.00  0.00     0.157 A 
ATOM     16  C   UNL     1      26.637  46.270  63.283  1.00  0.00     0.062 A 
ATOM     17  C   UNL     1      26.750  45.546  64.476  1.00  0.00     0.158 A 
BRANCH  15  18
ATOM     18  O   UNL     1      26.954  45.586  66.935  1.00  0.00    -0.504 OA
ATOM     19  H   UNL     1      27.672  44.906  67.143  1.00  0.00     0.293 HD
ENDBRANCH  15  18
BRANCH  17  20
ATOM     20  O   UNL     1      26.769  44.152  64.394  1.00  0.00    -0.504 OA
ATOM     21  H   UNL     1      27.117  43.547  65.124  1.00  0.00     0.293 HD
ENDBRANCH  17  20
ENDBRANCH   1  12
BRANCH   2  22
ATOM     22  O   UNL     1      24.039  48.371  62.145  1.00  0.00    -0.502 OA
ATOM     23  H   UNL     1      23.117  48.657  61.835  1.00  0.00     0.293 HD
ENDBRANCH   2  22
BRANCH   6  24
ATOM     24  O   UNL     1      25.193  51.112  57.879  1.00  0.00    -0.507 OA
ATOM     25  H   UNL     1      24.285  50.910  58.278  1.00  0.00     0.293 HD
ENDBRANCH   6  24
BRANCH   8  26
ATOM     26  O   UNL     1      30.014  50.936  57.879  1.00  0.00    -0.508 OA
ATOM     27  H   UNL     1      30.649  50.226  57.531  1.00  0.00     0.293 HD
ENDBRANCH   8  26
TORSDOF 6
ENDMDL
MODEL 8
REMARK VINA RESULT:    -4.353      1.383      1.808
REMARK INTER + INTRA:          -5.562
REMARK INTER:                  -5.230
REMARK INTRA:                  -0.332
REMARK UNBOUND:                -0.318
REMARK SMILES O=c1c(O)c(-c2ccc(O)c(O)c2)oc2cc(O)cc(O)c12
REMARK SMILES IDX 5 1 3 2 2 3 1 4 22 5 20 6 19 7 17 8 16 9 15 10 14 11 6 12
REMARK SMILES IDX 7 13 8 14 9 15 13 16 11 17 10 18 12 20 4 22 21 24 18 26
REMARK H PARENT 10 19 12 21 4 23 21 25 18 27
REMARK Flexibility Score: inf
ROOT
ATOM      1  C   UNL     1      26.274  49.192  60.949  1.00  0.00     0.180 A 
ATOM      2  C   UNL     1      27.664  49.411  60.900  1.00  0.00     0.208 A 
ATOM      3  C   UNL     1      28.507  48.601  61.677  1.00  0.00     0.238 A 
ATOM      4  O   UNL     1      29.753  48.796  61.649  1.00  0.00    -0.285 OA
ATOM      5  C   UNL     1      27.953  47.576  62.469  1.00  0.00     0.111 A 
ATOM      6  C   UNL     1      28.732  46.713  63.277  1.00  0.00     0.134 A 
ATOM      7  C   UNL     1      28.104  45.710  64.031  1.00  0.00     0.093 A 
ATOM      8  C   UNL     1      26.717  45.552  63.993  1.00  0.00     0.123 A 
ATOM      9  C   UNL     1      25.941  46.402  63.198  1.00  0.00     0.094 A 
ATOM     10  C   UNL     1      26.547  47.409  62.440  1.00  0.00     0.146 A 
ATOM     11  O   UNL     1      25.787  48.206  61.697  1.00  0.00    -0.452 OA
ENDROOT
BRANCH   1  12
ATOM     12  C   UNL     1      25.320  50.017  60.175  1.00  0.00     0.025 A 
ATOM     13  C   UNL     1      24.907  49.586  58.906  1.00  0.00     0.016 A 
ATOM     14  C   UNL     1      23.993  50.339  58.167  1.00  0.00     0.051 A 
ATOM     15  C   UNL     1      23.462  51.526  58.684  1.00  0.00     0.157 A 
ATOM     16  C   UNL     1      24.771  51.196  60.707  1.00  0.00     0.062 A 
ATOM     17  C   UNL     1      23.851  51.956  59.975  1.00  0.00     0.158 A 
BRANCH  15  18
ATOM     18  O   UNL     1      22.557  52.235  57.892  1.00  0.00    -0.504 OA
ATOM     19  H   UNL     1      22.187  51.895  57.015  1.00  0.00     0.293 HD
ENDBRANCH  15  18
BRANCH  17  20
ATOM     20  O   UNL     1      23.347  53.117  60.565  1.00  0.00    -0.504 OA
ATOM     21  H   UNL     1      22.862  53.137  61.450  1.00  0.00     0.293 HD
ENDBRANCH  17  20
ENDBRANCH   1  12
BRANCH   2  22
ATOM     22  O   UNL     1      28.193  50.401  60.069  1.00  0.00    -0.502 OA
ATOM     23  H   UNL     1      28.608  50.191  59.168  1.00  0.00     0.293 HD
ENDBRANCH   2  22
BRANCH   6  24
ATOM     24  O   UNL     1      30.119  46.843  63.336  1.00  0.00    -0.507 OA
ATOM     25  H   UNL     1      30.738  46.097  63.041  1.00  0.00     0.293 HD
ENDBRANCH   6  24
BRANCH   8  26
ATOM     26  O   UNL     1      26.119  44.548  64.751  1.00  0.00    -0.508 OA
ATOM     27  H   UNL     1      25.753  43.706  64.320  1.00  0.00     0.293 HD
ENDBRANCH   8  26
TORSDOF 6
ENDMDL
