MODEL 1
REMARK VINA RESULT:    -4.506      0.000      0.000
REMARK INTER + INTRA:         -11.432
REMARK INTER:                  -8.457
REMARK INTRA:                  -2.975
REMARK UNBOUND:                -2.975
REMARK SMILES CCCCCCCCC=CCCCCCCCC(=O)[O-]
REMARK SMILES IDX 10 1 9 2 11 3 12 4 13 5 14 6 15 7 16 8 17 9 18 10 19 11
REMARK SMILES IDX 20 12 8 13 7 14 6 15 5 16 4 17 3 18 2 19 1 20
REMARK H PARENT
REMARK Flexibility Score: inf
ROOT
ATOM      1  C   UNL     1      18.523  12.707  30.207  1.00  0.00    -0.031 C 
ATOM      2  C   UNL     1      17.677  13.738  30.389  1.00  0.00    -0.031 C 
ENDROOT
BRANCH   1   3
ATOM      3  C   UNL     1      18.150  11.252  30.362  1.00  0.00     0.027 C 
BRANCH   3   4
ATOM      4  C   UNL     1      19.123  10.508  31.286  1.00  0.00     0.004 C 
BRANCH   4   5
ATOM      5  C   UNL     1      18.392   9.609  32.296  1.00  0.00     0.000 C 
BRANCH   5   6
ATOM      6  C   UNL     1      17.503  10.442  33.230  1.00  0.00     0.000 C 
BRANCH   6   7
ATOM      7  C   UNL     1      18.309  11.434  34.083  1.00  0.00     0.000 C 
BRANCH   7   8
ATOM      8  C   UNL     1      17.719  12.855  34.055  1.00  0.00     0.006 C 
BRANCH   8   9
ATOM      9  C   UNL     1      18.810  13.932  33.970  1.00  0.00     0.053 C 
BRANCH   9  10
ATOM     10  C   UNL     1      19.828  13.777  35.057  1.00  0.00     0.041 C 
ATOM     11  O   UNL     1      19.495  13.922  36.263  1.00  0.00    -0.550 OA
ATOM     12  O   UNL     1      21.153  13.505  34.738  1.00  0.00    -0.550 OA
ENDBRANCH   9  10
ENDBRANCH   8   9
ENDBRANCH   7   8
ENDBRANCH   6   7
ENDBRANCH   5   6
ENDBRANCH   4   5
ENDBRANCH   3   4
ENDBRANCH   1   3
BRANCH   2  13
ATOM     13  C   UNL     1      16.202  13.598  30.678  1.00  0.00     0.027 C 
BRANCH  13  14
ATOM     14  C   UNL     1      15.362  14.607  29.880  1.00  0.00     0.004 C 
BRANCH  14  15
ATOM     15  C   UNL     1      16.074  15.060  28.593  1.00  0.00     0.000 C 
BRANCH  15  16
ATOM     16  C   UNL     1      15.544  14.343  27.340  1.00  0.00     0.000 C 
BRANCH  16  17
ATOM     17  C   UNL     1      16.604  13.456  26.671  1.00  0.00    -0.000 C 
BRANCH  17  18
ATOM     18  C   UNL     1      16.490  12.004  27.159  1.00  0.00    -0.000 C 
BRANCH  18  19
ATOM     19  C   UNL     1      15.069  11.645  27.621  1.00  0.00    -0.003 C 
ATOM     20  C   UNL     1      15.054  10.566  28.703  1.00  0.00     0.004 C 
ENDBRANCH  18  19
ENDBRANCH  17  18
ENDBRANCH  16  17
ENDBRANCH  15  16
ENDBRANCH  14  15
ENDBRANCH  13  14
ENDBRANCH   2  13
TORSDOF 15
ENDMDL
MODEL 2
REMARK VINA RESULT:    -4.336      3.283      6.617
REMARK INTER + INTRA:         -11.112
REMARK INTER:                  -8.355
REMARK INTRA:                  -2.758
REMARK UNBOUND:                -2.975
REMARK SMILES CCCCCCCCC=CCCCCCCCC(=O)[O-]
REMARK SMILES IDX 10 1 9 2 11 3 12 4 13 5 14 6 15 7 16 8 17 9 18 10 19 11
REMARK SMILES IDX 20 12 8 13 7 14 6 15 5 16 4 17 3 18 2 19 1 20
REMARK H PARENT
REMARK Flexibility Score: inf
ROOT
ATOM      1  C   UNL     1      16.896  13.151  32.522  1.00  0.00    -0.031 C 
ATOM      2  C   UNL     1      17.416  13.219  33.762  1.00  0.00    -0.031 C 
ENDROOT
BRANCH   1   3
ATOM      3  C   UNL     1      17.390  13.946  31.338  1.00  0.00     0.027 C 
BRANCH   3   4
ATOM      4  C   UNL     1      18.271  13.101  30.408  1.00  0.00     0.004 C 
BRANCH   4   5
ATOM      5  C   UNL     1      17.729  11.673  30.234  1.00  0.00     0.000 C 
BRANCH   5   6
ATOM      6  C   UNL     1      16.874  11.563  28.964  1.00  0.00     0.000 C 
BRANCH   6   7
ATOM      7  C   UNL     1      17.389  12.457  27.825  1.00  0.00     0.000 C 
BRANCH   7   8
ATOM      8  C   UNL     1      16.273  13.296  27.179  1.00  0.00     0.006 C 
BRANCH   8   9
ATOM      9  C   UNL     1      16.049  14.624  27.914  1.00  0.00     0.053 C 
BRANCH   9  10
ATOM     10  C   UNL     1      14.644  14.748  28.419  1.00  0.00     0.041 C 
ATOM     11  O   UNL     1      13.944  15.748  28.108  1.00  0.00    -0.550 OA
ATOM     12  O   UNL     1      14.118  13.777  29.262  1.00  0.00    -0.550 OA
ENDBRANCH   9  10
ENDBRANCH   8   9
ENDBRANCH   7   8
ENDBRANCH   6   7
ENDBRANCH   5   6
ENDBRANCH   4   5
ENDBRANCH   3   4
ENDBRANCH   1   3
BRANCH   2  13
ATOM     13  C   UNL     1      18.636  14.025  34.138  1.00  0.00     0.027 C 
BRANCH  13  14
ATOM     14  C   UNL     1      19.723  13.153  34.784  1.00  0.00     0.004 C 
BRANCH  14  15
ATOM     15  C   UNL     1      20.839  12.790  33.789  1.00  0.00     0.000 C 
BRANCH  15  16
ATOM     16  C   UNL     1      20.471  11.595  32.896  1.00  0.00     0.000 C 
BRANCH  16  17
ATOM     17  C   UNL     1      20.132  10.332  33.704  1.00  0.00    -0.000 C 
BRANCH  17  18
ATOM     18  C   UNL     1      18.756   9.779  33.304  1.00  0.00    -0.000 C 
BRANCH  18  19
ATOM     19  C   UNL     1      17.801   9.650  34.501  1.00  0.00    -0.003 C 
ATOM     20  C   UNL     1      18.507   9.835  35.844  1.00  0.00     0.004 C 
ENDBRANCH  18  19
ENDBRANCH  17  18
ENDBRANCH  16  17
ENDBRANCH  15  16
ENDBRANCH  14  15
ENDBRANCH  13  14
ENDBRANCH   2  13
TORSDOF 15
ENDMDL
MODEL 3
REMARK VINA RESULT:    -4.326     11.077     13.237
REMARK INTER + INTRA:         -11.094
REMARK INTER:                  -8.299
REMARK INTRA:                  -2.795
REMARK UNBOUND:                -2.975
REMARK SMILES CCCCCCCCC=CCCCCCCCC(=O)[O-]
REMARK SMILES IDX 10 1 9 2 11 3 12 4 13 5 14 6 15 7 16 8 17 9 18 10 19 11
REMARK SMILES IDX 20 12 8 13 7 14 6 15 5 16 4 17 3 18 2 19 1 20
REMARK H PARENT
REMARK Flexibility Score: inf
ROOT
ATOM      1  C   UNL     1      11.753  25.578  34.732  1.00  0.00    -0.031 C 
ATOM      2  C   UNL     1      11.060  24.705  33.978  1.00  0.00    -0.031 C 
ENDROOT
BRANCH   1   3
ATOM      3  C   UNL     1      13.256  25.583  34.880  1.00  0.00     0.027 C 
BRANCH   3   4
ATOM      4  C   UNL     1      13.712  24.785  36.109  1.00  0.00     0.004 C 
BRANCH   4   5
ATOM      5  C   UNL     1      14.899  23.860  35.792  1.00  0.00     0.000 C 
BRANCH   5   6
ATOM      6  C   UNL     1      15.238  23.895  34.295  1.00  0.00     0.000 C 
BRANCH   6   7
ATOM      7  C   UNL     1      16.212  22.780  33.884  1.00  0.00     0.000 C 
BRANCH   7   8
ATOM      8  C   UNL     1      17.384  22.626  34.868  1.00  0.00     0.006 C 
BRANCH   8   9
ATOM      9  C   UNL     1      18.708  23.127  34.274  1.00  0.00     0.053 C 
BRANCH   9  10
ATOM     10  C   UNL     1      18.890  24.598  34.489  1.00  0.00     0.041 C 
ATOM     11  O   UNL     1      19.576  25.277  33.680  1.00  0.00    -0.550 OA
ATOM     12  O   UNL     1      18.331  25.214  35.602  1.00  0.00    -0.550 OA
ENDBRANCH   9  10
ENDBRANCH   8   9
ENDBRANCH   7   8
ENDBRANCH   6   7
ENDBRANCH   5   6
ENDBRANCH   4   5
ENDBRANCH   3   4
ENDBRANCH   1   3
BRANCH   2  13
ATOM     13  C   UNL     1      11.682  23.659  33.085  1.00  0.00     0.027 C 
BRANCH  13  14
ATOM     14  C   UNL     1      11.118  22.258  33.363  1.00  0.00     0.004 C 
BRANCH  14  15
ATOM     15  C   UNL     1      12.140  21.356  34.078  1.00  0.00     0.000 C 
BRANCH  15  16
ATOM     16  C   UNL     1      12.094  21.507  35.607  1.00  0.00     0.000 C 
BRANCH  16  17
ATOM     17  C   UNL     1      10.670  21.725  36.140  1.00  0.00    -0.000 C 
BRANCH  17  18
ATOM     18  C   UNL     1      10.621  22.928  37.095  1.00  0.00    -0.000 C 
BRANCH  18  19
ATOM     19  C   UNL     1       9.194  23.460  37.302  1.00  0.00    -0.003 C 
ATOM     20  C   UNL     1       9.100  24.977  37.145  1.00  0.00     0.004 C 
ENDBRANCH  18  19
ENDBRANCH  17  18
ENDBRANCH  16  17
ENDBRANCH  15  16
ENDBRANCH  14  15
ENDBRANCH  13  14
ENDBRANCH   2  13
TORSDOF 15
ENDMDL
MODEL 4
REMARK VINA RESULT:    -4.277      3.224      6.710
REMARK INTER + INTRA:         -11.002
REMARK INTER:                  -8.138
REMARK INTRA:                  -2.864
REMARK UNBOUND:                -2.975
REMARK SMILES CCCCCCCCC=CCCCCCCCC(=O)[O-]
REMARK SMILES IDX 10 1 9 2 11 3 12 4 13 5 14 6 15 7 16 8 17 9 18 10 19 11
REMARK SMILES IDX 20 12 8 13 7 14 6 15 5 16 4 17 3 18 2 19 1 20
REMARK H PARENT
REMARK Flexibility Score: inf
ROOT
ATOM      1  C   UNL     1      17.882  13.298  34.885  1.00  0.00    -0.031 C 
ATOM      2  C   UNL     1      19.175  13.199  35.246  1.00  0.00    -0.031 C 
ENDROOT
BRANCH   1   3
ATOM      3  C   UNL     1      17.401  13.743  33.525  1.00  0.00     0.027 C 
BRANCH   3   4
ATOM      4  C   UNL     1      16.614  12.638  32.807  1.00  0.00     0.004 C 
BRANCH   4   5
ATOM      5  C   UNL     1      16.841  12.658  31.288  1.00  0.00     0.000 C 
BRANCH   5   6
ATOM      6  C   UNL     1      17.638  13.901  30.868  1.00  0.00     0.000 C 
BRANCH   6   7
ATOM      7  C   UNL     1      16.743  15.014  30.302  1.00  0.00     0.000 C 
BRANCH   7   8
ATOM      8  C   UNL     1      15.429  14.475  29.710  1.00  0.00     0.006 C 
BRANCH   8   9
ATOM      9  C   UNL     1      15.493  14.346  28.181  1.00  0.00     0.053 C 
BRANCH   9  10
ATOM     10  C   UNL     1      15.677  12.924  27.752  1.00  0.00     0.041 C 
ATOM     11  O   UNL     1      14.771  12.075  27.964  1.00  0.00    -0.550 OA
ATOM     12  O   UNL     1      16.863  12.526  27.147  1.00  0.00    -0.550 OA
ENDBRANCH   9  10
ENDBRANCH   8   9
ENDBRANCH   7   8
ENDBRANCH   6   7
ENDBRANCH   5   6
ENDBRANCH   4   5
ENDBRANCH   3   4
ENDBRANCH   1   3
BRANCH   2  13
ATOM     13  C   UNL     1      20.345  13.422  34.318  1.00  0.00     0.027 C 
BRANCH  13  14
ATOM     14  C   UNL     1      20.876  12.102  33.738  1.00  0.00     0.004 C 
BRANCH  14  15
ATOM     15  C   UNL     1      20.284  11.802  32.350  1.00  0.00     0.000 C 
BRANCH  15  16
ATOM     16  C   UNL     1      19.763  10.361  32.228  1.00  0.00     0.000 C 
BRANCH  16  17
ATOM     17  C   UNL     1      19.482   9.713  33.592  1.00  0.00    -0.000 C 
BRANCH  17  18
ATOM     18  C   UNL     1      17.971   9.589  33.838  1.00  0.00    -0.000 C 
BRANCH  18  19
ATOM     19  C   UNL     1      17.633   9.308  35.311  1.00  0.00    -0.003 C 
ATOM     20  C   UNL     1      18.753   9.721  36.264  1.00  0.00     0.004 C 
ENDBRANCH  18  19
ENDBRANCH  17  18
ENDBRANCH  16  17
ENDBRANCH  15  16
ENDBRANCH  14  15
ENDBRANCH  13  14
ENDBRANCH   2  13
TORSDOF 15
ENDMDL
MODEL 5
REMARK VINA RESULT:    -4.212     10.931     13.202
REMARK INTER + INTRA:         -10.881
REMARK INTER:                  -8.306
REMARK INTRA:                  -2.575
REMARK UNBOUND:                -2.975
REMARK SMILES CCCCCCCCC=CCCCCCCCC(=O)[O-]
REMARK SMILES IDX 10 1 9 2 11 3 12 4 13 5 14 6 15 7 16 8 17 9 18 10 19 11
REMARK SMILES IDX 20 12 8 13 7 14 6 15 5 16 4 17 3 18 2 19 1 20
REMARK H PARENT
REMARK Flexibility Score: inf
ROOT
ATOM      1  C   UNL     1      11.248  21.384  35.832  1.00  0.00    -0.031 C 
ATOM      2  C   UNL     1      10.751  22.389  36.577  1.00  0.00    -0.031 C 
ENDROOT
BRANCH   1   3
ATOM      3  C   UNL     1      11.543  21.473  34.354  1.00  0.00     0.027 C 
BRANCH   3   4
ATOM      4  C   UNL     1      13.023  21.776  34.083  1.00  0.00     0.004 C 
BRANCH   4   5
ATOM      5  C   UNL     1      13.922  21.380  35.265  1.00  0.00     0.000 C 
BRANCH   5   6
ATOM      6  C   UNL     1      14.896  22.514  35.617  1.00  0.00     0.000 C 
BRANCH   6   7
ATOM      7  C   UNL     1      15.211  23.418  34.415  1.00  0.00     0.000 C 
BRANCH   7   8
ATOM      8  C   UNL     1      16.714  23.478  34.097  1.00  0.00     0.006 C 
BRANCH   8   9
ATOM      9  C   UNL     1      17.546  22.632  35.071  1.00  0.00     0.053 C 
BRANCH   9  10
ATOM     10  C   UNL     1      19.016  22.845  34.874  1.00  0.00     0.041 C 
ATOM     11  O   UNL     1      19.848  22.079  35.429  1.00  0.00    -0.550 OA
ATOM     12  O   UNL     1      19.469  23.911  34.106  1.00  0.00    -0.550 OA
ENDBRANCH   9  10
ENDBRANCH   8   9
ENDBRANCH   7   8
ENDBRANCH   6   7
ENDBRANCH   5   6
ENDBRANCH   4   5
ENDBRANCH   3   4
ENDBRANCH   1   3
BRANCH   2  13
ATOM     13  C   UNL     1      10.505  23.790  36.073  1.00  0.00     0.027 C 
BRANCH  13  14
ATOM     14  C   UNL     1      11.639  24.749  36.466  1.00  0.00     0.004 C 
BRANCH  14  15
ATOM     15  C   UNL     1      12.238  25.467  35.243  1.00  0.00     0.000 C 
BRANCH  15  16
ATOM     16  C   UNL     1      13.267  26.540  35.632  1.00  0.00     0.000 C 
BRANCH  16  17
ATOM     17  C   UNL     1      14.343  26.011  36.593  1.00  0.00    -0.000 C 
BRANCH  17  18
ATOM     18  C   UNL     1      15.487  27.025  36.746  1.00  0.00    -0.000 C 
BRANCH  18  19
ATOM     19  C   UNL     1      16.874  26.371  36.646  1.00  0.00    -0.003 C 
ATOM     20  C   UNL     1      17.063  25.229  37.643  1.00  0.00     0.004 C 
ENDBRANCH  18  19
ENDBRANCH  17  18
ENDBRANCH  16  17
ENDBRANCH  15  16
ENDBRANCH  14  15
ENDBRANCH  13  14
ENDBRANCH   2  13
TORSDOF 15
ENDMDL
MODEL 6
REMARK VINA RESULT:    -4.208      1.313      2.784
REMARK INTER + INTRA:         -10.873
REMARK INTER:                  -8.165
REMARK INTRA:                  -2.708
REMARK UNBOUND:                -2.975
REMARK SMILES CCCCCCCCC=CCCCCCCCC(=O)[O-]
REMARK SMILES IDX 10 1 9 2 11 3 12 4 13 5 14 6 15 7 16 8 17 9 18 10 19 11
REMARK SMILES IDX 20 12 8 13 7 14 6 15 5 16 4 17 3 18 2 19 1 20
REMARK H PARENT
REMARK Flexibility Score: inf
ROOT
ATOM      1  C   UNL     1      16.360  14.744  30.211  1.00  0.00    -0.031 C 
ATOM      2  C   UNL     1      15.130  14.574  29.690  1.00  0.00    -0.031 C 
ENDROOT
BRANCH   1   3
ATOM      3  C   UNL     1      17.554  13.876  29.897  1.00  0.00     0.027 C 
BRANCH   3   4
ATOM      4  C   UNL     1      17.976  13.024  31.102  1.00  0.00     0.004 C 
BRANCH   4   5
ATOM      5  C   UNL     1      16.795  12.713  32.035  1.00  0.00     0.000 C 
BRANCH   5   6
ATOM      6  C   UNL     1      17.088  11.477  32.898  1.00  0.00     0.000 C 
BRANCH   6   7
ATOM      7  C   UNL     1      18.578  11.102  32.906  1.00  0.00     0.000 C 
BRANCH   7   8
ATOM      8  C   UNL     1      19.180  11.098  34.321  1.00  0.00     0.006 C 
BRANCH   8   9
ATOM      9  C   UNL     1      18.443  12.057  35.267  1.00  0.00     0.053 C 
BRANCH   9  10
ATOM     10  C   UNL     1      19.118  13.392  35.339  1.00  0.00     0.041 C 
ATOM     11  O   UNL     1      19.749  13.728  36.376  1.00  0.00    -0.550 OA
ATOM     12  O   UNL     1      19.022  14.280  34.275  1.00  0.00    -0.550 OA
ENDBRANCH   9  10
ENDBRANCH   8   9
ENDBRANCH   7   8
ENDBRANCH   6   7
ENDBRANCH   5   6
ENDBRANCH   4   5
ENDBRANCH   3   4
ENDBRANCH   1   3
BRANCH   2  13
ATOM     13  C   UNL     1      14.778  13.553  28.636  1.00  0.00     0.027 C 
BRANCH  13  14
ATOM     14  C   UNL     1      14.374  12.206  29.254  1.00  0.00     0.004 C 
BRANCH  14  15
ATOM     15  C   UNL     1      14.973  11.015  28.485  1.00  0.00     0.000 C 
BRANCH  15  16
ATOM     16  C   UNL     1      16.225  10.441  29.165  1.00  0.00     0.000 C 
BRANCH  16  17
ATOM     17  C   UNL     1      17.477  10.533  28.280  1.00  0.00    -0.000 C 
BRANCH  17  18
ATOM     18  C   UNL     1      17.113  11.002  26.863  1.00  0.00    -0.000 C 
BRANCH  18  19
ATOM     19  C   UNL     1      17.759  12.348  26.501  1.00  0.00    -0.003 C 
ATOM     20  C   UNL     1      16.802  13.284  25.764  1.00  0.00     0.004 C 
ENDBRANCH  18  19
ENDBRANCH  17  18
ENDBRANCH  16  17
ENDBRANCH  15  16
ENDBRANCH  14  15
ENDBRANCH  13  14
ENDBRANCH   2  13
TORSDOF 15
ENDMDL
MODEL 7
REMARK VINA RESULT:    -4.206      1.122      1.425
REMARK INTER + INTRA:         -10.869
REMARK INTER:                  -8.462
REMARK INTRA:                  -2.408
REMARK UNBOUND:                -2.975
REMARK SMILES CCCCCCCCC=CCCCCCCCC(=O)[O-]
REMARK SMILES IDX 10 1 9 2 11 3 12 4 13 5 14 6 15 7 16 8 17 9 18 10 19 11
REMARK SMILES IDX 20 12 8 13 7 14 6 15 5 16 4 17 3 18 2 19 1 20
REMARK H PARENT
REMARK Flexibility Score: inf
ROOT
ATOM      1  C   UNL     1      16.853  11.276  30.792  1.00  0.00    -0.031 C 
ATOM      2  C   UNL     1      16.457  12.553  30.944  1.00  0.00    -0.031 C 
ENDROOT
BRANCH   1   3
ATOM      3  C   UNL     1      18.219  10.850  30.309  1.00  0.00     0.027 C 
BRANCH   3   4
ATOM      4  C   UNL     1      18.965  10.020  31.362  1.00  0.00     0.004 C 
BRANCH   4   5
ATOM      5  C   UNL     1      18.248  10.025  32.721  1.00  0.00     0.000 C 
BRANCH   5   6
ATOM      6  C   UNL     1      19.247  10.232  33.869  1.00  0.00     0.000 C 
BRANCH   6   7
ATOM      7  C   UNL     1      18.698  11.148  34.973  1.00  0.00     0.000 C 
BRANCH   7   8
ATOM      8  C   UNL     1      17.968  12.381  34.412  1.00  0.00     0.006 C 
BRANCH   8   9
ATOM      9  C   UNL     1      18.945  13.461  33.926  1.00  0.00     0.053 C 
BRANCH   9  10
ATOM     10  C   UNL     1      20.034  13.710  34.923  1.00  0.00     0.041 C 
ATOM     11  O   UNL     1      19.759  14.183  36.058  1.00  0.00    -0.550 OA
ATOM     12  O   UNL     1      21.358  13.453  34.589  1.00  0.00    -0.550 OA
ENDBRANCH   9  10
ENDBRANCH   8   9
ENDBRANCH   7   8
ENDBRANCH   6   7
ENDBRANCH   5   6
ENDBRANCH   4   5
ENDBRANCH   3   4
ENDBRANCH   1   3
BRANCH   2  13
ATOM     13  C   UNL     1      17.348  13.757  30.750  1.00  0.00     0.027 C 
BRANCH  13  14
ATOM     14  C   UNL     1      16.709  14.799  29.819  1.00  0.00     0.004 C 
BRANCH  14  15
ATOM     15  C   UNL     1      15.206  14.545  29.612  1.00  0.00     0.000 C 
BRANCH  15  16
ATOM     16  C   UNL     1      14.846  14.286  28.141  1.00  0.00     0.000 C 
BRANCH  16  17
ATOM     17  C   UNL     1      15.981  14.661  27.177  1.00  0.00    -0.000 C 
BRANCH  17  18
ATOM     18  C   UNL     1      16.416  13.446  26.343  1.00  0.00    -0.000 C 
BRANCH  18  19
ATOM     19  C   UNL     1      17.332  12.491  27.124  1.00  0.00    -0.003 C 
ATOM     20  C   UNL     1      17.157  11.031  26.707  1.00  0.00     0.004 C 
ENDBRANCH  18  19
ENDBRANCH  17  18
ENDBRANCH  16  17
ENDBRANCH  15  16
ENDBRANCH  14  15
ENDBRANCH  13  14
ENDBRANCH   2  13
TORSDOF 15
ENDMDL
MODEL 8
REMARK VINA RESULT:    -4.198      1.058      2.734
REMARK INTER + INTRA:         -10.854
REMARK INTER:                  -8.362
REMARK INTRA:                  -2.492
REMARK UNBOUND:                -2.975
REMARK SMILES CCCCCCCCC=CCCCCCCCC(=O)[O-]
REMARK SMILES IDX 10 1 9 2 11 3 12 4 13 5 14 6 15 7 16 8 17 9 18 10 19 11
REMARK SMILES IDX 20 12 8 13 7 14 6 15 5 16 4 17 3 18 2 19 1 20
REMARK H PARENT
REMARK Flexibility Score: inf
ROOT
ATOM      1  C   UNL     1      16.445  10.278  29.263  1.00  0.00    -0.031 C 
ATOM      2  C   UNL     1      16.325  10.686  27.986  1.00  0.00    -0.031 C 
ENDROOT
BRANCH   1   3
ATOM      3  C   UNL     1      17.755   9.959  29.943  1.00  0.00     0.027 C 
BRANCH   3   4
ATOM      4  C   UNL     1      18.295  11.158  30.735  1.00  0.00     0.004 C 
BRANCH   4   5
ATOM      5  C   UNL     1      18.798  10.753  32.130  1.00  0.00     0.000 C 
BRANCH   5   6
ATOM      6  C   UNL     1      17.683  10.892  33.176  1.00  0.00     0.000 C 
BRANCH   6   7
ATOM      7  C   UNL     1      16.826  12.149  32.964  1.00  0.00     0.000 C 
BRANCH   7   8
ATOM      8  C   UNL     1      17.462  13.410  33.574  1.00  0.00     0.006 C 
BRANCH   8   9
ATOM      9  C   UNL     1      18.062  13.142  34.962  1.00  0.00     0.053 C 
BRANCH   9  10
ATOM     10  C   UNL     1      19.478  13.621  35.055  1.00  0.00     0.041 C 
ATOM     11  O   UNL     1      20.269  13.456  34.089  1.00  0.00    -0.550 OA
ATOM     12  O   UNL     1      19.935  14.222  36.222  1.00  0.00    -0.550 OA
ENDBRANCH   9  10
ENDBRANCH   8   9
ENDBRANCH   7   8
ENDBRANCH   6   7
ENDBRANCH   5   6
ENDBRANCH   4   5
ENDBRANCH   3   4
ENDBRANCH   1   3
BRANCH   2  13
ATOM     13  C   UNL     1      17.485  10.982  27.066  1.00  0.00     0.027 C 
BRANCH  13  14
ATOM     14  C   UNL     1      17.455  12.430  26.553  1.00  0.00     0.004 C 
BRANCH  14  15
ATOM     15  C   UNL     1      16.037  13.026  26.587  1.00  0.00     0.000 C 
BRANCH  15  16
ATOM     16  C   UNL     1      16.040  14.563  26.580  1.00  0.00     0.000 C 
BRANCH  16  17
ATOM     17  C   UNL     1      15.420  15.164  27.851  1.00  0.00    -0.000 C 
BRANCH  17  18
ATOM     18  C   UNL     1      14.945  14.057  28.805  1.00  0.00    -0.000 C 
BRANCH  18  19
ATOM     19  C   UNL     1      15.685  14.081  30.152  1.00  0.00    -0.003 C 
ATOM     20  C   UNL     1      17.160  14.452  30.010  1.00  0.00     0.004 C 
ENDBRANCH  18  19
ENDBRANCH  17  18
ENDBRANCH  16  17
ENDBRANCH  15  16
ENDBRANCH  14  15
ENDBRANCH  13  14
ENDBRANCH   2  13
TORSDOF 15
ENDMDL
MODEL 9
REMARK VINA RESULT:    -4.137     11.161     13.382
REMARK INTER + INTRA:         -10.739
REMARK INTER:                  -7.775
REMARK INTRA:                  -2.964
REMARK UNBOUND:                -2.975
REMARK SMILES CCCCCCCCC=CCCCCCCCC(=O)[O-]
REMARK SMILES IDX 10 1 9 2 11 3 12 4 13 5 14 6 15 7 16 8 17 9 18 10 19 11
REMARK SMILES IDX 20 12 8 13 7 14 6 15 5 16 4 17 3 18 2 19 1 20
REMARK H PARENT
REMARK Flexibility Score: inf
ROOT
ATOM      1  C   UNL     1      14.304  23.841  36.373  1.00  0.00    -0.031 C 
ATOM      2  C   UNL     1      14.292  22.499  36.268  1.00  0.00    -0.031 C 
ENDROOT
BRANCH   1   3
ATOM      3  C   UNL     1      14.558  24.791  35.227  1.00  0.00     0.027 C 
BRANCH   3   4
ATOM      4  C   UNL     1      14.186  26.235  35.589  1.00  0.00     0.004 C 
BRANCH   4   5
ATOM      5  C   UNL     1      15.035  26.781  36.748  1.00  0.00     0.000 C 
BRANCH   5   6
ATOM      6  C   UNL     1      16.533  26.607  36.460  1.00  0.00     0.000 C 
BRANCH   6   7
ATOM      7  C   UNL     1      17.269  25.864  37.587  1.00  0.00     0.000 C 
BRANCH   7   8
ATOM      8  C   UNL     1      17.853  24.518  37.126  1.00  0.00     0.006 C 
BRANCH   8   9
ATOM      9  C   UNL     1      18.120  24.490  35.614  1.00  0.00     0.053 C 
BRANCH   9  10
ATOM     10  C   UNL     1      18.081  23.095  35.071  1.00  0.00     0.041 C 
ATOM     11  O   UNL     1      18.602  22.147  35.717  1.00  0.00    -0.550 OA
ATOM     12  O   UNL     1      17.498  22.845  33.834  1.00  0.00    -0.550 OA
ENDBRANCH   9  10
ENDBRANCH   8   9
ENDBRANCH   7   8
ENDBRANCH   6   7
ENDBRANCH   5   6
ENDBRANCH   4   5
ENDBRANCH   3   4
ENDBRANCH   1   3
BRANCH   2  13
ATOM     13  C   UNL     1      14.432  21.738  34.972  1.00  0.00     0.027 C 
BRANCH  13  14
ATOM     14  C   UNL     1      13.083  21.565  34.259  1.00  0.00     0.004 C 
BRANCH  14  15
ATOM     15  C   UNL     1      11.938  21.288  35.250  1.00  0.00     0.000 C 
BRANCH  15  16
ATOM     16  C   UNL     1      10.790  22.302  35.126  1.00  0.00     0.000 C 
BRANCH  16  17
ATOM     17  C   UNL     1      11.151  23.503  34.238  1.00  0.00    -0.000 C 
BRANCH  17  18
ATOM     18  C   UNL     1      10.738  24.823  34.907  1.00  0.00    -0.000 C 
BRANCH  18  19
ATOM     19  C   UNL     1      10.207  24.621  36.334  1.00  0.00    -0.003 C 
ATOM     20  C   UNL     1      11.087  25.286  37.392  1.00  0.00     0.004 C 
ENDBRANCH  18  19
ENDBRANCH  17  18
ENDBRANCH  16  17
ENDBRANCH  15  16
ENDBRANCH  14  15
ENDBRANCH  13  14
ENDBRANCH   2  13
TORSDOF 15
ENDMDL
