MODEL 1
REMARK VINA RESULT:    -4.133      0.000      0.000
REMARK INTER + INTRA:          -8.938
REMARK INTER:                  -7.033
REMARK INTRA:                  -1.905
REMARK UNBOUND:                -1.905
REMARK SMILES CCCCCCCCCCCCCC(=O)[O-]
REMARK SMILES IDX 8 1 9 2 10 3 11 4 12 5 13 6 14 7 15 8 16 9 7 10 6 11 5 12
REMARK SMILES IDX 4 13 3 14 2 15 1 16
REMARK H PARENT
REMARK Flexibility Score: inf
ROOT
ATOM      1  C   UNL     1      18.181  -6.135 -17.541  1.00  0.00     0.000 C 
ENDROOT
BRANCH   1   2
ATOM      2  C   UNL     1      19.559  -6.438 -16.933  1.00  0.00     0.000 C 
BRANCH   2   3
ATOM      3  C   UNL     1      20.662  -5.509 -17.467  1.00  0.00     0.000 C 
BRANCH   3   4
ATOM      4  C   UNL     1      20.114  -4.151 -17.935  1.00  0.00     0.000 C 
BRANCH   4   5
ATOM      5  C   UNL     1      21.141  -3.342 -18.749  1.00  0.00     0.006 C 
BRANCH   5   6
ATOM      6  C   UNL     1      20.751  -3.115 -20.219  1.00  0.00     0.053 C 
BRANCH   6   7
ATOM      7  C   UNL     1      21.158  -4.262 -21.093  1.00  0.00     0.041 C 
ATOM      8  O   UNL     1      22.076  -5.042 -20.727  1.00  0.00    -0.550 OA
ATOM      9  O   UNL     1      20.502  -4.487 -22.296  1.00  0.00    -0.550 OA
ENDBRANCH   6   7
ENDBRANCH   5   6
ENDBRANCH   4   5
ENDBRANCH   3   4
ENDBRANCH   2   3
ENDBRANCH   1   2
BRANCH   1  10
ATOM     10  C   UNL     1      17.098  -6.099 -16.452  1.00  0.00     0.000 C 
BRANCH  10  11
ATOM     11  C   UNL     1      16.730  -4.669 -16.015  1.00  0.00    -0.000 C 
BRANCH  11  12
ATOM     12  C   UNL     1      16.006  -3.823 -17.079  1.00  0.00    -0.000 C 
BRANCH  12  13
ATOM     13  C   UNL     1      16.784  -2.556 -17.470  1.00  0.00    -0.000 C 
BRANCH  13  14
ATOM     14  C   UNL     1      17.051  -2.466 -18.982  1.00  0.00    -0.000 C 
BRANCH  14  15
ATOM     15  C   UNL     1      16.337  -3.560 -19.804  1.00  0.00    -0.003 C 
ATOM     16  C   UNL     1      17.303  -4.341 -20.694  1.00  0.00     0.004 C 
ENDBRANCH  14  15
ENDBRANCH  13  14
ENDBRANCH  12  13
ENDBRANCH  11  12
ENDBRANCH  10  11
ENDBRANCH   1  10
TORSDOF 12
ENDMDL
MODEL 2
REMARK VINA RESULT:    -4.018      2.414      4.826
REMARK INTER + INTRA:          -8.742
REMARK INTER:                  -6.964
REMARK INTRA:                  -1.778
REMARK UNBOUND:                -1.905
REMARK SMILES CCCCCCCCCCCCCC(=O)[O-]
REMARK SMILES IDX 8 1 9 2 10 3 11 4 12 5 13 6 14 7 15 8 16 9 7 10 6 11 5 12
REMARK SMILES IDX 4 13 3 14 2 15 1 16
REMARK H PARENT
REMARK Flexibility Score: inf
ROOT
ATOM      1  C   UNL     1      20.850  -5.122 -17.533  1.00  0.00     0.000 C 
ENDROOT
BRANCH   1   2
ATOM      2  C   UNL     1      19.458  -5.658 -17.900  1.00  0.00     0.000 C 
BRANCH   2   3
ATOM      3  C   UNL     1      18.722  -6.276 -16.700  1.00  0.00     0.000 C 
BRANCH   3   4
ATOM      4  C   UNL     1      17.201  -6.063 -16.767  1.00  0.00     0.000 C 
BRANCH   4   5
ATOM      5  C   UNL     1      16.749  -4.770 -16.064  1.00  0.00     0.006 C 
BRANCH   5   6
ATOM      6  C   UNL     1      16.542  -3.572 -17.006  1.00  0.00     0.053 C 
BRANCH   6   7
ATOM      7  C   UNL     1      15.825  -3.963 -18.262  1.00  0.00     0.041 C 
ATOM      8  O   UNL     1      14.591  -4.209 -18.237  1.00  0.00    -0.550 OA
ATOM      9  O   UNL     1      16.514  -4.022 -19.467  1.00  0.00    -0.550 OA
ENDBRANCH   6   7
ENDBRANCH   5   6
ENDBRANCH   4   5
ENDBRANCH   3   4
ENDBRANCH   2   3
ENDBRANCH   1   2
BRANCH   1  10
ATOM     10  C   UNL     1      21.076  -3.726 -18.133  1.00  0.00     0.000 C 
BRANCH  10  11
ATOM     11  C   UNL     1      19.802  -3.124 -18.756  1.00  0.00    -0.000 C 
BRANCH  11  12
ATOM     12  C   UNL     1      20.002  -2.432 -20.117  1.00  0.00    -0.000 C 
BRANCH  12  13
ATOM     13  C   UNL     1      20.753  -3.309 -21.132  1.00  0.00    -0.000 C 
BRANCH  13  14
ATOM     14  C   UNL     1      19.833  -4.319 -21.841  1.00  0.00    -0.000 C 
BRANCH  14  15
ATOM     15  C   UNL     1      20.180  -5.791 -21.537  1.00  0.00    -0.003 C 
ATOM     16  C   UNL     1      21.634  -5.965 -21.100  1.00  0.00     0.004 C 
ENDBRANCH  14  15
ENDBRANCH  13  14
ENDBRANCH  12  13
ENDBRANCH  11  12
ENDBRANCH  10  11
ENDBRANCH   1  10
TORSDOF 12
ENDMDL
MODEL 3
REMARK VINA RESULT:    -4.013      9.175     11.369
REMARK INTER + INTRA:          -8.733
REMARK INTER:                  -6.546
REMARK INTRA:                  -2.187
REMARK UNBOUND:                -1.905
REMARK SMILES CCCCCCCCCCCCCC(=O)[O-]
REMARK SMILES IDX 8 1 9 2 10 3 11 4 12 5 13 6 14 7 15 8 16 9 7 10 6 11 5 12
REMARK SMILES IDX 4 13 3 14 2 15 1 16
REMARK H PARENT
REMARK Flexibility Score: inf
ROOT
ATOM      1  C   UNL     1       7.499  -7.386 -25.124  1.00  0.00     0.000 C 
ENDROOT
BRANCH   1   2
ATOM      2  C   UNL     1       8.909  -7.975 -24.964  1.00  0.00     0.000 C 
BRANCH   2   3
ATOM      3  C   UNL     1       9.989  -6.895 -24.788  1.00  0.00     0.000 C 
BRANCH   3   4
ATOM      4  C   UNL     1      10.824  -7.097 -23.513  1.00  0.00     0.000 C 
BRANCH   4   5
ATOM      5  C   UNL     1      11.395  -5.779 -22.959  1.00  0.00     0.006 C 
BRANCH   5   6
ATOM      6  C   UNL     1      12.150  -4.928 -23.995  1.00  0.00     0.053 C 
BRANCH   6   7
ATOM      7  C   UNL     1      11.494  -3.600 -24.217  1.00  0.00     0.041 C 
ATOM      8  O   UNL     1      11.546  -2.711 -23.327  1.00  0.00    -0.550 OA
ATOM      9  O   UNL     1      10.854  -3.333 -25.420  1.00  0.00    -0.550 OA
ENDBRANCH   6   7
ENDBRANCH   5   6
ENDBRANCH   4   5
ENDBRANCH   3   4
ENDBRANCH   2   3
ENDBRANCH   1   2
BRANCH   1  10
ATOM     10  C   UNL     1       7.564  -5.877 -25.405  1.00  0.00     0.000 C 
BRANCH  10  11
ATOM     11  C   UNL     1       6.836  -5.033 -24.342  1.00  0.00    -0.000 C 
BRANCH  11  12
ATOM     12  C   UNL     1       7.740  -4.105 -23.510  1.00  0.00    -0.000 C 
BRANCH  12  13
ATOM     13  C   UNL     1       8.108  -4.695 -22.140  1.00  0.00    -0.000 C 
BRANCH  13  14
ATOM     14  C   UNL     1       7.134  -5.796 -21.685  1.00  0.00    -0.000 C 
BRANCH  14  15
ATOM     15  C   UNL     1       7.831  -7.115 -21.291  1.00  0.00    -0.003 C 
ATOM     16  C   UNL     1       6.926  -8.331 -21.493  1.00  0.00     0.004 C 
ENDBRANCH  14  15
ENDBRANCH  13  14
ENDBRANCH  12  13
ENDBRANCH  11  12
ENDBRANCH  10  11
ENDBRANCH   1  10
TORSDOF 12
ENDMDL
MODEL 4
REMARK VINA RESULT:    -3.979      2.510      4.838
REMARK INTER + INTRA:          -8.675
REMARK INTER:                  -6.796
REMARK INTRA:                  -1.880
REMARK UNBOUND:                -1.905
REMARK SMILES CCCCCCCCCCCCCC(=O)[O-]
REMARK SMILES IDX 8 1 9 2 10 3 11 4 12 5 13 6 14 7 15 8 16 9 7 10 6 11 5 12
REMARK SMILES IDX 4 13 3 14 2 15 1 16
REMARK H PARENT
REMARK Flexibility Score: inf
ROOT
ATOM      1  C   UNL     1      20.763  -3.030 -17.899  1.00  0.00     0.000 C 
ENDROOT
BRANCH   1   2
ATOM      2  C   UNL     1      21.152  -2.742 -19.357  1.00  0.00     0.000 C 
BRANCH   2   3
ATOM      3  C   UNL     1      19.946  -2.358 -20.230  1.00  0.00     0.000 C 
BRANCH   3   4
ATOM      4  C   UNL     1      19.477  -3.514 -21.130  1.00  0.00     0.000 C 
BRANCH   4   5
ATOM      5  C   UNL     1      18.027  -3.944 -20.840  1.00  0.00     0.006 C 
BRANCH   5   6
ATOM      6  C   UNL     1      17.368  -3.205 -19.664  1.00  0.00     0.053 C 
BRANCH   6   7
ATOM      7  C   UNL     1      15.875  -3.329 -19.687  1.00  0.00     0.041 C 
ATOM      8  O   UNL     1      15.155  -2.302 -19.791  1.00  0.00    -0.550 OA
ATOM      9  O   UNL     1      15.280  -4.583 -19.627  1.00  0.00    -0.550 OA
ENDBRANCH   6   7
ENDBRANCH   5   6
ENDBRANCH   4   5
ENDBRANCH   3   4
ENDBRANCH   2   3
ENDBRANCH   1   2
BRANCH   1  10
ATOM     10  C   UNL     1      21.266  -4.414 -17.460  1.00  0.00     0.000 C 
BRANCH  10  11
ATOM     11  C   UNL     1      21.446  -5.391 -18.637  1.00  0.00    -0.000 C 
BRANCH  11  12
ATOM     12  C   UNL     1      20.232  -6.293 -18.932  1.00  0.00    -0.000 C 
BRANCH  12  13
ATOM     13  C   UNL     1      19.463  -6.698 -17.664  1.00  0.00    -0.000 C 
BRANCH  13  14
ATOM     14  C   UNL     1      17.981  -6.287 -17.711  1.00  0.00    -0.000 C 
BRANCH  14  15
ATOM     15  C   UNL     1      17.370  -6.015 -16.321  1.00  0.00    -0.003 C 
ATOM     16  C   UNL     1      16.737  -4.628 -16.226  1.00  0.00     0.004 C 
ENDBRANCH  14  15
ENDBRANCH  13  14
ENDBRANCH  12  13
ENDBRANCH  11  12
ENDBRANCH  10  11
ENDBRANCH   1  10
TORSDOF 12
ENDMDL
MODEL 5
REMARK VINA RESULT:    -3.963      1.317      3.438
REMARK INTER + INTRA:          -8.648
REMARK INTER:                  -6.818
REMARK INTRA:                  -1.831
REMARK UNBOUND:                -1.905
REMARK SMILES CCCCCCCCCCCCCC(=O)[O-]
REMARK SMILES IDX 8 1 9 2 10 3 11 4 12 5 13 6 14 7 15 8 16 9 7 10 6 11 5 12
REMARK SMILES IDX 4 13 3 14 2 15 1 16
REMARK H PARENT
REMARK Flexibility Score: inf
ROOT
ATOM      1  C   UNL     1      20.361  -3.901 -17.878  1.00  0.00     0.000 C 
ENDROOT
BRANCH   1   2
ATOM      2  C   UNL     1      21.164  -3.138 -18.943  1.00  0.00     0.000 C 
BRANCH   2   3
ATOM      3  C   UNL     1      20.268  -2.478 -20.004  1.00  0.00     0.000 C 
BRANCH   3   4
ATOM      4  C   UNL     1      18.864  -3.102 -20.061  1.00  0.00     0.000 C 
BRANCH   4   5
ATOM      5  C   UNL     1      18.666  -4.011 -21.288  1.00  0.00     0.006 C 
BRANCH   5   6
ATOM      6  C   UNL     1      18.721  -5.516 -20.980  1.00  0.00     0.053 C 
BRANCH   6   7
ATOM      7  C   UNL     1      19.919  -6.172 -21.594  1.00  0.00     0.041 C 
ATOM      8  O   UNL     1      19.792  -6.893 -22.618  1.00  0.00    -0.550 OA
ATOM      9  O   UNL     1      21.182  -5.961 -21.055  1.00  0.00    -0.550 OA
ENDBRANCH   6   7
ENDBRANCH   5   6
ENDBRANCH   4   5
ENDBRANCH   3   4
ENDBRANCH   2   3
ENDBRANCH   1   2
BRANCH   1  10
ATOM     10  C   UNL     1      21.051  -5.225 -17.517  1.00  0.00     0.000 C 
BRANCH  10  11
ATOM     11  C   UNL     1      20.060  -6.390 -17.332  1.00  0.00    -0.000 C 
BRANCH  11  12
ATOM     12  C   UNL     1      18.574  -6.018 -17.487  1.00  0.00    -0.000 C 
BRANCH  12  13
ATOM     13  C   UNL     1      17.788  -6.120 -16.170  1.00  0.00    -0.000 C 
BRANCH  13  14
ATOM     14  C   UNL     1      16.774  -4.977 -15.994  1.00  0.00    -0.000 C 
BRANCH  14  15
ATOM     15  C   UNL     1      16.718  -4.008 -17.194  1.00  0.00    -0.003 C 
ATOM     16  C   UNL     1      15.434  -4.166 -18.008  1.00  0.00     0.004 C 
ENDBRANCH  14  15
ENDBRANCH  13  14
ENDBRANCH  12  13
ENDBRANCH  11  12
ENDBRANCH  10  11
ENDBRANCH   1  10
TORSDOF 12
ENDMDL
MODEL 6
REMARK VINA RESULT:    -3.951      2.512      4.484
REMARK INTER + INTRA:          -8.628
REMARK INTER:                  -6.629
REMARK INTRA:                  -2.000
REMARK UNBOUND:                -1.905
REMARK SMILES CCCCCCCCCCCCCC(=O)[O-]
REMARK SMILES IDX 8 1 9 2 10 3 11 4 12 5 13 6 14 7 15 8 16 9 7 10 6 11 5 12
REMARK SMILES IDX 4 13 3 14 2 15 1 16
REMARK H PARENT
REMARK Flexibility Score: inf
ROOT
ATOM      1  C   UNL     1      19.742  -6.243 -18.430  1.00  0.00     0.000 C 
ENDROOT
BRANCH   1   2
ATOM      2  C   UNL     1      19.238  -6.375 -16.985  1.00  0.00     0.000 C 
BRANCH   2   3
ATOM      3  C   UNL     1      17.870  -5.707 -16.769  1.00  0.00     0.000 C 
BRANCH   3   4
ATOM      4  C   UNL     1      17.442  -4.839 -17.964  1.00  0.00     0.000 C 
BRANCH   4   5
ATOM      5  C   UNL     1      16.584  -3.631 -17.545  1.00  0.00     0.006 C 
BRANCH   5   6
ATOM      6  C   UNL     1      16.269  -2.649 -18.685  1.00  0.00     0.053 C 
BRANCH   6   7
ATOM      7  C   UNL     1      15.221  -3.182 -19.613  1.00  0.00     0.041 C 
ATOM      8  O   UNL     1      15.319  -2.996 -20.854  1.00  0.00    -0.550 OA
ATOM      9  O   UNL     1      14.152  -3.912 -19.109  1.00  0.00    -0.550 OA
ENDBRANCH   6   7
ENDBRANCH   5   6
ENDBRANCH   4   5
ENDBRANCH   3   4
ENDBRANCH   2   3
ENDBRANCH   1   2
BRANCH   1  10
ATOM     10  C   UNL     1      21.142  -5.610 -18.467  1.00  0.00     0.000 C 
BRANCH  10  11
ATOM     11  C   UNL     1      21.302  -4.443 -17.475  1.00  0.00    -0.000 C 
BRANCH  11  12
ATOM     12  C   UNL     1      20.703  -3.102 -17.938  1.00  0.00    -0.000 C 
BRANCH  12  13
ATOM     13  C   UNL     1      20.944  -2.819 -19.429  1.00  0.00    -0.000 C 
BRANCH  13  14
ATOM     14  C   UNL     1      19.639  -2.570 -20.205  1.00  0.00    -0.000 C 
BRANCH  14  15
ATOM     15  C   UNL     1      19.255  -3.723 -21.157  1.00  0.00    -0.003 C 
ATOM     16  C   UNL     1      20.469  -4.306 -21.880  1.00  0.00     0.004 C 
ENDBRANCH  14  15
ENDBRANCH  13  14
ENDBRANCH  12  13
ENDBRANCH  11  12
ENDBRANCH  10  11
ENDBRANCH   1  10
TORSDOF 12
ENDMDL
MODEL 7
REMARK VINA RESULT:    -3.913      0.968      1.621
REMARK INTER + INTRA:          -8.564
REMARK INTER:                  -6.805
REMARK INTRA:                  -1.759
REMARK UNBOUND:                -1.905
REMARK SMILES CCCCCCCCCCCCCC(=O)[O-]
REMARK SMILES IDX 8 1 9 2 10 3 11 4 12 5 13 6 14 7 15 8 16 9 7 10 6 11 5 12
REMARK SMILES IDX 4 13 3 14 2 15 1 16
REMARK H PARENT
REMARK Flexibility Score: inf
ROOT
ATOM      1  C   UNL     1      19.363  -5.840 -18.113  1.00  0.00     0.000 C 
ENDROOT
BRANCH   1   2
ATOM      2  C   UNL     1      20.542  -4.870 -17.946  1.00  0.00     0.000 C 
BRANCH   2   3
ATOM      3  C   UNL     1      20.139  -3.401 -18.153  1.00  0.00     0.000 C 
BRANCH   3   4
ATOM      4  C   UNL     1      20.890  -2.741 -19.321  1.00  0.00     0.000 C 
BRANCH   4   5
ATOM      5  C   UNL     1      20.164  -2.911 -20.668  1.00  0.00     0.006 C 
BRANCH   5   6
ATOM      6  C   UNL     1      20.996  -3.611 -21.756  1.00  0.00     0.053 C 
BRANCH   6   7
ATOM      7  C   UNL     1      20.820  -5.098 -21.728  1.00  0.00     0.041 C 
ATOM      8  O   UNL     1      21.689  -5.829 -21.186  1.00  0.00    -0.550 OA
ATOM      9  O   UNL     1      19.679  -5.674 -22.272  1.00  0.00    -0.550 OA
ENDBRANCH   6   7
ENDBRANCH   5   6
ENDBRANCH   4   5
ENDBRANCH   3   4
ENDBRANCH   2   3
ENDBRANCH   1   2
BRANCH   1  10
ATOM     10  C   UNL     1      18.804  -6.264 -16.746  1.00  0.00     0.000 C 
BRANCH  10  11
ATOM     11  C   UNL     1      17.285  -6.046 -16.621  1.00  0.00    -0.000 C 
BRANCH  11  12
ATOM     12  C   UNL     1      16.849  -4.591 -16.364  1.00  0.00    -0.000 C 
BRANCH  12  13
ATOM     13  C   UNL     1      15.825  -4.081 -17.389  1.00  0.00    -0.000 C 
BRANCH  13  14
ATOM     14  C   UNL     1      16.478  -3.620 -18.704  1.00  0.00    -0.000 C 
BRANCH  14  15
ATOM     15  C   UNL     1      16.320  -4.629 -19.861  1.00  0.00    -0.003 C 
ATOM     16  C   UNL     1      16.694  -4.023 -21.213  1.00  0.00     0.004 C 
ENDBRANCH  14  15
ENDBRANCH  13  14
ENDBRANCH  12  13
ENDBRANCH  11  12
ENDBRANCH  10  11
ENDBRANCH   1  10
TORSDOF 12
ENDMDL
MODEL 8
REMARK VINA RESULT:    -3.886      8.140     10.504
REMARK INTER + INTRA:          -8.518
REMARK INTER:                  -6.583
REMARK INTRA:                  -1.934
REMARK UNBOUND:                -1.905
REMARK SMILES CCCCCCCCCCCCCC(=O)[O-]
REMARK SMILES IDX 8 1 9 2 10 3 11 4 12 5 13 6 14 7 15 8 16 9 7 10 6 11 5 12
REMARK SMILES IDX 4 13 3 14 2 15 1 16
REMARK H PARENT
REMARK Flexibility Score: inf
ROOT
ATOM      1  C   UNL     1      10.730  -5.541 -25.270  1.00  0.00     0.000 C 
ENDROOT
BRANCH   1   2
ATOM      2  C   UNL     1      11.371  -5.756 -23.890  1.00  0.00     0.000 C 
BRANCH   2   3
ATOM      3  C   UNL     1      12.493  -4.748 -23.591  1.00  0.00     0.000 C 
BRANCH   3   4
ATOM      4  C   UNL     1      12.273  -3.996 -22.267  1.00  0.00     0.000 C 
BRANCH   4   5
ATOM      5  C   UNL     1      11.050  -4.511 -21.486  1.00  0.00     0.006 C 
BRANCH   5   6
ATOM      6  C   UNL     1      11.389  -5.185 -20.146  1.00  0.00     0.053 C 
BRANCH   6   7
ATOM      7  C   UNL     1      11.439  -6.677 -20.264  1.00  0.00     0.041 C 
ATOM      8  O   UNL     1      12.527  -7.289 -20.102  1.00  0.00    -0.550 OA
ATOM      9  O   UNL     1      10.278  -7.394 -20.520  1.00  0.00    -0.550 OA
ENDBRANCH   6   7
ENDBRANCH   5   6
ENDBRANCH   4   5
ENDBRANCH   3   4
ENDBRANCH   2   3
ENDBRANCH   1   2
BRANCH   1  10
ATOM     10  C   UNL     1      10.615  -4.043 -25.593  1.00  0.00     0.000 C 
BRANCH  10  11
ATOM     11  C   UNL     1       9.399  -3.374 -24.925  1.00  0.00    -0.000 C 
BRANCH  11  12
ATOM     12  C   UNL     1       8.026  -3.893 -25.392  1.00  0.00    -0.000 C 
BRANCH  12  13
ATOM     13  C   UNL     1       7.045  -4.123 -24.232  1.00  0.00    -0.000 C 
BRANCH  13  14
ATOM     14  C   UNL     1       7.742  -4.153 -22.861  1.00  0.00    -0.000 C 
BRANCH  14  15
ATOM     15  C   UNL     1       7.508  -5.462 -22.076  1.00  0.00    -0.003 C 
ATOM     16  C   UNL     1       7.804  -6.703 -22.918  1.00  0.00     0.004 C 
ENDBRANCH  14  15
ENDBRANCH  13  14
ENDBRANCH  12  13
ENDBRANCH  11  12
ENDBRANCH  10  11
ENDBRANCH   1  10
TORSDOF 12
ENDMDL
MODEL 9
REMARK VINA RESULT:    -3.874      2.603      4.607
REMARK INTER + INTRA:          -8.496
REMARK INTER:                  -6.780
REMARK INTRA:                  -1.716
REMARK UNBOUND:                -1.905
REMARK SMILES CCCCCCCCCCCCCC(=O)[O-]
REMARK SMILES IDX 8 1 9 2 10 3 11 4 12 5 13 6 14 7 15 8 16 9 7 10 6 11 5 12
REMARK SMILES IDX 4 13 3 14 2 15 1 16
REMARK H PARENT
REMARK Flexibility Score: inf
ROOT
ATOM      1  C   UNL     1      17.907  -6.046 -16.414  1.00  0.00     0.000 C 
ENDROOT
BRANCH   1   2
ATOM      2  C   UNL     1      16.940  -4.859 -16.547  1.00  0.00     0.000 C 
BRANCH   2   3
ATOM      3  C   UNL     1      17.618  -3.601 -17.114  1.00  0.00     0.000 C 
BRANCH   3   4
ATOM      4  C   UNL     1      16.796  -2.942 -18.235  1.00  0.00     0.000 C 
BRANCH   4   5
ATOM      5  C   UNL     1      15.621  -3.819 -18.705  1.00  0.00     0.006 C 
BRANCH   5   6
ATOM      6  C   UNL     1      15.767  -4.364 -20.136  1.00  0.00     0.053 C 
BRANCH   6   7
ATOM      7  C   UNL     1      14.984  -3.558 -21.127  1.00  0.00     0.041 C 
ATOM      8  O   UNL     1      14.572  -2.408 -20.825  1.00  0.00    -0.550 OA
ATOM      9  O   UNL     1      14.737  -4.066 -22.396  1.00  0.00    -0.550 OA
ENDBRANCH   6   7
ENDBRANCH   5   6
ENDBRANCH   4   5
ENDBRANCH   3   4
ENDBRANCH   2   3
ENDBRANCH   1   2
BRANCH   1  10
ATOM     10  C   UNL     1      18.919  -6.060 -17.569  1.00  0.00     0.000 C 
BRANCH  10  11
ATOM     11  C   UNL     1      20.373  -6.242 -17.094  1.00  0.00    -0.000 C 
BRANCH  11  12
ATOM     12  C   UNL     1      21.339  -5.110 -17.493  1.00  0.00    -0.000 C 
BRANCH  12  13
ATOM     13  C   UNL     1      21.027  -4.512 -18.874  1.00  0.00    -0.000 C 
BRANCH  13  14
ATOM     14  C   UNL     1      20.853  -2.984 -18.834  1.00  0.00    -0.000 C 
BRANCH  14  15
ATOM     15  C   UNL     1      20.094  -2.416 -20.051  1.00  0.00    -0.003 C 
ATOM     16  C   UNL     1      19.357  -3.502 -20.834  1.00  0.00     0.004 C 
ENDBRANCH  14  15
ENDBRANCH  13  14
ENDBRANCH  12  13
ENDBRANCH  11  12
ENDBRANCH  10  11
ENDBRANCH   1  10
TORSDOF 12
ENDMDL
