MODEL 1
REMARK VINA RESULT:    -4.196      0.000      0.000
REMARK INTER + INTRA:          -4.441
REMARK INTER:                  -4.441
REMARK INTRA:                   0.000
REMARK UNBOUND:                 0.000
REMARK SMILES O=c1ccc2cc(O)c(O)cc2o1
REMARK SMILES IDX 4 1 3 2 2 3 1 4 13 5 12 6 11 7 9 8 7 9 6 10 5 11 8 12 10 14
REMARK H PARENT 8 13 10 15
REMARK Flexibility Score: inf
ROOT
ATOM      1  C   UNL     1      76.710  89.678  14.176  1.00  0.00     0.019 A 
ATOM      2  C   UNL     1      77.284  88.415  14.023  1.00  0.00     0.094 A 
ATOM      3  C   UNL     1      77.218  87.788  12.775  1.00  0.00     0.336 A 
ATOM      4  O   UNL     1      77.730  86.649  12.616  1.00  0.00    -0.246 OA
ATOM      5  O   UNL     1      76.617  88.388  11.750  1.00  0.00    -0.423 OA
ATOM      6  C   UNL     1      76.057  89.591  11.854  1.00  0.00     0.142 A 
ATOM      7  C   UNL     1      75.440  90.173  10.744  1.00  0.00     0.098 A 
ATOM      8  C   UNL     1      74.846  91.439  10.837  1.00  0.00     0.161 A 
ATOM      9  C   UNL     1      74.873  92.134  12.071  1.00  0.00     0.158 A 
ATOM     10  C   UNL     1      75.494  91.549  13.183  1.00  0.00     0.062 A 
ATOM     11  C   UNL     1      76.084  90.284  13.081  1.00  0.00     0.022 A 
ENDROOT
BRANCH   9  12
ATOM     12  O   UNL     1      74.303  93.398  12.236  1.00  0.00    -0.504 OA
ATOM     13  H   UNL     1      73.310  93.580  12.196  1.00  0.00     0.293 HD
ENDBRANCH   9  12
BRANCH   8  14
ATOM     14  O   UNL     1      74.247  91.961   9.690  1.00  0.00    -0.504 OA
ATOM     15  H   UNL     1      74.548  92.809   9.231  1.00  0.00     0.293 HD
ENDBRANCH   8  14
TORSDOF 2
ENDMDL
MODEL 2
REMARK VINA RESULT:    -4.184      1.154      2.286
REMARK INTER + INTRA:          -4.429
REMARK INTER:                  -4.429
REMARK INTRA:                   0.000
REMARK UNBOUND:                 0.000
REMARK SMILES O=c1ccc2cc(O)c(O)cc2o1
REMARK SMILES IDX 4 1 3 2 2 3 1 4 13 5 12 6 11 7 9 8 7 9 6 10 5 11 8 12 10 14
REMARK H PARENT 8 13 10 15
REMARK Flexibility Score: inf
ROOT
ATOM      1  C   UNL     1      76.630  88.298  11.767  1.00  0.00     0.019 A 
ATOM      2  C   UNL     1      77.283  87.778  12.885  1.00  0.00     0.094 A 
ATOM      3  C   UNL     1      77.339  88.543  14.053  1.00  0.00     0.336 A 
ATOM      4  O   UNL     1      77.923  88.092  15.073  1.00  0.00    -0.246 OA
ATOM      5  O   UNL     1      76.777  89.749  14.097  1.00  0.00    -0.423 OA
ATOM      6  C   UNL     1      76.145  90.281  13.054  1.00  0.00     0.142 A 
ATOM      7  C   UNL     1      75.573  91.552  13.157  1.00  0.00     0.098 A 
ATOM      8  C   UNL     1      74.904  92.126  12.067  1.00  0.00     0.161 A 
ATOM      9  C   UNL     1      74.808  91.409  10.849  1.00  0.00     0.158 A 
ATOM     10  C   UNL     1      75.383  90.135  10.749  1.00  0.00     0.062 A 
ATOM     11  C   UNL     1      76.049  89.568  11.842  1.00  0.00     0.022 A 
ENDROOT
BRANCH   9  12
ATOM     12  O   UNL     1      74.157  91.919   9.724  1.00  0.00    -0.504 OA
ATOM     13  H   UNL     1      74.158  91.471   8.819  1.00  0.00     0.293 HD
ENDBRANCH   9  12
BRANCH   8  14
ATOM     14  O   UNL     1      74.356  93.398  12.238  1.00  0.00    -0.504 OA
ATOM     15  H   UNL     1      73.708  93.826  11.592  1.00  0.00     0.293 HD
ENDBRANCH   8  14
TORSDOF 2
ENDMDL
MODEL 3
REMARK VINA RESULT:    -4.079      4.047      5.025
REMARK INTER + INTRA:          -4.318
REMARK INTER:                  -4.318
REMARK INTRA:                   0.000
REMARK UNBOUND:                 0.000
REMARK SMILES O=c1ccc2cc(O)c(O)cc2o1
REMARK SMILES IDX 4 1 3 2 2 3 1 4 13 5 12 6 11 7 9 8 7 9 6 10 5 11 8 12 10 14
REMARK H PARENT 8 13 10 15
REMARK Flexibility Score: inf
ROOT
ATOM      1  C   UNL     1      74.679  86.072  10.374  1.00  0.00     0.019 A 
ATOM      2  C   UNL     1      74.139  85.875  11.645  1.00  0.00     0.094 A 
ATOM      3  C   UNL     1      74.848  86.333  12.760  1.00  0.00     0.336 A 
ATOM      4  O   UNL     1      74.378  86.166  13.916  1.00  0.00    -0.246 OA
ATOM      5  O   UNL     1      76.019  86.946  12.608  1.00  0.00    -0.423 OA
ATOM      6  C   UNL     1      76.569  87.153  11.415  1.00  0.00     0.142 A 
ATOM      7  C   UNL     1      77.802  87.803  11.316  1.00  0.00     0.098 A 
ATOM      8  C   UNL     1      78.393  88.028  10.066  1.00  0.00     0.161 A 
ATOM      9  C   UNL     1      77.733  87.592   8.890  1.00  0.00     0.158 A 
ATOM     10  C   UNL     1      76.497  86.940   8.993  1.00  0.00     0.062 A 
ATOM     11  C   UNL     1      75.912  86.719  10.245  1.00  0.00     0.022 A 
ENDROOT
BRANCH   9  12
ATOM     12  O   UNL     1      78.264  87.783   7.613  1.00  0.00    -0.504 OA
ATOM     13  H   UNL     1      79.065  87.285   7.253  1.00  0.00     0.293 HD
ENDBRANCH   9  12
BRANCH   8  14
ATOM     14  O   UNL     1      79.626  88.683  10.038  1.00  0.00    -0.504 OA
ATOM     15  H   UNL     1      79.877  89.443  10.656  1.00  0.00     0.293 HD
ENDBRANCH   8  14
TORSDOF 2
ENDMDL
MODEL 4
REMARK VINA RESULT:    -4.021      2.314      4.945
REMARK INTER + INTRA:          -4.256
REMARK INTER:                  -4.256
REMARK INTRA:                   0.000
REMARK UNBOUND:                 0.000
REMARK SMILES O=c1ccc2cc(O)c(O)cc2o1
REMARK SMILES IDX 4 1 3 2 2 3 1 4 13 5 12 6 11 7 9 8 7 9 6 10 5 11 8 12 10 14
REMARK H PARENT 8 13 10 15
REMARK Flexibility Score: inf
ROOT
ATOM      1  C   UNL     1      73.210  93.373  12.966  1.00  0.00     0.019 A 
ATOM      2  C   UNL     1      71.902  93.452  12.486  1.00  0.00     0.094 A 
ATOM      3  C   UNL     1      71.476  92.528  11.527  1.00  0.00     0.336 A 
ATOM      4  O   UNL     1      70.300  92.581  11.082  1.00  0.00    -0.246 OA
ATOM      5  O   UNL     1      72.307  91.589  11.081  1.00  0.00    -0.423 OA
ATOM      6  C   UNL     1      73.561  91.479  11.512  1.00  0.00     0.142 A 
ATOM      7  C   UNL     1      74.388  90.472  11.007  1.00  0.00     0.098 A 
ATOM      8  C   UNL     1      75.711  90.345  11.451  1.00  0.00     0.161 A 
ATOM      9  C   UNL     1      76.213  91.246  12.422  1.00  0.00     0.158 A 
ATOM     10  C   UNL     1      75.381  92.254  12.927  1.00  0.00     0.062 A 
ATOM     11  C   UNL     1      74.061  92.376  12.478  1.00  0.00     0.022 A 
ENDROOT
BRANCH   9  12
ATOM     12  O   UNL     1      77.520  91.177  12.910  1.00  0.00    -0.504 OA
ATOM     13  H   UNL     1      77.885  91.778  13.635  1.00  0.00     0.293 HD
ENDBRANCH   9  12
BRANCH   8  14
ATOM     14  O   UNL     1      76.483  89.317  10.906  1.00  0.00    -0.504 OA
ATOM     15  H   UNL     1      76.098  88.495  10.462  1.00  0.00     0.293 HD
ENDBRANCH   8  14
TORSDOF 2
ENDMDL
MODEL 5
REMARK VINA RESULT:    -4.020      1.818      2.553
REMARK INTER + INTRA:          -4.255
REMARK INTER:                  -4.255
REMARK INTRA:                   0.000
REMARK UNBOUND:                 0.000
REMARK SMILES O=c1ccc2cc(O)c(O)cc2o1
REMARK SMILES IDX 4 1 3 2 2 3 1 4 13 5 12 6 11 7 9 8 7 9 6 10 5 11 8 12 10 14
REMARK H PARENT 8 13 10 15
REMARK Flexibility Score: inf
ROOT
ATOM      1  C   UNL     1      76.892  87.761  12.128  1.00  0.00     0.019 A 
ATOM      2  C   UNL     1      76.773  87.039  10.940  1.00  0.00     0.094 A 
ATOM      3  C   UNL     1      76.195  87.657   9.827  1.00  0.00     0.336 A 
ATOM      4  O   UNL     1      76.080  87.023   8.745  1.00  0.00    -0.246 OA
ATOM      5  O   UNL     1      75.766  88.914   9.901  1.00  0.00    -0.423 OA
ATOM      6  C   UNL     1      75.860  89.638  11.014  1.00  0.00     0.142 A 
ATOM      7  C   UNL     1      75.393  90.954  11.034  1.00  0.00     0.098 A 
ATOM      8  C   UNL     1      75.485  91.728  12.199  1.00  0.00     0.161 A 
ATOM      9  C   UNL     1      76.059  91.168  13.367  1.00  0.00     0.158 A 
ATOM     10  C   UNL     1      76.527  89.848  13.344  1.00  0.00     0.062 A 
ATOM     11  C   UNL     1      76.431  89.081  12.177  1.00  0.00     0.022 A 
ENDROOT
BRANCH   9  12
ATOM     12  O   UNL     1      76.183  91.881  14.561  1.00  0.00    -0.504 OA
ATOM     13  H   UNL     1      75.442  91.982  15.239  1.00  0.00     0.293 HD
ENDBRANCH   9  12
BRANCH   8  14
ATOM     14  O   UNL     1      74.999  93.035  12.150  1.00  0.00    -0.504 OA
ATOM     15  H   UNL     1      75.583  93.853  12.040  1.00  0.00     0.293 HD
ENDBRANCH   8  14
TORSDOF 2
ENDMDL
MODEL 6
REMARK VINA RESULT:    -4.009      2.514      5.479
REMARK INTER + INTRA:          -4.244
REMARK INTER:                  -4.244
REMARK INTRA:                   0.000
REMARK UNBOUND:                 0.000
REMARK SMILES O=c1ccc2cc(O)c(O)cc2o1
REMARK SMILES IDX 4 1 3 2 2 3 1 4 13 5 12 6 11 7 9 8 7 9 6 10 5 11 8 12 10 14
REMARK H PARENT 8 13 10 15
REMARK Flexibility Score: inf
ROOT
ATOM      1  C   UNL     1      71.855  92.037  11.497  1.00  0.00     0.019 A 
ATOM      2  C   UNL     1      71.340  93.127  12.202  1.00  0.00     0.094 A 
ATOM      3  C   UNL     1      72.218  93.945  12.918  1.00  0.00     0.336 A 
ATOM      4  O   UNL     1      71.774  94.933  13.560  1.00  0.00    -0.246 OA
ATOM      5  O   UNL     1      73.524  93.689  12.926  1.00  0.00    -0.423 OA
ATOM      6  C   UNL     1      74.055  92.661  12.268  1.00  0.00     0.142 A 
ATOM      7  C   UNL     1      75.434  92.440  12.312  1.00  0.00     0.098 A 
ATOM      8  C   UNL     1      76.008  91.362  11.625  1.00  0.00     0.161 A 
ATOM      9  C   UNL     1      75.180  90.489  10.878  1.00  0.00     0.158 A 
ATOM     10  C   UNL     1      73.797  90.713  10.835  1.00  0.00     0.062 A 
ATOM     11  C   UNL     1      73.231  91.792  11.524  1.00  0.00     0.022 A 
ENDROOT
BRANCH   9  12
ATOM     12  O   UNL     1      75.683  89.397  10.168  1.00  0.00    -0.504 OA
ATOM     13  H   UNL     1      76.140  89.468   9.271  1.00  0.00     0.293 HD
ENDBRANCH   9  12
BRANCH   8  14
ATOM     14  O   UNL     1      77.391  91.199  11.711  1.00  0.00    -0.504 OA
ATOM     15  H   UNL     1      78.061  91.799  11.251  1.00  0.00     0.293 HD
ENDBRANCH   8  14
TORSDOF 2
ENDMDL
MODEL 7
REMARK VINA RESULT:    -3.991      2.693      3.876
REMARK INTER + INTRA:          -4.225
REMARK INTER:                  -4.225
REMARK INTRA:                   0.000
REMARK UNBOUND:                 0.000
REMARK SMILES O=c1ccc2cc(O)c(O)cc2o1
REMARK SMILES IDX 4 1 3 2 2 3 1 4 13 5 12 6 11 7 9 8 7 9 6 10 5 11 8 12 10 14
REMARK H PARENT 8 13 10 15
REMARK Flexibility Score: inf
ROOT
ATOM      1  C   UNL     1      75.211  86.243  11.271  1.00  0.00     0.019 A 
ATOM      2  C   UNL     1      75.320  85.942   9.913  1.00  0.00     0.094 A 
ATOM      3  C   UNL     1      75.926  86.868   9.060  1.00  0.00     0.336 A 
ATOM      4  O   UNL     1      76.035  86.615   7.832  1.00  0.00    -0.246 OA
ATOM      5  O   UNL     1      76.392  88.020   9.538  1.00  0.00    -0.423 OA
ATOM      6  C   UNL     1      76.308  88.346  10.825  1.00  0.00     0.142 A 
ATOM      7  C   UNL     1      76.815  89.570  11.271  1.00  0.00     0.098 A 
ATOM      8  C   UNL     1      76.734  89.927  12.623  1.00  0.00     0.161 A 
ATOM      9  C   UNL     1      76.132  89.038  13.547  1.00  0.00     0.158 A 
ATOM     10  C   UNL     1      75.625  87.811  13.098  1.00  0.00     0.062 A 
ATOM     11  C   UNL     1      75.710  87.461  11.745  1.00  0.00     0.022 A 
ENDROOT
BRANCH   9  12
ATOM     12  O   UNL     1      76.019  89.328  14.908  1.00  0.00    -0.504 OA
ATOM     13  H   UNL     1      76.507  88.826  15.636  1.00  0.00     0.293 HD
ENDBRANCH   9  12
BRANCH   8  14
ATOM     14  O   UNL     1      77.260  91.163  13.001  1.00  0.00    -0.504 OA
ATOM     15  H   UNL     1      76.704  91.933  13.348  1.00  0.00     0.293 HD
ENDBRANCH   8  14
TORSDOF 2
ENDMDL
MODEL 8
REMARK VINA RESULT:    -3.834      2.279      5.131
REMARK INTER + INTRA:          -4.058
REMARK INTER:                  -4.058
REMARK INTRA:                   0.000
REMARK UNBOUND:                 0.000
REMARK SMILES O=c1ccc2cc(O)c(O)cc2o1
REMARK SMILES IDX 4 1 3 2 2 3 1 4 13 5 12 6 11 7 9 8 7 9 6 10 5 11 8 12 10 14
REMARK H PARENT 8 13 10 15
REMARK Flexibility Score: inf
ROOT
ATOM      1  C   UNL     1      73.116  92.058  14.876  1.00  0.00     0.019 A 
ATOM      2  C   UNL     1      72.179  92.991  14.433  1.00  0.00     0.094 A 
ATOM      3  C   UNL     1      72.410  93.664  13.229  1.00  0.00     0.336 A 
ATOM      4  O   UNL     1      71.576  94.509  12.812  1.00  0.00    -0.246 OA
ATOM      5  O   UNL     1      73.507  93.415  12.519  1.00  0.00    -0.423 OA
ATOM      6  C   UNL     1      74.425  92.534  12.905  1.00  0.00     0.142 A 
ATOM      7  C   UNL     1      75.559  92.313  12.118  1.00  0.00     0.098 A 
ATOM      8  C   UNL     1      76.534  91.388  12.512  1.00  0.00     0.161 A 
ATOM      9  C   UNL     1      76.369  90.669  13.722  1.00  0.00     0.158 A 
ATOM     10  C   UNL     1      75.231  90.892  14.509  1.00  0.00     0.062 A 
ATOM     11  C   UNL     1      74.261  91.818  14.108  1.00  0.00     0.022 A 
ENDROOT
BRANCH   9  12
ATOM     12  O   UNL     1      77.299  89.732  14.175  1.00  0.00    -0.504 OA
ATOM     13  H   UNL     1      78.288  89.917  14.267  1.00  0.00     0.293 HD
ENDBRANCH   9  12
BRANCH   8  14
ATOM     14  O   UNL     1      77.642  91.217  11.680  1.00  0.00    -0.504 OA
ATOM     15  H   UNL     1      77.990  90.318  11.379  1.00  0.00     0.293 HD
ENDBRANCH   8  14
TORSDOF 2
ENDMDL
MODEL 9
REMARK VINA RESULT:    -3.742      1.576      2.751
REMARK INTER + INTRA:          -3.961
REMARK INTER:                  -3.961
REMARK INTRA:                   0.000
REMARK UNBOUND:                 0.000
REMARK SMILES O=c1ccc2cc(O)c(O)cc2o1
REMARK SMILES IDX 4 1 3 2 2 3 1 4 13 5 12 6 11 7 9 8 7 9 6 10 5 11 8 12 10 14
REMARK H PARENT 8 13 10 15
REMARK Flexibility Score: inf
ROOT
ATOM      1  C   UNL     1      75.995  88.772   9.954  1.00  0.00     0.019 A 
ATOM      2  C   UNL     1      76.518  87.481  10.033  1.00  0.00     0.094 A 
ATOM      3  C   UNL     1      77.043  87.037  11.250  1.00  0.00     0.336 A 
ATOM      4  O   UNL     1      77.519  85.875  11.343  1.00  0.00    -0.246 OA
ATOM      5  O   UNL     1      77.042  87.834  12.316  1.00  0.00    -0.423 OA
ATOM      6  C   UNL     1      76.553  89.071  12.283  1.00  0.00     0.142 A 
ATOM      7  C   UNL     1      76.578  89.864  13.434  1.00  0.00     0.098 A 
ATOM      8  C   UNL     1      76.067  91.168  13.415  1.00  0.00     0.161 A 
ATOM      9  C   UNL     1      75.519  91.687  12.216  1.00  0.00     0.158 A 
ATOM     10  C   UNL     1      75.495  90.890  11.064  1.00  0.00     0.062 A 
ATOM     11  C   UNL     1      76.008  89.588  11.091  1.00  0.00     0.022 A 
ENDROOT
BRANCH   9  12
ATOM     12  O   UNL     1      74.992  92.977  12.125  1.00  0.00    -0.504 OA
ATOM     13  H   UNL     1      74.312  93.263  11.435  1.00  0.00     0.293 HD
ENDBRANCH   9  12
BRANCH   8  14
ATOM     14  O   UNL     1      76.124  91.905  14.599  1.00  0.00    -0.504 OA
ATOM     15  H   UNL     1      75.436  92.594  14.869  1.00  0.00     0.293 HD
ENDBRANCH   8  14
TORSDOF 2
ENDMDL
