MODEL 1
REMARK VINA RESULT:    -6.138      0.000      0.000
REMARK INTER + INTRA:          -6.957
REMARK INTER:                  -6.677
REMARK INTRA:                  -0.280
REMARK UNBOUND:                -0.280
REMARK SMILES C[C@@H]1[C@H](C)CC[C@]2(C(=O)[O-])CC[C@]3(C)C(=CC[C@@H]4[C@]5(C)CC[C@@H](O)C(C)(C)[C@@H]5CC[C@@]43C)[C@H]12
REMARK SMILES IDX 7 1 6 2 11 3 33 4 5 5 12 6 15 7 2 8 3 9 13 10 16 11 1 12
REMARK SMILES IDX 4 13 14 14 31 15 17 16 18 17 30 18 32 19 19 20 29 21 28 22
REMARK SMILES IDX 21 23 20 24 25 25 22 26 23 27 26 28 27 29 8 30 9 31 10 32
REMARK SMILES IDX 24 33
REMARK H PARENT 24 34
REMARK Flexibility Score: inf
ROOT
ATOM      1  C   UNL     1      52.570  33.825  85.188  1.00  0.00     0.017 C 
ATOM      2  C   UNL     1      53.103  34.466  83.876  1.00  0.00     0.014 C 
ATOM      3  C   UNL     1      53.020  32.319  85.259  1.00  0.00     0.014 C 
ATOM      4  C   UNL     1      51.003  34.058  85.294  1.00  0.00     0.030 C 
ATOM      5  C   UNL     1      52.363  33.988  82.623  1.00  0.00     0.004 C 
ATOM      6  C   UNL     1      52.168  31.412  86.180  1.00  0.00     0.013 C 
ATOM      7  C   UNL     1      50.299  32.959  86.121  1.00  0.00    -0.063 C 
ATOM      8  C   UNL     1      50.232  34.605  84.023  1.00  0.00    -0.003 C 
ATOM      9  C   UNL     1      50.882  34.409  82.603  1.00  0.00    -0.011 C 
ATOM     10  C   UNL     1      50.631  31.482  85.891  1.00  0.00    -0.006 C 
ATOM     11  C   UNL     1      49.845  33.334  87.334  1.00  0.00    -0.027 C 
ATOM     12  C   UNL     1      48.712  34.355  84.079  1.00  0.00     0.008 C 
ATOM     13  C   UNL     1      50.081  33.538  81.613  1.00  0.00     0.008 C 
ATOM     14  C   UNL     1      50.441  31.118  84.385  1.00  0.00     0.017 C 
ATOM     15  C   UNL     1      49.688  30.486  86.810  1.00  0.00    -0.020 C 
ATOM     16  C   UNL     1      49.925  32.418  88.514  1.00  0.00     0.032 C 
ATOM     17  C   UNL     1      49.225  31.089  88.222  1.00  0.00     0.006 C 
ATOM     18  C   UNL     1      50.391  29.112  87.026  1.00  0.00     0.008 C 
ATOM     19  C   UNL     1      48.357  30.183  86.038  1.00  0.00     0.012 C 
ATOM     20  C   UNL     1      49.148  30.066  89.471  1.00  0.00    -0.025 C 
ATOM     21  C   UNL     1      51.245  29.080  88.294  1.00  0.00     0.005 C 
ATOM     22  C   UNL     1      50.380  29.050  89.574  1.00  0.00     0.003 C 
ATOM     23  C   UNL     1      48.897  30.850  90.811  1.00  0.00     0.010 C 
ATOM     24  C   UNL     1      47.862  29.197  89.298  1.00  0.00     0.012 C 
ATOM     25  C   UNL     1      51.239  29.129  90.908  1.00  0.00    -0.006 C 
ATOM     26  C   UNL     1      50.133  31.363  91.577  1.00  0.00     0.033 C 
ATOM     27  C   UNL     1      51.447  30.617  91.302  1.00  0.00     0.120 C 
ATOM     28  C   UNL     1      52.634  28.461  90.736  1.00  0.00     0.014 C 
ATOM     29  C   UNL     1      50.546  28.333  92.051  1.00  0.00     0.014 C 
ENDROOT
BRANCH   1  30
ATOM     30  C   UNL     1      53.261  34.511  86.373  1.00  0.00     0.048 C 
ATOM     31  O   UNL     1      54.273  33.998  86.922  1.00  0.00    -0.550 OA
ATOM     32  O   UNL     1      52.723  35.670  86.921  1.00  0.00    -0.550 OA
ENDBRANCH   1  30
BRANCH  27  33
ATOM     33  O   UNL     1      52.264  30.727  92.443  1.00  0.00    -0.393 OA
ATOM     34  H   UNL     1      51.816  31.348  93.077  1.00  0.00     0.210 HD
ENDBRANCH  27  33
TORSDOF 2
ENDMDL
MODEL 2
REMARK VINA RESULT:    -6.134     14.021     16.765
REMARK INTER + INTRA:          -6.952
REMARK INTER:                  -6.660
REMARK INTRA:                  -0.293
REMARK UNBOUND:                -0.280
REMARK SMILES C[C@@H]1[C@H](C)CC[C@]2(C(=O)[O-])CC[C@]3(C)C(=CC[C@@H]4[C@]5(C)CC[C@@H](O)C(C)(C)[C@@H]5CC[C@@]43C)[C@H]12
REMARK SMILES IDX 7 1 6 2 11 3 33 4 5 5 12 6 15 7 2 8 3 9 13 10 16 11 1 12
REMARK SMILES IDX 4 13 14 14 31 15 17 16 18 17 30 18 32 19 19 20 29 21 28 22
REMARK SMILES IDX 21 23 20 24 25 25 22 26 23 27 26 28 27 29 8 30 9 31 10 32
REMARK SMILES IDX 24 33
REMARK H PARENT 24 34
REMARK Flexibility Score: inf
ROOT
ATOM      1  C   UNL     1      47.834  21.761  75.248  1.00  0.00     0.017 C 
ATOM      2  C   UNL     1      49.387  21.722  75.200  1.00  0.00     0.014 C 
ATOM      3  C   UNL     1      47.342  23.254  75.190  1.00  0.00     0.014 C 
ATOM      4  C   UNL     1      47.322  20.938  76.506  1.00  0.00     0.030 C 
ATOM      5  C   UNL     1      50.046  22.190  76.502  1.00  0.00     0.004 C 
ATOM      6  C   UNL     1      45.921  23.508  75.748  1.00  0.00     0.013 C 
ATOM      7  C   UNL     1      45.956  21.444  77.023  1.00  0.00    -0.063 C 
ATOM      8  C   UNL     1      48.379  20.485  77.596  1.00  0.00    -0.003 C 
ATOM      9  C   UNL     1      49.742  21.264  77.695  1.00  0.00    -0.011 C 
ATOM     10  C   UNL     1      45.696  22.943  77.191  1.00  0.00    -0.006 C 
ATOM     11  C   UNL     1      44.903  20.630  76.800  1.00  0.00    -0.027 C 
ATOM     12  C   UNL     1      47.739  20.124  78.951  1.00  0.00     0.008 C 
ATOM     13  C   UNL     1      50.002  21.992  79.030  1.00  0.00     0.008 C 
ATOM     14  C   UNL     1      46.796  23.580  78.098  1.00  0.00     0.017 C 
ATOM     15  C   UNL     1      44.213  23.245  77.850  1.00  0.00    -0.020 C 
ATOM     16  C   UNL     1      43.559  21.177  76.439  1.00  0.00     0.032 C 
ATOM     17  C   UNL     1      43.073  22.174  77.494  1.00  0.00     0.006 C 
ATOM     18  C   UNL     1      43.728  24.677  77.477  1.00  0.00     0.008 C 
ATOM     19  C   UNL     1      44.330  23.212  79.414  1.00  0.00     0.012 C 
ATOM     20  C   UNL     1      41.576  22.739  77.265  1.00  0.00    -0.025 C 
ATOM     21  C   UNL     1      42.898  24.704  76.193  1.00  0.00     0.005 C 
ATOM     22  C   UNL     1      41.499  24.080  76.396  1.00  0.00     0.003 C 
ATOM     23  C   UNL     1      40.637  21.604  76.712  1.00  0.00     0.010 C 
ATOM     24  C   UNL     1      40.973  23.076  78.666  1.00  0.00     0.012 C 
ATOM     25  C   UNL     1      40.656  23.993  75.052  1.00  0.00    -0.006 C 
ATOM     26  C   UNL     1      40.575  21.416  75.182  1.00  0.00     0.033 C 
ATOM     27  C   UNL     1      40.955  22.644  74.342  1.00  0.00     0.120 C 
ATOM     28  C   UNL     1      41.003  25.155  74.076  1.00  0.00     0.014 C 
ATOM     29  C   UNL     1      39.138  24.152  75.349  1.00  0.00     0.014 C 
ENDROOT
BRANCH   1  30
ATOM     30  C   UNL     1      47.299  21.106  73.969  1.00  0.00     0.048 C 
ATOM     31  O   UNL     1      47.006  21.799  72.957  1.00  0.00    -0.550 OA
ATOM     32  O   UNL     1      47.039  19.741  73.937  1.00  0.00    -0.550 OA
ENDBRANCH   1  30
BRANCH  27  33
ATOM     33  O   UNL     1      40.277  22.562  73.110  1.00  0.00    -0.393 OA
ATOM     34  H   UNL     1      40.885  22.911  72.406  1.00  0.00     0.210 HD
ENDBRANCH  27  33
TORSDOF 2
ENDMDL
MODEL 3
REMARK VINA RESULT:    -6.099     12.766     14.886
REMARK INTER + INTRA:          -6.914
REMARK INTER:                  -6.657
REMARK INTRA:                  -0.257
REMARK UNBOUND:                -0.280
REMARK SMILES C[C@@H]1[C@H](C)CC[C@]2(C(=O)[O-])CC[C@]3(C)C(=CC[C@@H]4[C@]5(C)CC[C@@H](O)C(C)(C)[C@@H]5CC[C@@]43C)[C@H]12
REMARK SMILES IDX 7 1 6 2 11 3 33 4 5 5 12 6 15 7 2 8 3 9 13 10 16 11 1 12
REMARK SMILES IDX 4 13 14 14 31 15 17 16 18 17 30 18 32 19 19 20 29 21 28 22
REMARK SMILES IDX 21 23 20 24 25 25 22 26 23 27 26 28 27 29 8 30 9 31 10 32
REMARK SMILES IDX 24 33
REMARK H PARENT 24 34
REMARK Flexibility Score: inf
ROOT
ATOM      1  C   UNL     1      54.311  21.799  74.729  1.00  0.00     0.017 C 
ATOM      2  C   UNL     1      55.492  21.928  73.727  1.00  0.00     0.014 C 
ATOM      3  C   UNL     1      52.952  21.750  73.939  1.00  0.00     0.014 C 
ATOM      4  C   UNL     1      54.410  22.953  75.815  1.00  0.00     0.030 C 
ATOM      5  C   UNL     1      55.595  23.315  73.086  1.00  0.00     0.004 C 
ATOM      6  C   UNL     1      51.696  22.153  74.749  1.00  0.00     0.013 C 
ATOM      7  C   UNL     1      53.029  23.332  76.398  1.00  0.00    -0.063 C 
ATOM      8  C   UNL     1      55.435  24.136  75.572  1.00  0.00    -0.003 C 
ATOM      9  C   UNL     1      55.921  24.424  74.104  1.00  0.00    -0.011 C 
ATOM     10  C   UNL     1      51.826  23.535  75.474  1.00  0.00    -0.006 C 
ATOM     11  C   UNL     1      52.804  22.955  77.674  1.00  0.00    -0.027 C 
ATOM     12  C   UNL     1      55.126  25.392  76.410  1.00  0.00     0.008 C 
ATOM     13  C   UNL     1      55.553  25.810  73.536  1.00  0.00     0.008 C 
ATOM     14  C   UNL     1      52.166  24.588  74.373  1.00  0.00     0.017 C 
ATOM     15  C   UNL     1      50.486  24.032  76.301  1.00  0.00    -0.020 C 
ATOM     16  C   UNL     1      51.462  22.467  78.116  1.00  0.00     0.032 C 
ATOM     17  C   UNL     1      50.376  23.502  77.811  1.00  0.00     0.006 C 
ATOM     18  C   UNL     1      49.191  23.669  75.516  1.00  0.00     0.008 C 
ATOM     19  C   UNL     1      50.508  25.596  76.418  1.00  0.00     0.012 C 
ATOM     20  C   UNL     1      48.901  23.128  78.355  1.00  0.00    -0.025 C 
ATOM     21  C   UNL     1      48.629  22.301  75.906  1.00  0.00     0.005 C 
ATOM     22  C   UNL     1      47.996  22.315  77.315  1.00  0.00     0.003 C 
ATOM     23  C   UNL     1      48.992  22.423  79.758  1.00  0.00     0.010 C 
ATOM     24  C   UNL     1      48.149  24.464  78.655  1.00  0.00     0.012 C 
ATOM     25  C   UNL     1      47.505  20.881  77.791  1.00  0.00    -0.006 C 
ATOM     26  C   UNL     1      49.158  20.889  79.773  1.00  0.00     0.033 C 
ATOM     27  C   UNL     1      48.667  20.152  78.518  1.00  0.00     0.120 C 
ATOM     28  C   UNL     1      47.041  20.003  76.592  1.00  0.00     0.014 C 
ATOM     29  C   UNL     1      46.255  21.010  78.708  1.00  0.00     0.014 C 
ENDROOT
BRANCH   1  30
ATOM     30  C   UNL     1      54.423  20.440  75.430  1.00  0.00     0.048 C 
ATOM     31  O   UNL     1      54.733  20.360  76.649  1.00  0.00    -0.550 OA
ATOM     32  O   UNL     1      54.273  19.264  74.704  1.00  0.00    -0.550 OA
ENDBRANCH   1  30
BRANCH  27  33
ATOM     33  O   UNL     1      48.288  18.849  78.894  1.00  0.00    -0.393 OA
ATOM     34  H   UNL     1      47.295  18.802  78.865  1.00  0.00     0.210 HD
ENDBRANCH  27  33
TORSDOF 2
ENDMDL
MODEL 4
REMARK VINA RESULT:    -5.967     12.926     15.402
REMARK INTER + INTRA:          -6.771
REMARK INTER:                  -6.576
REMARK INTRA:                  -0.194
REMARK UNBOUND:                -0.280
REMARK SMILES C[C@@H]1[C@H](C)CC[C@]2(C(=O)[O-])CC[C@]3(C)C(=CC[C@@H]4[C@]5(C)CC[C@@H](O)C(C)(C)[C@@H]5CC[C@@]43C)[C@H]12
REMARK SMILES IDX 7 1 6 2 11 3 33 4 5 5 12 6 15 7 2 8 3 9 13 10 16 11 1 12
REMARK SMILES IDX 4 13 14 14 31 15 17 16 18 17 30 18 32 19 19 20 29 21 28 22
REMARK SMILES IDX 21 23 20 24 25 25 22 26 23 27 26 28 27 29 8 30 9 31 10 32
REMARK SMILES IDX 24 33
REMARK H PARENT 24 34
REMARK Flexibility Score: inf
ROOT
ATOM      1  C   UNL     1      48.023  21.658  75.810  1.00  0.00     0.017 C 
ATOM      2  C   UNL     1      49.409  21.811  75.123  1.00  0.00     0.014 C 
ATOM      3  C   UNL     1      47.274  23.041  75.797  1.00  0.00     0.014 C 
ATOM      4  C   UNL     1      48.214  21.017  77.250  1.00  0.00     0.030 C 
ATOM      5  C   UNL     1      50.424  22.586  75.969  1.00  0.00     0.004 C 
ATOM      6  C   UNL     1      46.166  23.209  76.866  1.00  0.00     0.013 C 
ATOM      7  C   UNL     1      47.092  21.429  78.231  1.00  0.00    -0.063 C 
ATOM      8  C   UNL     1      49.679  20.907  77.842  1.00  0.00    -0.003 C 
ATOM      9  C   UNL     1      50.797  21.859  77.275  1.00  0.00    -0.011 C 
ATOM     10  C   UNL     1      46.639  22.889  78.324  1.00  0.00    -0.006 C 
ATOM     11  C   UNL     1      46.213  20.462  78.561  1.00  0.00    -0.027 C 
ATOM     12  C   UNL     1      49.706  20.717  79.372  1.00  0.00     0.008 C 
ATOM     13  C   UNL     1      51.417  22.843  78.288  1.00  0.00     0.008 C 
ATOM     14  C   UNL     1      47.865  23.814  78.610  1.00  0.00     0.017 C 
ATOM     15  C   UNL     1      45.507  23.112  79.504  1.00  0.00    -0.020 C 
ATOM     16  C   UNL     1      44.757  20.758  78.736  1.00  0.00     0.032 C 
ATOM     17  C   UNL     1      44.546  21.858  79.779  1.00  0.00     0.006 C 
ATOM     18  C   UNL     1      44.652  24.381  79.210  1.00  0.00     0.008 C 
ATOM     19  C   UNL     1      46.234  23.377  80.868  1.00  0.00     0.012 C 
ATOM     20  C   UNL     1      43.002  22.177  80.134  1.00  0.00    -0.025 C 
ATOM     21  C   UNL     1      43.395  24.069  78.396  1.00  0.00     0.005 C 
ATOM     22  C   UNL     1      42.334  23.319  79.233  1.00  0.00     0.003 C 
ATOM     23  C   UNL     1      42.155  20.851  80.156  1.00  0.00     0.010 C 
ATOM     24  C   UNL     1      42.946  22.681  81.612  1.00  0.00     0.012 C 
ATOM     25  C   UNL     1      41.065  22.884  78.384  1.00  0.00    -0.006 C 
ATOM     26  C   UNL     1      41.534  20.384  78.823  1.00  0.00     0.033 C 
ATOM     27  C   UNL     1      41.311  21.479  77.770  1.00  0.00     0.120 C 
ATOM     28  C   UNL     1      40.772  23.885  77.229  1.00  0.00     0.014 C 
ATOM     29  C   UNL     1      39.786  22.899  79.268  1.00  0.00     0.014 C 
ENDROOT
BRANCH   1  30
ATOM     30  C   UNL     1      47.163  20.721  74.954  1.00  0.00     0.048 C 
ATOM     31  O   UNL     1      46.748  19.622  75.410  1.00  0.00    -0.550 OA
ATOM     32  O   UNL     1      46.905  21.030  73.623  1.00  0.00    -0.550 OA
ENDBRANCH   1  30
BRANCH  27  33
ATOM     33  O   UNL     1      40.232  21.090  76.952  1.00  0.00    -0.393 OA
ATOM     34  H   UNL     1      40.300  21.597  76.100  1.00  0.00     0.210 HD
ENDBRANCH  27  33
TORSDOF 2
ENDMDL
MODEL 5
REMARK VINA RESULT:    -5.889      1.660      2.376
REMARK INTER + INTRA:          -6.686
REMARK INTER:                  -6.442
REMARK INTRA:                  -0.243
REMARK UNBOUND:                -0.280
REMARK SMILES C[C@@H]1[C@H](C)CC[C@]2(C(=O)[O-])CC[C@]3(C)C(=CC[C@@H]4[C@]5(C)CC[C@@H](O)C(C)(C)[C@@H]5CC[C@@]43C)[C@H]12
REMARK SMILES IDX 7 1 6 2 11 3 33 4 5 5 12 6 15 7 2 8 3 9 13 10 16 11 1 12
REMARK SMILES IDX 4 13 14 14 31 15 17 16 18 17 30 18 32 19 19 20 29 21 28 22
REMARK SMILES IDX 21 23 20 24 25 25 22 26 23 27 26 28 27 29 8 30 9 31 10 32
REMARK SMILES IDX 24 33
REMARK H PARENT 24 34
REMARK Flexibility Score: inf
ROOT
ATOM      1  C   UNL     1      52.078  33.895  84.719  1.00  0.00     0.017 C 
ATOM      2  C   UNL     1      53.132  34.480  83.737  1.00  0.00     0.014 C 
ATOM      3  C   UNL     1      52.410  32.385  85.010  1.00  0.00     0.014 C 
ATOM      4  C   UNL     1      50.619  34.159  84.150  1.00  0.00     0.030 C 
ATOM      5  C   UNL     1      52.972  33.970  82.302  1.00  0.00     0.004 C 
ATOM      6  C   UNL     1      51.222  31.527  85.510  1.00  0.00     0.013 C 
ATOM      7  C   UNL     1      49.599  33.102  84.632  1.00  0.00    -0.063 C 
ATOM      8  C   UNL     1      50.470  34.673  82.659  1.00  0.00    -0.003 C 
ATOM      9  C   UNL     1      51.649  34.415  81.649  1.00  0.00    -0.011 C 
ATOM     10  C   UNL     1      49.951  31.613  84.600  1.00  0.00    -0.006 C 
ATOM     11  C   UNL     1      48.689  33.528  85.532  1.00  0.00    -0.027 C 
ATOM     12  C   UNL     1      49.060  34.451  82.077  1.00  0.00     0.008 C 
ATOM     13  C   UNL     1      51.311  33.523  80.437  1.00  0.00     0.008 C 
ATOM     14  C   UNL     1      50.400  31.198  83.163  1.00  0.00     0.017 C 
ATOM     15  C   UNL     1      48.680  30.666  85.062  1.00  0.00    -0.020 C 
ATOM     16  C   UNL     1      48.239  32.654  86.658  1.00  0.00     0.032 C 
ATOM     17  C   UNL     1      47.686  31.327  86.133  1.00  0.00     0.006 C 
ATOM     18  C   UNL     1      49.185  29.289  85.589  1.00  0.00     0.008 C 
ATOM     19  C   UNL     1      47.788  30.359  83.810  1.00  0.00     0.012 C 
ATOM     20  C   UNL     1      47.060  30.352  87.259  1.00  0.00    -0.025 C 
ATOM     21  C   UNL     1      49.426  29.288  87.099  1.00  0.00     0.005 C 
ATOM     22  C   UNL     1      48.103  29.319  87.896  1.00  0.00     0.003 C 
ATOM     23  C   UNL     1      46.294  31.187  88.349  1.00  0.00     0.010 C 
ATOM     24  C   UNL     1      45.940  29.499  86.584  1.00  0.00     0.012 C 
ATOM     25  C   UNL     1      48.325  29.431  89.465  1.00  0.00    -0.006 C 
ATOM     26  C   UNL     1      47.110  31.706  89.550  1.00  0.00     0.033 C 
ATOM     27  C   UNL     1      48.394  30.928  89.872  1.00  0.00     0.120 C 
ATOM     28  C   UNL     1      49.642  28.733  89.913  1.00  0.00     0.014 C 
ATOM     29  C   UNL     1      47.192  28.688  90.230  1.00  0.00     0.014 C 
ENDROOT
BRANCH   1  30
ATOM     30  C   UNL     1      52.228  34.611  86.066  1.00  0.00     0.048 C 
ATOM     31  O   UNL     1      51.328  35.382  86.497  1.00  0.00    -0.550 OA
ATOM     32  O   UNL     1      53.407  34.494  86.794  1.00  0.00    -0.550 OA
ENDBRANCH   1  30
BRANCH  27  33
ATOM     33  O   UNL     1      48.659  31.065  91.248  1.00  0.00    -0.393 OA
ATOM     34  H   UNL     1      47.842  30.789  91.742  1.00  0.00     0.210 HD
ENDBRANCH  27  33
TORSDOF 2
ENDMDL
MODEL 6
REMARK VINA RESULT:    -5.738     12.758     15.609
REMARK INTER + INTRA:          -6.521
REMARK INTER:                  -6.408
REMARK INTRA:                  -0.113
REMARK UNBOUND:                -0.280
REMARK SMILES C[C@@H]1[C@H](C)CC[C@]2(C(=O)[O-])CC[C@]3(C)C(=CC[C@@H]4[C@]5(C)CC[C@@H](O)C(C)(C)[C@@H]5CC[C@@]43C)[C@H]12
REMARK SMILES IDX 7 1 6 2 11 3 33 4 5 5 12 6 15 7 2 8 3 9 13 10 16 11 1 12
REMARK SMILES IDX 4 13 14 14 31 15 17 16 18 17 30 18 32 19 19 20 29 21 28 22
REMARK SMILES IDX 21 23 20 24 25 25 22 26 23 27 26 28 27 29 8 30 9 31 10 32
REMARK SMILES IDX 24 33
REMARK H PARENT 24 34
REMARK Flexibility Score: inf
ROOT
ATOM      1  C   UNL     1      45.450  20.411  77.992  1.00  0.00     0.017 C 
ATOM      2  C   UNL     1      44.028  19.988  78.457  1.00  0.00     0.014 C 
ATOM      3  C   UNL     1      46.040  21.468  78.998  1.00  0.00     0.014 C 
ATOM      4  C   UNL     1      45.393  20.889  76.479  1.00  0.00     0.030 C 
ATOM      5  C   UNL     1      42.970  21.073  78.235  1.00  0.00     0.004 C 
ATOM      6  C   UNL     1      47.166  22.368  78.433  1.00  0.00     0.013 C 
ATOM      7  C   UNL     1      46.502  21.912  76.144  1.00  0.00    -0.063 C 
ATOM      8  C   UNL     1      43.975  21.123  75.812  1.00  0.00    -0.003 C 
ATOM      9  C   UNL     1      42.736  21.388  76.745  1.00  0.00    -0.011 C 
ATOM     10  C   UNL     1      46.793  23.080  77.089  1.00  0.00    -0.006 C 
ATOM     11  C   UNL     1      47.497  21.464  75.351  1.00  0.00    -0.027 C 
ATOM     12  C   UNL     1      44.034  22.005  74.549  1.00  0.00     0.008 C 
ATOM     13  C   UNL     1      42.053  22.761  76.579  1.00  0.00     0.008 C 
ATOM     14  C   UNL     1      45.486  23.890  77.360  1.00  0.00     0.017 C 
ATOM     15  C   UNL     1      47.942  24.098  76.482  1.00  0.00    -0.020 C 
ATOM     16  C   UNL     1      48.917  21.880  75.571  1.00  0.00     0.032 C 
ATOM     17  C   UNL     1      49.048  23.405  75.549  1.00  0.00     0.006 C 
ATOM     18  C   UNL     1      48.638  24.888  77.630  1.00  0.00     0.008 C 
ATOM     19  C   UNL     1      47.249  25.167  75.568  1.00  0.00     0.012 C 
ATOM     20  C   UNL     1      50.561  23.963  75.660  1.00  0.00    -0.025 C 
ATOM     21  C   UNL     1      49.886  24.181  78.160  1.00  0.00     0.005 C 
ATOM     22  C   UNL     1      51.058  24.243  77.155  1.00  0.00     0.003 C 
ATOM     23  C   UNL     1      51.550  23.042  74.856  1.00  0.00     0.010 C 
ATOM     24  C   UNL     1      50.622  25.329  74.903  1.00  0.00     0.012 C 
ATOM     25  C   UNL     1      52.331  23.421  77.632  1.00  0.00    -0.006 C 
ATOM     26  C   UNL     1      52.162  21.838  75.600  1.00  0.00     0.033 C 
ATOM     27  C   UNL     1      52.217  21.956  77.131  1.00  0.00     0.120 C 
ATOM     28  C   UNL     1      52.462  23.407  79.182  1.00  0.00     0.014 C 
ATOM     29  C   UNL     1      53.637  24.095  77.120  1.00  0.00     0.014 C 
ENDROOT
BRANCH   1  30
ATOM     30  C   UNL     1      46.372  19.191  78.098  1.00  0.00     0.048 C 
ATOM     31  O   UNL     1      46.077  18.101  77.536  1.00  0.00    -0.550 OA
ATOM     32  O   UNL     1      47.508  19.239  78.898  1.00  0.00    -0.550 OA
ENDBRANCH   1  30
BRANCH  27  33
ATOM     33  O   UNL     1      53.297  21.180  77.594  1.00  0.00    -0.393 OA
ATOM     34  H   UNL     1      53.024  20.225  77.549  1.00  0.00     0.210 HD
ENDBRANCH  27  33
TORSDOF 2
ENDMDL
MODEL 7
REMARK VINA RESULT:    -5.700      2.924      4.681
REMARK INTER + INTRA:          -6.480
REMARK INTER:                  -6.430
REMARK INTRA:                  -0.050
REMARK UNBOUND:                -0.280
REMARK SMILES C[C@@H]1[C@H](C)CC[C@]2(C(=O)[O-])CC[C@]3(C)C(=CC[C@@H]4[C@]5(C)CC[C@@H](O)C(C)(C)[C@@H]5CC[C@@]43C)[C@H]12
REMARK SMILES IDX 7 1 6 2 11 3 33 4 5 5 12 6 15 7 2 8 3 9 13 10 16 11 1 12
REMARK SMILES IDX 4 13 14 14 31 15 17 16 18 17 30 18 32 19 19 20 29 21 28 22
REMARK SMILES IDX 21 23 20 24 25 25 22 26 23 27 26 28 27 29 8 30 9 31 10 32
REMARK SMILES IDX 24 33
REMARK H PARENT 24 34
REMARK Flexibility Score: inf
ROOT
ATOM      1  C   UNL     1      52.286  33.844  80.490  1.00  0.00     0.017 C 
ATOM      2  C   UNL     1      52.361  33.604  78.956  1.00  0.00     0.014 C 
ATOM      3  C   UNL     1      53.061  32.699  81.241  1.00  0.00     0.014 C 
ATOM      4  C   UNL     1      50.768  34.018  80.925  1.00  0.00     0.030 C 
ATOM      5  C   UNL     1      51.488  32.439  78.481  1.00  0.00     0.004 C 
ATOM      6  C   UNL     1      52.654  32.479  82.719  1.00  0.00     0.013 C 
ATOM      7  C   UNL     1      50.524  33.594  82.391  1.00  0.00    -0.063 C 
ATOM      8  C   UNL     1      49.635  33.663  79.877  1.00  0.00    -0.003 C 
ATOM      9  C   UNL     1      49.983  32.693  78.688  1.00  0.00    -0.011 C 
ATOM     10  C   UNL     1      51.114  32.289  82.930  1.00  0.00    -0.006 C 
ATOM     11  C   UNL     1      50.277  34.595  83.261  1.00  0.00    -0.027 C 
ATOM     12  C   UNL     1      48.258  33.422  80.527  1.00  0.00     0.008 C 
ATOM     13  C   UNL     1      49.196  31.367  78.652  1.00  0.00     0.008 C 
ATOM     14  C   UNL     1      50.682  31.091  82.026  1.00  0.00     0.017 C 
ATOM     15  C   UNL     1      50.641  31.990  84.484  1.00  0.00    -0.020 C 
ATOM     16  C   UNL     1      50.815  34.566  84.656  1.00  0.00     0.032 C 
ATOM     17  C   UNL     1      50.379  33.292  85.383  1.00  0.00     0.006 C 
ATOM     18  C   UNL     1      51.660  31.051  85.196  1.00  0.00     0.008 C 
ATOM     19  C   UNL     1      49.273  31.224  84.465  1.00  0.00     0.012 C 
ATOM     20  C   UNL     1      50.807  33.211  86.940  1.00  0.00    -0.025 C 
ATOM     21  C   UNL     1      52.758  31.821  85.931  1.00  0.00     0.005 C 
ATOM     22  C   UNL     1      52.224  32.516  87.203  1.00  0.00     0.003 C 
ATOM     23  C   UNL     1      50.690  34.625  87.618  1.00  0.00     0.010 C 
ATOM     24  C   UNL     1      49.739  32.348  87.684  1.00  0.00     0.012 C 
ATOM     25  C   UNL     1      53.317  33.415  87.926  1.00  0.00    -0.006 C 
ATOM     26  C   UNL     1      51.921  35.552  87.544  1.00  0.00     0.033 C 
ATOM     27  C   UNL     1      53.273  34.852  87.341  1.00  0.00     0.120 C 
ATOM     28  C   UNL     1      54.752  32.844  87.734  1.00  0.00     0.014 C 
ATOM     29  C   UNL     1      53.086  33.422  89.464  1.00  0.00     0.014 C 
ENDROOT
BRANCH   1  30
ATOM     30  C   UNL     1      53.051  35.132  80.812  1.00  0.00     0.048 C 
ATOM     31  O   UNL     1      53.031  36.116  80.024  1.00  0.00    -0.550 OA
ATOM     32  O   UNL     1      53.860  35.202  81.941  1.00  0.00    -0.550 OA
ENDBRANCH   1  30
BRANCH  27  33
ATOM     33  O   UNL     1      54.277  35.659  87.911  1.00  0.00    -0.393 OA
ATOM     34  H   UNL     1      55.039  35.687  87.274  1.00  0.00     0.210 HD
ENDBRANCH  27  33
TORSDOF 2
ENDMDL
MODEL 8
REMARK VINA RESULT:    -5.659      2.325      7.257
REMARK INTER + INTRA:          -6.436
REMARK INTER:                  -6.393
REMARK INTRA:                  -0.043
REMARK UNBOUND:                -0.280
REMARK SMILES C[C@@H]1[C@H](C)CC[C@]2(C(=O)[O-])CC[C@]3(C)C(=CC[C@@H]4[C@]5(C)CC[C@@H](O)C(C)(C)[C@@H]5CC[C@@]43C)[C@H]12
REMARK SMILES IDX 7 1 6 2 11 3 33 4 5 5 12 6 15 7 2 8 3 9 13 10 16 11 1 12
REMARK SMILES IDX 4 13 14 14 31 15 17 16 18 17 30 18 32 19 19 20 29 21 28 22
REMARK SMILES IDX 21 23 20 24 25 25 22 26 23 27 26 28 27 29 8 30 9 31 10 32
REMARK SMILES IDX 24 33
REMARK H PARENT 24 34
REMARK Flexibility Score: inf
ROOT
ATOM      1  C   UNL     1      49.916  30.778  89.905  1.00  0.00     0.017 C 
ATOM      2  C   UNL     1      50.088  30.047  91.266  1.00  0.00     0.014 C 
ATOM      3  C   UNL     1      50.098  29.750  88.728  1.00  0.00     0.014 C 
ATOM      4  C   UNL     1      50.886  32.033  89.851  1.00  0.00     0.030 C 
ATOM      5  C   UNL     1      51.540  29.666  91.570  1.00  0.00     0.004 C 
ATOM      6  C   UNL     1      50.484  30.366  87.361  1.00  0.00     0.013 C 
ATOM      7  C   UNL     1      51.293  32.401  88.406  1.00  0.00    -0.063 C 
ATOM      8  C   UNL     1      52.000  32.177  90.968  1.00  0.00    -0.003 C 
ATOM      9  C   UNL     1      52.457  30.890  91.750  1.00  0.00    -0.011 C 
ATOM     10  C   UNL     1      51.730  31.313  87.421  1.00  0.00    -0.006 C 
ATOM     11  C   UNL     1      50.755  33.535  87.912  1.00  0.00    -0.027 C 
ATOM     12  C   UNL     1      53.143  33.132  90.569  1.00  0.00     0.008 C 
ATOM     13  C   UNL     1      53.938  30.492  91.578  1.00  0.00     0.008 C 
ATOM     14  C   UNL     1      52.899  30.477  88.030  1.00  0.00     0.017 C 
ATOM     15  C   UNL     1      52.214  31.944  85.975  1.00  0.00    -0.020 C 
ATOM     16  C   UNL     1      50.323  33.636  86.484  1.00  0.00     0.032 C 
ATOM     17  C   UNL     1      51.480  33.303  85.539  1.00  0.00     0.006 C 
ATOM     18  C   UNL     1      52.080  30.884  84.842  1.00  0.00     0.008 C 
ATOM     19  C   UNL     1      53.736  32.311  86.059  1.00  0.00     0.012 C 
ATOM     20  C   UNL     1      51.158  33.495  83.967  1.00  0.00    -0.025 C 
ATOM     21  C   UNL     1      50.723  30.938  84.139  1.00  0.00     0.005 C 
ATOM     22  C   UNL     1      50.585  32.188  83.242  1.00  0.00     0.003 C 
ATOM     23  C   UNL     1      50.251  34.760  83.741  1.00  0.00     0.010 C 
ATOM     24  C   UNL     1      52.496  33.859  83.246  1.00  0.00     0.012 C 
ATOM     25  C   UNL     1      49.145  32.329  82.588  1.00  0.00    -0.006 C 
ATOM     26  C   UNL     1      48.723  34.561  83.815  1.00  0.00     0.033 C 
ATOM     27  C   UNL     1      48.221  33.135  83.541  1.00  0.00     0.120 C 
ATOM     28  C   UNL     1      48.494  30.941  82.321  1.00  0.00     0.014 C 
ATOM     29  C   UNL     1      49.244  33.006  81.190  1.00  0.00     0.014 C 
ENDROOT
BRANCH   1  30
ATOM     30  C   UNL     1      48.464  31.262  89.800  1.00  0.00     0.048 C 
ATOM     31  O   UNL     1      47.701  31.252  90.804  1.00  0.00    -0.550 OA
ATOM     32  O   UNL     1      47.937  31.633  88.568  1.00  0.00    -0.550 OA
ENDBRANCH   1  30
BRANCH  27  33
ATOM     33  O   UNL     1      46.914  33.221  83.024  1.00  0.00    -0.393 OA
ATOM     34  H   UNL     1      46.623  34.168  83.094  1.00  0.00     0.210 HD
ENDBRANCH  27  33
TORSDOF 2
ENDMDL
MODEL 9
REMARK VINA RESULT:    -5.604     13.818     16.502
REMARK INTER + INTRA:          -6.376
REMARK INTER:                  -6.326
REMARK INTRA:                  -0.050
REMARK UNBOUND:                -0.280
REMARK SMILES C[C@@H]1[C@H](C)CC[C@]2(C(=O)[O-])CC[C@]3(C)C(=CC[C@@H]4[C@]5(C)CC[C@@H](O)C(C)(C)[C@@H]5CC[C@@]43C)[C@H]12
REMARK SMILES IDX 7 1 6 2 11 3 33 4 5 5 12 6 15 7 2 8 3 9 13 10 16 11 1 12
REMARK SMILES IDX 4 13 14 14 31 15 17 16 18 17 30 18 32 19 19 20 29 21 28 22
REMARK SMILES IDX 21 23 20 24 25 25 22 26 23 27 26 28 27 29 8 30 9 31 10 32
REMARK SMILES IDX 24 33
REMARK H PARENT 24 34
REMARK Flexibility Score: inf
ROOT
ATOM      1  C   UNL     1      40.325  22.049  78.765  1.00  0.00     0.017 C 
ATOM      2  C   UNL     1      38.900  22.511  79.181  1.00  0.00     0.014 C 
ATOM      3  C   UNL     1      41.394  22.739  79.691  1.00  0.00     0.014 C 
ATOM      4  C   UNL     1      40.530  22.297  77.210  1.00  0.00     0.030 C 
ATOM      5  C   UNL     1      38.591  23.957  78.783  1.00  0.00     0.004 C 
ATOM      6  C   UNL     1      42.825  22.821  79.108  1.00  0.00     0.013 C 
ATOM      7  C   UNL     1      42.014  22.519  76.841  1.00  0.00    -0.063 C 
ATOM      8  C   UNL     1      39.459  23.170  76.436  1.00  0.00    -0.003 C 
ATOM      9  C   UNL     1      38.560  24.167  77.257  1.00  0.00    -0.011 C 
ATOM     10  C   UNL     1      42.891  23.455  77.677  1.00  0.00    -0.006 C 
ATOM     11  C   UNL     1      42.610  21.517  76.162  1.00  0.00    -0.027 C 
ATOM     12  C   UNL     1      39.980  23.724  75.094  1.00  0.00     0.008 C 
ATOM     13  C   UNL     1      38.723  25.660  76.908  1.00  0.00     0.008 C 
ATOM     14  C   UNL     1      42.226  24.864  77.780  1.00  0.00     0.017 C 
ATOM     15  C   UNL     1      44.406  23.618  77.041  1.00  0.00    -0.020 C 
ATOM     16  C   UNL     1      44.031  21.133  76.427  1.00  0.00     0.032 C 
ATOM     17  C   UNL     1      44.962  22.335  76.255  1.00  0.00     0.006 C 
ATOM     18  C   UNL     1      45.420  24.046  78.143  1.00  0.00     0.008 C 
ATOM     19  C   UNL     1      44.394  24.774  75.980  1.00  0.00     0.012 C 
ATOM     20  C   UNL     1      46.538  22.008  76.402  1.00  0.00    -0.025 C 
ATOM     21  C   UNL     1      46.093  22.851  78.820  1.00  0.00     0.005 C 
ATOM     22  C   UNL     1      47.112  22.156  77.889  1.00  0.00     0.003 C 
ATOM     23  C   UNL     1      46.873  20.611  75.761  1.00  0.00     0.010 C 
ATOM     24  C   UNL     1      47.322  23.026  75.515  1.00  0.00     0.012 C 
ATOM     25  C   UNL     1      47.744  20.845  78.526  1.00  0.00    -0.006 C 
ATOM     26  C   UNL     1      46.743  19.366  76.662  1.00  0.00     0.033 C 
ATOM     27  C   UNL     1      46.858  19.620  78.173  1.00  0.00     0.120 C 
ATOM     28  C   UNL     1      47.851  20.951  80.075  1.00  0.00     0.014 C 
ATOM     29  C   UNL     1      49.205  20.649  78.031  1.00  0.00     0.014 C 
ENDROOT
BRANCH   1  30
ATOM     30  C   UNL     1      40.446  20.548  79.054  1.00  0.00     0.048 C 
ATOM     31  O   UNL     1      39.424  19.843  79.274  1.00  0.00    -0.550 OA
ATOM     32  O   UNL     1      41.699  19.956  79.170  1.00  0.00    -0.550 OA
ENDBRANCH   1  30
BRANCH  27  33
ATOM     33  O   UNL     1      47.351  18.449  78.780  1.00  0.00    -0.393 OA
ATOM     34  H   UNL     1      48.115  18.709  79.361  1.00  0.00     0.210 HD
ENDBRANCH  27  33
TORSDOF 2
ENDMDL
