MODEL 1
REMARK VINA RESULT:    -5.292      0.000      0.000
REMARK INTER + INTRA:          -6.671
REMARK INTER:                  -6.530
REMARK INTRA:                  -0.141
REMARK UNBOUND:                -0.141
REMARK SMILES Oc1cc(O)c2cc(O)c(-c3cc(O)c(O)c(O)c3)[o+]c2c1
REMARK SMILES IDX 10 1 20 2 21 3 22 4 2 5 3 6 4 7 6 8 7 9 8 10 11 11 12 12
REMARK SMILES IDX 13 13 19 14 15 15 17 16 14 17 16 19 18 21 9 23 1 25 5 27
REMARK H PARENT 14 18 16 20 18 22 9 24 1 26 5 28
REMARK Flexibility Score: inf
ROOT
ATOM      1  C   UNL     1      -4.836 -13.373  32.272  1.00  0.00     0.402 A 
ATOM      2  O   UNL     1      -4.854 -12.340  33.109  1.00  0.00    -0.202 OA
ATOM      3  C   UNL     1      -5.686 -12.250  34.142  1.00  0.00     0.368 A 
ATOM      4  C   UNL     1      -5.627 -11.125  34.968  1.00  0.00     0.162 A 
ATOM      5  C   UNL     1      -6.487 -11.006  36.060  1.00  0.00     0.128 A 
ATOM      6  C   UNL     1      -7.412 -12.019  36.332  1.00  0.00     0.093 A 
ATOM      7  C   UNL     1      -7.492 -13.157  35.520  1.00  0.00     0.136 A 
ATOM      8  C   UNL     1      -6.621 -13.281  34.406  1.00  0.00     0.125 A 
ATOM      9  C   UNL     1      -6.638 -14.378  33.530  1.00  0.00     0.078 A 
ATOM     10  C   UNL     1      -5.751 -14.427  32.451  1.00  0.00     0.223 A 
ENDROOT
BRANCH   1  11
ATOM     11  C   UNL     1      -3.853 -13.362  31.165  1.00  0.00     0.091 A 
ATOM     12  C   UNL     1      -4.309 -13.399  29.839  1.00  0.00     0.068 A 
ATOM     13  C   UNL     1      -3.410 -13.369  28.767  1.00  0.00     0.162 A 
ATOM     14  C   UNL     1      -2.476 -13.256  31.410  1.00  0.00     0.068 A 
ATOM     15  C   UNL     1      -2.021 -13.286  29.022  1.00  0.00     0.200 A 
ATOM     16  C   UNL     1      -1.565 -13.225  30.347  1.00  0.00     0.162 A 
BRANCH  13  17
ATOM     17  O   UNL     1      -3.937 -13.423  27.474  1.00  0.00    -0.504 OA
ATOM     18  H   UNL     1      -4.902 -13.228  27.247  1.00  0.00     0.293 HD
ENDBRANCH  13  17
BRANCH  15  19
ATOM     19  O   UNL     1      -1.070 -13.259  27.999  1.00  0.00    -0.502 OA
ATOM     20  H   UNL     1      -0.305 -12.601  27.953  1.00  0.00     0.293 HD
ENDBRANCH  15  19
BRANCH  16  21
ATOM     21  O   UNL     1      -0.197 -13.127  30.600  1.00  0.00    -0.504 OA
ATOM     22  H   UNL     1       0.167 -13.091  31.545  1.00  0.00     0.293 HD
ENDBRANCH  16  21
ENDBRANCH   1  11
BRANCH  10  23
ATOM     23  O   UNL     1      -5.801 -15.494  31.552  1.00  0.00    -0.500 OA
ATOM     24  H   UNL     1      -5.038 -16.153  31.465  1.00  0.00     0.294 HD
ENDBRANCH  10  23
BRANCH   5  25
ATOM     25  O   UNL     1      -6.412  -9.876  36.872  1.00  0.00    -0.507 OA
ATOM     26  H   UNL     1      -5.591  -9.682  37.435  1.00  0.00     0.293 HD
ENDBRANCH   5  25
BRANCH   7  27
ATOM     27  O   UNL     1      -8.441 -14.126  35.860  1.00  0.00    -0.507 OA
ATOM     28  H   UNL     1      -8.219 -15.024  36.266  1.00  0.00     0.293 HD
ENDBRANCH   7  27
TORSDOF 7
ENDMDL
MODEL 2
REMARK VINA RESULT:    -5.213      1.060      2.607
REMARK INTER + INTRA:          -6.572
REMARK INTER:                  -6.195
REMARK INTRA:                  -0.377
REMARK UNBOUND:                -0.141
REMARK SMILES Oc1cc(O)c2cc(O)c(-c3cc(O)c(O)c(O)c3)[o+]c2c1
REMARK SMILES IDX 10 1 20 2 21 3 22 4 2 5 3 6 4 7 6 8 7 9 8 10 11 11 12 12
REMARK SMILES IDX 13 13 19 14 15 15 17 16 14 17 16 19 18 21 9 23 1 25 5 27
REMARK H PARENT 14 18 16 20 18 22 9 24 1 26 5 28
REMARK Flexibility Score: inf
ROOT
ATOM      1  C   UNL     1      -4.427 -12.080  32.369  1.00  0.00     0.402 A 
ATOM      2  O   UNL     1      -5.255 -12.954  32.937  1.00  0.00    -0.202 OA
ATOM      3  C   UNL     1      -6.000 -12.669  34.001  1.00  0.00     0.368 A 
ATOM      4  C   UNL     1      -6.842 -13.654  34.524  1.00  0.00     0.162 A 
ATOM      5  C   UNL     1      -7.636 -13.382  35.639  1.00  0.00     0.128 A 
ATOM      6  C   UNL     1      -7.591 -12.117  36.235  1.00  0.00     0.093 A 
ATOM      7  C   UNL     1      -6.756 -11.113  35.730  1.00  0.00     0.136 A 
ATOM      8  C   UNL     1      -5.944 -11.387  34.598  1.00  0.00     0.125 A 
ATOM      9  C   UNL     1      -5.067 -10.448  34.032  1.00  0.00     0.078 A 
ATOM     10  C   UNL     1      -4.295 -10.792  32.918  1.00  0.00     0.223 A 
ENDROOT
BRANCH   1  11
ATOM     11  C   UNL     1      -3.659 -12.514  31.180  1.00  0.00     0.091 A 
ATOM     12  C   UNL     1      -4.203 -12.326  29.902  1.00  0.00     0.068 A 
ATOM     13  C   UNL     1      -3.497 -12.705  28.755  1.00  0.00     0.162 A 
ATOM     14  C   UNL     1      -2.371 -13.058  31.301  1.00  0.00     0.068 A 
ATOM     15  C   UNL     1      -2.208 -13.274  28.884  1.00  0.00     0.200 A 
ATOM     16  C   UNL     1      -1.653 -13.442  30.161  1.00  0.00     0.162 A 
BRANCH  13  17
ATOM     17  O   UNL     1      -4.109 -12.498  27.515  1.00  0.00    -0.504 OA
ATOM     18  H   UNL     1      -3.875 -11.743  26.888  1.00  0.00     0.293 HD
ENDBRANCH  13  17
BRANCH  15  19
ATOM     19  O   UNL     1      -1.452 -13.680  27.782  1.00  0.00    -0.502 OA
ATOM     20  H   UNL     1      -1.291 -14.644  27.529  1.00  0.00     0.293 HD
ENDBRANCH  15  19
BRANCH  16  21
ATOM     21  O   UNL     1      -0.376 -13.988  30.289  1.00  0.00    -0.504 OA
ATOM     22  H   UNL     1       0.117 -14.379  29.495  1.00  0.00     0.293 HD
ENDBRANCH  16  21
ENDBRANCH   1  11
BRANCH  10  23
ATOM     23  O   UNL     1      -3.388  -9.875  32.386  1.00  0.00    -0.500 OA
ATOM     24  H   UNL     1      -3.586  -9.363  31.535  1.00  0.00     0.294 HD
ENDBRANCH  10  23
BRANCH   5  25
ATOM     25  O   UNL     1      -8.470 -14.377  36.146  1.00  0.00    -0.507 OA
ATOM     26  H   UNL     1      -8.143 -15.038  36.841  1.00  0.00     0.293 HD
ENDBRANCH   5  25
BRANCH   7  27
ATOM     27  O   UNL     1      -6.770  -9.876  36.380  1.00  0.00    -0.507 OA
ATOM     28  H   UNL     1      -7.607  -9.412  36.705  1.00  0.00     0.293 HD
ENDBRANCH   7  27
TORSDOF 7
ENDMDL
MODEL 3
REMARK VINA RESULT:    -5.148      1.044      3.139
REMARK INTER + INTRA:          -6.492
REMARK INTER:                  -6.127
REMARK INTRA:                  -0.365
REMARK UNBOUND:                -0.141
REMARK SMILES Oc1cc(O)c2cc(O)c(-c3cc(O)c(O)c(O)c3)[o+]c2c1
REMARK SMILES IDX 10 1 20 2 21 3 22 4 2 5 3 6 4 7 6 8 7 9 8 10 11 11 12 12
REMARK SMILES IDX 13 13 19 14 15 15 17 16 14 17 16 19 18 21 9 23 1 25 5 27
REMARK H PARENT 14 18 16 20 18 22 9 24 1 26 5 28
REMARK Flexibility Score: inf
ROOT
ATOM      1  C   UNL     1      -4.450 -12.076  32.325  1.00  0.00     0.402 A 
ATOM      2  O   UNL     1      -5.273 -12.948  32.902  1.00  0.00    -0.202 OA
ATOM      3  C   UNL     1      -6.001 -12.664  33.978  1.00  0.00     0.368 A 
ATOM      4  C   UNL     1      -6.839 -13.647  34.510  1.00  0.00     0.162 A 
ATOM      5  C   UNL     1      -7.616 -13.375  35.637  1.00  0.00     0.128 A 
ATOM      6  C   UNL     1      -7.556 -12.112  36.237  1.00  0.00     0.093 A 
ATOM      7  C   UNL     1      -6.724 -11.110  35.722  1.00  0.00     0.136 A 
ATOM      8  C   UNL     1      -5.930 -11.383  34.578  1.00  0.00     0.125 A 
ATOM      9  C   UNL     1      -5.059 -10.446  34.001  1.00  0.00     0.078 A 
ATOM     10  C   UNL     1      -4.304 -10.790  32.875  1.00  0.00     0.223 A 
ENDROOT
BRANCH   1  11
ATOM     11  C   UNL     1      -3.701 -12.509  31.123  1.00  0.00     0.091 A 
ATOM     12  C   UNL     1      -2.400 -13.012  31.266  1.00  0.00     0.068 A 
ATOM     13  C   UNL     1      -1.670 -13.448  30.155  1.00  0.00     0.162 A 
ATOM     14  C   UNL     1      -4.286 -12.481  29.848  1.00  0.00     0.068 A 
ATOM     15  C   UNL     1      -2.257 -13.396  28.869  1.00  0.00     0.200 A 
ATOM     16  C   UNL     1      -3.567 -12.916  28.727  1.00  0.00     0.162 A 
BRANCH  13  17
ATOM     17  O   UNL     1      -0.374 -13.925  30.374  1.00  0.00    -0.504 OA
ATOM     18  H   UNL     1       0.024 -14.720  29.897  1.00  0.00     0.293 HD
ENDBRANCH  13  17
BRANCH  15  19
ATOM     19  O   UNL     1      -1.582 -13.810  27.718  1.00  0.00    -0.502 OA
ATOM     20  H   UNL     1      -0.743 -14.373  27.724  1.00  0.00     0.293 HD
ENDBRANCH  15  19
BRANCH  16  21
ATOM     21  O   UNL     1      -4.152 -12.878  27.462  1.00  0.00    -0.504 OA
ATOM     22  H   UNL     1      -3.760 -12.320  26.711  1.00  0.00     0.293 HD
ENDBRANCH  16  21
ENDBRANCH   1  11
BRANCH  10  23
ATOM     23  O   UNL     1      -3.402  -9.875  32.332  1.00  0.00    -0.500 OA
ATOM     24  H   UNL     1      -2.696  -9.423  32.900  1.00  0.00     0.294 HD
ENDBRANCH  10  23
BRANCH   5  25
ATOM     25  O   UNL     1      -8.446 -14.368  36.154  1.00  0.00    -0.507 OA
ATOM     26  H   UNL     1      -8.960 -14.233  37.016  1.00  0.00     0.293 HD
ENDBRANCH   5  25
BRANCH   7  27
ATOM     27  O   UNL     1      -6.724  -9.875  36.376  1.00  0.00    -0.507 OA
ATOM     28  H   UNL     1      -5.970  -9.538  36.959  1.00  0.00     0.293 HD
ENDBRANCH   7  27
TORSDOF 7
ENDMDL
MODEL 4
REMARK VINA RESULT:    -4.489      1.499      7.060
REMARK INTER + INTRA:          -5.680
REMARK INTER:                  -6.064
REMARK INTRA:                   0.384
REMARK UNBOUND:                -0.141
REMARK SMILES Oc1cc(O)c2cc(O)c(-c3cc(O)c(O)c(O)c3)[o+]c2c1
REMARK SMILES IDX 10 1 20 2 21 3 22 4 2 5 3 6 4 7 6 8 7 9 8 10 11 11 12 12
REMARK SMILES IDX 13 13 19 14 15 15 17 16 14 17 16 19 18 21 9 23 1 25 5 27
REMARK H PARENT 14 18 16 20 18 22 9 24 1 26 5 28
REMARK Flexibility Score: inf
ROOT
ATOM      1  C   UNL     1      -5.289 -12.724  33.247  1.00  0.00     0.402 A 
ATOM      2  O   UNL     1      -4.398 -11.794  32.914  1.00  0.00    -0.202 OA
ATOM      3  C   UNL     1      -3.618 -11.881  31.841  1.00  0.00     0.368 A 
ATOM      4  C   UNL     1      -2.714 -10.850  31.574  1.00  0.00     0.162 A 
ATOM      5  C   UNL     1      -1.884 -10.914  30.453  1.00  0.00     0.128 A 
ATOM      6  C   UNL     1      -1.958 -12.015  29.593  1.00  0.00     0.093 A 
ATOM      7  C   UNL     1      -2.856 -13.061  29.839  1.00  0.00     0.136 A 
ATOM      8  C   UNL     1      -3.699 -13.001  30.979  1.00  0.00     0.125 A 
ATOM      9  C   UNL     1      -4.619 -14.008  31.313  1.00  0.00     0.078 A 
ATOM     10  C   UNL     1      -5.414 -13.881  32.456  1.00  0.00     0.223 A 
ENDROOT
BRANCH   1  11
ATOM     11  C   UNL     1      -6.109 -12.508  34.461  1.00  0.00     0.091 A 
ATOM     12  C   UNL     1      -5.955 -11.321  35.193  1.00  0.00     0.068 A 
ATOM     13  C   UNL     1      -6.726 -11.073  36.334  1.00  0.00     0.162 A 
ATOM     14  C   UNL     1      -7.077 -13.439  34.865  1.00  0.00     0.068 A 
ATOM     15  C   UNL     1      -7.686 -12.027  36.749  1.00  0.00     0.200 A 
ATOM     16  C   UNL     1      -7.857 -13.203  36.005  1.00  0.00     0.162 A 
BRANCH  13  17
ATOM     17  O   UNL     1      -6.509  -9.875  37.019  1.00  0.00    -0.504 OA
ATOM     18  H   UNL     1      -6.323  -9.815  38.010  1.00  0.00     0.293 HD
ENDBRANCH  13  17
BRANCH  15  19
ATOM     19  O   UNL     1      -8.484 -11.845  37.882  1.00  0.00    -0.502 OA
ATOM     20  H   UNL     1      -9.321 -12.375  38.077  1.00  0.00     0.293 HD
ENDBRANCH  15  19
BRANCH  16  21
ATOM     21  O   UNL     1      -8.813 -14.137  36.404  1.00  0.00    -0.504 OA
ATOM     22  H   UNL     1      -8.558 -15.086  36.652  1.00  0.00     0.293 HD
ENDBRANCH  16  21
ENDBRANCH   1  11
BRANCH  10  23
ATOM     23  O   UNL     1      -6.292 -14.904  32.814  1.00  0.00    -0.500 OA
ATOM     24  H   UNL     1      -6.111 -15.509  33.606  1.00  0.00     0.294 HD
ENDBRANCH  10  23
BRANCH   5  25
ATOM     25  O   UNL     1      -0.989  -9.875  30.203  1.00  0.00    -0.507 OA
ATOM     26  H   UNL     1      -0.114 -10.037  29.717  1.00  0.00     0.293 HD
ENDBRANCH   5  25
BRANCH   7  27
ATOM     27  O   UNL     1      -2.871 -14.123  28.932  1.00  0.00    -0.507 OA
ATOM     28  H   UNL     1      -3.701 -14.634  28.664  1.00  0.00     0.293 HD
ENDBRANCH   7  27
TORSDOF 7
ENDMDL
MODEL 5
REMARK VINA RESULT:    -4.210      1.530      7.384
REMARK INTER + INTRA:          -5.335
REMARK INTER:                  -5.472
REMARK INTRA:                   0.137
REMARK UNBOUND:                -0.141
REMARK SMILES Oc1cc(O)c2cc(O)c(-c3cc(O)c(O)c(O)c3)[o+]c2c1
REMARK SMILES IDX 10 1 20 2 21 3 22 4 2 5 3 6 4 7 6 8 7 9 8 10 11 11 12 12
REMARK SMILES IDX 13 13 19 14 15 15 17 16 14 17 16 19 18 21 9 23 1 25 5 27
REMARK H PARENT 14 18 16 20 18 22 9 24 1 26 5 28
REMARK Flexibility Score: inf
ROOT
ATOM      1  C   UNL     1      -4.624 -12.672  31.743  1.00  0.00     0.402 A 
ATOM      2  O   UNL     1      -5.258 -13.290  30.750  1.00  0.00    -0.202 OA
ATOM      3  C   UNL     1      -4.714 -13.502  29.555  1.00  0.00     0.368 A 
ATOM      4  C   UNL     1      -5.461 -14.163  28.576  1.00  0.00     0.162 A 
ATOM      5  C   UNL     1      -4.914 -14.401  27.315  1.00  0.00     0.128 A 
ATOM      6  C   UNL     1      -3.612 -13.976  27.028  1.00  0.00     0.093 A 
ATOM      7  C   UNL     1      -2.844 -13.311  27.992  1.00  0.00     0.136 A 
ATOM      8  C   UNL     1      -3.397 -13.065  29.275  1.00  0.00     0.125 A 
ATOM      9  C   UNL     1      -2.707 -12.395  30.298  1.00  0.00     0.078 A 
ATOM     10  C   UNL     1      -3.320 -12.185  31.537  1.00  0.00     0.223 A 
ENDROOT
BRANCH   1  11
ATOM     11  C   UNL     1      -5.333 -12.506  33.032  1.00  0.00     0.091 A 
ATOM     12  C   UNL     1      -5.205 -11.302  33.739  1.00  0.00     0.068 A 
ATOM     13  C   UNL     1      -5.876 -11.103  34.950  1.00  0.00     0.162 A 
ATOM     14  C   UNL     1      -6.177 -13.507  33.536  1.00  0.00     0.068 A 
ATOM     15  C   UNL     1      -6.709 -12.125  35.464  1.00  0.00     0.200 A 
ATOM     16  C   UNL     1      -6.856 -13.321  34.747  1.00  0.00     0.162 A 
BRANCH  13  17
ATOM     17  O   UNL     1      -5.691  -9.882  35.604  1.00  0.00    -0.504 OA
ATOM     18  H   UNL     1      -4.931  -9.691  36.241  1.00  0.00     0.293 HD
ENDBRANCH  13  17
BRANCH  15  19
ATOM     19  O   UNL     1      -7.402 -11.994  36.670  1.00  0.00    -0.502 OA
ATOM     20  H   UNL     1      -6.958 -11.926  37.574  1.00  0.00     0.293 HD
ENDBRANCH  15  19
BRANCH  16  21
ATOM     21  O   UNL     1      -7.688 -14.324  35.245  1.00  0.00    -0.504 OA
ATOM     22  H   UNL     1      -7.469 -15.306  35.121  1.00  0.00     0.293 HD
ENDBRANCH  16  21
ENDBRANCH   1  11
BRANCH  10  23
ATOM     23  O   UNL     1      -2.653 -11.476  32.536  1.00  0.00    -0.500 OA
ATOM     24  H   UNL     1      -2.306 -10.538  32.382  1.00  0.00     0.294 HD
ENDBRANCH  10  23
BRANCH   5  25
ATOM     25  O   UNL     1      -5.674 -15.062  26.351  1.00  0.00    -0.507 OA
ATOM     26  H   UNL     1      -5.756 -14.706  25.406  1.00  0.00     0.293 HD
ENDBRANCH   5  25
BRANCH   7  27
ATOM     27  O   UNL     1      -1.551 -12.922  27.628  1.00  0.00    -0.507 OA
ATOM     28  H   UNL     1      -0.819 -13.562  27.353  1.00  0.00     0.293 HD
ENDBRANCH   7  27
TORSDOF 7
ENDMDL
MODEL 6
REMARK VINA RESULT:    -4.180      1.629      7.405
REMARK INTER + INTRA:          -5.298
REMARK INTER:                  -4.993
REMARK INTRA:                  -0.305
REMARK UNBOUND:                -0.141
REMARK SMILES Oc1cc(O)c2cc(O)c(-c3cc(O)c(O)c(O)c3)[o+]c2c1
REMARK SMILES IDX 10 1 20 2 21 3 22 4 2 5 3 6 4 7 6 8 7 9 8 10 11 11 12 12
REMARK SMILES IDX 13 13 19 14 15 15 17 16 14 17 16 19 18 21 9 23 1 25 5 27
REMARK H PARENT 14 18 16 20 18 22 9 24 1 26 5 28
REMARK Flexibility Score: inf
ROOT
ATOM      1  C   UNL     1      -5.007 -11.681  32.922  1.00  0.00     0.402 A 
ATOM      2  O   UNL     1      -3.997 -12.519  32.702  1.00  0.00    -0.202 OA
ATOM      3  C   UNL     1      -3.251 -12.492  31.601  1.00  0.00     0.368 A 
ATOM      4  C   UNL     1      -2.210 -13.414  31.463  1.00  0.00     0.162 A 
ATOM      5  C   UNL     1      -1.410 -13.406  30.320  1.00  0.00     0.128 A 
ATOM      6  C   UNL     1      -1.651 -12.472  29.307  1.00  0.00     0.093 A 
ATOM      7  C   UNL     1      -2.688 -11.538  29.421  1.00  0.00     0.136 A 
ATOM      8  C   UNL     1      -3.506 -11.544  30.581  1.00  0.00     0.125 A 
ATOM      9  C   UNL     1      -4.575 -10.655  30.777  1.00  0.00     0.078 A 
ATOM     10  C   UNL     1      -5.340 -10.725  31.945  1.00  0.00     0.223 A 
ENDROOT
BRANCH   1  11
ATOM     11  C   UNL     1      -5.756 -11.804  34.193  1.00  0.00     0.091 A 
ATOM     12  C   UNL     1      -5.608 -10.817  35.178  1.00  0.00     0.068 A 
ATOM     13  C   UNL     1      -6.316 -10.891  36.383  1.00  0.00     0.162 A 
ATOM     14  C   UNL     1      -6.656 -12.859  34.411  1.00  0.00     0.068 A 
ATOM     15  C   UNL     1      -7.205 -11.969  36.607  1.00  0.00     0.200 A 
ATOM     16  C   UNL     1      -7.371 -12.944  35.613  1.00  0.00     0.162 A 
BRANCH  13  17
ATOM     17  O   UNL     1      -6.108  -9.878  37.323  1.00  0.00    -0.504 OA
ATOM     18  H   UNL     1      -5.781 -10.038  38.264  1.00  0.00     0.293 HD
ENDBRANCH  13  17
BRANCH  15  19
ATOM     19  O   UNL     1      -7.936 -12.106  37.789  1.00  0.00    -0.502 OA
ATOM     20  H   UNL     1      -8.737 -12.711  37.893  1.00  0.00     0.293 HD
ENDBRANCH  15  19
BRANCH  16  21
ATOM     21  O   UNL     1      -8.258 -13.999  35.826  1.00  0.00    -0.504 OA
ATOM     22  H   UNL     1      -9.258 -13.885  35.702  1.00  0.00     0.293 HD
ENDBRANCH  16  21
ENDBRANCH   1  11
BRANCH  10  23
ATOM     23  O   UNL     1      -6.433  -9.875  32.117  1.00  0.00    -0.500 OA
ATOM     24  H   UNL     1      -6.921  -9.469  31.328  1.00  0.00     0.294 HD
ENDBRANCH  10  23
BRANCH   5  25
ATOM     25  O   UNL     1      -0.376 -14.333  30.201  1.00  0.00    -0.507 OA
ATOM     26  H   UNL     1      -0.374 -15.032  29.467  1.00  0.00     0.293 HD
ENDBRANCH   5  25
BRANCH   7  27
ATOM     27  O   UNL     1      -2.861 -10.636  28.368  1.00  0.00    -0.507 OA
ATOM     28  H   UNL     1      -3.697 -10.089  28.217  1.00  0.00     0.293 HD
ENDBRANCH   7  27
TORSDOF 7
ENDMDL
MODEL 7
REMARK VINA RESULT:    -4.146      1.527      7.294
REMARK INTER + INTRA:          -5.256
REMARK INTER:                  -5.370
REMARK INTRA:                   0.114
REMARK UNBOUND:                -0.141
REMARK SMILES Oc1cc(O)c2cc(O)c(-c3cc(O)c(O)c(O)c3)[o+]c2c1
REMARK SMILES IDX 10 1 20 2 21 3 22 4 2 5 3 6 4 7 6 8 7 9 8 10 11 11 12 12
REMARK SMILES IDX 13 13 19 14 15 15 17 16 14 17 16 19 18 21 9 23 1 25 5 27
REMARK H PARENT 14 18 16 20 18 22 9 24 1 26 5 28
REMARK Flexibility Score: inf
ROOT
ATOM      1  C   UNL     1      -4.594 -12.591  31.727  1.00  0.00     0.402 A 
ATOM      2  O   UNL     1      -5.223 -13.220  30.737  1.00  0.00    -0.202 OA
ATOM      3  C   UNL     1      -4.667 -13.460  29.554  1.00  0.00     0.368 A 
ATOM      4  C   UNL     1      -5.408 -14.130  28.578  1.00  0.00     0.162 A 
ATOM      5  C   UNL     1      -4.848 -14.397  27.327  1.00  0.00     0.128 A 
ATOM      6  C   UNL     1      -3.538 -13.992  27.050  1.00  0.00     0.093 A 
ATOM      7  C   UNL     1      -2.774 -13.318  28.011  1.00  0.00     0.136 A 
ATOM      8  C   UNL     1      -3.341 -13.042  29.283  1.00  0.00     0.125 A 
ATOM      9  C   UNL     1      -2.656 -12.361  30.302  1.00  0.00     0.078 A 
ATOM     10  C   UNL     1      -3.283 -12.122  31.529  1.00  0.00     0.223 A 
ENDROOT
BRANCH   1  11
ATOM     11  C   UNL     1      -5.318 -12.394  33.003  1.00  0.00     0.091 A 
ATOM     12  C   UNL     1      -6.116 -13.430  33.511  1.00  0.00     0.068 A 
ATOM     13  C   UNL     1      -6.798 -13.286  34.724  1.00  0.00     0.162 A 
ATOM     14  C   UNL     1      -5.179 -11.212  33.747  1.00  0.00     0.068 A 
ATOM     15  C   UNL     1      -6.671 -12.083  35.458  1.00  0.00     0.200 A 
ATOM     16  C   UNL     1      -5.856 -11.055  34.964  1.00  0.00     0.162 A 
BRANCH  13  17
ATOM     17  O   UNL     1      -7.583 -14.356  35.160  1.00  0.00    -0.504 OA
ATOM     18  H   UNL     1      -7.492 -14.794  36.065  1.00  0.00     0.293 HD
ENDBRANCH  13  17
BRANCH  15  19
ATOM     19  O   UNL     1      -7.330 -11.872  36.672  1.00  0.00    -0.502 OA
ATOM     20  H   UNL     1      -7.860 -12.579  37.160  1.00  0.00     0.293 HD
ENDBRANCH  15  19
BRANCH  16  21
ATOM     21  O   UNL     1      -5.718  -9.875  35.694  1.00  0.00    -0.504 OA
ATOM     22  H   UNL     1      -6.425  -9.149  35.669  1.00  0.00     0.293 HD
ENDBRANCH  16  21
ENDBRANCH   1  11
BRANCH  10  23
ATOM     23  O   UNL     1      -2.620 -11.402  32.524  1.00  0.00    -0.500 OA
ATOM     24  H   UNL     1      -1.631 -11.525  32.701  1.00  0.00     0.294 HD
ENDBRANCH  10  23
BRANCH   5  25
ATOM     25  O   UNL     1      -5.603 -15.068  26.367  1.00  0.00    -0.507 OA
ATOM     26  H   UNL     1      -6.536 -15.408  26.570  1.00  0.00     0.293 HD
ENDBRANCH   5  25
BRANCH   7  27
ATOM     27  O   UNL     1      -1.473 -12.950  27.658  1.00  0.00    -0.507 OA
ATOM     28  H   UNL     1      -1.225 -12.492  26.792  1.00  0.00     0.293 HD
ENDBRANCH   7  27
TORSDOF 7
ENDMDL
