MODEL 1
REMARK VINA RESULT:    -6.753      0.000      0.000
REMARK INTER + INTRA:          -8.446
REMARK INTER:                  -8.135
REMARK INTRA:                  -0.310
REMARK UNBOUND:                -0.310
REMARK SMILES O=c1c(O)c(-c2ccc(O)c(O)c2)oc2cc(O)cc(O)c12
REMARK SMILES IDX 5 1 3 2 2 3 1 4 22 5 20 6 19 7 17 8 16 9 15 10 14 11 6 12
REMARK SMILES IDX 7 13 8 14 9 15 13 16 11 17 10 18 12 20 4 22 21 24 18 26
REMARK H PARENT 10 19 12 21 4 23 21 25 18 27
REMARK Flexibility Score: inf
ROOT
ATOM      1  C   UNL     1      40.094  23.099  53.017  1.00  0.00     0.180 A 
ATOM      2  C   UNL     1      41.356  23.053  52.401  1.00  0.00     0.208 A 
ATOM      3  C   UNL     1      42.215  24.158  52.523  1.00  0.00     0.238 A 
ATOM      4  O   UNL     1      43.364  24.089  52.016  1.00  0.00    -0.285 OA
ATOM      5  C   UNL     1      41.793  25.300  53.246  1.00  0.00     0.111 A 
ATOM      6  C   UNL     1      42.565  26.491  53.400  1.00  0.00     0.134 A 
ATOM      7  C   UNL     1      42.104  27.508  54.244  1.00  0.00     0.093 A 
ATOM      8  C   UNL     1      40.868  27.405  54.887  1.00  0.00     0.123 A 
ATOM      9  C   UNL     1      40.081  26.272  54.696  1.00  0.00     0.094 A 
ATOM     10  C   UNL     1      40.531  25.225  53.889  1.00  0.00     0.146 A 
ATOM     11  O   UNL     1      39.754  24.159  53.742  1.00  0.00    -0.452 OA
ENDROOT
BRANCH   1  12
ATOM     12  C   UNL     1      39.124  21.984  52.911  1.00  0.00     0.025 A 
ATOM     13  C   UNL     1      38.327  21.814  51.766  1.00  0.00     0.016 A 
ATOM     14  C   UNL     1      37.402  20.769  51.699  1.00  0.00     0.051 A 
ATOM     15  C   UNL     1      37.251  19.888  52.779  1.00  0.00     0.157 A 
ATOM     16  C   UNL     1      38.954  21.112  53.999  1.00  0.00     0.062 A 
ATOM     17  C   UNL     1      38.029  20.063  53.934  1.00  0.00     0.158 A 
BRANCH  15  18
ATOM     18  O   UNL     1      36.328  18.845  52.708  1.00  0.00    -0.504 OA
ATOM     19  H   UNL     1      35.471  18.930  52.174  1.00  0.00     0.293 HD
ENDBRANCH  15  18
BRANCH  17  20
ATOM     20  O   UNL     1      37.897  19.208  55.029  1.00  0.00    -0.504 OA
ATOM     21  H   UNL     1      37.007  19.055  55.487  1.00  0.00     0.293 HD
ENDBRANCH  17  20
ENDBRANCH   1  12
BRANCH   2  22
ATOM     22  O   UNL     1      41.760  21.906  51.711  1.00  0.00    -0.502 OA
ATOM     23  H   UNL     1      41.850  21.882  50.702  1.00  0.00     0.293 HD
ENDBRANCH   2  22
BRANCH   6  24
ATOM     24  O   UNL     1      43.768  26.734  52.730  1.00  0.00    -0.507 OA
ATOM     25  H   UNL     1      44.085  26.228  51.916  1.00  0.00     0.293 HD
ENDBRANCH   6  24
BRANCH   8  26
ATOM     26  O   UNL     1      40.409  28.429  55.713  1.00  0.00    -0.508 OA
ATOM     27  H   UNL     1      40.144  29.334  55.340  1.00  0.00     0.293 HD
ENDBRANCH   8  26
TORSDOF 6
ENDMDL
MODEL 2
REMARK VINA RESULT:    -6.595      1.355      2.035
REMARK INTER + INTRA:          -8.254
REMARK INTER:                  -7.935
REMARK INTRA:                  -0.319
REMARK UNBOUND:                -0.310
REMARK SMILES O=c1c(O)c(-c2ccc(O)c(O)c2)oc2cc(O)cc(O)c12
REMARK SMILES IDX 5 1 3 2 2 3 1 4 22 5 20 6 19 7 17 8 16 9 15 10 14 11 6 12
REMARK SMILES IDX 7 13 8 14 9 15 13 16 11 17 10 18 12 20 4 22 21 24 18 26
REMARK H PARENT 10 19 12 21 4 23 21 25 18 27
REMARK Flexibility Score: inf
ROOT
ATOM      1  C   UNL     1      40.284  22.041  52.797  1.00  0.00     0.180 A 
ATOM      2  C   UNL     1      41.492  21.629  52.208  1.00  0.00     0.208 A 
ATOM      3  C   UNL     1      42.523  22.568  52.039  1.00  0.00     0.238 A 
ATOM      4  O   UNL     1      43.620  22.181  51.562  1.00  0.00    -0.285 OA
ATOM      5  C   UNL     1      42.326  23.910  52.447  1.00  0.00     0.111 A 
ATOM      6  C   UNL     1      43.287  24.953  52.288  1.00  0.00     0.134 A 
ATOM      7  C   UNL     1      43.037  26.213  52.845  1.00  0.00     0.093 A 
ATOM      8  C   UNL     1      41.832  26.484  53.500  1.00  0.00     0.123 A 
ATOM      9  C   UNL     1      40.864  25.490  53.608  1.00  0.00     0.094 A 
ATOM     10  C   UNL     1      41.100  24.213  53.094  1.00  0.00     0.146 A 
ATOM     11  O   UNL     1      40.154  23.290  53.228  1.00  0.00    -0.452 OA
ENDROOT
BRANCH   1  12
ATOM     12  C   UNL     1      39.143  21.115  52.985  1.00  0.00     0.025 A 
ATOM     13  C   UNL     1      38.974  20.395  54.180  1.00  0.00     0.016 A 
ATOM     14  C   UNL     1      37.904  19.509  54.325  1.00  0.00     0.051 A 
ATOM     15  C   UNL     1      36.996  19.318  53.274  1.00  0.00     0.157 A 
ATOM     16  C   UNL     1      38.243  20.905  51.927  1.00  0.00     0.062 A 
ATOM     17  C   UNL     1      37.169  20.018  52.069  1.00  0.00     0.158 A 
BRANCH  15  18
ATOM     18  O   UNL     1      35.927  18.435  53.423  1.00  0.00    -0.504 OA
ATOM     19  H   UNL     1      36.073  17.463  53.672  1.00  0.00     0.293 HD
ENDBRANCH  15  18
BRANCH  17  20
ATOM     20  O   UNL     1      36.288  19.845  51.002  1.00  0.00    -0.504 OA
ATOM     21  H   UNL     1      36.197  20.531  50.262  1.00  0.00     0.293 HD
ENDBRANCH  17  20
ENDBRANCH   1  12
BRANCH   2  22
ATOM     22  O   UNL     1      41.672  20.295  51.833  1.00  0.00    -0.502 OA
ATOM     23  H   UNL     1      40.900  19.643  51.754  1.00  0.00     0.293 HD
ENDBRANCH   2  22
BRANCH   6  24
ATOM     24  O   UNL     1      44.479  24.813  51.573  1.00  0.00    -0.507 OA
ATOM     25  H   UNL     1      44.570  24.937  50.575  1.00  0.00     0.293 HD
ENDBRANCH   6  24
BRANCH   8  26
ATOM     26  O   UNL     1      41.585  27.746  54.038  1.00  0.00    -0.508 OA
ATOM     27  H   UNL     1      40.774  28.289  53.766  1.00  0.00     0.293 HD
ENDBRANCH   8  26
TORSDOF 6
ENDMDL
MODEL 3
REMARK VINA RESULT:    -6.488      2.516      7.586
REMARK INTER + INTRA:          -8.125
REMARK INTER:                  -8.157
REMARK INTRA:                   0.032
REMARK UNBOUND:                -0.310
REMARK SMILES O=c1c(O)c(-c2ccc(O)c(O)c2)oc2cc(O)cc(O)c12
REMARK SMILES IDX 5 1 3 2 2 3 1 4 22 5 20 6 19 7 17 8 16 9 15 10 14 11 6 12
REMARK SMILES IDX 7 13 8 14 9 15 13 16 11 17 10 18 12 20 4 22 21 24 18 26
REMARK H PARENT 10 19 12 21 4 23 21 25 18 27
REMARK Flexibility Score: inf
ROOT
ATOM      1  C   UNL     1      40.656  21.582  52.853  1.00  0.00     0.180 A 
ATOM      2  C   UNL     1      39.587  21.730  53.754  1.00  0.00     0.208 A 
ATOM      3  C   UNL     1      38.877  20.590  54.164  1.00  0.00     0.238 A 
ATOM      4  O   UNL     1      37.957  20.724  55.012  1.00  0.00    -0.285 OA
ATOM      5  C   UNL     1      39.234  19.318  53.655  1.00  0.00     0.111 A 
ATOM      6  C   UNL     1      38.558  18.101  53.970  1.00  0.00     0.134 A 
ATOM      7  C   UNL     1      39.077  16.885  53.512  1.00  0.00     0.093 A 
ATOM      8  C   UNL     1      40.211  16.847  52.695  1.00  0.00     0.123 A 
ATOM      9  C   UNL     1      40.842  18.034  52.334  1.00  0.00     0.094 A 
ATOM     10  C   UNL     1      40.369  19.261  52.805  1.00  0.00     0.146 A 
ATOM     11  O   UNL     1      41.007  20.368  52.445  1.00  0.00    -0.452 OA
ENDROOT
BRANCH   1  12
ATOM     12  C   UNL     1      41.434  22.739  52.357  1.00  0.00     0.025 A 
ATOM     13  C   UNL     1      42.838  22.763  52.431  1.00  0.00     0.016 A 
ATOM     14  C   UNL     1      43.550  23.876  51.978  1.00  0.00     0.051 A 
ATOM     15  C   UNL     1      42.871  24.987  51.458  1.00  0.00     0.157 A 
ATOM     16  C   UNL     1      40.758  23.863  51.854  1.00  0.00     0.062 A 
ATOM     17  C   UNL     1      41.468  24.980  51.399  1.00  0.00     0.158 A 
BRANCH  15  18
ATOM     18  O   UNL     1      43.585  26.096  51.005  1.00  0.00    -0.504 OA
ATOM     19  H   UNL     1      43.666  26.938  51.563  1.00  0.00     0.293 HD
ENDBRANCH  15  18
BRANCH  17  20
ATOM     20  O   UNL     1      40.763  26.072  50.894  1.00  0.00    -0.504 OA
ATOM     21  H   UNL     1      40.325  26.054  49.980  1.00  0.00     0.293 HD
ENDBRANCH  17  20
ENDBRANCH   1  12
BRANCH   2  22
ATOM     22  O   UNL     1      39.266  22.993  54.261  1.00  0.00    -0.502 OA
ATOM     23  H   UNL     1      39.808  23.441  54.991  1.00  0.00     0.293 HD
ENDBRANCH   2  22
BRANCH   6  24
ATOM     24  O   UNL     1      37.368  18.036  54.700  1.00  0.00    -0.507 OA
ATOM     25  H   UNL     1      36.522  18.533  54.466  1.00  0.00     0.293 HD
ENDBRANCH   6  24
BRANCH   8  26
ATOM     26  O   UNL     1      40.712  15.633  52.231  1.00  0.00    -0.508 OA
ATOM     27  H   UNL     1      40.239  14.756  52.419  1.00  0.00     0.293 HD
ENDBRANCH   8  26
TORSDOF 6
ENDMDL
MODEL 4
REMARK VINA RESULT:    -6.059      2.166      3.447
REMARK INTER + INTRA:          -7.610
REMARK INTER:                  -7.598
REMARK INTRA:                  -0.011
REMARK UNBOUND:                -0.310
REMARK SMILES O=c1c(O)c(-c2ccc(O)c(O)c2)oc2cc(O)cc(O)c12
REMARK SMILES IDX 5 1 3 2 2 3 1 4 22 5 20 6 19 7 17 8 16 9 15 10 14 11 6 12
REMARK SMILES IDX 7 13 8 14 9 15 13 16 11 17 10 18 12 20 4 22 21 24 18 26
REMARK H PARENT 10 19 12 21 4 23 21 25 18 27
REMARK Flexibility Score: inf
ROOT
ATOM      1  C   UNL     1      41.536  23.007  52.383  1.00  0.00     0.180 A 
ATOM      2  C   UNL     1      40.662  23.981  52.895  1.00  0.00     0.208 A 
ATOM      3  C   UNL     1      41.103  25.311  52.989  1.00  0.00     0.238 A 
ATOM      4  O   UNL     1      40.297  26.188  53.396  1.00  0.00    -0.285 OA
ATOM      5  C   UNL     1      42.417  25.647  52.583  1.00  0.00     0.111 A 
ATOM      6  C   UNL     1      42.982  26.955  52.671  1.00  0.00     0.134 A 
ATOM      7  C   UNL     1      44.247  27.199  52.121  1.00  0.00     0.093 A 
ATOM      8  C   UNL     1      44.992  26.168  51.545  1.00  0.00     0.123 A 
ATOM      9  C   UNL     1      44.474  24.876  51.508  1.00  0.00     0.094 A 
ATOM     10  C   UNL     1      43.201  24.609  52.016  1.00  0.00     0.146 A 
ATOM     11  O   UNL     1      42.740  23.365  51.951  1.00  0.00    -0.452 OA
ENDROOT
BRANCH   1  12
ATOM     12  C   UNL     1      41.152  21.581  52.278  1.00  0.00     0.025 A 
ATOM     13  C   UNL     1      41.234  20.889  51.058  1.00  0.00     0.016 A 
ATOM     14  C   UNL     1      40.843  19.550  50.978  1.00  0.00     0.051 A 
ATOM     15  C   UNL     1      40.351  18.887  52.111  1.00  0.00     0.157 A 
ATOM     16  C   UNL     1      40.639  20.919  53.406  1.00  0.00     0.062 A 
ATOM     17  C   UNL     1      40.247  19.577  53.330  1.00  0.00     0.158 A 
BRANCH  15  18
ATOM     18  O   UNL     1      39.964  17.550  52.028  1.00  0.00    -0.504 OA
ATOM     19  H   UNL     1      39.419  17.110  52.760  1.00  0.00     0.293 HD
ENDBRANCH  15  18
BRANCH  17  20
ATOM     20  O   UNL     1      39.755  18.949  54.473  1.00  0.00    -0.504 OA
ATOM     21  H   UNL     1      38.864  18.466  54.481  1.00  0.00     0.293 HD
ENDBRANCH  17  20
ENDBRANCH   1  12
BRANCH   2  22
ATOM     22  O   UNL     1      39.361  23.631  53.269  1.00  0.00    -0.502 OA
ATOM     23  H   UNL     1      38.647  23.387  52.592  1.00  0.00     0.293 HD
ENDBRANCH   2  22
BRANCH   6  24
ATOM     24  O   UNL     1      42.361  28.033  53.308  1.00  0.00    -0.507 OA
ATOM     25  H   UNL     1      42.809  28.911  53.522  1.00  0.00     0.293 HD
ENDBRANCH   6  24
BRANCH   8  26
ATOM     26  O   UNL     1      46.257  26.417  51.014  1.00  0.00    -0.508 OA
ATOM     27  H   UNL     1      46.961  25.690  50.956  1.00  0.00     0.293 HD
ENDBRANCH   8  26
TORSDOF 6
ENDMDL
MODEL 5
REMARK VINA RESULT:    -6.019      2.393      7.157
REMARK INTER + INTRA:          -7.560
REMARK INTER:                  -7.410
REMARK INTRA:                  -0.151
REMARK UNBOUND:                -0.310
REMARK SMILES O=c1c(O)c(-c2ccc(O)c(O)c2)oc2cc(O)cc(O)c12
REMARK SMILES IDX 5 1 3 2 2 3 1 4 22 5 20 6 19 7 17 8 16 9 15 10 14 11 6 12
REMARK SMILES IDX 7 13 8 14 9 15 13 16 11 17 10 18 12 20 4 22 21 24 18 26
REMARK H PARENT 10 19 12 21 4 23 21 25 18 27
REMARK Flexibility Score: inf
ROOT
ATOM      1  C   UNL     1      40.875  21.099  52.607  1.00  0.00     0.180 A 
ATOM      2  C   UNL     1      41.252  19.988  51.832  1.00  0.00     0.208 A 
ATOM      3  C   UNL     1      40.573  18.772  52.007  1.00  0.00     0.238 A 
ATOM      4  O   UNL     1      40.878  17.798  51.272  1.00  0.00    -0.285 OA
ATOM      5  C   UNL     1      39.536  18.678  52.967  1.00  0.00     0.111 A 
ATOM      6  C   UNL     1      38.807  17.485  53.256  1.00  0.00     0.134 A 
ATOM      7  C   UNL     1      37.715  17.538  54.131  1.00  0.00     0.093 A 
ATOM      8  C   UNL     1      37.367  18.727  54.777  1.00  0.00     0.123 A 
ATOM      9  C   UNL     1      38.109  19.882  54.546  1.00  0.00     0.094 A 
ATOM     10  C   UNL     1      39.181  19.869  53.651  1.00  0.00     0.146 A 
ATOM     11  O   UNL     1      39.856  20.995  53.452  1.00  0.00    -0.452 OA
ENDROOT
BRANCH   1  12
ATOM     12  C   UNL     1      41.562  22.406  52.497  1.00  0.00     0.025 A 
ATOM     13  C   UNL     1      42.933  22.539  52.774  1.00  0.00     0.016 A 
ATOM     14  C   UNL     1      43.554  23.787  52.687  1.00  0.00     0.051 A 
ATOM     15  C   UNL     1      42.812  24.923  52.335  1.00  0.00     0.157 A 
ATOM     16  C   UNL     1      40.818  23.551  52.166  1.00  0.00     0.062 A 
ATOM     17  C   UNL     1      41.437  24.803  52.076  1.00  0.00     0.158 A 
BRANCH  15  18
ATOM     18  O   UNL     1      43.435  26.168  52.247  1.00  0.00    -0.504 OA
ATOM     19  H   UNL     1      43.070  26.902  51.651  1.00  0.00     0.293 HD
ENDBRANCH  15  18
BRANCH  17  20
ATOM     20  O   UNL     1      40.669  25.915  51.731  1.00  0.00    -0.504 OA
ATOM     21  H   UNL     1      39.714  25.829  51.403  1.00  0.00     0.293 HD
ENDBRANCH  17  20
ENDBRANCH   1  12
BRANCH   2  22
ATOM     22  O   UNL     1      42.264  20.111  50.876  1.00  0.00    -0.502 OA
ATOM     23  H   UNL     1      42.527  21.002  50.472  1.00  0.00     0.293 HD
ENDBRANCH   2  22
BRANCH   6  24
ATOM     24  O   UNL     1      39.129  16.228  52.737  1.00  0.00    -0.507 OA
ATOM     25  H   UNL     1      38.848  15.348  53.143  1.00  0.00     0.293 HD
ENDBRANCH   6  24
BRANCH   8  26
ATOM     26  O   UNL     1      36.289  18.767  55.658  1.00  0.00    -0.508 OA
ATOM     27  H   UNL     1      35.830  19.639  55.897  1.00  0.00     0.293 HD
ENDBRANCH   8  26
TORSDOF 6
ENDMDL
MODEL 6
REMARK VINA RESULT:    -5.925      1.484      6.837
REMARK INTER + INTRA:          -7.448
REMARK INTER:                  -7.321
REMARK INTRA:                  -0.127
REMARK UNBOUND:                -0.310
REMARK SMILES O=c1c(O)c(-c2ccc(O)c(O)c2)oc2cc(O)cc(O)c12
REMARK SMILES IDX 5 1 3 2 2 3 1 4 22 5 20 6 19 7 17 8 16 9 15 10 14 11 6 12
REMARK SMILES IDX 7 13 8 14 9 15 13 16 11 17 10 18 12 20 4 22 21 24 18 26
REMARK H PARENT 10 19 12 21 4 23 21 25 18 27
REMARK Flexibility Score: inf
ROOT
ATOM      1  C   UNL     1      39.693  23.072  53.303  1.00  0.00     0.180 A 
ATOM      2  C   UNL     1      39.322  22.534  52.059  1.00  0.00     0.208 A 
ATOM      3  C   UNL     1      38.482  21.409  52.026  1.00  0.00     0.238 A 
ATOM      4  O   UNL     1      38.109  20.965  50.910  1.00  0.00    -0.285 OA
ATOM      5  C   UNL     1      38.036  20.829  53.238  1.00  0.00     0.111 A 
ATOM      6  C   UNL     1      37.215  19.664  53.324  1.00  0.00     0.134 A 
ATOM      7  C   UNL     1      36.727  19.254  54.571  1.00  0.00     0.093 A 
ATOM      8  C   UNL     1      37.085  19.928  55.741  1.00  0.00     0.123 A 
ATOM      9  C   UNL     1      37.934  21.029  55.674  1.00  0.00     0.094 A 
ATOM     10  C   UNL     1      38.407  21.484  54.441  1.00  0.00     0.146 A 
ATOM     11  O   UNL     1      39.206  22.544  54.420  1.00  0.00    -0.452 OA
ENDROOT
BRANCH   1  12
ATOM     12  C   UNL     1      40.596  24.241  53.418  1.00  0.00     0.025 A 
ATOM     13  C   UNL     1      41.896  24.216  52.884  1.00  0.00     0.016 A 
ATOM     14  C   UNL     1      42.739  25.321  53.026  1.00  0.00     0.051 A 
ATOM     15  C   UNL     1      42.301  26.461  53.715  1.00  0.00     0.157 A 
ATOM     16  C   UNL     1      40.170  25.376  54.126  1.00  0.00     0.062 A 
ATOM     17  C   UNL     1      41.011  26.486  54.270  1.00  0.00     0.158 A 
BRANCH  15  18
ATOM     18  O   UNL     1      43.144  27.563  53.854  1.00  0.00    -0.504 OA
ATOM     19  H   UNL     1      44.122  27.456  54.094  1.00  0.00     0.293 HD
ENDBRANCH  15  18
BRANCH  17  20
ATOM     20  O   UNL     1      40.548  27.601  54.968  1.00  0.00    -0.504 OA
ATOM     21  H   UNL     1      40.682  27.705  55.966  1.00  0.00     0.293 HD
ENDBRANCH  17  20
ENDBRANCH   1  12
BRANCH   2  22
ATOM     22  O   UNL     1      39.756  23.137  50.875  1.00  0.00    -0.502 OA
ATOM     23  H   UNL     1      40.709  23.455  50.744  1.00  0.00     0.293 HD
ENDBRANCH   2  22
BRANCH   6  24
ATOM     24  O   UNL     1      36.875  18.867  52.228  1.00  0.00    -0.507 OA
ATOM     25  H   UNL     1      37.352  18.877  51.339  1.00  0.00     0.293 HD
ENDBRANCH   6  24
BRANCH   8  26
ATOM     26  O   UNL     1      36.608  19.502  56.980  1.00  0.00    -0.508 OA
ATOM     27  H   UNL     1      35.651  19.673  57.267  1.00  0.00     0.293 HD
ENDBRANCH   8  26
TORSDOF 6
ENDMDL
MODEL 7
REMARK VINA RESULT:    -5.844      2.054      6.673
REMARK INTER + INTRA:          -7.350
REMARK INTER:                  -7.080
REMARK INTRA:                  -0.271
REMARK UNBOUND:                -0.310
REMARK SMILES O=c1c(O)c(-c2ccc(O)c(O)c2)oc2cc(O)cc(O)c12
REMARK SMILES IDX 5 1 3 2 2 3 1 4 22 5 20 6 19 7 17 8 16 9 15 10 14 11 6 12
REMARK SMILES IDX 7 13 8 14 9 15 13 16 11 17 10 18 12 20 4 22 21 24 18 26
REMARK H PARENT 10 19 12 21 4 23 21 25 18 27
REMARK Flexibility Score: inf
ROOT
ATOM      1  C   UNL     1      40.949  22.560  52.479  1.00  0.00     0.180 A 
ATOM      2  C   UNL     1      41.557  21.475  51.823  1.00  0.00     0.208 A 
ATOM      3  C   UNL     1      41.116  20.172  52.108  1.00  0.00     0.238 A 
ATOM      4  O   UNL     1      41.627  19.211  51.478  1.00  0.00    -0.285 OA
ATOM      5  C   UNL     1      40.084  19.970  53.056  1.00  0.00     0.111 A 
ATOM      6  C   UNL     1      39.586  18.692  53.451  1.00  0.00     0.134 A 
ATOM      7  C   UNL     1      38.475  18.616  54.299  1.00  0.00     0.093 A 
ATOM      8  C   UNL     1      37.885  19.771  54.818  1.00  0.00     0.123 A 
ATOM      9  C   UNL     1      38.401  21.021  54.486  1.00  0.00     0.094 A 
ATOM     10  C   UNL     1      39.485  21.130  53.613  1.00  0.00     0.146 A 
ATOM     11  O   UNL     1      39.939  22.341  53.314  1.00  0.00    -0.452 OA
ENDROOT
BRANCH   1  12
ATOM     12  C   UNL     1      41.376  23.959  52.250  1.00  0.00     0.025 A 
ATOM     13  C   UNL     1      41.017  24.652  51.081  1.00  0.00     0.016 A 
ATOM     14  C   UNL     1      41.453  25.963  50.875  1.00  0.00     0.051 A 
ATOM     15  C   UNL     1      42.264  26.596  51.827  1.00  0.00     0.157 A 
ATOM     16  C   UNL     1      42.207  24.590  53.190  1.00  0.00     0.062 A 
ATOM     17  C   UNL     1      42.644  25.904  52.988  1.00  0.00     0.158 A 
BRANCH  15  18
ATOM     18  O   UNL     1      42.695  27.906  51.620  1.00  0.00    -0.504 OA
ATOM     19  H   UNL     1      42.074  28.696  51.750  1.00  0.00     0.293 HD
ENDBRANCH  15  18
BRANCH  17  20
ATOM     20  O   UNL     1      43.456  26.504  53.951  1.00  0.00    -0.504 OA
ATOM     21  H   UNL     1      43.212  26.508  54.934  1.00  0.00     0.293 HD
ENDBRANCH  17  20
ENDBRANCH   1  12
BRANCH   2  22
ATOM     22  O   UNL     1      42.559  21.699  50.875  1.00  0.00    -0.502 OA
ATOM     23  H   UNL     1      42.670  21.119  50.052  1.00  0.00     0.293 HD
ENDBRANCH   2  22
BRANCH   6  24
ATOM     24  O   UNL     1      40.160  17.478  53.064  1.00  0.00    -0.507 OA
ATOM     25  H   UNL     1      40.818  17.368  52.306  1.00  0.00     0.293 HD
ENDBRANCH   6  24
BRANCH   8  26
ATOM     26  O   UNL     1      36.789  19.685  55.675  1.00  0.00    -0.508 OA
ATOM     27  H   UNL     1      36.637  20.363  56.412  1.00  0.00     0.293 HD
ENDBRANCH   8  26
TORSDOF 6
ENDMDL
MODEL 8
REMARK VINA RESULT:    -5.520      3.340      8.371
REMARK INTER + INTRA:          -6.960
REMARK INTER:                  -7.060
REMARK INTRA:                   0.100
REMARK UNBOUND:                -0.310
REMARK SMILES O=c1c(O)c(-c2ccc(O)c(O)c2)oc2cc(O)cc(O)c12
REMARK SMILES IDX 5 1 3 2 2 3 1 4 22 5 20 6 19 7 17 8 16 9 15 10 14 11 6 12
REMARK SMILES IDX 7 13 8 14 9 15 13 16 11 17 10 18 12 20 4 22 21 24 18 26
REMARK H PARENT 10 19 12 21 4 23 21 25 18 27
REMARK Flexibility Score: inf
ROOT
ATOM      1  C   UNL     1      39.657  18.933  52.050  1.00  0.00     0.180 A 
ATOM      2  C   UNL     1      40.529  17.832  51.988  1.00  0.00     0.208 A 
ATOM      3  C   UNL     1      39.997  16.535  52.061  1.00  0.00     0.238 A 
ATOM      4  O   UNL     1      40.777  15.554  51.950  1.00  0.00    -0.285 OA
ATOM      5  C   UNL     1      38.600  16.355  52.212  1.00  0.00     0.111 A 
ATOM      6  C   UNL     1      37.956  15.088  52.338  1.00  0.00     0.134 A 
ATOM      7  C   UNL     1      36.558  15.022  52.352  1.00  0.00     0.093 A 
ATOM      8  C   UNL     1      35.782  16.184  52.310  1.00  0.00     0.123 A 
ATOM      9  C   UNL     1      36.403  17.428  52.248  1.00  0.00     0.094 A 
ATOM     10  C   UNL     1      37.795  17.524  52.196  1.00  0.00     0.146 A 
ATOM     11  O   UNL     1      38.346  18.730  52.126  1.00  0.00    -0.452 OA
ENDROOT
BRANCH   1  12
ATOM     12  C   UNL     1      40.146  20.330  52.005  1.00  0.00     0.025 A 
ATOM     13  C   UNL     1      41.133  20.730  51.088  1.00  0.00     0.016 A 
ATOM     14  C   UNL     1      41.597  22.047  51.079  1.00  0.00     0.051 A 
ATOM     15  C   UNL     1      41.092  22.981  51.995  1.00  0.00     0.157 A 
ATOM     16  C   UNL     1      39.658  21.263  52.934  1.00  0.00     0.062 A 
ATOM     17  C   UNL     1      40.120  22.585  52.928  1.00  0.00     0.158 A 
BRANCH  15  18
ATOM     18  O   UNL     1      41.555  24.296  51.983  1.00  0.00    -0.504 OA
ATOM     19  H   UNL     1      42.460  24.536  51.594  1.00  0.00     0.293 HD
ENDBRANCH  15  18
BRANCH  17  20
ATOM     20  O   UNL     1      39.602  23.487  53.857  1.00  0.00    -0.504 OA
ATOM     21  H   UNL     1      40.029  24.391  54.024  1.00  0.00     0.293 HD
ENDBRANCH  17  20
ENDBRANCH   1  12
BRANCH   2  22
ATOM     22  O   UNL     1      41.902  18.033  51.817  1.00  0.00    -0.502 OA
ATOM     23  H   UNL     1      42.286  18.909  51.481  1.00  0.00     0.293 HD
ENDBRANCH   2  22
BRANCH   6  24
ATOM     24  O   UNL     1      38.639  13.876  52.479  1.00  0.00    -0.507 OA
ATOM     25  H   UNL     1      38.639  13.133  51.797  1.00  0.00     0.293 HD
ENDBRANCH   6  24
BRANCH   8  26
ATOM     26  O   UNL     1      34.391  16.110  52.340  1.00  0.00    -0.508 OA
ATOM     27  H   UNL     1      33.844  16.658  52.995  1.00  0.00     0.293 HD
ENDBRANCH   8  26
TORSDOF 6
ENDMDL
