MODEL 1
REMARK VINA RESULT:     2.324      0.000      0.000
REMARK INTER + INTRA:           5.268
REMARK INTER:                   3.207
REMARK INTRA:                   2.061
REMARK UNBOUND:                 2.061
REMARK SMILES CC[C@@H](CC[C@H](C)[C@@H]1CC[C@@H]2[C@@H]3CC=C4C[C@@H](O)CC[C@]4(C)[C@H]3CC[C@]21C)C(C)C
REMARK SMILES IDX 5 1 4 2 3 3 2 4 1 5 28 6 29 7 30 8 6 9 7 10 8 11 9 12 26 13
REMARK SMILES IDX 10 14 11 15 25 16 27 17 12 18 24 19 23 20 13 21 21 22 14 23
REMARK SMILES IDX 15 24 20 25 22 26 16 27 19 28 17 29 18 30
REMARK H PARENT 18 31
REMARK Flexibility Score: inf
ROOT
ATOM      1  C   UNL     1       8.202 -35.012  13.278  1.00  0.00     0.004 C 
ENDROOT
BRANCH   1   2
ATOM      2  C   UNL     1       8.928 -34.735  11.938  1.00  0.00     0.004 C 
BRANCH   2   3
ATOM      3  C   UNL     1      10.467 -34.572  12.092  1.00  0.00    -0.009 C 
BRANCH   3   4
ATOM      4  C   UNL     1      10.939 -35.104  13.486  1.00  0.00     0.000 C 
ATOM      5  C   UNL     1      12.437 -34.900  13.706  1.00  0.00     0.004 C 
ENDBRANCH   3   4
BRANCH   3   6
ATOM      6  C   UNL     1      10.939 -33.093  11.875  1.00  0.00    -0.014 C 
ATOM      7  C   UNL     1      10.248 -32.141  12.872  1.00  0.00     0.007 C 
ATOM      8  C   UNL     1      12.464 -32.909  12.011  1.00  0.00     0.007 C 
ENDBRANCH   3   6
ENDBRANCH   2   3
ENDBRANCH   1   2
BRANCH   1   9
ATOM      9  C   UNL     1       6.669 -34.747  13.252  1.00  0.00    -0.011 C 
ATOM     10  C   UNL     1       6.089 -35.125  11.875  1.00  0.00     0.008 C 
BRANCH   9  11
ATOM     11  C   UNL     1       6.302 -33.284  13.676  1.00  0.00    -0.002 C 
ATOM     12  C   UNL     1       6.481 -32.258  12.523  1.00  0.00     0.005 C 
ATOM     13  C   UNL     1       7.085 -32.647  14.870  1.00  0.00    -0.026 C 
ATOM     14  C   UNL     1       6.865 -30.914  13.165  1.00  0.00     0.005 C 
ATOM     15  C   UNL     1       6.713 -31.170  14.656  1.00  0.00    -0.001 C 
ATOM     16  C   UNL     1       6.593 -33.092  16.295  1.00  0.00     0.007 C 
ATOM     17  C   UNL     1       8.617 -32.908  14.698  1.00  0.00     0.012 C 
ATOM     18  C   UNL     1       7.280 -30.155  15.688  1.00  0.00     0.000 C 
ATOM     19  C   UNL     1       6.460 -31.932  17.325  1.00  0.00     0.005 C 
ATOM     20  C   UNL     1       7.507 -30.817  17.076  1.00  0.00     0.003 C 
ATOM     21  C   UNL     1       8.544 -29.392  15.291  1.00  0.00     0.031 C 
ATOM     22  C   UNL     1       7.660 -29.726  18.195  1.00  0.00    -0.008 C 
ATOM     23  C   UNL     1       8.978 -28.466  16.406  1.00  0.00    -0.027 C 
ATOM     24  C   UNL     1       8.640 -28.633  17.713  1.00  0.00    -0.065 C 
ATOM     25  C   UNL     1       8.248 -30.392  19.483  1.00  0.00     0.014 C 
ATOM     26  C   UNL     1       6.293 -29.073  18.538  1.00  0.00     0.016 C 
ATOM     27  C   UNL     1       9.180 -27.656  18.738  1.00  0.00     0.063 C 
ATOM     28  C   UNL     1       8.742 -29.386  20.537  1.00  0.00     0.033 C 
ATOM     29  C   UNL     1       9.771 -28.416  19.936  1.00  0.00     0.118 C 
BRANCH  29  30
ATOM     30  O   UNL     1      10.238 -27.519  20.911  1.00  0.00    -0.393 OA
ATOM     31  H   UNL     1      10.361 -28.027  21.756  1.00  0.00     0.210 HD
ENDBRANCH  29  30
ENDBRANCH   9  11
ENDBRANCH   1   9
TORSDOF 7
ENDMDL
MODEL 2
REMARK VINA RESULT:     4.533      2.578      5.208
REMARK INTER + INTRA:           8.317
REMARK INTER:                   5.037
REMARK INTRA:                   3.281
REMARK UNBOUND:                 2.061
REMARK SMILES CC[C@@H](CC[C@H](C)[C@@H]1CC[C@@H]2[C@@H]3CC=C4C[C@@H](O)CC[C@]4(C)[C@H]3CC[C@]21C)C(C)C
REMARK SMILES IDX 5 1 4 2 3 3 2 4 1 5 28 6 29 7 30 8 6 9 7 10 8 11 9 12 26 13
REMARK SMILES IDX 10 14 11 15 25 16 27 17 12 18 24 19 23 20 13 21 21 22 14 23
REMARK SMILES IDX 15 24 20 25 22 26 16 27 19 28 17 29 18 30
REMARK H PARENT 18 31
REMARK Flexibility Score: inf
ROOT
ATOM      1  C   UNL     1       6.505 -33.660  15.697  1.00  0.00     0.004 C 
ENDROOT
BRANCH   1   2
ATOM      2  C   UNL     1       6.233 -32.333  16.449  1.00  0.00     0.004 C 
BRANCH   2   3
ATOM      3  C   UNL     1       7.463 -31.815  17.248  1.00  0.00    -0.009 C 
BRANCH   3   4
ATOM      4  C   UNL     1       7.996 -32.923  18.216  1.00  0.00     0.000 C 
ATOM      5  C   UNL     1       7.102 -34.162  18.224  1.00  0.00     0.004 C 
ENDBRANCH   3   4
BRANCH   3   6
ATOM      6  C   UNL     1       7.154 -30.494  18.035  1.00  0.00    -0.014 C 
ATOM      7  C   UNL     1       8.413 -29.611  18.149  1.00  0.00     0.007 C 
ATOM      8  C   UNL     1       6.031 -29.650  17.399  1.00  0.00     0.007 C 
ENDBRANCH   3   6
ENDBRANCH   2   3
ENDBRANCH   1   2
BRANCH   1   9
ATOM      9  C   UNL     1       6.034 -33.673  14.213  1.00  0.00    -0.011 C 
ATOM     10  C   UNL     1       5.875 -35.125  13.721  1.00  0.00     0.008 C 
BRANCH   9  11
ATOM     11  C   UNL     1       6.959 -32.821  13.279  1.00  0.00    -0.002 C 
ATOM     12  C   UNL     1       7.673 -33.674  12.194  1.00  0.00     0.005 C 
ATOM     13  C   UNL     1       8.118 -32.006  13.939  1.00  0.00    -0.026 C 
ATOM     14  C   UNL     1       9.025 -33.000  11.902  1.00  0.00     0.005 C 
ATOM     15  C   UNL     1       8.956 -31.699  12.686  1.00  0.00    -0.001 C 
ATOM     16  C   UNL     1       7.679 -30.649  14.600  1.00  0.00     0.007 C 
ATOM     17  C   UNL     1       8.883 -32.907  14.963  1.00  0.00     0.012 C 
ATOM     18  C   UNL     1      10.236 -30.843  12.899  1.00  0.00     0.000 C 
ATOM     19  C   UNL     1       8.617 -29.445  14.290  1.00  0.00     0.005 C 
ATOM     20  C   UNL     1      10.091 -29.892  14.121  1.00  0.00     0.003 C 
ATOM     21  C   UNL     1      11.563 -31.593  13.011  1.00  0.00     0.031 C 
ATOM     22  C   UNL     1      11.174 -28.756  14.073  1.00  0.00    -0.008 C 
ATOM     23  C   UNL     1      12.703 -30.624  13.238  1.00  0.00    -0.027 C 
ATOM     24  C   UNL     1      12.554 -29.378  13.763  1.00  0.00    -0.065 C 
ATOM     25  C   UNL     1      11.245 -28.056  15.470  1.00  0.00     0.014 C 
ATOM     26  C   UNL     1      10.836 -27.697  12.989  1.00  0.00     0.016 C 
ATOM     27  C   UNL     1      13.787 -28.524  13.980  1.00  0.00     0.063 C 
ATOM     28  C   UNL     1      12.474 -27.150  15.655  1.00  0.00     0.033 C 
ATOM     29  C   UNL     1      13.775 -27.924  15.394  1.00  0.00     0.118 C 
BRANCH  29  30
ATOM     30  O   UNL     1      14.894 -27.097  15.592  1.00  0.00    -0.393 OA
ATOM     31  H   UNL     1      14.598 -26.155  15.482  1.00  0.00     0.210 HD
ENDBRANCH  29  30
ENDBRANCH   9  11
ENDBRANCH   1   9
TORSDOF 7
ENDMDL
MODEL 3
REMARK VINA RESULT:     4.655      2.607      5.785
REMARK INTER + INTRA:           8.485
REMARK INTER:                   5.985
REMARK INTRA:                   2.500
REMARK UNBOUND:                 2.061
REMARK SMILES CC[C@@H](CC[C@H](C)[C@@H]1CC[C@@H]2[C@@H]3CC=C4C[C@@H](O)CC[C@]4(C)[C@H]3CC[C@]21C)C(C)C
REMARK SMILES IDX 5 1 4 2 3 3 2 4 1 5 28 6 29 7 30 8 6 9 7 10 8 11 9 12 26 13
REMARK SMILES IDX 10 14 11 15 25 16 27 17 12 18 24 19 23 20 13 21 21 22 14 23
REMARK SMILES IDX 15 24 20 25 22 26 16 27 19 28 17 29 18 30
REMARK H PARENT 18 31
REMARK Flexibility Score: inf
ROOT
ATOM      1  C   UNL     1       6.019 -32.864  16.395  1.00  0.00     0.004 C 
ENDROOT
BRANCH   1   2
ATOM      2  C   UNL     1       5.876 -31.325  16.297  1.00  0.00     0.004 C 
BRANCH   2   3
ATOM      3  C   UNL     1       6.182 -30.590  17.634  1.00  0.00    -0.009 C 
BRANCH   3   4
ATOM      4  C   UNL     1       5.975 -29.048  17.473  1.00  0.00     0.000 C 
ATOM      5  C   UNL     1       5.878 -28.334  18.821  1.00  0.00     0.004 C 
ENDBRANCH   3   4
BRANCH   3   6
ATOM      6  C   UNL     1       7.621 -30.903  18.174  1.00  0.00    -0.014 C 
ATOM      7  C   UNL     1       8.672 -29.999  17.500  1.00  0.00     0.007 C 
ATOM      8  C   UNL     1       7.752 -30.738  19.701  1.00  0.00     0.007 C 
ENDBRANCH   3   6
ENDBRANCH   2   3
ENDBRANCH   1   2
BRANCH   1   9
ATOM      9  C   UNL     1       5.881 -33.617  15.040  1.00  0.00    -0.011 C 
ATOM     10  C   UNL     1       6.125 -35.125  15.244  1.00  0.00     0.008 C 
BRANCH   9  11
ATOM     11  C   UNL     1       6.789 -33.009  13.917  1.00  0.00    -0.002 C 
ATOM     12  C   UNL     1       7.437 -34.093  13.011  1.00  0.00     0.005 C 
ATOM     13  C   UNL     1       7.995 -32.115  14.352  1.00  0.00    -0.026 C 
ATOM     14  C   UNL     1       8.793 -33.541  12.538  1.00  0.00     0.005 C 
ATOM     15  C   UNL     1       8.790 -32.104  13.035  1.00  0.00    -0.001 C 
ATOM     16  C   UNL     1       7.618 -30.635  14.728  1.00  0.00     0.007 C 
ATOM     17  C   UNL     1       8.777 -32.807  15.515  1.00  0.00     0.012 C 
ATOM     18  C   UNL     1      10.098 -31.265  13.021  1.00  0.00     0.000 C 
ATOM     19  C   UNL     1       8.573 -29.554  14.142  1.00  0.00     0.005 C 
ATOM     20  C   UNL     1      10.027 -30.076  14.020  1.00  0.00     0.003 C 
ATOM     21  C   UNL     1      11.409 -32.019  13.241  1.00  0.00     0.031 C 
ATOM     22  C   UNL     1      11.136 -29.012  13.698  1.00  0.00    -0.008 C 
ATOM     23  C   UNL     1      12.582 -31.063  13.222  1.00  0.00    -0.027 C 
ATOM     24  C   UNL     1      12.486 -29.731  13.479  1.00  0.00    -0.065 C 
ATOM     25  C   UNL     1      11.281 -28.039  14.915  1.00  0.00     0.014 C 
ATOM     26  C   UNL     1      10.782 -28.191  12.429  1.00  0.00     0.016 C 
ATOM     27  C   UNL     1      13.749 -28.892  13.470  1.00  0.00     0.063 C 
ATOM     28  C   UNL     1      12.539 -27.156  14.864  1.00  0.00     0.033 C 
ATOM     29  C   UNL     1      13.809 -28.011  14.727  1.00  0.00     0.118 C 
BRANCH  29  30
ATOM     30  O   UNL     1      14.955 -27.199  14.710  1.00  0.00    -0.393 OA
ATOM     31  H   UNL     1      15.608 -27.609  14.083  1.00  0.00     0.210 HD
ENDBRANCH  29  30
ENDBRANCH   9  11
ENDBRANCH   1   9
TORSDOF 7
ENDMDL
