MODEL 1
REMARK VINA RESULT:    -7.006      0.000      0.000
REMARK INTER + INTRA:          -8.764
REMARK INTER:                  -8.439
REMARK INTRA:                  -0.325
REMARK UNBOUND:                -0.325
REMARK SMILES O=c1c(O)c(-c2ccc(O)c(O)c2)oc2cc(O)cc(O)c12
REMARK SMILES IDX 5 1 3 2 2 3 1 4 22 5 20 6 19 7 17 8 16 9 15 10 14 11 6 12
REMARK SMILES IDX 7 13 8 14 9 15 13 16 11 17 10 18 12 20 4 22 21 24 18 26
REMARK H PARENT 10 19 12 21 4 23 21 25 18 27
REMARK Flexibility Score: inf
ROOT
ATOM      1  C   UNL     1      40.390 117.269  12.624  1.00  0.00     0.180 A 
ATOM      2  C   UNL     1      41.095 116.606  13.643  1.00  0.00     0.208 A 
ATOM      3  C   UNL     1      42.379 116.110  13.371  1.00  0.00     0.238 A 
ATOM      4  O   UNL     1      42.983 115.469  14.270  1.00  0.00    -0.285 OA
ATOM      5  C   UNL     1      42.950 116.298  12.089  1.00  0.00     0.111 A 
ATOM      6  C   UNL     1      44.261 115.873  11.715  1.00  0.00     0.134 A 
ATOM      7  C   UNL     1      44.673 115.995  10.382  1.00  0.00     0.093 A 
ATOM      8  C   UNL     1      43.846 116.587   9.425  1.00  0.00     0.123 A 
ATOM      9  C   UNL     1      42.588 117.060   9.793  1.00  0.00     0.094 A 
ATOM     10  C   UNL     1      42.136 116.919  11.107  1.00  0.00     0.146 A 
ATOM     11  O   UNL     1      40.926 117.372  11.413  1.00  0.00    -0.452 OA
ENDROOT
BRANCH   1  12
ATOM     12  C   UNL     1      39.041 117.842  12.843  1.00  0.00     0.025 A 
ATOM     13  C   UNL     1      37.908 117.043  12.619  1.00  0.00     0.016 A 
ATOM     14  C   UNL     1      36.626 117.568  12.799  1.00  0.00     0.051 A 
ATOM     15  C   UNL     1      36.458 118.903  13.189  1.00  0.00     0.157 A 
ATOM     16  C   UNL     1      38.867 119.187  13.214  1.00  0.00     0.062 A 
ATOM     17  C   UNL     1      37.581 119.715  13.393  1.00  0.00     0.158 A 
BRANCH  15  18
ATOM     18  O   UNL     1      35.181 119.430  13.371  1.00  0.00    -0.504 OA
ATOM     19  H   UNL     1      34.729 119.422  14.279  1.00  0.00     0.293 HD
ENDBRANCH  15  18
BRANCH  17  20
ATOM     20  O   UNL     1      37.411 121.046  13.768  1.00  0.00    -0.504 OA
ATOM     21  H   UNL     1      36.498 121.418  14.007  1.00  0.00     0.293 HD
ENDBRANCH  17  20
ENDBRANCH   1  12
BRANCH   2  22
ATOM     22  O   UNL     1      40.503 116.412  14.895  1.00  0.00    -0.502 OA
ATOM     23  H   UNL     1      39.499 116.424  15.030  1.00  0.00     0.293 HD
ENDBRANCH   2  22
BRANCH   6  24
ATOM     24  O   UNL     1      45.198 115.354  12.613  1.00  0.00    -0.507 OA
ATOM     25  H   UNL     1      45.009 114.627  13.285  1.00  0.00     0.293 HD
ENDBRANCH   6  24
BRANCH   8  26
ATOM     26  O   UNL     1      44.269 116.720   8.104  1.00  0.00    -0.508 OA
ATOM     27  H   UNL     1      43.614 116.916   7.356  1.00  0.00     0.293 HD
ENDBRANCH   8  26
TORSDOF 6
ENDMDL
MODEL 2
REMARK VINA RESULT:    -6.991      1.145      1.710
REMARK INTER + INTRA:          -8.746
REMARK INTER:                  -8.432
REMARK INTRA:                  -0.314
REMARK UNBOUND:                -0.325
REMARK SMILES O=c1c(O)c(-c2ccc(O)c(O)c2)oc2cc(O)cc(O)c12
REMARK SMILES IDX 5 1 3 2 2 3 1 4 22 5 20 6 19 7 17 8 16 9 15 10 14 11 6 12
REMARK SMILES IDX 7 13 8 14 9 15 13 16 11 17 10 18 12 20 4 22 21 24 18 26
REMARK H PARENT 10 19 12 21 4 23 21 25 18 27
REMARK Flexibility Score: inf
ROOT
ATOM      1  C   UNL     1      41.123 116.753  12.485  1.00  0.00     0.180 A 
ATOM      2  C   UNL     1      41.588 115.762  13.367  1.00  0.00     0.208 A 
ATOM      3  C   UNL     1      42.771 115.075  13.056  1.00  0.00     0.238 A 
ATOM      4  O   UNL     1      43.153 114.151  13.820  1.00  0.00    -0.285 OA
ATOM      5  C   UNL     1      43.485 115.399  11.876  1.00  0.00     0.111 A 
ATOM      6  C   UNL     1      44.718 114.795  11.483  1.00  0.00     0.134 A 
ATOM      7  C   UNL     1      45.267 115.099  10.231  1.00  0.00     0.093 A 
ATOM      8  C   UNL     1      44.664 116.035   9.388  1.00  0.00     0.123 A 
ATOM      9  C   UNL     1      43.492 116.675   9.789  1.00  0.00     0.094 A 
ATOM     10  C   UNL     1      42.901 116.364  11.016  1.00  0.00     0.146 A 
ATOM     11  O   UNL     1      41.779 116.988  11.355  1.00  0.00    -0.452 OA
ENDROOT
BRANCH   1  12
ATOM     12  C   UNL     1      39.897 117.538  12.758  1.00  0.00     0.025 A 
ATOM     13  C   UNL     1      39.968 118.662  13.596  1.00  0.00     0.016 A 
ATOM     14  C   UNL     1      38.820 119.404  13.885  1.00  0.00     0.051 A 
ATOM     15  C   UNL     1      37.582 119.024  13.352  1.00  0.00     0.157 A 
ATOM     16  C   UNL     1      38.647 117.148  12.243  1.00  0.00     0.062 A 
ATOM     17  C   UNL     1      37.495 117.892  12.533  1.00  0.00     0.158 A 
BRANCH  15  18
ATOM     18  O   UNL     1      36.435 119.763  13.635  1.00  0.00    -0.504 OA
ATOM     19  H   UNL     1      35.924 120.250  12.907  1.00  0.00     0.293 HD
ENDBRANCH  15  18
BRANCH  17  20
ATOM     20  O   UNL     1      36.259 117.508  12.016  1.00  0.00    -0.504 OA
ATOM     21  H   UNL     1      35.903 117.894  11.149  1.00  0.00     0.293 HD
ENDBRANCH  17  20
ENDBRANCH   1  12
BRANCH   2  22
ATOM     22  O   UNL     1      40.856 115.443  14.514  1.00  0.00    -0.502 OA
ATOM     23  H   UNL     1      40.783 116.072  15.305  1.00  0.00     0.293 HD
ENDBRANCH   2  22
BRANCH   6  24
ATOM     24  O   UNL     1      45.448 113.917  12.289  1.00  0.00    -0.507 OA
ATOM     25  H   UNL     1      45.092 113.465  13.116  1.00  0.00     0.293 HD
ENDBRANCH   6  24
BRANCH   8  26
ATOM     26  O   UNL     1      45.225 116.345   8.151  1.00  0.00    -0.508 OA
ATOM     27  H   UNL     1      45.860 117.128   8.039  1.00  0.00     0.293 HD
ENDBRANCH   8  26
TORSDOF 6
ENDMDL
MODEL 3
REMARK VINA RESULT:    -6.928      1.752      6.788
REMARK INTER + INTRA:          -8.670
REMARK INTER:                  -8.911
REMARK INTRA:                   0.240
REMARK UNBOUND:                -0.325
REMARK SMILES O=c1c(O)c(-c2ccc(O)c(O)c2)oc2cc(O)cc(O)c12
REMARK SMILES IDX 5 1 3 2 2 3 1 4 22 5 20 6 19 7 17 8 16 9 15 10 14 11 6 12
REMARK SMILES IDX 7 13 8 14 9 15 13 16 11 17 10 18 12 20 4 22 21 24 18 26
REMARK H PARENT 10 19 12 21 4 23 21 25 18 27
REMARK Flexibility Score: inf
ROOT
ATOM      1  C   UNL     1      40.037 117.465  12.963  1.00  0.00     0.180 A 
ATOM      2  C   UNL     1      40.268 117.583  14.345  1.00  0.00     0.208 A 
ATOM      3  C   UNL     1      39.194 117.900  15.190  1.00  0.00     0.238 A 
ATOM      4  O   UNL     1      39.417 118.058  16.419  1.00  0.00    -0.285 OA
ATOM      5  C   UNL     1      37.899 118.079  14.646  1.00  0.00     0.111 A 
ATOM      6  C   UNL     1      36.729 118.363  15.415  1.00  0.00     0.134 A 
ATOM      7  C   UNL     1      35.525 118.650  14.759  1.00  0.00     0.093 A 
ATOM      8  C   UNL     1      35.434 118.598  13.367  1.00  0.00     0.123 A 
ATOM      9  C   UNL     1      36.555 118.264  12.611  1.00  0.00     0.094 A 
ATOM     10  C   UNL     1      37.779 118.008  13.235  1.00  0.00     0.146 A 
ATOM     11  O   UNL     1      38.826 117.704  12.476  1.00  0.00    -0.452 OA
ENDROOT
BRANCH   1  12
ATOM     12  C   UNL     1      41.115 117.109  12.012  1.00  0.00     0.025 A 
ATOM     13  C   UNL     1      42.125 116.220  12.415  1.00  0.00     0.016 A 
ATOM     14  C   UNL     1      43.164 115.886  11.542  1.00  0.00     0.051 A 
ATOM     15  C   UNL     1      43.216 116.447  10.260  1.00  0.00     0.157 A 
ATOM     16  C   UNL     1      41.184 117.686  10.732  1.00  0.00     0.062 A 
ATOM     17  C   UNL     1      42.227 117.352   9.856  1.00  0.00     0.158 A 
BRANCH  15  18
ATOM     18  O   UNL     1      44.249 116.115   9.385  1.00  0.00    -0.504 OA
ATOM     19  H   UNL     1      44.684 116.811   8.790  1.00  0.00     0.293 HD
ENDBRANCH  15  18
BRANCH  17  20
ATOM     20  O   UNL     1      42.289 117.920   8.584  1.00  0.00    -0.504 OA
ATOM     21  H   UNL     1      42.861 118.735   8.394  1.00  0.00     0.293 HD
ENDBRANCH  17  20
ENDBRANCH   1  12
BRANCH   2  22
ATOM     22  O   UNL     1      41.559 117.423  14.858  1.00  0.00    -0.502 OA
ATOM     23  H   UNL     1      42.231 118.181  14.887  1.00  0.00     0.293 HD
ENDBRANCH   2  22
BRANCH   6  24
ATOM     24  O   UNL     1      36.691 118.350  16.812  1.00  0.00    -0.507 OA
ATOM     25  H   UNL     1      37.477 118.134  17.406  1.00  0.00     0.293 HD
ENDBRANCH   6  24
BRANCH   8  26
ATOM     26  O   UNL     1      34.228 118.870  12.722  1.00  0.00    -0.508 OA
ATOM     27  H   UNL     1      34.166 119.564  11.986  1.00  0.00     0.293 HD
ENDBRANCH   8  26
TORSDOF 6
ENDMDL
MODEL 4
REMARK VINA RESULT:    -6.780      3.814      6.101
REMARK INTER + INTRA:          -8.492
REMARK INTER:                  -8.298
REMARK INTRA:                  -0.194
REMARK UNBOUND:                -0.325
REMARK SMILES O=c1c(O)c(-c2ccc(O)c(O)c2)oc2cc(O)cc(O)c12
REMARK SMILES IDX 5 1 3 2 2 3 1 4 22 5 20 6 19 7 17 8 16 9 15 10 14 11 6 12
REMARK SMILES IDX 7 13 8 14 9 15 13 16 11 17 10 18 12 20 4 22 21 24 18 26
REMARK H PARENT 10 19 12 21 4 23 21 25 18 27
REMARK Flexibility Score: inf
ROOT
ATOM      1  C   UNL     1      44.727 115.371  11.914  1.00  0.00     0.180 A 
ATOM      2  C   UNL     1      45.473 116.191  12.779  1.00  0.00     0.208 A 
ATOM      3  C   UNL     1      46.284 115.590  13.755  1.00  0.00     0.238 A 
ATOM      4  O   UNL     1      46.906 116.328  14.562  1.00  0.00    -0.285 OA
ATOM      5  C   UNL     1      46.352 114.178  13.843  1.00  0.00     0.111 A 
ATOM      6  C   UNL     1      47.172 113.462  14.767  1.00  0.00     0.134 A 
ATOM      7  C   UNL     1      47.060 112.069  14.853  1.00  0.00     0.093 A 
ATOM      8  C   UNL     1      46.208 111.361  14.003  1.00  0.00     0.123 A 
ATOM      9  C   UNL     1      45.448 112.046  13.057  1.00  0.00     0.094 A 
ATOM     10  C   UNL     1      45.511 113.439  12.972  1.00  0.00     0.146 A 
ATOM     11  O   UNL     1      44.761 114.053  12.064  1.00  0.00    -0.452 OA
ENDROOT
BRANCH   1  12
ATOM     12  C   UNL     1      43.870 115.931  10.843  1.00  0.00     0.025 A 
ATOM     13  C   UNL     1      44.256 115.784   9.501  1.00  0.00     0.016 A 
ATOM     14  C   UNL     1      43.474 116.322   8.477  1.00  0.00     0.051 A 
ATOM     15  C   UNL     1      42.303 117.029   8.779  1.00  0.00     0.157 A 
ATOM     16  C   UNL     1      42.705 116.659  11.143  1.00  0.00     0.062 A 
ATOM     17  C   UNL     1      41.920 117.201  10.115  1.00  0.00     0.158 A 
BRANCH  15  18
ATOM     18  O   UNL     1      41.518 117.566   7.760  1.00  0.00    -0.504 OA
ATOM     19  H   UNL     1      41.611 117.254   6.800  1.00  0.00     0.293 HD
ENDBRANCH  15  18
BRANCH  17  20
ATOM     20  O   UNL     1      40.762 117.917  10.414  1.00  0.00    -0.504 OA
ATOM     21  H   UNL     1      39.990 117.975   9.760  1.00  0.00     0.293 HD
ENDBRANCH  17  20
ENDBRANCH   1  12
BRANCH   2  22
ATOM     22  O   UNL     1      45.375 117.582  12.688  1.00  0.00    -0.502 OA
ATOM     23  H   UNL     1      45.793 118.109  11.931  1.00  0.00     0.293 HD
ENDBRANCH   2  22
BRANCH   6  24
ATOM     24  O   UNL     1      48.121 114.065  15.596  1.00  0.00    -0.507 OA
ATOM     25  H   UNL     1      49.006 114.435  15.284  1.00  0.00     0.293 HD
ENDBRANCH   6  24
BRANCH   8  26
ATOM     26  O   UNL     1      46.115 109.973  14.084  1.00  0.00    -0.508 OA
ATOM     27  H   UNL     1      46.863 109.414  14.478  1.00  0.00     0.293 HD
ENDBRANCH   8  26
TORSDOF 6
ENDMDL
MODEL 5
REMARK VINA RESULT:    -6.767      4.483      9.426
REMARK INTER + INTRA:          -8.476
REMARK INTER:                  -8.810
REMARK INTRA:                   0.334
REMARK UNBOUND:                -0.325
REMARK SMILES O=c1c(O)c(-c2ccc(O)c(O)c2)oc2cc(O)cc(O)c12
REMARK SMILES IDX 5 1 3 2 2 3 1 4 22 5 20 6 19 7 17 8 16 9 15 10 14 11 6 12
REMARK SMILES IDX 7 13 8 14 9 15 13 16 11 17 10 18 12 20 4 22 21 24 18 26
REMARK H PARENT 10 19 12 21 4 23 21 25 18 27
REMARK Flexibility Score: inf
ROOT
ATOM      1  C   UNL     1      45.695 112.892   9.192  1.00  0.00     0.180 A 
ATOM      2  C   UNL     1      45.602 112.623  10.569  1.00  0.00     0.208 A 
ATOM      3  C   UNL     1      44.830 113.472  11.378  1.00  0.00     0.238 A 
ATOM      4  O   UNL     1      44.794 113.259  12.617  1.00  0.00    -0.285 OA
ATOM      5  C   UNL     1      44.147 114.569  10.797  1.00  0.00     0.111 A 
ATOM      6  C   UNL     1      43.304 115.470  11.515  1.00  0.00     0.134 A 
ATOM      7  C   UNL     1      42.785 116.596  10.864  1.00  0.00     0.093 A 
ATOM      8  C   UNL     1      43.024 116.817   9.506  1.00  0.00     0.123 A 
ATOM      9  C   UNL     1      43.797 115.910   8.782  1.00  0.00     0.094 A 
ATOM     10  C   UNL     1      44.358 114.798   9.413  1.00  0.00     0.146 A 
ATOM     11  O   UNL     1      45.098 113.965   8.689  1.00  0.00    -0.452 OA
ENDROOT
BRANCH   1  12
ATOM     12  C   UNL     1      46.470 112.027   8.272  1.00  0.00     0.025 A 
ATOM     13  C   UNL     1      46.640 110.667   8.581  1.00  0.00     0.016 A 
ATOM     14  C   UNL     1      47.384 109.838   7.739  1.00  0.00     0.051 A 
ATOM     15  C   UNL     1      47.982 110.359   6.584  1.00  0.00     0.157 A 
ATOM     16  C   UNL     1      47.089 112.549   7.123  1.00  0.00     0.062 A 
ATOM     17  C   UNL     1      47.838 111.717   6.278  1.00  0.00     0.158 A 
BRANCH  15  18
ATOM     18  O   UNL     1      48.724 109.534   5.740  1.00  0.00    -0.504 OA
ATOM     19  H   UNL     1      48.722 109.666   4.735  1.00  0.00     0.293 HD
ENDBRANCH  15  18
BRANCH  17  20
ATOM     20  O   UNL     1      48.445 112.235   5.135  1.00  0.00    -0.504 OA
ATOM     21  H   UNL     1      49.145 112.966   5.191  1.00  0.00     0.293 HD
ENDBRANCH  17  20
ENDBRANCH   1  12
BRANCH   2  22
ATOM     22  O   UNL     1      46.301 111.548  11.124  1.00  0.00    -0.502 OA
ATOM     23  H   UNL     1      46.278 110.618  10.723  1.00  0.00     0.293 HD
ENDBRANCH   2  22
BRANCH   6  24
ATOM     24  O   UNL     1      42.928 115.292  12.849  1.00  0.00    -0.507 OA
ATOM     25  H   UNL     1      43.431 115.660  13.642  1.00  0.00     0.293 HD
ENDBRANCH   6  24
BRANCH   8  26
ATOM     26  O   UNL     1      42.491 117.931   8.861  1.00  0.00    -0.508 OA
ATOM     27  H   UNL     1      41.760 118.490   9.288  1.00  0.00     0.293 HD
ENDBRANCH   8  26
TORSDOF 6
ENDMDL
MODEL 6
REMARK VINA RESULT:    -6.719      4.394      7.120
REMARK INTER + INTRA:          -8.418
REMARK INTER:                  -8.556
REMARK INTRA:                   0.137
REMARK UNBOUND:                -0.325
REMARK SMILES O=c1c(O)c(-c2ccc(O)c(O)c2)oc2cc(O)cc(O)c12
REMARK SMILES IDX 5 1 3 2 2 3 1 4 22 5 20 6 19 7 17 8 16 9 15 10 14 11 6 12
REMARK SMILES IDX 7 13 8 14 9 15 13 16 11 17 10 18 12 20 4 22 21 24 18 26
REMARK H PARENT 10 19 12 21 4 23 21 25 18 27
REMARK Flexibility Score: inf
ROOT
ATOM      1  C   UNL     1      45.111 114.264   8.674  1.00  0.00     0.180 A 
ATOM      2  C   UNL     1      45.322 113.149   9.503  1.00  0.00     0.208 A 
ATOM      3  C   UNL     1      46.232 112.161   9.097  1.00  0.00     0.238 A 
ATOM      4  O   UNL     1      46.376 111.139   9.816  1.00  0.00    -0.285 OA
ATOM      5  C   UNL     1      46.934 112.309   7.876  1.00  0.00     0.111 A 
ATOM      6  C   UNL     1      47.911 111.389   7.385  1.00  0.00     0.134 A 
ATOM      7  C   UNL     1      48.446 111.568   6.104  1.00  0.00     0.093 A 
ATOM      8  C   UNL     1      48.089 112.670   5.322  1.00  0.00     0.123 A 
ATOM      9  C   UNL     1      47.181 113.605   5.816  1.00  0.00     0.094 A 
ATOM     10  C   UNL     1      46.604 113.433   7.076  1.00  0.00     0.146 A 
ATOM     11  O   UNL     1      45.735 114.342   7.504  1.00  0.00    -0.452 OA
ENDROOT
BRANCH   1  12
ATOM     12  C   UNL     1      44.186 115.359   9.046  1.00  0.00     0.025 A 
ATOM     13  C   UNL     1      44.167 115.827  10.370  1.00  0.00     0.016 A 
ATOM     14  C   UNL     1      43.288 116.844  10.749  1.00  0.00     0.051 A 
ATOM     15  C   UNL     1      42.402 117.397   9.815  1.00  0.00     0.157 A 
ATOM     16  C   UNL     1      43.281 115.902   8.117  1.00  0.00     0.062 A 
ATOM     17  C   UNL     1      42.396 116.922   8.497  1.00  0.00     0.158 A 
BRANCH  15  18
ATOM     18  O   UNL     1      41.525 118.413  10.188  1.00  0.00    -0.504 OA
ATOM     19  H   UNL     1      40.923 118.869   9.511  1.00  0.00     0.293 HD
ENDBRANCH  15  18
BRANCH  17  20
ATOM     20  O   UNL     1      41.505 117.464   7.573  1.00  0.00    -0.504 OA
ATOM     21  H   UNL     1      41.782 117.652   6.616  1.00  0.00     0.293 HD
ENDBRANCH  17  20
ENDBRANCH   1  12
BRANCH   2  22
ATOM     22  O   UNL     1      44.602 113.012  10.693  1.00  0.00    -0.502 OA
ATOM     23  H   UNL     1      43.650 113.342  10.795  1.00  0.00     0.293 HD
ENDBRANCH   2  22
BRANCH   6  24
ATOM     24  O   UNL     1      48.404 110.309   8.122  1.00  0.00    -0.507 OA
ATOM     25  H   UNL     1      48.359 110.230   9.126  1.00  0.00     0.293 HD
ENDBRANCH   6  24
BRANCH   8  26
ATOM     26  O   UNL     1      48.637 112.850   4.054  1.00  0.00    -0.508 OA
ATOM     27  H   UNL     1      49.596 112.589   3.851  1.00  0.00     0.293 HD
ENDBRANCH   8  26
TORSDOF 6
ENDMDL
MODEL 7
REMARK VINA RESULT:    -6.691      1.797      3.449
REMARK INTER + INTRA:          -8.385
REMARK INTER:                  -8.063
REMARK INTRA:                  -0.322
REMARK UNBOUND:                -0.325
REMARK SMILES O=c1c(O)c(-c2ccc(O)c(O)c2)oc2cc(O)cc(O)c12
REMARK SMILES IDX 5 1 3 2 2 3 1 4 22 5 20 6 19 7 17 8 16 9 15 10 14 11 6 12
REMARK SMILES IDX 7 13 8 14 9 15 13 16 11 17 10 18 12 20 4 22 21 24 18 26
REMARK H PARENT 10 19 12 21 4 23 21 25 18 27
REMARK Flexibility Score: inf
ROOT
ATOM      1  C   UNL     1      41.483 116.729  11.947  1.00  0.00     0.180 A 
ATOM      2  C   UNL     1      42.133 117.145  10.772  1.00  0.00     0.208 A 
ATOM      3  C   UNL     1      43.285 116.462  10.353  1.00  0.00     0.238 A 
ATOM      4  O   UNL     1      43.894 116.873   9.331  1.00  0.00    -0.285 OA
ATOM      5  C   UNL     1      43.764 115.362  11.104  1.00  0.00     0.111 A 
ATOM      6  C   UNL     1      44.900 114.571  10.750  1.00  0.00     0.134 A 
ATOM      7  C   UNL     1      45.361 113.590  11.636  1.00  0.00     0.093 A 
ATOM      8  C   UNL     1      44.688 113.325  12.831  1.00  0.00     0.123 A 
ATOM      9  C   UNL     1      43.544 114.050  13.157  1.00  0.00     0.094 A 
ATOM     10  C   UNL     1      43.082 115.061  12.311  1.00  0.00     0.146 A 
ATOM     11  O   UNL     1      41.994 115.736  12.665  1.00  0.00    -0.452 OA
ENDROOT
BRANCH   1  12
ATOM     12  C   UNL     1      40.248 117.383  12.438  1.00  0.00     0.025 A 
ATOM     13  C   UNL     1      40.332 118.326  13.475  1.00  0.00     0.016 A 
ATOM     14  C   UNL     1      39.178 118.940  13.969  1.00  0.00     0.051 A 
ATOM     15  C   UNL     1      37.923 118.609  13.443  1.00  0.00     0.157 A 
ATOM     16  C   UNL     1      38.984 117.039  11.928  1.00  0.00     0.062 A 
ATOM     17  C   UNL     1      37.825 117.654  12.423  1.00  0.00     0.158 A 
BRANCH  15  18
ATOM     18  O   UNL     1      36.770 119.221  13.930  1.00  0.00    -0.504 OA
ATOM     19  H   UNL     1      36.775 119.748  14.796  1.00  0.00     0.293 HD
ENDBRANCH  15  18
BRANCH  17  20
ATOM     20  O   UNL     1      36.573 117.317  11.912  1.00  0.00    -0.504 OA
ATOM     21  H   UNL     1      35.776 117.935  12.008  1.00  0.00     0.293 HD
ENDBRANCH  17  20
ENDBRANCH   1  12
BRANCH   2  22
ATOM     22  O   UNL     1      41.655 118.247  10.057  1.00  0.00    -0.502 OA
ATOM     23  H   UNL     1      42.175 118.670   9.298  1.00  0.00     0.293 HD
ENDBRANCH   2  22
BRANCH   6  24
ATOM     24  O   UNL     1      45.588 114.693   9.540  1.00  0.00    -0.507 OA
ATOM     25  H   UNL     1      46.281 114.042   9.205  1.00  0.00     0.293 HD
ENDBRANCH   6  24
BRANCH   8  26
ATOM     26  O   UNL     1      45.144 112.335  13.699  1.00  0.00    -0.508 OA
ATOM     27  H   UNL     1      45.165 112.480  14.703  1.00  0.00     0.293 HD
ENDBRANCH   8  26
TORSDOF 6
ENDMDL
MODEL 8
REMARK VINA RESULT:    -6.691      2.942      7.863
REMARK INTER + INTRA:          -8.384
REMARK INTER:                  -8.094
REMARK INTRA:                  -0.291
REMARK UNBOUND:                -0.325
REMARK SMILES O=c1c(O)c(-c2ccc(O)c(O)c2)oc2cc(O)cc(O)c12
REMARK SMILES IDX 5 1 3 2 2 3 1 4 22 5 20 6 19 7 17 8 16 9 15 10 14 11 6 12
REMARK SMILES IDX 7 13 8 14 9 15 13 16 11 17 10 18 12 20 4 22 21 24 18 26
REMARK H PARENT 10 19 12 21 4 23 21 25 18 27
REMARK Flexibility Score: inf
ROOT
ATOM      1  C   UNL     1      44.553 114.730  11.905  1.00  0.00     0.180 A 
ATOM      2  C   UNL     1      44.851 114.917  10.544  1.00  0.00     0.208 A 
ATOM      3  C   UNL     1      44.037 115.767   9.778  1.00  0.00     0.238 A 
ATOM      4  O   UNL     1      44.276 115.887   8.549  1.00  0.00    -0.285 OA
ATOM      5  C   UNL     1      42.946 116.433  10.387  1.00  0.00     0.111 A 
ATOM      6  C   UNL     1      42.080 117.350   9.717  1.00  0.00     0.134 A 
ATOM      7  C   UNL     1      40.954 117.849  10.384  1.00  0.00     0.093 A 
ATOM      8  C   UNL     1      40.701 117.517  11.717  1.00  0.00     0.123 A 
ATOM      9  C   UNL     1      41.574 116.671  12.398  1.00  0.00     0.094 A 
ATOM     10  C   UNL     1      42.684 116.129  11.748  1.00  0.00     0.146 A 
ATOM     11  O   UNL     1      43.485 115.317  12.431  1.00  0.00    -0.452 OA
ENDROOT
BRANCH   1  12
ATOM     12  C   UNL     1      45.380 113.869  12.781  1.00  0.00     0.025 A 
ATOM     13  C   UNL     1      46.358 114.455  13.601  1.00  0.00     0.016 A 
ATOM     14  C   UNL     1      47.164 113.660  14.420  1.00  0.00     0.051 A 
ATOM     15  C   UNL     1      47.015 112.268  14.419  1.00  0.00     0.157 A 
ATOM     16  C   UNL     1      45.249 112.469  12.768  1.00  0.00     0.062 A 
ATOM     17  C   UNL     1      46.058 111.671  13.589  1.00  0.00     0.158 A 
BRANCH  15  18
ATOM     18  O   UNL     1      47.815 111.471  15.236  1.00  0.00    -0.504 OA
ATOM     19  H   UNL     1      48.628 110.986  14.872  1.00  0.00     0.293 HD
ENDBRANCH  15  18
BRANCH  17  20
ATOM     20  O   UNL     1      45.921 110.284  13.580  1.00  0.00    -0.504 OA
ATOM     21  H   UNL     1      45.017 109.840  13.466  1.00  0.00     0.293 HD
ENDBRANCH  17  20
ENDBRANCH   1  12
BRANCH   2  22
ATOM     22  O   UNL     1      45.920 114.232   9.958  1.00  0.00    -0.502 OA
ATOM     23  H   UNL     1      46.767 114.009  10.466  1.00  0.00     0.293 HD
ENDBRANCH   2  22
BRANCH   6  24
ATOM     24  O   UNL     1      42.294 117.817   8.417  1.00  0.00    -0.507 OA
ATOM     25  H   UNL     1      42.308 117.236   7.593  1.00  0.00     0.293 HD
ENDBRANCH   6  24
BRANCH   8  26
ATOM     26  O   UNL     1      39.587 118.031  12.378  1.00  0.00    -0.508 OA
ATOM     27  H   UNL     1      39.611 118.940  12.827  1.00  0.00     0.293 HD
ENDBRANCH   8  26
TORSDOF 6
ENDMDL
MODEL 9
REMARK VINA RESULT:    -6.627      3.892      6.276
REMARK INTER + INTRA:          -8.307
REMARK INTER:                  -8.091
REMARK INTRA:                  -0.216
REMARK UNBOUND:                -0.325
REMARK SMILES O=c1c(O)c(-c2ccc(O)c(O)c2)oc2cc(O)cc(O)c12
REMARK SMILES IDX 5 1 3 2 2 3 1 4 22 5 20 6 19 7 17 8 16 9 15 10 14 11 6 12
REMARK SMILES IDX 7 13 8 14 9 15 13 16 11 17 10 18 12 20 4 22 21 24 18 26
REMARK H PARENT 10 19 12 21 4 23 21 25 18 27
REMARK Flexibility Score: inf
ROOT
ATOM      1  C   UNL     1      44.854 115.039  11.880  1.00  0.00     0.180 A 
ATOM      2  C   UNL     1      44.855 113.646  12.073  1.00  0.00     0.208 A 
ATOM      3  C   UNL     1      45.650 113.101  13.093  1.00  0.00     0.238 A 
ATOM      4  O   UNL     1      45.690 111.851  13.226  1.00  0.00    -0.285 OA
ATOM      5  C   UNL     1      46.420 113.956  13.919  1.00  0.00     0.111 A 
ATOM      6  C   UNL     1      47.231 113.516  15.009  1.00  0.00     0.134 A 
ATOM      7  C   UNL     1      48.052 114.434  15.674  1.00  0.00     0.093 A 
ATOM      8  C   UNL     1      48.041 115.788  15.332  1.00  0.00     0.123 A 
ATOM      9  C   UNL     1      47.209 116.238  14.309  1.00  0.00     0.094 A 
ATOM     10  C   UNL     1      46.407 115.339  13.603  1.00  0.00     0.146 A 
ATOM     11  O   UNL     1      45.637 115.807  12.627  1.00  0.00    -0.452 OA
ENDROOT
BRANCH   1  12
ATOM     12  C   UNL     1      44.022 115.689  10.841  1.00  0.00     0.025 A 
ATOM     13  C   UNL     1      44.375 115.553   9.488  1.00  0.00     0.016 A 
ATOM     14  C   UNL     1      43.617 116.174   8.493  1.00  0.00     0.051 A 
ATOM     15  C   UNL     1      42.505 116.954   8.836  1.00  0.00     0.157 A 
ATOM     16  C   UNL     1      42.917 116.489  11.181  1.00  0.00     0.062 A 
ATOM     17  C   UNL     1      42.157 117.115  10.183  1.00  0.00     0.158 A 
BRANCH  15  18
ATOM     18  O   UNL     1      41.745 117.574   7.846  1.00  0.00    -0.504 OA
ATOM     19  H   UNL     1      41.966 118.506   7.514  1.00  0.00     0.293 HD
ENDBRANCH  15  18
BRANCH  17  20
ATOM     20  O   UNL     1      41.058 117.902  10.522  1.00  0.00    -0.504 OA
ATOM     21  H   UNL     1      41.161 118.749  11.070  1.00  0.00     0.293 HD
ENDBRANCH  17  20
ENDBRANCH   1  12
BRANCH   2  22
ATOM     22  O   UNL     1      44.104 112.819  11.232  1.00  0.00    -0.502 OA
ATOM     23  H   UNL     1      44.521 112.070  10.692  1.00  0.00     0.293 HD
ENDBRANCH   2  22
BRANCH   6  24
ATOM     24  O   UNL     1      47.245 112.203  15.490  1.00  0.00    -0.507 OA
ATOM     25  H   UNL     1      46.787 111.423  15.045  1.00  0.00     0.293 HD
ENDBRANCH   6  24
BRANCH   8  26
ATOM     26  O   UNL     1      48.849 116.699  16.009  1.00  0.00    -0.508 OA
ATOM     27  H   UNL     1      48.793 117.695  15.825  1.00  0.00     0.293 HD
ENDBRANCH   8  26
TORSDOF 6
ENDMDL
