MODEL 1
REMARK VINA RESULT:    -4.687      0.000      0.000
REMARK INTER + INTRA:          -5.649
REMARK INTER:                  -5.372
REMARK INTRA:                  -0.277
REMARK UNBOUND:                -0.277
REMARK SMILES O=C([O-])C=Cc1ccc(O)cc1
REMARK SMILES IDX 6 1 7 2 12 3 8 4 11 5 9 6 5 7 4 8 2 9 1 10 3 11 10 12
REMARK H PARENT 10 13
REMARK Flexibility Score: inf
ROOT
ATOM      1  C   UNL     1      -3.050  -4.451   1.360  1.00  0.00    -0.025 A 
ATOM      2  C   UNL     1      -2.872  -3.262   0.631  1.00  0.00     0.012 A 
ATOM      3  C   UNL     1      -1.986  -4.952   2.125  1.00  0.00     0.012 A 
ATOM      4  C   UNL     1      -1.633  -2.615   0.627  1.00  0.00     0.047 A 
ATOM      5  C   UNL     1      -0.746  -4.304   2.120  1.00  0.00     0.047 A 
ATOM      6  C   UNL     1      -0.565  -3.137   1.369  1.00  0.00     0.115 A 
ENDROOT
BRANCH   1   7
ATOM      7  C   UNL     1      -4.365  -5.122   1.423  1.00  0.00     0.010 C 
ATOM      8  C   UNL     1      -4.857  -5.958   0.494  1.00  0.00     0.025 C 
BRANCH   8   9
ATOM      9  C   UNL     1      -4.114  -6.498  -0.660  1.00  0.00     0.064 C 
ATOM     10  O   UNL     1      -3.635  -7.663  -0.649  1.00  0.00    -0.545 OA
ATOM     11  O   UNL     1      -3.999  -5.730  -1.811  1.00  0.00    -0.545 OA
ENDBRANCH   8   9
ENDBRANCH   1   7
BRANCH   6  12
ATOM     12  O   UNL     1       0.676  -2.503   1.373  1.00  0.00    -0.508 OA
ATOM     13  H   UNL     1       1.445  -2.851   1.933  1.00  0.00     0.293 HD
ENDBRANCH   6  12
TORSDOF 3
ENDMDL
MODEL 2
REMARK VINA RESULT:    -4.585     12.428     13.939
REMARK INTER + INTRA:          -5.532
REMARK INTER:                  -5.243
REMARK INTRA:                  -0.289
REMARK UNBOUND:                -0.277
REMARK SMILES O=C([O-])C=Cc1ccc(O)cc1
REMARK SMILES IDX 6 1 7 2 12 3 8 4 11 5 9 6 5 7 4 8 2 9 1 10 3 11 10 12
REMARK H PARENT 10 13
REMARK Flexibility Score: inf
ROOT
ATOM      1  C   UNL     1      -5.484   6.494  -7.111  1.00  0.00    -0.025 A 
ATOM      2  C   UNL     1      -6.814   6.470  -7.567  1.00  0.00     0.012 A 
ATOM      3  C   UNL     1      -4.446   6.202  -8.008  1.00  0.00     0.012 A 
ATOM      4  C   UNL     1      -7.100   6.109  -8.887  1.00  0.00     0.047 A 
ATOM      5  C   UNL     1      -4.734   5.840  -9.328  1.00  0.00     0.047 A 
ATOM      6  C   UNL     1      -6.061   5.790  -9.770  1.00  0.00     0.115 A 
ENDROOT
BRANCH   1   7
ATOM      7  C   UNL     1      -5.154   6.924  -5.737  1.00  0.00     0.010 C 
ATOM      8  C   UNL     1      -5.175   6.138  -4.648  1.00  0.00     0.025 C 
BRANCH   8   9
ATOM      9  C   UNL     1      -5.355   4.674  -4.646  1.00  0.00     0.064 C 
ATOM     10  O   UNL     1      -6.449   4.145  -4.316  1.00  0.00    -0.545 OA
ATOM     11  O   UNL     1      -4.315   3.863  -5.083  1.00  0.00    -0.545 OA
ENDBRANCH   8   9
ENDBRANCH   1   7
BRANCH   6  12
ATOM     12  O   UNL     1      -6.333   5.427 -11.087  1.00  0.00    -0.508 OA
ATOM     13  H   UNL     1      -5.894   4.619 -11.514  1.00  0.00     0.293 HD
ENDBRANCH   6  12
TORSDOF 3
ENDMDL
MODEL 3
REMARK VINA RESULT:    -4.500     13.036     14.311
REMARK INTER + INTRA:          -5.435
REMARK INTER:                  -5.141
REMARK INTRA:                  -0.293
REMARK UNBOUND:                -0.277
REMARK SMILES O=C([O-])C=Cc1ccc(O)cc1
REMARK SMILES IDX 6 1 7 2 12 3 8 4 11 5 9 6 5 7 4 8 2 9 1 10 3 11 10 12
REMARK H PARENT 10 13
REMARK Flexibility Score: inf
ROOT
ATOM      1  C   UNL     1      11.084  -7.936  -3.123  1.00  0.00    -0.025 A 
ATOM      2  C   UNL     1      10.164  -7.591  -2.117  1.00  0.00     0.012 A 
ATOM      3  C   UNL     1      11.576  -6.937  -3.975  1.00  0.00     0.012 A 
ATOM      4  C   UNL     1       9.706  -6.275  -2.002  1.00  0.00     0.047 A 
ATOM      5  C   UNL     1      11.116  -5.621  -3.859  1.00  0.00     0.047 A 
ATOM      6  C   UNL     1      10.179  -5.287  -2.876  1.00  0.00     0.115 A 
ENDROOT
BRANCH   1   7
ATOM      7  C   UNL     1      11.622  -9.308  -3.229  1.00  0.00     0.010 C 
ATOM      8  C   UNL     1      11.100 -10.293  -3.978  1.00  0.00     0.025 C 
BRANCH   8   9
ATOM      9  C   UNL     1      10.011 -10.144  -4.962  1.00  0.00     0.064 C 
ATOM     10  O   UNL     1       8.805 -10.315  -4.642  1.00  0.00    -0.545 OA
ATOM     11  O   UNL     1      10.317  -9.738  -6.255  1.00  0.00    -0.545 OA
ENDBRANCH   8   9
ENDBRANCH   1   7
BRANCH   6  12
ATOM     12  O   UNL     1       9.730  -3.972  -2.773  1.00  0.00    -0.508 OA
ATOM     13  H   UNL     1       8.873  -3.743  -2.282  1.00  0.00     0.293 HD
ENDBRANCH   6  12
TORSDOF 3
ENDMDL
MODEL 4
REMARK VINA RESULT:    -4.424     11.211     12.695
REMARK INTER + INTRA:          -5.348
REMARK INTER:                  -5.207
REMARK INTRA:                  -0.141
REMARK UNBOUND:                -0.277
REMARK SMILES O=C([O-])C=Cc1ccc(O)cc1
REMARK SMILES IDX 6 1 7 2 12 3 8 4 11 5 9 6 5 7 4 8 2 9 1 10 3 11 10 12
REMARK H PARENT 10 13
REMARK Flexibility Score: inf
ROOT
ATOM      1  C   UNL     1      -5.659   5.842  -5.212  1.00  0.00    -0.025 A 
ATOM      2  C   UNL     1      -6.957   5.832  -4.669  1.00  0.00     0.012 A 
ATOM      3  C   UNL     1      -4.848   4.706  -5.070  1.00  0.00     0.012 A 
ATOM      4  C   UNL     1      -7.412   4.723  -3.951  1.00  0.00     0.047 A 
ATOM      5  C   UNL     1      -5.306   3.597  -4.351  1.00  0.00     0.047 A 
ATOM      6  C   UNL     1      -6.586   3.603  -3.787  1.00  0.00     0.115 A 
ENDROOT
BRANCH   1   7
ATOM      7  C   UNL     1      -5.176   6.980  -6.020  1.00  0.00     0.010 C 
ATOM      8  C   UNL     1      -4.904   6.942  -7.335  1.00  0.00     0.025 C 
BRANCH   8   9
ATOM      9  C   UNL     1      -5.205   5.821  -8.245  1.00  0.00     0.064 C 
ATOM     10  O   UNL     1      -6.382   5.572  -8.617  1.00  0.00    -0.545 OA
ATOM     11  O   UNL     1      -4.159   5.065  -8.757  1.00  0.00    -0.545 OA
ENDBRANCH   8   9
ENDBRANCH   1   7
BRANCH   6  12
ATOM     12  O   UNL     1      -7.028   2.491  -3.073  1.00  0.00    -0.508 OA
ATOM     13  H   UNL     1      -7.363   1.660  -3.544  1.00  0.00     0.293 HD
ENDBRANCH   6  12
TORSDOF 3
ENDMDL
MODEL 5
REMARK VINA RESULT:    -4.376     12.798     14.213
REMARK INTER + INTRA:          -5.293
REMARK INTER:                  -5.052
REMARK INTRA:                  -0.241
REMARK UNBOUND:                -0.277
REMARK SMILES O=C([O-])C=Cc1ccc(O)cc1
REMARK SMILES IDX 6 1 7 2 12 3 8 4 11 5 9 6 5 7 4 8 2 9 1 10 3 11 10 12
REMARK H PARENT 10 13
REMARK Flexibility Score: inf
ROOT
ATOM      1  C   UNL     1      -4.882   6.418  -7.233  1.00  0.00    -0.025 A 
ATOM      2  C   UNL     1      -4.902   5.016  -7.339  1.00  0.00     0.012 A 
ATOM      3  C   UNL     1      -5.107   7.014  -5.984  1.00  0.00     0.012 A 
ATOM      4  C   UNL     1      -5.196   4.228  -6.221  1.00  0.00     0.047 A 
ATOM      5  C   UNL     1      -5.401   6.225  -4.867  1.00  0.00     0.047 A 
ATOM      6  C   UNL     1      -5.449   4.832  -4.983  1.00  0.00     0.115 A 
ENDROOT
BRANCH   1   7
ATOM      7  C   UNL     1      -4.522   7.268  -8.386  1.00  0.00     0.010 C 
ATOM      8  C   UNL     1      -5.301   7.499  -9.456  1.00  0.00     0.025 C 
BRANCH   8   9
ATOM      9  C   UNL     1      -6.714   7.100  -9.596  1.00  0.00     0.064 C 
ATOM     10  O   UNL     1      -7.651   7.840  -9.194  1.00  0.00    -0.545 OA
ATOM     11  O   UNL     1      -7.021   5.912 -10.247  1.00  0.00    -0.545 OA
ENDBRANCH   8   9
ENDBRANCH   1   7
BRANCH   6  12
ATOM     12  O   UNL     1      -5.744   4.058  -3.862  1.00  0.00    -0.508 OA
ATOM     13  H   UNL     1      -5.246   4.184  -2.988  1.00  0.00     0.293 HD
ENDBRANCH   6  12
TORSDOF 3
ENDMDL
MODEL 6
REMARK VINA RESULT:    -4.274     10.835     12.078
REMARK INTER + INTRA:          -5.176
REMARK INTER:                  -5.132
REMARK INTRA:                  -0.043
REMARK UNBOUND:                -0.277
REMARK SMILES O=C([O-])C=Cc1ccc(O)cc1
REMARK SMILES IDX 6 1 7 2 12 3 8 4 11 5 9 6 5 7 4 8 2 9 1 10 3 11 10 12
REMARK H PARENT 10 13
REMARK Flexibility Score: inf
ROOT
ATOM      1  C   UNL     1      -5.108   4.502  -5.091  1.00  0.00    -0.025 A 
ATOM      2  C   UNL     1      -5.298   4.415  -6.482  1.00  0.00     0.012 A 
ATOM      3  C   UNL     1      -5.111   5.762  -4.476  1.00  0.00     0.012 A 
ATOM      4  C   UNL     1      -5.435   5.576  -7.249  1.00  0.00     0.047 A 
ATOM      5  C   UNL     1      -5.248   6.923  -5.245  1.00  0.00     0.047 A 
ATOM      6  C   UNL     1      -5.407   6.833  -6.632  1.00  0.00     0.115 A 
ENDROOT
BRANCH   1   7
ATOM      7  C   UNL     1      -5.014   3.288  -4.254  1.00  0.00     0.010 C 
ATOM      8  C   UNL     1      -5.832   2.981  -3.234  1.00  0.00     0.025 C 
BRANCH   8   9
ATOM      9  C   UNL     1      -7.070   3.698  -2.876  1.00  0.00     0.064 C 
ATOM     10  O   UNL     1      -8.115   3.596  -3.571  1.00  0.00    -0.545 OA
ATOM     11  O   UNL     1      -7.105   4.448  -1.708  1.00  0.00    -0.545 OA
ENDBRANCH   8   9
ENDBRANCH   1   7
BRANCH   6  12
ATOM     12  O   UNL     1      -5.542   7.998  -7.385  1.00  0.00    -0.508 OA
ATOM     13  H   UNL     1      -6.452   8.338  -7.673  1.00  0.00     0.293 HD
ENDBRANCH   6  12
TORSDOF 3
ENDMDL
MODEL 7
REMARK VINA RESULT:    -4.223     11.242     12.730
REMARK INTER + INTRA:          -5.117
REMARK INTER:                  -4.895
REMARK INTRA:                  -0.222
REMARK UNBOUND:                -0.277
REMARK SMILES O=C([O-])C=Cc1ccc(O)cc1
REMARK SMILES IDX 6 1 7 2 12 3 8 4 11 5 9 6 5 7 4 8 2 9 1 10 3 11 10 12
REMARK H PARENT 10 13
REMARK Flexibility Score: inf
ROOT
ATOM      1  C   UNL     1      -5.416   5.748  -4.267  1.00  0.00    -0.025 A 
ATOM      2  C   UNL     1      -6.210   5.905  -3.117  1.00  0.00     0.012 A 
ATOM      3  C   UNL     1      -5.190   4.461  -4.775  1.00  0.00     0.012 A 
ATOM      4  C   UNL     1      -6.724   4.784  -2.458  1.00  0.00     0.047 A 
ATOM      5  C   UNL     1      -5.705   3.340  -4.113  1.00  0.00     0.047 A 
ATOM      6  C   UNL     1      -6.470   3.499  -2.953  1.00  0.00     0.115 A 
ENDROOT
BRANCH   1   7
ATOM      7  C   UNL     1      -4.907   6.919  -5.011  1.00  0.00     0.010 C 
ATOM      8  C   UNL     1      -5.631   7.692  -5.836  1.00  0.00     0.025 C 
BRANCH   8   9
ATOM      9  C   UNL     1      -7.094   7.629  -6.014  1.00  0.00     0.064 C 
ATOM     10  O   UNL     1      -7.624   6.848  -6.849  1.00  0.00    -0.545 OA
ATOM     11  O   UNL     1      -7.910   8.398  -5.195  1.00  0.00    -0.545 OA
ENDBRANCH   8   9
ENDBRANCH   1   7
BRANCH   6  12
ATOM     12  O   UNL     1      -6.976   2.374  -2.304  1.00  0.00    -0.508 OA
ATOM     13  H   UNL     1      -7.132   1.504  -2.800  1.00  0.00     0.293 HD
ENDBRANCH   6  12
TORSDOF 3
ENDMDL
MODEL 8
REMARK VINA RESULT:    -4.082     13.058     14.863
REMARK INTER + INTRA:          -4.956
REMARK INTER:                  -4.687
REMARK INTRA:                  -0.269
REMARK UNBOUND:                -0.277
REMARK SMILES O=C([O-])C=Cc1ccc(O)cc1
REMARK SMILES IDX 6 1 7 2 12 3 8 4 11 5 9 6 5 7 4 8 2 9 1 10 3 11 10 12
REMARK H PARENT 10 13
REMARK Flexibility Score: inf
ROOT
ATOM      1  C   UNL     1      11.400  -7.858  -3.156  1.00  0.00    -0.025 A 
ATOM      2  C   UNL     1      10.580  -8.983  -2.959  1.00  0.00     0.012 A 
ATOM      3  C   UNL     1      11.778  -7.505  -4.460  1.00  0.00     0.012 A 
ATOM      4  C   UNL     1      10.190  -9.771  -4.046  1.00  0.00     0.047 A 
ATOM      5  C   UNL     1      11.388  -8.296  -5.547  1.00  0.00     0.047 A 
ATOM      6  C   UNL     1      10.597  -9.431  -5.342  1.00  0.00     0.115 A 
ENDROOT
BRANCH   1   7
ATOM      7  C   UNL     1      11.780  -6.980  -2.030  1.00  0.00     0.010 C 
ATOM      8  C   UNL     1      11.142  -5.853  -1.672  1.00  0.00     0.025 C 
BRANCH   8   9
ATOM      9  C   UNL     1       9.855  -5.381  -2.216  1.00  0.00     0.064 C 
ATOM     10  O   UNL     1       8.762  -5.900  -1.865  1.00  0.00    -0.545 OA
ATOM     11  O   UNL     1       9.842  -4.295  -3.081  1.00  0.00    -0.545 OA
ENDBRANCH   8   9
ENDBRANCH   1   7
BRANCH   6  12
ATOM     12  O   UNL     1      10.216 -10.209  -6.434  1.00  0.00    -0.508 OA
ATOM     13  H   UNL     1       9.271 -10.561  -6.528  1.00  0.00     0.293 HD
ENDBRANCH   6  12
TORSDOF 3
ENDMDL
MODEL 9
REMARK VINA RESULT:    -4.047     12.995     14.380
REMARK INTER + INTRA:          -4.915
REMARK INTER:                  -4.676
REMARK INTRA:                  -0.240
REMARK UNBOUND:                -0.277
REMARK SMILES O=C([O-])C=Cc1ccc(O)cc1
REMARK SMILES IDX 6 1 7 2 12 3 8 4 11 5 9 6 5 7 4 8 2 9 1 10 3 11 10 12
REMARK H PARENT 10 13
REMARK Flexibility Score: inf
ROOT
ATOM      1  C   UNL     1      -5.392   5.635  -7.725  1.00  0.00    -0.025 A 
ATOM      2  C   UNL     1      -4.388   6.459  -8.263  1.00  0.00     0.012 A 
ATOM      3  C   UNL     1      -6.737   5.933  -7.987  1.00  0.00     0.012 A 
ATOM      4  C   UNL     1      -4.729   7.593  -9.007  1.00  0.00     0.047 A 
ATOM      5  C   UNL     1      -7.077   7.068  -8.731  1.00  0.00     0.047 A 
ATOM      6  C   UNL     1      -6.075   7.902  -9.240  1.00  0.00     0.115 A 
ENDROOT
BRANCH   1   7
ATOM      7  C   UNL     1      -5.055   4.403  -6.982  1.00  0.00     0.010 C 
ATOM      8  C   UNL     1      -5.085   4.267  -5.646  1.00  0.00     0.025 C 
BRANCH   8   9
ATOM      9  C   UNL     1      -5.624   5.253  -4.691  1.00  0.00     0.064 C 
ATOM     10  O   UNL     1      -4.904   6.167  -4.210  1.00  0.00    -0.545 OA
ATOM     11  O   UNL     1      -6.974   5.214  -4.368  1.00  0.00    -0.545 OA
ENDBRANCH   8   9
ENDBRANCH   1   7
BRANCH   6  12
ATOM     12  O   UNL     1      -6.429   9.029  -9.978  1.00  0.00    -0.508 OA
ATOM     13  H   UNL     1      -7.398   9.296 -10.103  1.00  0.00     0.293 HD
ENDBRANCH   6  12
TORSDOF 3
ENDMDL
