MODEL 1
REMARK VINA RESULT:    -7.125      0.000      0.000
REMARK INTER + INTRA:          -8.818
REMARK INTER:                  -8.583
REMARK INTRA:                  -0.235
REMARK UNBOUND:                -0.235
REMARK SMILES O=c1c(O)c(-c2ccc(O)c(O)c2)oc2cc(O)cc(O)c12
REMARK SMILES IDX 5 1 3 2 2 3 1 4 22 5 20 6 19 7 17 8 16 9 15 10 14 11 6 12
REMARK SMILES IDX 7 13 8 14 9 15 13 16 11 17 10 18 12 20 4 22 21 24 18 26
REMARK H PARENT 10 19 12 21 4 23 21 25 18 27
REMARK Flexibility Score: inf
ROOT
ATOM      1  C   UNL     1      46.172 -29.270  17.981  1.00  0.00     0.180 A 
ATOM      2  C   UNL     1      46.742 -29.558  19.232  1.00  0.00     0.208 A 
ATOM      3  C   UNL     1      46.132 -30.521  20.053  1.00  0.00     0.238 A 
ATOM      4  O   UNL     1      46.604 -30.720  21.203  1.00  0.00    -0.285 OA
ATOM      5  C   UNL     1      44.993 -31.223  19.589  1.00  0.00     0.111 A 
ATOM      6  C   UNL     1      44.320 -32.251  20.318  1.00  0.00     0.134 A 
ATOM      7  C   UNL     1      43.140 -32.802  19.804  1.00  0.00     0.093 A 
ATOM      8  C   UNL     1      42.643 -32.410  18.562  1.00  0.00     0.123 A 
ATOM      9  C   UNL     1      43.323 -31.447  17.815  1.00  0.00     0.094 A 
ATOM     10  C   UNL     1      44.481 -30.850  18.319  1.00  0.00     0.146 A 
ATOM     11  O   UNL     1      45.085 -29.922  17.587  1.00  0.00    -0.452 OA
ENDROOT
BRANCH   1  12
ATOM     12  C   UNL     1      46.748 -28.259  17.066  1.00  0.00     0.025 A 
ATOM     13  C   UNL     1      46.109 -27.017  16.918  1.00  0.00     0.016 A 
ATOM     14  C   UNL     1      46.647 -26.040  16.077  1.00  0.00     0.051 A 
ATOM     15  C   UNL     1      47.840 -26.282  15.384  1.00  0.00     0.157 A 
ATOM     16  C   UNL     1      47.957 -28.491  16.385  1.00  0.00     0.062 A 
ATOM     17  C   UNL     1      48.499 -27.512  15.543  1.00  0.00     0.158 A 
BRANCH  15  18
ATOM     18  O   UNL     1      48.373 -25.306  14.543  1.00  0.00    -0.504 OA
ATOM     19  H   UNL     1      48.842 -25.550  13.679  1.00  0.00     0.293 HD
ENDBRANCH  15  18
BRANCH  17  20
ATOM     20  O   UNL     1      49.696 -27.780  14.877  1.00  0.00    -0.504 OA
ATOM     21  H   UNL     1      50.596 -27.532  15.269  1.00  0.00     0.293 HD
ENDBRANCH  17  20
ENDBRANCH   1  12
BRANCH   2  22
ATOM     22  O   UNL     1      47.910 -28.908  19.640  1.00  0.00    -0.502 OA
ATOM     23  H   UNL     1      48.775 -29.404  19.817  1.00  0.00     0.293 HD
ENDBRANCH   2  22
BRANCH   6  24
ATOM     24  O   UNL     1      44.777 -32.781  21.528  1.00  0.00    -0.507 OA
ATOM     25  H   UNL     1      44.419 -33.617  21.965  1.00  0.00     0.293 HD
ENDBRANCH   6  24
BRANCH   8  26
ATOM     26  O   UNL     1      41.475 -32.993  18.074  1.00  0.00    -0.508 OA
ATOM     27  H   UNL     1      40.772 -32.446  17.589  1.00  0.00     0.293 HD
ENDBRANCH   8  26
TORSDOF 6
ENDMDL
MODEL 2
REMARK VINA RESULT:    -6.730      1.682      6.848
REMARK INTER + INTRA:          -8.343
REMARK INTER:                  -8.373
REMARK INTRA:                   0.031
REMARK UNBOUND:                -0.235
REMARK SMILES O=c1c(O)c(-c2ccc(O)c(O)c2)oc2cc(O)cc(O)c12
REMARK SMILES IDX 5 1 3 2 2 3 1 4 22 5 20 6 19 7 17 8 16 9 15 10 14 11 6 12
REMARK SMILES IDX 7 13 8 14 9 15 13 16 11 17 10 18 12 20 4 22 21 24 18 26
REMARK H PARENT 10 19 12 21 4 23 21 25 18 27
REMARK Flexibility Score: inf
ROOT
ATOM      1  C   UNL     1      45.561 -28.545  18.486  1.00  0.00     0.180 A 
ATOM      2  C   UNL     1      46.141 -27.668  19.418  1.00  0.00     0.208 A 
ATOM      3  C   UNL     1      46.885 -26.572  18.951  1.00  0.00     0.238 A 
ATOM      4  O   UNL     1      47.464 -25.834  19.790  1.00  0.00    -0.285 OA
ATOM      5  C   UNL     1      46.991 -26.334  17.558  1.00  0.00     0.111 A 
ATOM      6  C   UNL     1      47.680 -25.228  16.973  1.00  0.00     0.134 A 
ATOM      7  C   UNL     1      47.809 -25.154  15.581  1.00  0.00     0.093 A 
ATOM      8  C   UNL     1      47.221 -26.106  14.751  1.00  0.00     0.123 A 
ATOM      9  C   UNL     1      46.497 -27.161  15.309  1.00  0.00     0.094 A 
ATOM     10  C   UNL     1      46.384 -27.284  16.696  1.00  0.00     0.146 A 
ATOM     11  O   UNL     1      45.705 -28.314  17.186  1.00  0.00    -0.452 OA
ENDROOT
BRANCH   1  12
ATOM     12  C   UNL     1      44.777 -29.730  18.901  1.00  0.00     0.025 A 
ATOM     13  C   UNL     1      43.564 -30.017  18.253  1.00  0.00     0.016 A 
ATOM     14  C   UNL     1      42.818 -31.142  18.613  1.00  0.00     0.051 A 
ATOM     15  C   UNL     1      43.279 -32.005  19.616  1.00  0.00     0.157 A 
ATOM     16  C   UNL     1      45.247 -30.610  19.893  1.00  0.00     0.062 A 
ATOM     17  C   UNL     1      44.502 -31.738  20.254  1.00  0.00     0.158 A 
BRANCH  15  18
ATOM     18  O   UNL     1      42.531 -33.125  19.976  1.00  0.00    -0.504 OA
ATOM     19  H   UNL     1      42.220 -33.270  20.929  1.00  0.00     0.293 HD
ENDBRANCH  15  18
BRANCH  17  20
ATOM     20  O   UNL     1      44.995 -32.585  21.247  1.00  0.00    -0.504 OA
ATOM     21  H   UNL     1      44.708 -32.505  22.215  1.00  0.00     0.293 HD
ENDBRANCH  17  20
ENDBRANCH   1  12
BRANCH   2  22
ATOM     22  O   UNL     1      45.962 -27.877  20.788  1.00  0.00    -0.502 OA
ATOM     23  H   UNL     1      46.737 -28.038  21.419  1.00  0.00     0.293 HD
ENDBRANCH   2  22
BRANCH   6  24
ATOM     24  O   UNL     1      48.231 -24.173  17.705  1.00  0.00    -0.507 OA
ATOM     25  H   UNL     1      48.261 -23.212  17.400  1.00  0.00     0.293 HD
ENDBRANCH   6  24
BRANCH   8  26
ATOM     26  O   UNL     1      47.355 -25.990  13.368  1.00  0.00    -0.508 OA
ATOM     27  H   UNL     1      47.354 -25.087  12.910  1.00  0.00     0.293 HD
ENDBRANCH   8  26
TORSDOF 6
ENDMDL
MODEL 3
REMARK VINA RESULT:    -6.645      3.770      7.992
REMARK INTER + INTRA:          -8.239
REMARK INTER:                  -8.024
REMARK INTRA:                  -0.216
REMARK UNBOUND:                -0.235
REMARK SMILES O=c1c(O)c(-c2ccc(O)c(O)c2)oc2cc(O)cc(O)c12
REMARK SMILES IDX 5 1 3 2 2 3 1 4 22 5 20 6 19 7 17 8 16 9 15 10 14 11 6 12
REMARK SMILES IDX 7 13 8 14 9 15 13 16 11 17 10 18 12 20 4 22 21 24 18 26
REMARK H PARENT 10 19 12 21 4 23 21 25 18 27
REMARK Flexibility Score: inf
ROOT
ATOM      1  C   UNL     1      47.249 -26.584  18.879  1.00  0.00     0.180 A 
ATOM      2  C   UNL     1      48.005 -26.578  17.696  1.00  0.00     0.208 A 
ATOM      3  C   UNL     1      48.968 -25.573  17.508  1.00  0.00     0.238 A 
ATOM      4  O   UNL     1      49.589 -25.529  16.414  1.00  0.00    -0.285 OA
ATOM      5  C   UNL     1      49.203 -24.621  18.531  1.00  0.00     0.111 A 
ATOM      6  C   UNL     1      50.185 -23.587  18.468  1.00  0.00     0.134 A 
ATOM      7  C   UNL     1      50.254 -22.637  19.495  1.00  0.00     0.093 A 
ATOM      8  C   UNL     1      49.424 -22.722  20.611  1.00  0.00     0.123 A 
ATOM      9  C   UNL     1      48.498 -23.761  20.710  1.00  0.00     0.094 A 
ATOM     10  C   UNL     1      48.377 -24.700  19.683  1.00  0.00     0.146 A 
ATOM     11  O   UNL     1      47.469 -25.660  19.807  1.00  0.00    -0.452 OA
ENDROOT
BRANCH   1  12
ATOM     12  C   UNL     1      46.206 -27.601  19.143  1.00  0.00     0.025 A 
ATOM     13  C   UNL     1      46.375 -28.506  20.204  1.00  0.00     0.016 A 
ATOM     14  C   UNL     1      45.394 -29.460  20.484  1.00  0.00     0.051 A 
ATOM     15  C   UNL     1      44.222 -29.515  19.719  1.00  0.00     0.157 A 
ATOM     16  C   UNL     1      45.018 -27.646  18.389  1.00  0.00     0.062 A 
ATOM     17  C   UNL     1      44.033 -28.600  18.670  1.00  0.00     0.158 A 
BRANCH  15  18
ATOM     18  O   UNL     1      43.246 -30.470  19.999  1.00  0.00    -0.504 OA
ATOM     19  H   UNL     1      43.017 -30.731  20.951  1.00  0.00     0.293 HD
ENDBRANCH  15  18
BRANCH  17  20
ATOM     20  O   UNL     1      42.871 -28.620  17.898  1.00  0.00    -0.504 OA
ATOM     21  H   UNL     1      41.948 -28.631  18.314  1.00  0.00     0.293 HD
ENDBRANCH  17  20
ENDBRANCH   1  12
BRANCH   2  22
ATOM     22  O   UNL     1      47.811 -27.571  16.731  1.00  0.00    -0.502 OA
ATOM     23  H   UNL     1      48.212 -28.496  16.815  1.00  0.00     0.293 HD
ENDBRANCH   2  22
BRANCH   6  24
ATOM     24  O   UNL     1      51.125 -23.460  17.441  1.00  0.00    -0.507 OA
ATOM     25  H   UNL     1      51.562 -22.595  17.161  1.00  0.00     0.293 HD
ENDBRANCH   6  24
BRANCH   8  26
ATOM     26  O   UNL     1      49.533 -21.769  21.622  1.00  0.00    -0.508 OA
ATOM     27  H   UNL     1      48.787 -21.109  21.812  1.00  0.00     0.293 HD
ENDBRANCH   8  26
TORSDOF 6
ENDMDL
MODEL 4
REMARK VINA RESULT:    -6.619      4.165      4.982
REMARK INTER + INTRA:          -8.208
REMARK INTER:                  -7.877
REMARK INTRA:                  -0.331
REMARK UNBOUND:                -0.235
REMARK SMILES O=c1c(O)c(-c2ccc(O)c(O)c2)oc2cc(O)cc(O)c12
REMARK SMILES IDX 5 1 3 2 2 3 1 4 22 5 20 6 19 7 17 8 16 9 15 10 14 11 6 12
REMARK SMILES IDX 7 13 8 14 9 15 13 16 11 17 10 18 12 20 4 22 21 24 18 26
REMARK H PARENT 10 19 12 21 4 23 21 25 18 27
REMARK Flexibility Score: inf
ROOT
ATOM      1  C   UNL     1      48.106 -26.109  20.184  1.00  0.00     0.180 A 
ATOM      2  C   UNL     1      48.531 -27.196  20.965  1.00  0.00     0.208 A 
ATOM      3  C   UNL     1      47.721 -28.342  21.037  1.00  0.00     0.238 A 
ATOM      4  O   UNL     1      48.070 -29.281  21.798  1.00  0.00    -0.285 OA
ATOM      5  C   UNL     1      46.524 -28.407  20.281  1.00  0.00     0.111 A 
ATOM      6  C   UNL     1      45.649 -29.535  20.242  1.00  0.00     0.134 A 
ATOM      7  C   UNL     1      44.439 -29.446  19.542  1.00  0.00     0.093 A 
ATOM      8  C   UNL     1      44.103 -28.298  18.829  1.00  0.00     0.123 A 
ATOM      9  C   UNL     1      44.975 -27.209  18.814  1.00  0.00     0.094 A 
ATOM     10  C   UNL     1      46.171 -27.253  19.535  1.00  0.00     0.146 A 
ATOM     11  O   UNL     1      46.963 -26.188  19.512  1.00  0.00    -0.452 OA
ENDROOT
BRANCH   1  12
ATOM     12  C   UNL     1      48.897 -24.863  20.070  1.00  0.00     0.025 A 
ATOM     13  C   UNL     1      49.809 -24.718  19.013  1.00  0.00     0.016 A 
ATOM     14  C   UNL     1      50.551 -23.542  18.874  1.00  0.00     0.051 A 
ATOM     15  C   UNL     1      50.381 -22.488  19.780  1.00  0.00     0.157 A 
ATOM     16  C   UNL     1      48.714 -23.794  20.967  1.00  0.00     0.062 A 
ATOM     17  C   UNL     1      49.455 -22.615  20.829  1.00  0.00     0.158 A 
BRANCH  15  18
ATOM     18  O   UNL     1      51.125 -21.317  19.641  1.00  0.00    -0.504 OA
ATOM     19  H   UNL     1      52.135 -21.337  19.559  1.00  0.00     0.293 HD
ENDBRANCH  15  18
BRANCH  17  20
ATOM     20  O   UNL     1      49.253 -21.578  21.740  1.00  0.00    -0.504 OA
ATOM     21  H   UNL     1      49.896 -20.800  21.822  1.00  0.00     0.293 HD
ENDBRANCH  17  20
ENDBRANCH   1  12
BRANCH   2  22
ATOM     22  O   UNL     1      49.751 -27.142  21.643  1.00  0.00    -0.502 OA
ATOM     23  H   UNL     1      49.909 -27.626  22.518  1.00  0.00     0.293 HD
ENDBRANCH   2  22
BRANCH   6  24
ATOM     24  O   UNL     1      45.928 -30.765  20.846  1.00  0.00    -0.507 OA
ATOM     25  H   UNL     1      45.743 -30.988  21.813  1.00  0.00     0.293 HD
ENDBRANCH   6  24
BRANCH   8  26
ATOM     26  O   UNL     1      42.898 -28.251  18.129  1.00  0.00    -0.508 OA
ATOM     27  H   UNL     1      42.860 -28.405  17.128  1.00  0.00     0.293 HD
ENDBRANCH   8  26
TORSDOF 6
ENDMDL
MODEL 5
REMARK VINA RESULT:    -6.407      5.274      6.656
REMARK INTER + INTRA:          -7.953
REMARK INTER:                  -7.653
REMARK INTRA:                  -0.300
REMARK UNBOUND:                -0.235
REMARK SMILES O=c1c(O)c(-c2ccc(O)c(O)c2)oc2cc(O)cc(O)c12
REMARK SMILES IDX 5 1 3 2 2 3 1 4 22 5 20 6 19 7 17 8 16 9 15 10 14 11 6 12
REMARK SMILES IDX 7 13 8 14 9 15 13 16 11 17 10 18 12 20 4 22 21 24 18 26
REMARK H PARENT 10 19 12 21 4 23 21 25 18 27
REMARK Flexibility Score: inf
ROOT
ATOM      1  C   UNL     1      48.924 -25.465  17.936  1.00  0.00     0.180 A 
ATOM      2  C   UNL     1      49.820 -26.542  17.829  1.00  0.00     0.208 A 
ATOM      3  C   UNL     1      49.605 -27.510  16.834  1.00  0.00     0.238 A 
ATOM      4  O   UNL     1      50.367 -28.511  16.792  1.00  0.00    -0.285 OA
ATOM      5  C   UNL     1      48.531 -27.359  15.923  1.00  0.00     0.111 A 
ATOM      6  C   UNL     1      48.246 -28.254  14.847  1.00  0.00     0.134 A 
ATOM      7  C   UNL     1      47.094 -28.061  14.075  1.00  0.00     0.093 A 
ATOM      8  C   UNL     1      46.253 -26.971  14.296  1.00  0.00     0.123 A 
ATOM      9  C   UNL     1      46.552 -26.058  15.309  1.00  0.00     0.094 A 
ATOM     10  C   UNL     1      47.672 -26.246  16.121  1.00  0.00     0.146 A 
ATOM     11  O   UNL     1      47.908 -25.367  17.087  1.00  0.00    -0.452 OA
ENDROOT
BRANCH   1  12
ATOM     12  C   UNL     1      49.076 -24.413  18.967  1.00  0.00     0.025 A 
ATOM     13  C   UNL     1      48.335 -24.501  20.156  1.00  0.00     0.016 A 
ATOM     14  C   UNL     1      48.478 -23.531  21.152  1.00  0.00     0.051 A 
ATOM     15  C   UNL     1      49.375 -22.469  20.981  1.00  0.00     0.157 A 
ATOM     16  C   UNL     1      49.991 -23.356  18.807  1.00  0.00     0.062 A 
ATOM     17  C   UNL     1      50.137 -22.385  19.804  1.00  0.00     0.158 A 
BRANCH  15  18
ATOM     18  O   UNL     1      49.513 -21.501  21.975  1.00  0.00    -0.504 OA
ATOM     19  H   UNL     1      50.027 -21.688  22.829  1.00  0.00     0.293 HD
ENDBRANCH  15  18
BRANCH  17  20
ATOM     20  O   UNL     1      51.049 -21.347  19.609  1.00  0.00    -0.504 OA
ATOM     21  H   UNL     1      52.048 -21.484  19.703  1.00  0.00     0.293 HD
ENDBRANCH  17  20
ENDBRANCH   1  12
BRANCH   2  22
ATOM     22  O   UNL     1      50.917 -26.634  18.689  1.00  0.00    -0.502 OA
ATOM     23  H   UNL     1      51.868 -26.481  18.377  1.00  0.00     0.293 HD
ENDBRANCH   2  22
BRANCH   6  24
ATOM     24  O   UNL     1      49.066 -29.325  14.482  1.00  0.00    -0.507 OA
ATOM     25  H   UNL     1      49.487 -29.447  13.573  1.00  0.00     0.293 HD
ENDBRANCH   6  24
BRANCH   8  26
ATOM     26  O   UNL     1      45.124 -26.801  13.497  1.00  0.00    -0.508 OA
ATOM     27  H   UNL     1      44.192 -26.786  13.893  1.00  0.00     0.293 HD
ENDBRANCH   8  26
TORSDOF 6
ENDMDL
MODEL 6
REMARK VINA RESULT:    -6.331      2.591      7.527
REMARK INTER + INTRA:          -7.861
REMARK INTER:                  -7.542
REMARK INTRA:                  -0.319
REMARK UNBOUND:                -0.235
REMARK SMILES O=c1c(O)c(-c2ccc(O)c(O)c2)oc2cc(O)cc(O)c12
REMARK SMILES IDX 5 1 3 2 2 3 1 4 22 5 20 6 19 7 17 8 16 9 15 10 14 11 6 12
REMARK SMILES IDX 7 13 8 14 9 15 13 16 11 17 10 18 12 20 4 22 21 24 18 26
REMARK H PARENT 10 19 12 21 4 23 21 25 18 27
REMARK Flexibility Score: inf
ROOT
ATOM      1  C   UNL     1      46.279 -28.213  18.800  1.00  0.00     0.180 A 
ATOM      2  C   UNL     1      46.141 -27.809  17.461  1.00  0.00     0.208 A 
ATOM      3  C   UNL     1      46.687 -26.579  17.061  1.00  0.00     0.238 A 
ATOM      4  O   UNL     1      46.494 -26.188  15.880  1.00  0.00    -0.285 OA
ATOM      5  C   UNL     1      47.414 -25.795  17.990  1.00  0.00     0.111 A 
ATOM      6  C   UNL     1      48.050 -24.553  17.683  1.00  0.00     0.134 A 
ATOM      7  C   UNL     1      48.650 -23.813  18.709  1.00  0.00     0.093 A 
ATOM      8  C   UNL     1      48.696 -24.298  20.015  1.00  0.00     0.123 A 
ATOM      9  C   UNL     1      48.127 -25.536  20.316  1.00  0.00     0.094 A 
ATOM     10  C   UNL     1      47.486 -26.279  19.322  1.00  0.00     0.146 A 
ATOM     11  O   UNL     1      46.939 -27.441  19.655  1.00  0.00    -0.452 OA
ENDROOT
BRANCH   1  12
ATOM     12  C   UNL     1      45.718 -29.489  19.300  1.00  0.00     0.025 A 
ATOM     13  C   UNL     1      46.562 -30.601  19.454  1.00  0.00     0.016 A 
ATOM     14  C   UNL     1      46.059 -31.808  19.945  1.00  0.00     0.051 A 
ATOM     15  C   UNL     1      44.709 -31.918  20.304  1.00  0.00     0.157 A 
ATOM     16  C   UNL     1      44.368 -29.597  19.680  1.00  0.00     0.062 A 
ATOM     17  C   UNL     1      43.862 -30.805  20.174  1.00  0.00     0.158 A 
BRANCH  15  18
ATOM     18  O   UNL     1      44.209 -33.125  20.790  1.00  0.00    -0.504 OA
ATOM     19  H   UNL     1      44.814 -33.812  21.225  1.00  0.00     0.293 HD
ENDBRANCH  15  18
BRANCH  17  20
ATOM     20  O   UNL     1      42.517 -30.878  20.535  1.00  0.00    -0.504 OA
ATOM     21  H   UNL     1      42.202 -31.418  21.331  1.00  0.00     0.293 HD
ENDBRANCH  17  20
ENDBRANCH   1  12
BRANCH   2  22
ATOM     22  O   UNL     1      45.485 -28.632  16.541  1.00  0.00    -0.502 OA
ATOM     23  H   UNL     1      45.291 -29.608  16.727  1.00  0.00     0.293 HD
ENDBRANCH   2  22
BRANCH   6  24
ATOM     24  O   UNL     1      48.140 -24.017  16.395  1.00  0.00    -0.507 OA
ATOM     25  H   UNL     1      47.384 -23.564  15.904  1.00  0.00     0.293 HD
ENDBRANCH   6  24
BRANCH   8  26
ATOM     26  O   UNL     1      49.318 -23.542  21.007  1.00  0.00    -0.508 OA
ATOM     27  H   UNL     1      50.319 -23.592  21.162  1.00  0.00     0.293 HD
ENDBRANCH   8  26
TORSDOF 6
ENDMDL
MODEL 7
REMARK VINA RESULT:    -6.081      1.837      3.244
REMARK INTER + INTRA:          -7.560
REMARK INTER:                  -7.395
REMARK INTRA:                  -0.165
REMARK UNBOUND:                -0.235
REMARK SMILES O=c1c(O)c(-c2ccc(O)c(O)c2)oc2cc(O)cc(O)c12
REMARK SMILES IDX 5 1 3 2 2 3 1 4 22 5 20 6 19 7 17 8 16 9 15 10 14 11 6 12
REMARK SMILES IDX 7 13 8 14 9 15 13 16 11 17 10 18 12 20 4 22 21 24 18 26
REMARK H PARENT 10 19 12 21 4 23 21 25 18 27
REMARK Flexibility Score: inf
ROOT
ATOM      1  C   UNL     1      46.625 -28.816  17.887  1.00  0.00     0.180 A 
ATOM      2  C   UNL     1      45.269 -29.137  18.062  1.00  0.00     0.208 A 
ATOM      3  C   UNL     1      44.924 -30.207  18.904  1.00  0.00     0.238 A 
ATOM      4  O   UNL     1      43.713 -30.536  18.996  1.00  0.00    -0.285 OA
ATOM      5  C   UNL     1      45.937 -30.906  19.605  1.00  0.00     0.111 A 
ATOM      6  C   UNL     1      45.700 -31.977  20.520  1.00  0.00     0.134 A 
ATOM      7  C   UNL     1      46.787 -32.664  21.074  1.00  0.00     0.093 A 
ATOM      8  C   UNL     1      48.098 -32.280  20.800  1.00  0.00     0.123 A 
ATOM      9  C   UNL     1      48.341 -31.199  19.951  1.00  0.00     0.094 A 
ATOM     10  C   UNL     1      47.279 -30.519  19.352  1.00  0.00     0.146 A 
ATOM     11  O   UNL     1      47.554 -29.510  18.534  1.00  0.00    -0.452 OA
ENDROOT
BRANCH   1  12
ATOM     12  C   UNL     1      47.067 -27.712  17.006  1.00  0.00     0.025 A 
ATOM     13  C   UNL     1      47.797 -26.643  17.550  1.00  0.00     0.016 A 
ATOM     14  C   UNL     1      48.243 -25.601  16.733  1.00  0.00     0.051 A 
ATOM     15  C   UNL     1      47.980 -25.620  15.357  1.00  0.00     0.157 A 
ATOM     16  C   UNL     1      46.823 -27.737  15.620  1.00  0.00     0.062 A 
ATOM     17  C   UNL     1      47.270 -26.696  14.799  1.00  0.00     0.158 A 
BRANCH  15  18
ATOM     18  O   UNL     1      48.423 -24.577  14.544  1.00  0.00    -0.504 OA
ATOM     19  H   UNL     1      48.038 -23.644  14.622  1.00  0.00     0.293 HD
ENDBRANCH  15  18
BRANCH  17  20
ATOM     20  O   UNL     1      47.003 -26.751  13.431  1.00  0.00    -0.504 OA
ATOM     21  H   UNL     1      46.211 -26.274  13.017  1.00  0.00     0.293 HD
ENDBRANCH  17  20
ENDBRANCH   1  12
BRANCH   2  22
ATOM     22  O   UNL     1      44.280 -28.386  17.420  1.00  0.00    -0.502 OA
ATOM     23  H   UNL     1      44.462 -27.852  16.579  1.00  0.00     0.293 HD
ENDBRANCH   2  22
BRANCH   6  24
ATOM     24  O   UNL     1      44.429 -32.387  20.933  1.00  0.00    -0.507 OA
ATOM     25  H   UNL     1      44.192 -32.675  21.871  1.00  0.00     0.293 HD
ENDBRANCH   6  24
BRANCH   8  26
ATOM     26  O   UNL     1      49.155 -32.976  21.384  1.00  0.00    -0.508 OA
ATOM     27  H   UNL     1      50.017 -32.511  21.644  1.00  0.00     0.293 HD
ENDBRANCH   8  26
TORSDOF 6
ENDMDL
MODEL 8
REMARK VINA RESULT:    -6.059      1.863      2.199
REMARK INTER + INTRA:          -7.534
REMARK INTER:                  -7.318
REMARK INTRA:                  -0.216
REMARK UNBOUND:                -0.235
REMARK SMILES O=c1c(O)c(-c2ccc(O)c(O)c2)oc2cc(O)cc(O)c12
REMARK SMILES IDX 5 1 3 2 2 3 1 4 22 5 20 6 19 7 17 8 16 9 15 10 14 11 6 12
REMARK SMILES IDX 7 13 8 14 9 15 13 16 11 17 10 18 12 20 4 22 21 24 18 26
REMARK H PARENT 10 19 12 21 4 23 21 25 18 27
REMARK Flexibility Score: inf
ROOT
ATOM      1  C   UNL     1      47.175 -28.684  17.572  1.00  0.00     0.180 A 
ATOM      2  C   UNL     1      48.133 -29.676  17.836  1.00  0.00     0.208 A 
ATOM      3  C   UNL     1      47.777 -30.770  18.643  1.00  0.00     0.238 A 
ATOM      4  O   UNL     1      48.662 -31.616  18.937  1.00  0.00    -0.285 OA
ATOM      5  C   UNL     1      46.451 -30.887  19.127  1.00  0.00     0.111 A 
ATOM      6  C   UNL     1      45.967 -31.975  19.914  1.00  0.00     0.134 A 
ATOM      7  C   UNL     1      44.664 -31.930  20.427  1.00  0.00     0.093 A 
ATOM      8  C   UNL     1      43.809 -30.872  20.128  1.00  0.00     0.123 A 
ATOM      9  C   UNL     1      44.253 -29.829  19.313  1.00  0.00     0.094 A 
ATOM     10  C   UNL     1      45.559 -29.826  18.820  1.00  0.00     0.146 A 
ATOM     11  O   UNL     1      45.949 -28.805  18.067  1.00  0.00    -0.452 OA
ENDROOT
BRANCH   1  12
ATOM     12  C   UNL     1      47.479 -27.495  16.744  1.00  0.00     0.025 A 
ATOM     13  C   UNL     1      48.345 -26.509  17.243  1.00  0.00     0.016 A 
ATOM     14  C   UNL     1      48.663 -25.389  16.470  1.00  0.00     0.051 A 
ATOM     15  C   UNL     1      48.133 -25.246  15.181  1.00  0.00     0.157 A 
ATOM     16  C   UNL     1      46.966 -27.359  15.441  1.00  0.00     0.062 A 
ATOM     17  C   UNL     1      47.285 -26.239  14.664  1.00  0.00     0.158 A 
BRANCH  15  18
ATOM     18  O   UNL     1      48.450 -24.127  14.413  1.00  0.00    -0.504 OA
ATOM     19  H   UNL     1      49.401 -23.939  14.116  1.00  0.00     0.293 HD
ENDBRANCH  15  18
BRANCH  17  20
ATOM     20  O   UNL     1      46.752 -26.133  13.379  1.00  0.00    -0.504 OA
ATOM     21  H   UNL     1      46.818 -26.886  12.705  1.00  0.00     0.293 HD
ENDBRANCH  17  20
ENDBRANCH   1  12
BRANCH   2  22
ATOM     22  O   UNL     1      49.415 -29.582  17.287  1.00  0.00    -0.502 OA
ATOM     23  H   UNL     1      50.081 -28.877  17.578  1.00  0.00     0.293 HD
ENDBRANCH   2  22
BRANCH   6  24
ATOM     24  O   UNL     1      46.708 -33.125  20.201  1.00  0.00    -0.507 OA
ATOM     25  H   UNL     1      47.441 -33.182  20.892  1.00  0.00     0.293 HD
ENDBRANCH   6  24
BRANCH   8  26
ATOM     26  O   UNL     1      42.513 -30.870  20.641  1.00  0.00    -0.508 OA
ATOM     27  H   UNL     1      42.328 -30.647  21.612  1.00  0.00     0.293 HD
ENDBRANCH   8  26
TORSDOF 6
ENDMDL
MODEL 9
REMARK VINA RESULT:    -6.005      3.631      5.257
REMARK INTER + INTRA:          -7.469
REMARK INTER:                  -7.436
REMARK INTRA:                  -0.033
REMARK UNBOUND:                -0.235
REMARK SMILES O=c1c(O)c(-c2ccc(O)c(O)c2)oc2cc(O)cc(O)c12
REMARK SMILES IDX 5 1 3 2 2 3 1 4 22 5 20 6 19 7 17 8 16 9 15 10 14 11 6 12
REMARK SMILES IDX 7 13 8 14 9 15 13 16 11 17 10 18 12 20 4 22 21 24 18 26
REMARK H PARENT 10 19 12 21 4 23 21 25 18 27
REMARK Flexibility Score: inf
ROOT
ATOM      1  C   UNL     1      48.016 -26.136  18.877  1.00  0.00     0.180 A 
ATOM      2  C   UNL     1      47.244 -26.288  17.713  1.00  0.00     0.208 A 
ATOM      3  C   UNL     1      46.507 -27.470  17.533  1.00  0.00     0.238 A 
ATOM      4  O   UNL     1      45.879 -27.631  16.455  1.00  0.00    -0.285 OA
ATOM      5  C   UNL     1      46.506 -28.461  18.546  1.00  0.00     0.111 A 
ATOM      6  C   UNL     1      45.760 -29.677  18.491  1.00  0.00     0.134 A 
ATOM      7  C   UNL     1      45.920 -30.631  19.504  1.00  0.00     0.093 A 
ATOM      8  C   UNL     1      46.746 -30.387  20.600  1.00  0.00     0.123 A 
ATOM      9  C   UNL     1      47.437 -29.178  20.692  1.00  0.00     0.094 A 
ATOM     10  C   UNL     1      47.329 -28.224  19.678  1.00  0.00     0.146 A 
ATOM     11  O   UNL     1      48.020 -27.096  19.794  1.00  0.00    -0.452 OA
ENDROOT
BRANCH   1  12
ATOM     12  C   UNL     1      48.830 -24.926  19.131  1.00  0.00     0.025 A 
ATOM     13  C   UNL     1      49.765 -24.509  18.169  1.00  0.00     0.016 A 
ATOM     14  C   UNL     1      50.529 -23.358  18.378  1.00  0.00     0.051 A 
ATOM     15  C   UNL     1      50.359 -22.598  19.542  1.00  0.00     0.157 A 
ATOM     16  C   UNL     1      48.648 -24.149  20.289  1.00  0.00     0.062 A 
ATOM     17  C   UNL     1      49.411 -22.994  20.499  1.00  0.00     0.158 A 
BRANCH  15  18
ATOM     18  O   UNL     1      51.125 -21.451  19.749  1.00  0.00    -0.504 OA
ATOM     19  H   UNL     1      50.935 -20.818  20.517  1.00  0.00     0.293 HD
ENDBRANCH  15  18
BRANCH  17  20
ATOM     20  O   UNL     1      49.208 -22.252  21.663  1.00  0.00    -0.504 OA
ATOM     21  H   UNL     1      48.287 -22.120  22.064  1.00  0.00     0.293 HD
ENDBRANCH  17  20
ENDBRANCH   1  12
BRANCH   2  22
ATOM     22  O   UNL     1      47.199 -25.266  16.760  1.00  0.00    -0.502 OA
ATOM     23  H   UNL     1      47.211 -24.286  17.013  1.00  0.00     0.293 HD
ENDBRANCH   2  22
BRANCH   6  24
ATOM     24  O   UNL     1      44.839 -29.986  17.487  1.00  0.00    -0.507 OA
ATOM     25  H   UNL     1      44.890 -30.795  16.885  1.00  0.00     0.293 HD
ENDBRANCH   6  24
BRANCH   8  26
ATOM     26  O   UNL     1      46.867 -31.352  21.598  1.00  0.00    -0.508 OA
ATOM     27  H   UNL     1      47.663 -31.978  21.636  1.00  0.00     0.293 HD
ENDBRANCH   8  26
TORSDOF 6
ENDMDL
