MODEL 1
REMARK VINA RESULT:    -7.742      0.000      0.000
REMARK INTER + INTRA:          -9.467
REMARK INTER:                  -9.327
REMARK INTRA:                  -0.140
REMARK UNBOUND:                -0.140
REMARK SMILES O=c1c(O)c(-c2ccc(O)c(O)c2)oc2cc(O)cc(O)c12
REMARK SMILES IDX 5 1 3 2 2 3 1 4 22 5 20 6 19 7 17 8 16 9 15 10 14 11 6 12
REMARK SMILES IDX 7 13 8 14 9 15 13 16 11 17 10 18 12 20 4 22 21 24 18 26
REMARK H PARENT 10 19 12 21 4 23 21 25 18 27
REMARK Flexibility Score: inf
ROOT
ATOM      1  C   UNL     1     -15.130  21.263  12.610  1.00  0.00     0.180 A 
ATOM      2  C   UNL     1     -16.236  21.583  11.804  1.00  0.00     0.208 A 
ATOM      3  C   UNL     1     -17.383  22.128  12.405  1.00  0.00     0.238 A 
ATOM      4  O   UNL     1     -18.349  22.463  11.671  1.00  0.00    -0.285 OA
ATOM      5  C   UNL     1     -17.414  22.332  13.806  1.00  0.00     0.111 A 
ATOM      6  C   UNL     1     -18.537  22.841  14.526  1.00  0.00     0.134 A 
ATOM      7  C   UNL     1     -18.410  23.123  15.891  1.00  0.00     0.093 A 
ATOM      8  C   UNL     1     -17.222  22.855  16.576  1.00  0.00     0.123 A 
ATOM      9  C   UNL     1     -16.141  22.302  15.894  1.00  0.00     0.094 A 
ATOM     10  C   UNL     1     -16.224  22.044  14.524  1.00  0.00     0.146 A 
ATOM     11  O   UNL     1     -15.166  21.527  13.911  1.00  0.00    -0.452 OA
ENDROOT
BRANCH   1  12
ATOM     12  C   UNL     1     -13.897  20.662  12.053  1.00  0.00     0.025 A 
ATOM     13  C   UNL     1     -13.114  21.402  11.152  1.00  0.00     0.016 A 
ATOM     14  C   UNL     1     -11.936  20.862  10.630  1.00  0.00     0.051 A 
ATOM     15  C   UNL     1     -11.514  19.584  11.010  1.00  0.00     0.157 A 
ATOM     16  C   UNL     1     -13.461  19.385  12.450  1.00  0.00     0.062 A 
ATOM     17  C   UNL     1     -12.277  18.843  11.928  1.00  0.00     0.158 A 
BRANCH  15  18
ATOM     18  O   UNL     1     -10.335  19.071  10.472  1.00  0.00    -0.504 OA
ATOM     19  H   UNL     1      -9.424  19.436  10.724  1.00  0.00     0.293 HD
ENDBRANCH  15  18
BRANCH  17  20
ATOM     20  O   UNL     1     -11.855  17.574  12.322  1.00  0.00    -0.504 OA
ATOM     21  H   UNL     1     -10.976  17.434  12.806  1.00  0.00     0.293 HD
ENDBRANCH  17  20
ENDBRANCH   1  12
BRANCH   2  22
ATOM     22  O   UNL     1     -16.176  21.395  10.420  1.00  0.00    -0.502 OA
ATOM     23  H   UNL     1     -17.004  21.254   9.853  1.00  0.00     0.293 HD
ENDBRANCH   2  22
BRANCH   6  24
ATOM     24  O   UNL     1     -19.795  23.057  13.957  1.00  0.00    -0.507 OA
ATOM     25  H   UNL     1     -20.069  23.898  13.472  1.00  0.00     0.293 HD
ENDBRANCH   6  24
BRANCH   8  26
ATOM     26  O   UNL     1     -17.111  23.124  17.939  1.00  0.00    -0.508 OA
ATOM     27  H   UNL     1     -17.184  22.389  18.632  1.00  0.00     0.293 HD
ENDBRANCH   8  26
TORSDOF 6
ENDMDL
MODEL 2
REMARK VINA RESULT:    -7.405      1.100      1.375
REMARK INTER + INTRA:          -9.060
REMARK INTER:                  -8.772
REMARK INTRA:                  -0.288
REMARK UNBOUND:                -0.140
REMARK SMILES O=c1c(O)c(-c2ccc(O)c(O)c2)oc2cc(O)cc(O)c12
REMARK SMILES IDX 5 1 3 2 2 3 1 4 22 5 20 6 19 7 17 8 16 9 15 10 14 11 6 12
REMARK SMILES IDX 7 13 8 14 9 15 13 16 11 17 10 18 12 20 4 22 21 24 18 26
REMARK H PARENT 10 19 12 21 4 23 21 25 18 27
REMARK Flexibility Score: inf
ROOT
ATOM      1  C   UNL     1     -14.345  20.785  11.733  1.00  0.00     0.180 A 
ATOM      2  C   UNL     1     -15.321  21.138  10.786  1.00  0.00     0.208 A 
ATOM      3  C   UNL     1     -16.479  21.806  11.217  1.00  0.00     0.238 A 
ATOM      4  O   UNL     1     -17.324  22.168  10.357  1.00  0.00    -0.285 OA
ATOM      5  C   UNL     1     -16.653  22.100  12.591  1.00  0.00     0.111 A 
ATOM      6  C   UNL     1     -17.804  22.737  13.145  1.00  0.00     0.134 A 
ATOM      7  C   UNL     1     -17.810  23.095  14.498  1.00  0.00     0.093 A 
ATOM      8  C   UNL     1     -16.734  22.779  15.332  1.00  0.00     0.123 A 
ATOM      9  C   UNL     1     -15.632  22.104  14.814  1.00  0.00     0.094 A 
ATOM     10  C   UNL     1     -15.580  21.766  13.460  1.00  0.00     0.146 A 
ATOM     11  O   UNL     1     -14.507  21.132  13.005  1.00  0.00    -0.452 OA
ENDROOT
BRANCH   1  12
ATOM     12  C   UNL     1     -13.111  20.057  11.359  1.00  0.00     0.025 A 
ATOM     13  C   UNL     1     -12.034  20.764  10.802  1.00  0.00     0.016 A 
ATOM     14  C   UNL     1     -10.853  20.101  10.461  1.00  0.00     0.051 A 
ATOM     15  C   UNL     1     -10.723  18.727  10.685  1.00  0.00     0.157 A 
ATOM     16  C   UNL     1     -12.971  18.679  11.603  1.00  0.00     0.062 A 
ATOM     17  C   UNL     1     -11.785  18.012  11.263  1.00  0.00     0.158 A 
BRANCH  15  18
ATOM     18  O   UNL     1      -9.533  18.092  10.333  1.00  0.00    -0.504 OA
ATOM     19  H   UNL     1      -8.677  18.221  10.859  1.00  0.00     0.293 HD
ENDBRANCH  15  18
BRANCH  17  20
ATOM     20  O   UNL     1     -11.657  16.645  11.502  1.00  0.00    -0.504 OA
ATOM     21  H   UNL     1     -10.793  16.151  11.312  1.00  0.00     0.293 HD
ENDBRANCH  17  20
ENDBRANCH   1  12
BRANCH   2  22
ATOM     22  O   UNL     1     -15.120  20.858   9.431  1.00  0.00    -0.502 OA
ATOM     23  H   UNL     1     -14.197  20.744   9.030  1.00  0.00     0.293 HD
ENDBRANCH   2  22
BRANCH   6  24
ATOM     24  O   UNL     1     -18.966  23.014  12.420  1.00  0.00    -0.507 OA
ATOM     25  H   UNL     1     -19.781  22.420  12.393  1.00  0.00     0.293 HD
ENDBRANCH   6  24
BRANCH   8  26
ATOM     26  O   UNL     1     -16.756  23.125  16.682  1.00  0.00    -0.508 OA
ATOM     27  H   UNL     1     -15.906  23.342  17.188  1.00  0.00     0.293 HD
ENDBRANCH   8  26
TORSDOF 6
ENDMDL
MODEL 3
REMARK VINA RESULT:    -7.331      4.452     10.321
REMARK INTER + INTRA:          -8.971
REMARK INTER:                  -8.659
REMARK INTRA:                  -0.312
REMARK UNBOUND:                -0.140
REMARK SMILES O=c1c(O)c(-c2ccc(O)c(O)c2)oc2cc(O)cc(O)c12
REMARK SMILES IDX 5 1 3 2 2 3 1 4 22 5 20 6 19 7 17 8 16 9 15 10 14 11 6 12
REMARK SMILES IDX 7 13 8 14 9 15 13 16 11 17 10 18 12 20 4 22 21 24 18 26
REMARK H PARENT 10 19 12 21 4 23 21 25 18 27
REMARK Flexibility Score: inf
ROOT
ATOM      1  C   UNL     1     -10.550  17.590   9.453  1.00  0.00     0.180 A 
ATOM      2  C   UNL     1      -9.307  18.245   9.475  1.00  0.00     0.208 A 
ATOM      3  C   UNL     1      -8.192  17.611   8.901  1.00  0.00     0.238 A 
ATOM      4  O   UNL     1      -7.094  18.225   8.876  1.00  0.00    -0.285 OA
ATOM      5  C   UNL     1      -8.332  16.324   8.327  1.00  0.00     0.111 A 
ATOM      6  C   UNL     1      -7.262  15.572   7.754  1.00  0.00     0.134 A 
ATOM      7  C   UNL     1      -7.541  14.367   7.099  1.00  0.00     0.093 A 
ATOM      8  C   UNL     1      -8.840  13.855   7.052  1.00  0.00     0.123 A 
ATOM      9  C   UNL     1      -9.881  14.552   7.661  1.00  0.00     0.094 A 
ATOM     10  C   UNL     1      -9.641  15.776   8.291  1.00  0.00     0.146 A 
ATOM     11  O   UNL     1     -10.663  16.412   8.848  1.00  0.00    -0.452 OA
ENDROOT
BRANCH   1  12
ATOM     12  C   UNL     1     -11.764  18.183  10.059  1.00  0.00     0.025 A 
ATOM     13  C   UNL     1     -12.729  18.779   9.231  1.00  0.00     0.016 A 
ATOM     14  C   UNL     1     -13.891  19.326   9.779  1.00  0.00     0.051 A 
ATOM     15  C   UNL     1     -14.115  19.274  11.159  1.00  0.00     0.157 A 
ATOM     16  C   UNL     1     -12.000  18.113  11.444  1.00  0.00     0.062 A 
ATOM     17  C   UNL     1     -13.168  18.660  11.995  1.00  0.00     0.158 A 
BRANCH  15  18
ATOM     18  O   UNL     1     -15.283  19.830  11.678  1.00  0.00    -0.504 OA
ATOM     19  H   UNL     1     -16.101  19.268  11.886  1.00  0.00     0.293 HD
ENDBRANCH  15  18
BRANCH  17  20
ATOM     20  O   UNL     1     -13.391  18.591  13.370  1.00  0.00    -0.504 OA
ATOM     21  H   UNL     1     -13.543  17.707  13.839  1.00  0.00     0.293 HD
ENDBRANCH  17  20
ENDBRANCH   1  12
BRANCH   2  22
ATOM     22  O   UNL     1      -9.196  19.524  10.027  1.00  0.00    -0.502 OA
ATOM     23  H   UNL     1      -9.219  20.365   9.462  1.00  0.00     0.293 HD
ENDBRANCH   2  22
BRANCH   6  24
ATOM     24  O   UNL     1      -5.918  15.948   7.826  1.00  0.00    -0.507 OA
ATOM     25  H   UNL     1      -5.592  16.869   8.078  1.00  0.00     0.293 HD
ENDBRANCH   6  24
BRANCH   8  26
ATOM     26  O   UNL     1      -9.105  12.646   6.411  1.00  0.00    -0.508 OA
ATOM     27  H   UNL     1      -8.726  12.438   5.495  1.00  0.00     0.293 HD
ENDBRANCH   8  26
TORSDOF 6
ENDMDL
MODEL 4
REMARK VINA RESULT:    -7.291      2.727      8.357
REMARK INTER + INTRA:          -8.924
REMARK INTER:                  -8.743
REMARK INTRA:                  -0.180
REMARK UNBOUND:                -0.140
REMARK SMILES O=c1c(O)c(-c2ccc(O)c(O)c2)oc2cc(O)cc(O)c12
REMARK SMILES IDX 5 1 3 2 2 3 1 4 22 5 20 6 19 7 17 8 16 9 15 10 14 11 6 12
REMARK SMILES IDX 7 13 8 14 9 15 13 16 11 17 10 18 12 20 4 22 21 24 18 26
REMARK H PARENT 10 19 12 21 4 23 21 25 18 27
REMARK Flexibility Score: inf
ROOT
ATOM      1  C   UNL     1     -12.981  19.434  10.607  1.00  0.00     0.180 A 
ATOM      2  C   UNL     1     -12.687  18.370  11.476  1.00  0.00     0.208 A 
ATOM      3  C   UNL     1     -11.675  17.461  11.123  1.00  0.00     0.238 A 
ATOM      4  O   UNL     1     -11.380  16.542  11.931  1.00  0.00    -0.285 OA
ATOM      5  C   UNL     1     -10.981  17.620   9.900  1.00  0.00     0.111 A 
ATOM      6  C   UNL     1      -9.966  16.737   9.423  1.00  0.00     0.134 A 
ATOM      7  C   UNL     1      -9.257  17.064   8.261  1.00  0.00     0.093 A 
ATOM      8  C   UNL     1      -9.570  18.209   7.524  1.00  0.00     0.123 A 
ATOM      9  C   UNL     1     -10.599  19.046   7.948  1.00  0.00     0.094 A 
ATOM     10  C   UNL     1     -11.301  18.765   9.123  1.00  0.00     0.146 A 
ATOM     11  O   UNL     1     -12.267  19.594   9.498  1.00  0.00    -0.452 OA
ENDROOT
BRANCH   1  12
ATOM     12  C   UNL     1     -14.049  20.417  10.898  1.00  0.00     0.025 A 
ATOM     13  C   UNL     1     -15.215  20.422  10.115  1.00  0.00     0.016 A 
ATOM     14  C   UNL     1     -16.245  21.327  10.385  1.00  0.00     0.051 A 
ATOM     15  C   UNL     1     -16.133  22.229  11.448  1.00  0.00     0.157 A 
ATOM     16  C   UNL     1     -13.948  21.310  11.980  1.00  0.00     0.062 A 
ATOM     17  C   UNL     1     -14.982  22.217  12.253  1.00  0.00     0.158 A 
BRANCH  15  18
ATOM     18  O   UNL     1     -17.176  23.121  11.693  1.00  0.00    -0.504 OA
ATOM     19  H   UNL     1     -17.143  23.794  12.449  1.00  0.00     0.293 HD
ENDBRANCH  15  18
BRANCH  17  20
ATOM     20  O   UNL     1     -14.871  23.104  13.324  1.00  0.00    -0.504 OA
ATOM     21  H   UNL     1     -15.226  24.051  13.267  1.00  0.00     0.293 HD
ENDBRANCH  17  20
ENDBRANCH   1  12
BRANCH   2  22
ATOM     22  O   UNL     1     -13.369  18.244  12.690  1.00  0.00    -0.502 OA
ATOM     23  H   UNL     1     -14.017  17.487  12.874  1.00  0.00     0.293 HD
ENDBRANCH   2  22
BRANCH   6  24
ATOM     24  O   UNL     1      -9.639  15.523  10.033  1.00  0.00    -0.507 OA
ATOM     25  H   UNL     1      -9.195  15.434  10.934  1.00  0.00     0.293 HD
ENDBRANCH   6  24
BRANCH   8  26
ATOM     26  O   UNL     1      -8.869  18.519   6.359  1.00  0.00    -0.508 OA
ATOM     27  H   UNL     1      -9.255  18.328   5.442  1.00  0.00     0.293 HD
ENDBRANCH   8  26
TORSDOF 6
ENDMDL
MODEL 5
REMARK VINA RESULT:    -7.214      1.502      7.114
REMARK INTER + INTRA:          -8.830
REMARK INTER:                  -8.539
REMARK INTRA:                  -0.291
REMARK UNBOUND:                -0.140
REMARK SMILES O=c1c(O)c(-c2ccc(O)c(O)c2)oc2cc(O)cc(O)c12
REMARK SMILES IDX 5 1 3 2 2 3 1 4 22 5 20 6 19 7 17 8 16 9 15 10 14 11 6 12
REMARK SMILES IDX 7 13 8 14 9 15 13 16 11 17 10 18 12 20 4 22 21 24 18 26
REMARK H PARENT 10 19 12 21 4 23 21 25 18 27
REMARK Flexibility Score: inf
ROOT
ATOM      1  C   UNL     1     -14.242  20.852  12.062  1.00  0.00     0.180 A 
ATOM      2  C   UNL     1     -13.630  21.550  11.007  1.00  0.00     0.208 A 
ATOM      3  C   UNL     1     -12.521  20.977  10.362  1.00  0.00     0.238 A 
ATOM      4  O   UNL     1     -12.012  21.582   9.383  1.00  0.00    -0.285 OA
ATOM      5  C   UNL     1     -12.029  19.721  10.791  1.00  0.00     0.111 A 
ATOM      6  C   UNL     1     -10.888  19.065  10.237  1.00  0.00     0.134 A 
ATOM      7  C   UNL     1     -10.571  17.766  10.652  1.00  0.00     0.093 A 
ATOM      8  C   UNL     1     -11.314  17.124  11.646  1.00  0.00     0.123 A 
ATOM      9  C   UNL     1     -12.392  17.780  12.235  1.00  0.00     0.094 A 
ATOM     10  C   UNL     1     -12.757  19.062  11.817  1.00  0.00     0.146 A 
ATOM     11  O   UNL     1     -13.798  19.646  12.397  1.00  0.00    -0.452 OA
ENDROOT
BRANCH   1  12
ATOM     12  C   UNL     1     -15.398  21.402  12.805  1.00  0.00     0.025 A 
ATOM     13  C   UNL     1     -15.185  22.053  14.031  1.00  0.00     0.016 A 
ATOM     14  C   UNL     1     -16.259  22.598  14.739  1.00  0.00     0.051 A 
ATOM     15  C   UNL     1     -17.558  22.515  14.227  1.00  0.00     0.157 A 
ATOM     16  C   UNL     1     -16.702  21.339  12.282  1.00  0.00     0.062 A 
ATOM     17  C   UNL     1     -17.781  21.887  12.990  1.00  0.00     0.158 A 
BRANCH  15  18
ATOM     18  O   UNL     1     -18.610  23.067  14.957  1.00  0.00    -0.504 OA
ATOM     19  H   UNL     1     -18.951  22.646  15.813  1.00  0.00     0.293 HD
ENDBRANCH  15  18
BRANCH  17  20
ATOM     20  O   UNL     1     -19.072  21.814  12.468  1.00  0.00    -0.504 OA
ATOM     21  H   UNL     1     -19.383  21.012  11.934  1.00  0.00     0.293 HD
ENDBRANCH  17  20
ENDBRANCH   1  12
BRANCH   2  22
ATOM     22  O   UNL     1     -14.145  22.779  10.584  1.00  0.00    -0.502 OA
ATOM     23  H   UNL     1     -13.751  23.297   9.808  1.00  0.00     0.293 HD
ENDBRANCH   2  22
BRANCH   6  24
ATOM     24  O   UNL     1     -10.027  19.652   9.307  1.00  0.00    -0.507 OA
ATOM     25  H   UNL     1     -10.281  19.894   8.361  1.00  0.00     0.293 HD
ENDBRANCH   6  24
BRANCH   8  26
ATOM     26  O   UNL     1     -10.980  15.837  12.064  1.00  0.00    -0.508 OA
ATOM     27  H   UNL     1     -10.060  15.620  12.427  1.00  0.00     0.293 HD
ENDBRANCH   8  26
TORSDOF 6
ENDMDL
MODEL 6
REMARK VINA RESULT:    -7.180      1.531      2.312
REMARK INTER + INTRA:          -8.790
REMARK INTER:                  -8.489
REMARK INTRA:                  -0.301
REMARK UNBOUND:                -0.140
REMARK SMILES O=c1c(O)c(-c2ccc(O)c(O)c2)oc2cc(O)cc(O)c12
REMARK SMILES IDX 5 1 3 2 2 3 1 4 22 5 20 6 19 7 17 8 16 9 15 10 14 11 6 12
REMARK SMILES IDX 7 13 8 14 9 15 13 16 11 17 10 18 12 20 4 22 21 24 18 26
REMARK H PARENT 10 19 12 21 4 23 21 25 18 27
REMARK Flexibility Score: inf
ROOT
ATOM      1  C   UNL     1     -14.001  19.848  11.373  1.00  0.00     0.180 A 
ATOM      2  C   UNL     1     -15.028  19.929  10.417  1.00  0.00     0.208 A 
ATOM      3  C   UNL     1     -16.208  20.620  10.741  1.00  0.00     0.238 A 
ATOM      4  O   UNL     1     -17.101  20.735   9.861  1.00  0.00    -0.285 OA
ATOM      5  C   UNL     1     -16.351  21.207  12.021  1.00  0.00     0.111 A 
ATOM      6  C   UNL     1     -17.518  21.896  12.470  1.00  0.00     0.134 A 
ATOM      7  C   UNL     1     -17.500  22.550  13.708  1.00  0.00     0.093 A 
ATOM      8  C   UNL     1     -16.380  22.485  14.541  1.00  0.00     0.123 A 
ATOM      9  C   UNL     1     -15.258  21.764  14.137  1.00  0.00     0.094 A 
ATOM     10  C   UNL     1     -15.233  21.133  12.891  1.00  0.00     0.146 A 
ATOM     11  O   UNL     1     -14.140  20.466  12.541  1.00  0.00    -0.452 OA
ENDROOT
BRANCH   1  12
ATOM     12  C   UNL     1     -12.740  19.116  11.115  1.00  0.00     0.025 A 
ATOM     13  C   UNL     1     -11.702  19.754  10.418  1.00  0.00     0.016 A 
ATOM     14  C   UNL     1     -10.496  19.090  10.182  1.00  0.00     0.051 A 
ATOM     15  C   UNL     1     -10.303  17.786  10.650  1.00  0.00     0.157 A 
ATOM     16  C   UNL     1     -12.537  17.813  11.603  1.00  0.00     0.062 A 
ATOM     17  C   UNL     1     -11.326  17.146  11.369  1.00  0.00     0.158 A 
BRANCH  15  18
ATOM     18  O   UNL     1      -9.090  17.148  10.397  1.00  0.00    -0.504 OA
ATOM     19  H   UNL     1      -8.238  17.398  10.885  1.00  0.00     0.293 HD
ENDBRANCH  15  18
BRANCH  17  20
ATOM     20  O   UNL     1     -11.135  15.851  11.850  1.00  0.00    -0.504 OA
ATOM     21  H   UNL     1     -11.825  15.124  11.704  1.00  0.00     0.293 HD
ENDBRANCH  17  20
ENDBRANCH   1  12
BRANCH   2  22
ATOM     22  O   UNL     1     -14.857  19.361   9.151  1.00  0.00    -0.502 OA
ATOM     23  H   UNL     1     -15.476  18.647   8.787  1.00  0.00     0.293 HD
ENDBRANCH   2  22
BRANCH   6  24
ATOM     24  O   UNL     1     -18.719  21.944  11.756  1.00  0.00    -0.507 OA
ATOM     25  H   UNL     1     -19.631  21.781  12.155  1.00  0.00     0.293 HD
ENDBRANCH   6  24
BRANCH   8  26
ATOM     26  O   UNL     1     -16.376  23.125  15.779  1.00  0.00    -0.508 OA
ATOM     27  H   UNL     1     -15.792  22.802  16.541  1.00  0.00     0.293 HD
ENDBRANCH   8  26
TORSDOF 6
ENDMDL
MODEL 7
REMARK VINA RESULT:    -6.985      3.542      9.180
REMARK INTER + INTRA:          -8.554
REMARK INTER:                  -8.289
REMARK INTRA:                  -0.266
REMARK UNBOUND:                -0.140
REMARK SMILES O=c1c(O)c(-c2ccc(O)c(O)c2)oc2cc(O)cc(O)c12
REMARK SMILES IDX 5 1 3 2 2 3 1 4 22 5 20 6 19 7 17 8 16 9 15 10 14 11 6 12
REMARK SMILES IDX 7 13 8 14 9 15 13 16 11 17 10 18 12 20 4 22 21 24 18 26
REMARK H PARENT 10 19 12 21 4 23 21 25 18 27
REMARK Flexibility Score: inf
ROOT
ATOM      1  C   UNL     1     -11.243  19.291   9.842  1.00  0.00     0.180 A 
ATOM      2  C   UNL     1      -9.850  19.422   9.980  1.00  0.00     0.208 A 
ATOM      3  C   UNL     1      -9.012  18.478   9.364  1.00  0.00     0.238 A 
ATOM      4  O   UNL     1      -7.765  18.632   9.446  1.00  0.00    -0.285 OA
ATOM      5  C   UNL     1      -9.578  17.407   8.632  1.00  0.00     0.111 A 
ATOM      6  C   UNL     1      -8.825  16.370   8.000  1.00  0.00     0.134 A 
ATOM      7  C   UNL     1      -9.483  15.434   7.193  1.00  0.00     0.093 A 
ATOM      8  C   UNL     1     -10.873  15.458   7.047  1.00  0.00     0.123 A 
ATOM      9  C   UNL     1     -11.621  16.430   7.707  1.00  0.00     0.094 A 
ATOM     10  C   UNL     1     -10.990  17.399   8.490  1.00  0.00     0.146 A 
ATOM     11  O   UNL     1     -11.740  18.313   9.093  1.00  0.00    -0.452 OA
ENDROOT
BRANCH   1  12
ATOM     12  C   UNL     1     -12.190  20.232  10.482  1.00  0.00     0.025 A 
ATOM     13  C   UNL     1     -12.399  21.497   9.911  1.00  0.00     0.016 A 
ATOM     14  C   UNL     1     -13.304  22.393  10.486  1.00  0.00     0.051 A 
ATOM     15  C   UNL     1     -14.023  22.034  11.631  1.00  0.00     0.157 A 
ATOM     16  C   UNL     1     -12.929  19.865  11.621  1.00  0.00     0.062 A 
ATOM     17  C   UNL     1     -13.839  20.762  12.199  1.00  0.00     0.158 A 
BRANCH  15  18
ATOM     18  O   UNL     1     -14.918  22.949  12.184  1.00  0.00    -0.504 OA
ATOM     19  H   UNL     1     -14.663  23.550  12.959  1.00  0.00     0.293 HD
ENDBRANCH  15  18
BRANCH  17  20
ATOM     20  O   UNL     1     -14.564  20.393  13.331  1.00  0.00    -0.504 OA
ATOM     21  H   UNL     1     -14.271  20.667  14.261  1.00  0.00     0.293 HD
ENDBRANCH  17  20
ENDBRANCH   1  12
BRANCH   2  22
ATOM     22  O   UNL     1      -9.312  20.500  10.689  1.00  0.00    -0.502 OA
ATOM     23  H   UNL     1      -8.316  20.677  10.738  1.00  0.00     0.293 HD
ENDBRANCH   2  22
BRANCH   6  24
ATOM     24  O   UNL     1      -7.447  16.202   8.156  1.00  0.00    -0.507 OA
ATOM     25  H   UNL     1      -6.931  16.427   8.993  1.00  0.00     0.293 HD
ENDBRANCH   6  24
BRANCH   8  26
ATOM     26  O   UNL     1     -11.520  14.513   6.254  1.00  0.00    -0.508 OA
ATOM     27  H   UNL     1     -12.043  14.782   5.429  1.00  0.00     0.293 HD
ENDBRANCH   8  26
TORSDOF 6
ENDMDL
MODEL 8
REMARK VINA RESULT:    -6.872      1.825      3.619
REMARK INTER + INTRA:          -8.419
REMARK INTER:                  -8.152
REMARK INTRA:                  -0.267
REMARK UNBOUND:                -0.140
REMARK SMILES O=c1c(O)c(-c2ccc(O)c(O)c2)oc2cc(O)cc(O)c12
REMARK SMILES IDX 5 1 3 2 2 3 1 4 22 5 20 6 19 7 17 8 16 9 15 10 14 11 6 12
REMARK SMILES IDX 7 13 8 14 9 15 13 16 11 17 10 18 12 20 4 22 21 24 18 26
REMARK H PARENT 10 19 12 21 4 23 21 25 18 27
REMARK Flexibility Score: inf
ROOT
ATOM      1  C   UNL     1     -15.808  21.183  11.989  1.00  0.00     0.180 A 
ATOM      2  C   UNL     1     -16.203  21.827  13.174  1.00  0.00     0.208 A 
ATOM      3  C   UNL     1     -17.547  22.205  13.329  1.00  0.00     0.238 A 
ATOM      4  O   UNL     1     -17.905  22.731  14.415  1.00  0.00    -0.285 OA
ATOM      5  C   UNL     1     -18.474  21.948  12.291  1.00  0.00     0.111 A 
ATOM      6  C   UNL     1     -19.852  22.323  12.324  1.00  0.00     0.134 A 
ATOM      7  C   UNL     1     -20.706  21.903  11.297  1.00  0.00     0.093 A 
ATOM      8  C   UNL     1     -20.219  21.177  10.207  1.00  0.00     0.123 A 
ATOM      9  C   UNL     1     -18.865  20.858  10.136  1.00  0.00     0.094 A 
ATOM     10  C   UNL     1     -17.995  21.231  11.163  1.00  0.00     0.146 A 
ATOM     11  O   UNL     1     -16.715  20.898  11.061  1.00  0.00    -0.452 OA
ENDROOT
BRANCH   1  12
ATOM     12  C   UNL     1     -14.405  20.778  11.742  1.00  0.00     0.025 A 
ATOM     13  C   UNL     1     -13.596  21.563  10.905  1.00  0.00     0.016 A 
ATOM     14  C   UNL     1     -12.264  21.210  10.676  1.00  0.00     0.051 A 
ATOM     15  C   UNL     1     -11.715  20.079  11.288  1.00  0.00     0.157 A 
ATOM     16  C   UNL     1     -13.846  19.652  12.374  1.00  0.00     0.062 A 
ATOM     17  C   UNL     1     -12.508  19.299  12.146  1.00  0.00     0.158 A 
BRANCH  15  18
ATOM     18  O   UNL     1     -10.384  19.751  11.039  1.00  0.00    -0.504 OA
ATOM     19  H   UNL     1      -9.660  19.868  11.739  1.00  0.00     0.293 HD
ENDBRANCH  15  18
BRANCH  17  20
ATOM     20  O   UNL     1     -11.964  18.178  12.772  1.00  0.00    -0.504 OA
ATOM     21  H   UNL     1     -12.475  17.665  13.480  1.00  0.00     0.293 HD
ENDBRANCH  17  20
ENDBRANCH   1  12
BRANCH   2  22
ATOM     22  O   UNL     1     -15.275  22.051  14.196  1.00  0.00    -0.502 OA
ATOM     23  H   UNL     1     -15.550  22.329  15.130  1.00  0.00     0.293 HD
ENDBRANCH   2  22
BRANCH   6  24
ATOM     24  O   UNL     1     -20.418  23.124  13.320  1.00  0.00    -0.507 OA
ATOM     25  H   UNL     1     -19.904  23.767  13.901  1.00  0.00     0.293 HD
ENDBRANCH   6  24
BRANCH   8  26
ATOM     26  O   UNL     1     -21.074  20.776   9.182  1.00  0.00    -0.508 OA
ATOM     27  H   UNL     1     -21.986  20.380   9.377  1.00  0.00     0.293 HD
ENDBRANCH   8  26
TORSDOF 6
ENDMDL
MODEL 9
REMARK VINA RESULT:    -6.791      4.692      7.742
REMARK INTER + INTRA:          -8.321
REMARK INTER:                  -8.037
REMARK INTRA:                  -0.284
REMARK UNBOUND:                -0.140
REMARK SMILES O=c1c(O)c(-c2ccc(O)c(O)c2)oc2cc(O)cc(O)c12
REMARK SMILES IDX 5 1 3 2 2 3 1 4 22 5 20 6 19 7 17 8 16 9 15 10 14 11 6 12
REMARK SMILES IDX 7 13 8 14 9 15 13 16 11 17 10 18 12 20 4 22 21 24 18 26
REMARK H PARENT 10 19 12 21 4 23 21 25 18 27
REMARK Flexibility Score: inf
ROOT
ATOM      1  C   UNL     1     -10.368  17.127   9.336  1.00  0.00     0.180 A 
ATOM      2  C   UNL     1     -10.375  17.239  10.737  1.00  0.00     0.208 A 
ATOM      3  C   UNL     1     -11.489  17.817  11.369  1.00  0.00     0.238 A 
ATOM      4  O   UNL     1     -11.513  17.865  12.626  1.00  0.00    -0.285 OA
ATOM      5  C   UNL     1     -12.574  18.288  10.591  1.00  0.00     0.111 A 
ATOM      6  C   UNL     1     -13.735  18.926  11.122  1.00  0.00     0.134 A 
ATOM      7  C   UNL     1     -14.804  19.233  10.271  1.00  0.00     0.093 A 
ATOM      8  C   UNL     1     -14.726  18.985   8.898  1.00  0.00     0.123 A 
ATOM      9  C   UNL     1     -13.573  18.418   8.361  1.00  0.00     0.094 A 
ATOM     10  C   UNL     1     -12.505  18.066   9.190  1.00  0.00     0.146 A 
ATOM     11  O   UNL     1     -11.429  17.518   8.639  1.00  0.00    -0.452 OA
ENDROOT
BRANCH   1  12
ATOM     12  C   UNL     1      -9.220  16.553   8.598  1.00  0.00     0.025 A 
ATOM     13  C   UNL     1      -8.061  17.325   8.415  1.00  0.00     0.016 A 
ATOM     14  C   UNL     1      -6.958  16.796   7.740  1.00  0.00     0.051 A 
ATOM     15  C   UNL     1      -6.989  15.486   7.251  1.00  0.00     0.157 A 
ATOM     16  C   UNL     1      -9.242  15.229   8.124  1.00  0.00     0.062 A 
ATOM     17  C   UNL     1      -8.135  14.696   7.448  1.00  0.00     0.158 A 
BRANCH  15  18
ATOM     18  O   UNL     1      -5.875  14.986   6.579  1.00  0.00    -0.504 OA
ATOM     19  H   UNL     1      -5.511  14.057   6.757  1.00  0.00     0.293 HD
ENDBRANCH  15  18
BRANCH  17  20
ATOM     20  O   UNL     1      -8.167  13.385   6.976  1.00  0.00    -0.504 OA
ATOM     21  H   UNL     1      -8.872  13.076   6.317  1.00  0.00     0.293 HD
ENDBRANCH  17  20
ENDBRANCH   1  12
BRANCH   2  22
ATOM     22  O   UNL     1      -9.303  16.748  11.488  1.00  0.00    -0.502 OA
ATOM     23  H   UNL     1      -8.794  17.321  12.150  1.00  0.00     0.293 HD
ENDBRANCH   2  22
BRANCH   6  24
ATOM     24  O   UNL     1     -13.876  19.300  12.461  1.00  0.00    -0.507 OA
ATOM     25  H   UNL     1     -14.168  18.683  13.203  1.00  0.00     0.293 HD
ENDBRANCH   6  24
BRANCH   8  26
ATOM     26  O   UNL     1     -15.788  19.309   8.056  1.00  0.00    -0.508 OA
ATOM     27  H   UNL     1     -15.691  19.286   7.047  1.00  0.00     0.293 HD
ENDBRANCH   8  26
TORSDOF 6
ENDMDL
