MODEL 1
REMARK VINA RESULT:    -5.592      0.000      0.000
REMARK INTER + INTRA:          -5.919
REMARK INTER:                  -5.919
REMARK INTRA:                   0.000
REMARK UNBOUND:                 0.000
REMARK SMILES O=c1ccc2cc(O)c(O)cc2o1
REMARK SMILES IDX 4 1 3 2 2 3 1 4 13 5 12 6 11 7 9 8 7 9 6 10 5 11 8 12 10 14
REMARK H PARENT 8 13 10 15
REMARK Flexibility Score: inf
ROOT
ATOM      1  C   UNL     1      -7.498  13.900   5.030  1.00  0.00     0.019 A 
ATOM      2  C   UNL     1      -6.164  13.651   5.351  1.00  0.00     0.094 A 
ATOM      3  C   UNL     1      -5.539  14.447   6.317  1.00  0.00     0.336 A 
ATOM      4  O   UNL     1      -4.335  14.238   6.620  1.00  0.00    -0.246 OA
ATOM      5  O   UNL     1      -6.209  15.425   6.921  1.00  0.00    -0.423 OA
ATOM      6  C   UNL     1      -7.483  15.697   6.644  1.00  0.00     0.142 A 
ATOM      7  C   UNL     1      -8.136  16.737   7.311  1.00  0.00     0.098 A 
ATOM      8  C   UNL     1      -9.478  17.026   7.024  1.00  0.00     0.161 A 
ATOM      9  C   UNL     1     -10.170  16.271   6.066  1.00  0.00     0.158 A 
ATOM     10  C   UNL     1      -9.520  15.225   5.394  1.00  0.00     0.062 A 
ATOM     11  C   UNL     1      -8.178  14.935   5.680  1.00  0.00     0.022 A 
ENDROOT
BRANCH   9  12
ATOM     12  O   UNL     1     -11.504  16.566   5.787  1.00  0.00    -0.504 OA
ATOM     13  H   UNL     1     -12.088  17.060   6.451  1.00  0.00     0.293 HD
ENDBRANCH   9  12
BRANCH   8  14
ATOM     14  O   UNL     1     -10.132  18.064   7.688  1.00  0.00    -0.504 OA
ATOM     15  H   UNL     1     -10.802  17.882   8.425  1.00  0.00     0.293 HD
ENDBRANCH   8  14
TORSDOF 2
ENDMDL
MODEL 2
REMARK VINA RESULT:    -5.569      2.512      3.921
REMARK INTER + INTRA:          -5.895
REMARK INTER:                  -5.895
REMARK INTRA:                   0.000
REMARK UNBOUND:                 0.000
REMARK SMILES O=c1ccc2cc(O)c(O)cc2o1
REMARK SMILES IDX 4 1 3 2 2 3 1 4 13 5 12 6 11 7 9 8 7 9 6 10 5 11 8 12 10 14
REMARK H PARENT 8 13 10 15
REMARK Flexibility Score: inf
ROOT
ATOM      1  C   UNL     1      -3.492  14.005   7.630  1.00  0.00     0.019 A 
ATOM      2  C   UNL     1      -3.015  14.670   8.760  1.00  0.00     0.094 A 
ATOM      3  C   UNL     1      -3.823  15.636   9.369  1.00  0.00     0.336 A 
ATOM      4  O   UNL     1      -3.409  16.247  10.389  1.00  0.00    -0.246 OA
ATOM      5  O   UNL     1      -5.028  15.914   8.878  1.00  0.00    -0.423 OA
ATOM      6  C   UNL     1      -5.521  15.304   7.803  1.00  0.00     0.142 A 
ATOM      7  C   UNL     1      -6.794  15.638   7.332  1.00  0.00     0.098 A 
ATOM      8  C   UNL     1      -7.318  14.997   6.200  1.00  0.00     0.161 A 
ATOM      9  C   UNL     1      -6.565  14.018   5.536  1.00  0.00     0.158 A 
ATOM     10  C   UNL     1      -5.287  13.678   6.004  1.00  0.00     0.062 A 
ATOM     11  C   UNL     1      -4.762  14.318   7.135  1.00  0.00     0.022 A 
ENDROOT
BRANCH   9  12
ATOM     12  O   UNL     1      -7.094  13.386   4.412  1.00  0.00    -0.504 OA
ATOM     13  H   UNL     1      -7.703  12.580   4.493  1.00  0.00     0.293 HD
ENDBRANCH   9  12
BRANCH   8  14
ATOM     14  O   UNL     1      -8.588  15.328   5.729  1.00  0.00    -0.504 OA
ATOM     15  H   UNL     1      -9.157  16.031   6.186  1.00  0.00     0.293 HD
ENDBRANCH   8  14
TORSDOF 2
ENDMDL
MODEL 3
REMARK VINA RESULT:    -5.492      1.822      2.604
REMARK INTER + INTRA:          -5.813
REMARK INTER:                  -5.813
REMARK INTRA:                   0.000
REMARK UNBOUND:                 0.000
REMARK SMILES O=c1ccc2cc(O)c(O)cc2o1
REMARK SMILES IDX 4 1 3 2 2 3 1 4 13 5 12 6 11 7 9 8 7 9 6 10 5 11 8 12 10 14
REMARK H PARENT 8 13 10 15
REMARK Flexibility Score: inf
ROOT
ATOM      1  C   UNL     1      -5.004  13.970   5.825  1.00  0.00     0.019 A 
ATOM      2  C   UNL     1      -4.113  14.924   6.317  1.00  0.00     0.094 A 
ATOM      3  C   UNL     1      -4.619  16.120   6.836  1.00  0.00     0.336 A 
ATOM      4  O   UNL     1      -3.831  16.993   7.285  1.00  0.00    -0.246 OA
ATOM      5  O   UNL     1      -5.931  16.342   6.860  1.00  0.00    -0.423 OA
ATOM      6  C   UNL     1      -6.815  15.460   6.400  1.00  0.00     0.142 A 
ATOM      7  C   UNL     1      -8.182  15.749   6.450  1.00  0.00     0.098 A 
ATOM      8  C   UNL     1      -9.117  14.822   5.968  1.00  0.00     0.161 A 
ATOM      9  C   UNL     1      -8.684  13.601   5.432  1.00  0.00     0.158 A 
ATOM     10  C   UNL     1      -7.313  13.305   5.380  1.00  0.00     0.062 A 
ATOM     11  C   UNL     1      -6.377  14.231   5.862  1.00  0.00     0.022 A 
ENDROOT
BRANCH   9  12
ATOM     12  O   UNL     1      -9.620  12.685   4.955  1.00  0.00    -0.504 OA
ATOM     13  H   UNL     1     -10.271  12.219   5.576  1.00  0.00     0.293 HD
ENDBRANCH   9  12
BRANCH   8  14
ATOM     14  O   UNL     1     -10.481  15.108   6.018  1.00  0.00    -0.504 OA
ATOM     15  H   UNL     1     -11.103  14.618   6.649  1.00  0.00     0.293 HD
ENDBRANCH   8  14
TORSDOF 2
ENDMDL
MODEL 4
REMARK VINA RESULT:    -5.418      3.072      5.155
REMARK INTER + INTRA:          -5.735
REMARK INTER:                  -5.735
REMARK INTRA:                   0.000
REMARK UNBOUND:                 0.000
REMARK SMILES O=c1ccc2cc(O)c(O)cc2o1
REMARK SMILES IDX 4 1 3 2 2 3 1 4 13 5 12 6 11 7 9 8 7 9 6 10 5 11 8 12 10 14
REMARK H PARENT 8 13 10 15
REMARK Flexibility Score: inf
ROOT
ATOM      1  C   UNL     1      -4.799  13.990   5.757  1.00  0.00     0.019 A 
ATOM      2  C   UNL     1      -6.026  13.606   5.216  1.00  0.00     0.094 A 
ATOM      3  C   UNL     1      -7.159  13.606   6.037  1.00  0.00     0.336 A 
ATOM      4  O   UNL     1      -8.275  13.262   5.567  1.00  0.00    -0.246 OA
ATOM      5  O   UNL     1      -7.065  13.967   7.314  1.00  0.00    -0.423 OA
ATOM      6  C   UNL     1      -5.915  14.339   7.871  1.00  0.00     0.142 A 
ATOM      7  C   UNL     1      -5.877  14.708   9.219  1.00  0.00     0.098 A 
ATOM      8  C   UNL     1      -4.668  15.102   9.809  1.00  0.00     0.161 A 
ATOM      9  C   UNL     1      -3.490  15.127   9.048  1.00  0.00     0.158 A 
ATOM     10  C   UNL     1      -3.522  14.758   7.694  1.00  0.00     0.062 A 
ATOM     11  C   UNL     1      -4.730  14.364   7.103  1.00  0.00     0.022 A 
ENDROOT
BRANCH   9  12
ATOM     12  O   UNL     1      -2.292  15.520   9.642  1.00  0.00    -0.504 OA
ATOM     13  H   UNL     1      -2.198  16.417  10.103  1.00  0.00     0.293 HD
ENDBRANCH   9  12
BRANCH   8  14
ATOM     14  O   UNL     1      -4.628  15.471  11.153  1.00  0.00    -0.504 OA
ATOM     15  H   UNL     1      -5.473  15.679  11.671  1.00  0.00     0.293 HD
ENDBRANCH   8  14
TORSDOF 2
ENDMDL
MODEL 5
REMARK VINA RESULT:    -5.375      1.224      4.560
REMARK INTER + INTRA:          -5.690
REMARK INTER:                  -5.690
REMARK INTRA:                   0.000
REMARK UNBOUND:                 0.000
REMARK SMILES O=c1ccc2cc(O)c(O)cc2o1
REMARK SMILES IDX 4 1 3 2 2 3 1 4 13 5 12 6 11 7 9 8 7 9 6 10 5 11 8 12 10 14
REMARK H PARENT 8 13 10 15
REMARK Flexibility Score: inf
ROOT
ATOM      1  C   UNL     1      -9.479  15.554   5.369  1.00  0.00     0.019 A 
ATOM      2  C   UNL     1     -10.230  16.375   6.211  1.00  0.00     0.094 A 
ATOM      3  C   UNL     1      -9.735  16.670   7.486  1.00  0.00     0.336 A 
ATOM      4  O   UNL     1     -10.398  17.409   8.261  1.00  0.00    -0.246 OA
ATOM      5  O   UNL     1      -8.567  16.175   7.888  1.00  0.00    -0.423 OA
ATOM      6  C   UNL     1      -7.821  15.387   7.117  1.00  0.00     0.142 A 
ATOM      7  C   UNL     1      -6.601  14.896   7.592  1.00  0.00     0.098 A 
ATOM      8  C   UNL     1      -5.811  14.068   6.784  1.00  0.00     0.161 A 
ATOM      9  C   UNL     1      -6.242  13.728   5.493  1.00  0.00     0.158 A 
ATOM     10  C   UNL     1      -7.464  14.218   5.010  1.00  0.00     0.062 A 
ATOM     11  C   UNL     1      -8.255  15.047   5.818  1.00  0.00     0.022 A 
ENDROOT
BRANCH   9  12
ATOM     12  O   UNL     1      -5.449  12.903   4.696  1.00  0.00    -0.504 OA
ATOM     13  H   UNL     1      -4.531  13.193   4.382  1.00  0.00     0.293 HD
ENDBRANCH   9  12
BRANCH   8  14
ATOM     14  O   UNL     1      -4.594  13.577   7.256  1.00  0.00    -0.504 OA
ATOM     15  H   UNL     1      -4.335  13.651   8.233  1.00  0.00     0.293 HD
ENDBRANCH   8  14
TORSDOF 2
ENDMDL
MODEL 6
REMARK VINA RESULT:    -5.338      1.116      5.037
REMARK INTER + INTRA:          -5.650
REMARK INTER:                  -5.650
REMARK INTRA:                   0.000
REMARK UNBOUND:                 0.000
REMARK SMILES O=c1ccc2cc(O)c(O)cc2o1
REMARK SMILES IDX 4 1 3 2 2 3 1 4 13 5 12 6 11 7 9 8 7 9 6 10 5 11 8 12 10 14
REMARK H PARENT 8 13 10 15
REMARK Flexibility Score: inf
ROOT
ATOM      1  C   UNL     1      -8.541  16.905   7.261  1.00  0.00     0.019 A 
ATOM      2  C   UNL     1      -9.906  17.047   7.012  1.00  0.00     0.094 A 
ATOM      3  C   UNL     1     -10.522  16.180   6.103  1.00  0.00     0.336 A 
ATOM      4  O   UNL     1     -11.753  16.291   5.864  1.00  0.00    -0.246 OA
ATOM      5  O   UNL     1      -9.815  15.235   5.488  1.00  0.00    -0.423 OA
ATOM      6  C   UNL     1      -8.511  15.066   5.696  1.00  0.00     0.142 A 
ATOM      7  C   UNL     1      -7.820  14.057   5.020  1.00  0.00     0.098 A 
ATOM      8  C   UNL     1      -6.447  13.875   5.237  1.00  0.00     0.161 A 
ATOM      9  C   UNL     1      -5.761  14.707   6.134  1.00  0.00     0.158 A 
ATOM     10  C   UNL     1      -6.449  15.721   6.816  1.00  0.00     0.062 A 
ATOM     11  C   UNL     1      -7.822  15.904   6.599  1.00  0.00     0.022 A 
ENDROOT
BRANCH   9  12
ATOM     12  O   UNL     1      -4.396  14.519   6.343  1.00  0.00    -0.504 OA
ATOM     13  H   UNL     1      -3.704  14.916   5.719  1.00  0.00     0.293 HD
ENDBRANCH   9  12
BRANCH   8  14
ATOM     14  O   UNL     1      -5.755  12.868   4.564  1.00  0.00    -0.504 OA
ATOM     15  H   UNL     1      -5.975  12.623   3.605  1.00  0.00     0.293 HD
ENDBRANCH   8  14
TORSDOF 2
ENDMDL
MODEL 7
REMARK VINA RESULT:    -5.314      8.105      9.623
REMARK INTER + INTRA:          -5.625
REMARK INTER:                  -5.625
REMARK INTRA:                   0.000
REMARK UNBOUND:                 0.000
REMARK SMILES O=c1ccc2cc(O)c(O)cc2o1
REMARK SMILES IDX 4 1 3 2 2 3 1 4 13 5 12 6 11 7 9 8 7 9 6 10 5 11 8 12 10 14
REMARK H PARENT 8 13 10 15
REMARK Flexibility Score: inf
ROOT
ATOM      1  C   UNL     1      -9.703  13.952  14.677  1.00  0.00     0.019 A 
ATOM      2  C   UNL     1     -10.896  13.939  13.955  1.00  0.00     0.094 A 
ATOM      3  C   UNL     1     -11.082  12.962  12.971  1.00  0.00     0.336 A 
ATOM      4  O   UNL     1     -12.152  12.934  12.308  1.00  0.00    -0.246 OA
ATOM      5  O   UNL     1     -10.134  12.060  12.730  1.00  0.00    -0.423 OA
ATOM      6  C   UNL     1      -8.981  12.037  13.395  1.00  0.00     0.142 A 
ATOM      7  C   UNL     1      -8.022  11.064  13.098  1.00  0.00     0.098 A 
ATOM      8  C   UNL     1      -6.807  11.036  13.796  1.00  0.00     0.161 A 
ATOM      9  C   UNL     1      -6.549  11.984  14.797  1.00  0.00     0.158 A 
ATOM     10  C   UNL     1      -7.509  12.962  15.100  1.00  0.00     0.062 A 
ATOM     11  C   UNL     1      -8.724  12.992  14.402  1.00  0.00     0.022 A 
ENDROOT
BRANCH   9  12
ATOM     12  O   UNL     1      -5.338  11.948  15.486  1.00  0.00    -0.504 OA
ATOM     13  H   UNL     1      -4.467  12.215  15.043  1.00  0.00     0.293 HD
ENDBRANCH   9  12
BRANCH   8  14
ATOM     14  O   UNL     1      -5.849  10.066  13.502  1.00  0.00    -0.504 OA
ATOM     15  H   UNL     1      -5.181   9.752  14.196  1.00  0.00     0.293 HD
ENDBRANCH   8  14
TORSDOF 2
ENDMDL
MODEL 8
REMARK VINA RESULT:    -5.297      2.478      4.294
REMARK INTER + INTRA:          -5.606
REMARK INTER:                  -5.606
REMARK INTRA:                   0.000
REMARK UNBOUND:                 0.000
REMARK SMILES O=c1ccc2cc(O)c(O)cc2o1
REMARK SMILES IDX 4 1 3 2 2 3 1 4 13 5 12 6 11 7 9 8 7 9 6 10 5 11 8 12 10 14
REMARK H PARENT 8 13 10 15
REMARK Flexibility Score: inf
ROOT
ATOM      1  C   UNL     1      -4.553  16.276   8.737  1.00  0.00     0.019 A 
ATOM      2  C   UNL     1      -3.303  15.879   9.215  1.00  0.00     0.094 A 
ATOM      3  C   UNL     1      -2.682  14.763   8.644  1.00  0.00     0.336 A 
ATOM      4  O   UNL     1      -1.555  14.390   9.062  1.00  0.00    -0.246 OA
ATOM      5  O   UNL     1      -3.275  14.092   7.660  1.00  0.00    -0.423 OA
ATOM      6  C   UNL     1      -4.467  14.436   7.175  1.00  0.00     0.142 A 
ATOM      7  C   UNL     1      -5.041  13.693   6.140  1.00  0.00     0.098 A 
ATOM      8  C   UNL     1      -6.295  14.052   5.625  1.00  0.00     0.161 A 
ATOM      9  C   UNL     1      -6.978  15.159   6.149  1.00  0.00     0.158 A 
ATOM     10  C   UNL     1      -6.406  15.910   7.187  1.00  0.00     0.062 A 
ATOM     11  C   UNL     1      -5.153  15.551   7.703  1.00  0.00     0.022 A 
ENDROOT
BRANCH   9  12
ATOM     12  O   UNL     1      -8.224  15.509   5.632  1.00  0.00    -0.504 OA
ATOM     13  H   UNL     1      -8.596  16.446   5.732  1.00  0.00     0.293 HD
ENDBRANCH   9  12
BRANCH   8  14
ATOM     14  O   UNL     1      -6.870  13.312   4.593  1.00  0.00    -0.504 OA
ATOM     15  H   UNL     1      -6.646  12.334   4.453  1.00  0.00     0.293 HD
ENDBRANCH   8  14
TORSDOF 2
ENDMDL
MODEL 9
REMARK VINA RESULT:    -5.280      8.103      9.515
REMARK INTER + INTRA:          -5.589
REMARK INTER:                  -5.589
REMARK INTRA:                   0.000
REMARK UNBOUND:                 0.000
REMARK SMILES O=c1ccc2cc(O)c(O)cc2o1
REMARK SMILES IDX 4 1 3 2 2 3 1 4 13 5 12 6 11 7 9 8 7 9 6 10 5 11 8 12 10 14
REMARK H PARENT 8 13 10 15
REMARK Flexibility Score: inf
ROOT
ATOM      1  C   UNL     1     -10.267  12.621  12.846  1.00  0.00     0.019 A 
ATOM      2  C   UNL     1     -11.150  13.582  13.338  1.00  0.00     0.094 A 
ATOM      3  C   UNL     1     -10.779  14.331  14.460  1.00  0.00     0.336 A 
ATOM      4  O   UNL     1     -11.562  15.203  14.919  1.00  0.00    -0.246 OA
ATOM      5  O   UNL     1      -9.602  14.129  15.046  1.00  0.00    -0.423 OA
ATOM      6  C   UNL     1      -8.731  13.222  14.610  1.00  0.00     0.142 A 
ATOM      7  C   UNL     1      -7.509  13.053  15.267  1.00  0.00     0.098 A 
ATOM      8  C   UNL     1      -6.588  12.100  14.810  1.00  0.00     0.161 A 
ATOM      9  C   UNL     1      -6.891  11.311  13.691  1.00  0.00     0.158 A 
ATOM     10  C   UNL     1      -8.115  11.476  13.027  1.00  0.00     0.062 A 
ATOM     11  C   UNL     1      -9.037  12.429  13.483  1.00  0.00     0.022 A 
ENDROOT
BRANCH   9  12
ATOM     12  O   UNL     1      -5.969  10.365  13.244  1.00  0.00    -0.504 OA
ATOM     13  H   UNL     1      -5.025  10.331  13.609  1.00  0.00     0.293 HD
ENDBRANCH   9  12
BRANCH   8  14
ATOM     14  O   UNL     1      -5.368  11.931  15.464  1.00  0.00    -0.504 OA
ATOM     15  H   UNL     1      -4.644  11.329  15.089  1.00  0.00     0.293 HD
ENDBRANCH   8  14
TORSDOF 2
ENDMDL
