MODEL 1
REMARK VINA RESULT:     0.821      0.000      0.000
REMARK INTER + INTRA:           1.810
REMARK INTER:                   1.878
REMARK INTRA:                  -0.067
REMARK UNBOUND:                -0.067
REMARK SMILES CCCCCCCCCCCCCCCCCCCCCCCC(=O)[O-]
REMARK SMILES IDX 13 1 14 2 15 3 16 4 17 5 18 6 19 7 20 8 21 9 22 10 23 11
REMARK SMILES IDX 24 12 25 13 26 14 12 15 11 16 10 17 9 18 8 19 7 20 6 21 5 22
REMARK SMILES IDX 4 23 3 24 2 25 1 26
REMARK H PARENT
REMARK Flexibility Score: inf
ROOT
ATOM      1  C   UNL     1       4.488 -34.848  22.309  1.00  0.00     0.000 C 
ENDROOT
BRANCH   1   2
ATOM      2  C   UNL     1       5.788 -34.181  22.789  1.00  0.00     0.000 C 
BRANCH   2   3
ATOM      3  C   UNL     1       5.944 -34.222  24.321  1.00  0.00     0.000 C 
BRANCH   3   4
ATOM      4  C   UNL     1       6.104 -35.633  24.924  1.00  0.00     0.000 C 
BRANCH   4   5
ATOM      5  C   UNL     1       5.267 -36.735  24.245  1.00  0.00     0.000 C 
BRANCH   5   6
ATOM      6  C   UNL     1       6.063 -37.683  23.323  1.00  0.00     0.000 C 
BRANCH   6   7
ATOM      7  C   UNL     1       5.574 -39.143  23.314  1.00  0.00     0.000 C 
BRANCH   7   8
ATOM      8  C   UNL     1       5.002 -39.633  21.969  1.00  0.00     0.000 C 
BRANCH   8   9
ATOM      9  C   UNL     1       5.625 -38.946  20.735  1.00  0.00     0.000 C 
BRANCH   9  10
ATOM     10  C   UNL     1       4.577 -38.564  19.673  1.00  0.00     0.006 C 
BRANCH  10  11
ATOM     11  C   UNL     1       3.336 -37.912  20.298  1.00  0.00     0.053 C 
BRANCH  11  12
ATOM     12  C   UNL     1       2.172 -37.925  19.354  1.00  0.00     0.041 C 
ATOM     13  O   UNL     1       1.001 -37.743  19.783  1.00  0.00    -0.550 OA
ATOM     14  O   UNL     1       2.384 -38.106  17.991  1.00  0.00    -0.550 OA
ENDBRANCH  11  12
ENDBRANCH  10  11
ENDBRANCH   9  10
ENDBRANCH   8   9
ENDBRANCH   7   8
ENDBRANCH   6   7
ENDBRANCH   5   6
ENDBRANCH   4   5
ENDBRANCH   3   4
ENDBRANCH   2   3
ENDBRANCH   1   2
BRANCH   1  15
ATOM     15  C   UNL     1       4.678 -35.666  21.021  1.00  0.00     0.000 C 
BRANCH  15  16
ATOM     16  C   UNL     1       5.997 -35.340  20.293  1.00  0.00     0.000 C 
BRANCH  16  17
ATOM     17  C   UNL     1       5.868 -35.429  18.757  1.00  0.00     0.000 C 
BRANCH  17  18
ATOM     18  C   UNL     1       4.922 -34.380  18.139  1.00  0.00    -0.000 C 
BRANCH  18  19
ATOM     19  C   UNL     1       3.659 -34.949  17.473  1.00  0.00    -0.000 C 
BRANCH  19  20
ATOM     20  C   UNL     1       3.972 -36.003  16.400  1.00  0.00    -0.000 C 
BRANCH  20  21
ATOM     21  C   UNL     1       2.753 -36.265  15.510  1.00  0.00    -0.000 C 
BRANCH  21  22
ATOM     22  C   UNL     1       3.125 -37.178  14.333  1.00  0.00    -0.000 C 
BRANCH  22  23
ATOM     23  C   UNL     1       4.435 -37.950  14.565  1.00  0.00    -0.000 C 
BRANCH  23  24
ATOM     24  C   UNL     1       4.502 -39.329  13.881  1.00  0.00    -0.000 C 
BRANCH  24  25
ATOM     25  C   UNL     1       4.820 -40.488  14.848  1.00  0.00    -0.003 C 
ATOM     26  C   UNL     1       5.708 -41.555  14.207  1.00  0.00     0.004 C 
ENDBRANCH  24  25
ENDBRANCH  23  24
ENDBRANCH  22  23
ENDBRANCH  21  22
ENDBRANCH  20  21
ENDBRANCH  19  20
ENDBRANCH  18  19
ENDBRANCH  17  18
ENDBRANCH  16  17
ENDBRANCH  15  16
ENDBRANCH   1  15
TORSDOF 22
ENDMDL
MODEL 2
REMARK VINA RESULT:     1.252      2.313      7.703
REMARK INTER + INTRA:           2.795
REMARK INTER:                   4.750
REMARK INTRA:                  -1.955
REMARK UNBOUND:                -0.067
REMARK SMILES CCCCCCCCCCCCCCCCCCCCCCCC(=O)[O-]
REMARK SMILES IDX 13 1 14 2 15 3 16 4 17 5 18 6 19 7 20 8 21 9 22 10 23 11
REMARK SMILES IDX 24 12 25 13 26 14 12 15 11 16 10 17 9 18 8 19 7 20 6 21 5 22
REMARK SMILES IDX 4 23 3 24 2 25 1 26
REMARK H PARENT
REMARK Flexibility Score: inf
ROOT
ATOM      1  C   UNL     1       2.207 -37.502  19.970  1.00  0.00     0.000 C 
ENDROOT
BRANCH   1   2
ATOM      2  C   UNL     1       0.735 -37.833  19.672  1.00  0.00     0.000 C 
BRANCH   2   3
ATOM      3  C   UNL     1       0.435 -37.895  18.162  1.00  0.00     0.000 C 
BRANCH   3   4
ATOM      4  C   UNL     1       0.514 -36.542  17.425  1.00  0.00     0.000 C 
BRANCH   4   5
ATOM      5  C   UNL     1       1.876 -36.231  16.771  1.00  0.00     0.000 C 
BRANCH   5   6
ATOM      6  C   UNL     1       2.174 -37.019  15.479  1.00  0.00     0.000 C 
BRANCH   6   7
ATOM      7  C   UNL     1       3.614 -37.554  15.361  1.00  0.00     0.000 C 
BRANCH   7   8
ATOM      8  C   UNL     1       3.983 -38.141  13.984  1.00  0.00     0.000 C 
BRANCH   8   9
ATOM      9  C   UNL     1       4.232 -39.664  13.998  1.00  0.00     0.000 C 
BRANCH   9  10
ATOM     10  C   UNL     1       5.728 -40.021  14.065  1.00  0.00     0.006 C 
BRANCH  10  11
ATOM     11  C   UNL     1       5.970 -41.526  13.875  1.00  0.00     0.053 C 
BRANCH  11  12
ATOM     12  C   UNL     1       5.469 -42.317  15.046  1.00  0.00     0.041 C 
ATOM     13  O   UNL     1       6.122 -42.344  16.123  1.00  0.00    -0.550 OA
ATOM     14  O   UNL     1       4.259 -42.997  14.958  1.00  0.00    -0.550 OA
ENDBRANCH  11  12
ENDBRANCH  10  11
ENDBRANCH   9  10
ENDBRANCH   8   9
ENDBRANCH   7   8
ENDBRANCH   6   7
ENDBRANCH   5   6
ENDBRANCH   4   5
ENDBRANCH   3   4
ENDBRANCH   2   3
ENDBRANCH   1   2
BRANCH   1  15
ATOM     15  C   UNL     1       3.186 -38.332  19.124  1.00  0.00     0.000 C 
BRANCH  15  16
ATOM     16  C   UNL     1       4.505 -37.590  18.832  1.00  0.00     0.000 C 
BRANCH  16  17
ATOM     17  C   UNL     1       4.603 -36.236  19.567  1.00  0.00     0.000 C 
BRANCH  17  18
ATOM     18  C   UNL     1       5.576 -36.234  20.763  1.00  0.00    -0.000 C 
BRANCH  18  19
ATOM     19  C   UNL     1       4.965 -35.796  22.104  1.00  0.00    -0.000 C 
BRANCH  19  20
ATOM     20  C   UNL     1       5.622 -34.529  22.674  1.00  0.00    -0.000 C 
BRANCH  20  21
ATOM     21  C   UNL     1       6.122 -34.761  24.104  1.00  0.00    -0.000 C 
BRANCH  21  22
ATOM     22  C   UNL     1       5.203 -35.742  24.848  1.00  0.00    -0.000 C 
BRANCH  22  23
ATOM     23  C   UNL     1       5.871 -37.101  25.117  1.00  0.00    -0.000 C 
BRANCH  23  24
ATOM     24  C   UNL     1       4.893 -38.258  25.398  1.00  0.00    -0.000 C 
BRANCH  24  25
ATOM     25  C   UNL     1       4.959 -39.395  24.358  1.00  0.00    -0.003 C 
ATOM     26  C   UNL     1       5.849 -39.043  23.166  1.00  0.00     0.004 C 
ENDBRANCH  24  25
ENDBRANCH  23  24
ENDBRANCH  22  23
ENDBRANCH  21  22
ENDBRANCH  20  21
ENDBRANCH  19  20
ENDBRANCH  18  19
ENDBRANCH  17  18
ENDBRANCH  16  17
ENDBRANCH  15  16
ENDBRANCH   1  15
TORSDOF 22
ENDMDL
MODEL 3
REMARK VINA RESULT:     1.452      1.865      3.176
REMARK INTER + INTRA:           3.252
REMARK INTER:                   1.423
REMARK INTRA:                   1.829
REMARK UNBOUND:                -0.067
REMARK SMILES CCCCCCCCCCCCCCCCCCCCCCCC(=O)[O-]
REMARK SMILES IDX 13 1 14 2 15 3 16 4 17 5 18 6 19 7 20 8 21 9 22 10 23 11
REMARK SMILES IDX 24 12 25 13 26 14 12 15 11 16 10 17 9 18 8 19 7 20 6 21 5 22
REMARK SMILES IDX 4 23 3 24 2 25 1 26
REMARK H PARENT
REMARK Flexibility Score: inf
ROOT
ATOM      1  C   UNL     1       4.058 -35.344  21.010  1.00  0.00     0.000 C 
ENDROOT
BRANCH   1   2
ATOM      2  C   UNL     1       4.128 -34.419  22.237  1.00  0.00     0.000 C 
BRANCH   2   3
ATOM      3  C   UNL     1       5.575 -34.133  22.682  1.00  0.00     0.000 C 
BRANCH   3   4
ATOM      4  C   UNL     1       6.023 -34.869  23.961  1.00  0.00     0.000 C 
BRANCH   4   5
ATOM      5  C   UNL     1       5.039 -35.938  24.480  1.00  0.00     0.000 C 
BRANCH   5   6
ATOM      6  C   UNL     1       5.630 -36.918  25.516  1.00  0.00     0.000 C 
BRANCH   6   7
ATOM      7  C   UNL     1       4.592 -37.779  26.261  1.00  0.00     0.000 C 
BRANCH   7   8
ATOM      8  C   UNL     1       4.325 -39.164  25.638  1.00  0.00     0.000 C 
BRANCH   8   9
ATOM      9  C   UNL     1       5.340 -39.568  24.548  1.00  0.00     0.000 C 
BRANCH   9  10
ATOM     10  C   UNL     1       4.663 -40.032  23.246  1.00  0.00     0.006 C 
BRANCH  10  11
ATOM     11  C   UNL     1       5.685 -40.327  22.138  1.00  0.00     0.053 C 
BRANCH  11  12
ATOM     12  C   UNL     1       5.881 -39.143  21.240  1.00  0.00     0.041 C 
ATOM     13  O   UNL     1       5.857 -37.975  21.711  1.00  0.00    -0.550 OA
ATOM     14  O   UNL     1       6.125 -39.332  19.884  1.00  0.00    -0.550 OA
ENDBRANCH  11  12
ENDBRANCH  10  11
ENDBRANCH   9  10
ENDBRANCH   8   9
ENDBRANCH   7   8
ENDBRANCH   6   7
ENDBRANCH   5   6
ENDBRANCH   4   5
ENDBRANCH   3   4
ENDBRANCH   2   3
ENDBRANCH   1   2
BRANCH   1  15
ATOM     15  C   UNL     1       5.350 -35.326  20.176  1.00  0.00     0.000 C 
BRANCH  15  16
ATOM     16  C   UNL     1       5.202 -36.053  18.825  1.00  0.00     0.000 C 
BRANCH  16  17
ATOM     17  C   UNL     1       4.132 -37.166  18.860  1.00  0.00     0.000 C 
BRANCH  17  18
ATOM     18  C   UNL     1       3.055 -36.974  19.946  1.00  0.00    -0.000 C 
BRANCH  18  19
ATOM     19  C   UNL     1       1.920 -38.012  19.933  1.00  0.00    -0.000 C 
BRANCH  19  20
ATOM     20  C   UNL     1       1.381 -38.289  18.521  1.00  0.00    -0.000 C 
BRANCH  20  21
ATOM     21  C   UNL     1       2.258 -37.624  17.455  1.00  0.00    -0.000 C 
BRANCH  21  22
ATOM     22  C   UNL     1       1.432 -36.650  16.601  1.00  0.00    -0.000 C 
BRANCH  22  23
ATOM     23  C   UNL     1       2.225 -36.072  15.417  1.00  0.00    -0.000 C 
BRANCH  23  24
ATOM     24  C   UNL     1       2.533 -37.078  14.292  1.00  0.00    -0.000 C 
BRANCH  24  25
ATOM     25  C   UNL     1       4.029 -37.430  14.165  1.00  0.00    -0.003 C 
ATOM     26  C   UNL     1       4.299 -38.918  14.386  1.00  0.00     0.004 C 
ENDBRANCH  24  25
ENDBRANCH  23  24
ENDBRANCH  22  23
ENDBRANCH  21  22
ENDBRANCH  20  21
ENDBRANCH  19  20
ENDBRANCH  18  19
ENDBRANCH  17  18
ENDBRANCH  16  17
ENDBRANCH  15  16
ENDBRANCH   1  15
TORSDOF 22
ENDMDL
MODEL 4
REMARK VINA RESULT:     1.800      3.973      5.534
REMARK INTER + INTRA:           4.047
REMARK INTER:                   5.333
REMARK INTRA:                  -1.285
REMARK UNBOUND:                -0.067
REMARK SMILES CCCCCCCCCCCCCCCCCCCCCCCC(=O)[O-]
REMARK SMILES IDX 13 1 14 2 15 3 16 4 17 5 18 6 19 7 20 8 21 9 22 10 23 11
REMARK SMILES IDX 24 12 25 13 26 14 12 15 11 16 10 17 9 18 8 19 7 20 6 21 5 22
REMARK SMILES IDX 4 23 3 24 2 25 1 26
REMARK H PARENT
REMARK Flexibility Score: inf
ROOT
ATOM      1  C   UNL     1       4.355 -35.261  21.685  1.00  0.00     0.000 C 
ENDROOT
BRANCH   1   2
ATOM      2  C   UNL     1       5.070 -34.251  22.598  1.00  0.00     0.000 C 
BRANCH   2   3
ATOM      3  C   UNL     1       6.125 -34.915  23.504  1.00  0.00     0.000 C 
BRANCH   3   4
ATOM      4  C   UNL     1       5.766 -34.952  25.004  1.00  0.00     0.000 C 
BRANCH   4   5
ATOM      5  C   UNL     1       6.046 -36.293  25.712  1.00  0.00     0.000 C 
BRANCH   5   6
ATOM      6  C   UNL     1       5.056 -37.427  25.375  1.00  0.00     0.000 C 
BRANCH   6   7
ATOM      7  C   UNL     1       4.281 -37.993  26.580  1.00  0.00     0.000 C 
BRANCH   7   8
ATOM      8  C   UNL     1       2.747 -37.868  26.488  1.00  0.00     0.000 C 
BRANCH   8   9
ATOM      9  C   UNL     1       2.067 -37.504  27.825  1.00  0.00     0.000 C 
BRANCH   9  10
ATOM     10  C   UNL     1       1.482 -36.080  27.828  1.00  0.00     0.006 C 
BRANCH  10  11
ATOM     11  C   UNL     1       2.363 -35.097  28.612  1.00  0.00     0.053 C 
BRANCH  11  12
ATOM     12  C   UNL     1       1.590 -34.409  29.697  1.00  0.00     0.041 C 
ATOM     13  O   UNL     1       2.169 -34.031  30.750  1.00  0.00    -0.550 OA
ATOM     14  O   UNL     1       0.233 -34.154  29.528  1.00  0.00    -0.550 OA
ENDBRANCH  11  12
ENDBRANCH  10  11
ENDBRANCH   9  10
ENDBRANCH   8   9
ENDBRANCH   7   8
ENDBRANCH   6   7
ENDBRANCH   5   6
ENDBRANCH   4   5
ENDBRANCH   3   4
ENDBRANCH   2   3
ENDBRANCH   1   2
BRANCH   1  15
ATOM     15  C   UNL     1       5.270 -35.818  20.582  1.00  0.00     0.000 C 
BRANCH  15  16
ATOM     16  C   UNL     1       5.673 -37.286  20.821  1.00  0.00     0.000 C 
BRANCH  16  17
ATOM     17  C   UNL     1       4.995 -38.260  19.834  1.00  0.00     0.000 C 
BRANCH  17  18
ATOM     18  C   UNL     1       3.810 -37.651  19.057  1.00  0.00    -0.000 C 
BRANCH  18  19
ATOM     19  C   UNL     1       2.435 -37.820  19.723  1.00  0.00    -0.000 C 
BRANCH  19  20
ATOM     20  C   UNL     1       1.328 -38.186  18.722  1.00  0.00    -0.000 C 
BRANCH  20  21
ATOM     21  C   UNL     1       1.161 -37.094  17.660  1.00  0.00    -0.000 C 
BRANCH  21  22
ATOM     22  C   UNL     1       1.782 -37.534  16.326  1.00  0.00    -0.000 C 
BRANCH  22  23
ATOM     23  C   UNL     1       2.740 -36.485  15.736  1.00  0.00    -0.000 C 
BRANCH  23  24
ATOM     24  C   UNL     1       3.024 -36.644  14.230  1.00  0.00    -0.000 C 
BRANCH  24  25
ATOM     25  C   UNL     1       4.348 -37.372  13.921  1.00  0.00    -0.003 C 
ATOM     26  C   UNL     1       4.308 -38.848  14.316  1.00  0.00     0.004 C 
ENDBRANCH  24  25
ENDBRANCH  23  24
ENDBRANCH  22  23
ENDBRANCH  21  22
ENDBRANCH  20  21
ENDBRANCH  19  20
ENDBRANCH  18  19
ENDBRANCH  17  18
ENDBRANCH  16  17
ENDBRANCH  15  16
ENDBRANCH   1  15
TORSDOF 22
ENDMDL
MODEL 5
REMARK VINA RESULT:     1.878      2.084      5.094
REMARK INTER + INTRA:           4.227
REMARK INTER:                   4.666
REMARK INTRA:                  -0.439
REMARK UNBOUND:                -0.067
REMARK SMILES CCCCCCCCCCCCCCCCCCCCCCCC(=O)[O-]
REMARK SMILES IDX 13 1 14 2 15 3 16 4 17 5 18 6 19 7 20 8 21 9 22 10 23 11
REMARK SMILES IDX 24 12 25 13 26 14 12 15 11 16 10 17 9 18 8 19 7 20 6 21 5 22
REMARK SMILES IDX 4 23 3 24 2 25 1 26
REMARK H PARENT
REMARK Flexibility Score: inf
ROOT
ATOM      1  C   UNL     1       4.947 -36.960  24.946  1.00  0.00     0.000 C 
ENDROOT
BRANCH   1   2
ATOM      2  C   UNL     1       6.075 -35.965  25.268  1.00  0.00     0.000 C 
BRANCH   2   3
ATOM      3  C   UNL     1       6.037 -34.715  24.368  1.00  0.00     0.000 C 
BRANCH   3   4
ATOM      4  C   UNL     1       6.124 -34.997  22.854  1.00  0.00     0.000 C 
BRANCH   4   5
ATOM      5  C   UNL     1       4.772 -35.259  22.158  1.00  0.00     0.000 C 
BRANCH   5   6
ATOM      6  C   UNL     1       4.730 -34.894  20.659  1.00  0.00     0.000 C 
BRANCH   6   7
ATOM      7  C   UNL     1       6.038 -35.154  19.889  1.00  0.00     0.000 C 
BRANCH   7   8
ATOM      8  C   UNL     1       5.982 -34.843  18.381  1.00  0.00     0.000 C 
BRANCH   8   9
ATOM      9  C   UNL     1       4.554 -34.624  17.838  1.00  0.00     0.000 C 
BRANCH   9  10
ATOM     10  C   UNL     1       3.865 -35.937  17.426  1.00  0.00     0.006 C 
BRANCH  10  11
ATOM     11  C   UNL     1       2.954 -35.752  16.204  1.00  0.00     0.053 C 
BRANCH  11  12
ATOM     12  C   UNL     1       3.239 -36.771  15.143  1.00  0.00     0.041 C 
ATOM     13  O   UNL     1       2.737 -36.652  13.993  1.00  0.00    -0.550 OA
ATOM     14  O   UNL     1       4.090 -37.838  15.415  1.00  0.00    -0.550 OA
ENDBRANCH  11  12
ENDBRANCH  10  11
ENDBRANCH   9  10
ENDBRANCH   8   9
ENDBRANCH   7   8
ENDBRANCH   6   7
ENDBRANCH   5   6
ENDBRANCH   4   5
ENDBRANCH   3   4
ENDBRANCH   2   3
ENDBRANCH   1   2
BRANCH   1  15
ATOM     15  C   UNL     1       5.314 -38.411  25.299  1.00  0.00     0.000 C 
BRANCH  15  16
ATOM     16  C   UNL     1       4.679 -39.441  24.345  1.00  0.00     0.000 C 
BRANCH  16  17
ATOM     17  C   UNL     1       5.711 -40.097  23.403  1.00  0.00     0.000 C 
BRANCH  17  18
ATOM     18  C   UNL     1       5.387 -39.941  21.903  1.00  0.00    -0.000 C 
BRANCH  18  19
ATOM     19  C   UNL     1       6.027 -38.721  21.219  1.00  0.00    -0.000 C 
BRANCH  19  20
ATOM     20  C   UNL     1       5.173 -38.165  20.069  1.00  0.00    -0.000 C 
BRANCH  20  21
ATOM     21  C   UNL     1       3.697 -38.535  20.249  1.00  0.00    -0.000 C 
BRANCH  21  22
ATOM     22  C   UNL     1       2.788 -37.399  19.756  1.00  0.00    -0.000 C 
BRANCH  22  23
ATOM     23  C   UNL     1       1.334 -37.544  20.236  1.00  0.00    -0.000 C 
BRANCH  23  24
ATOM     24  C   UNL     1       0.346 -38.040  19.163  1.00  0.00    -0.000 C 
BRANCH  24  25
ATOM     25  C   UNL     1       0.985 -38.238  17.773  1.00  0.00    -0.003 C 
ATOM     26  C   UNL     1       0.678 -37.082  16.820  1.00  0.00     0.004 C 
ENDBRANCH  24  25
ENDBRANCH  23  24
ENDBRANCH  22  23
ENDBRANCH  21  22
ENDBRANCH  20  21
ENDBRANCH  19  20
ENDBRANCH  18  19
ENDBRANCH  17  18
ENDBRANCH  16  17
ENDBRANCH  15  16
ENDBRANCH   1  15
TORSDOF 22
ENDMDL
MODEL 6
REMARK VINA RESULT:     2.147      1.650      6.243
REMARK INTER + INTRA:           4.841
REMARK INTER:                   5.677
REMARK INTRA:                  -0.836
REMARK UNBOUND:                -0.067
REMARK SMILES CCCCCCCCCCCCCCCCCCCCCCCC(=O)[O-]
REMARK SMILES IDX 13 1 14 2 15 3 16 4 17 5 18 6 19 7 20 8 21 9 22 10 23 11
REMARK SMILES IDX 24 12 25 13 26 14 12 15 11 16 10 17 9 18 8 19 7 20 6 21 5 22
REMARK SMILES IDX 4 23 3 24 2 25 1 26
REMARK H PARENT
REMARK Flexibility Score: inf
ROOT
ATOM      1  C   UNL     1       5.436 -35.845  22.357  1.00  0.00     0.000 C 
ENDROOT
BRANCH   1   2
ATOM      2  C   UNL     1       4.893 -35.423  20.982  1.00  0.00     0.000 C 
BRANCH   2   3
ATOM      3  C   UNL     1       5.870 -35.744  19.835  1.00  0.00     0.000 C 
BRANCH   3   4
ATOM      4  C   UNL     1       6.121 -34.586  18.847  1.00  0.00     0.000 C 
BRANCH   4   5
ATOM      5  C   UNL     1       4.971 -34.306  17.859  1.00  0.00     0.000 C 
BRANCH   5   6
ATOM      6  C   UNL     1       4.044 -35.509  17.581  1.00  0.00     0.000 C 
BRANCH   6   7
ATOM      7  C   UNL     1       3.069 -35.320  16.403  1.00  0.00     0.000 C 
BRANCH   7   8
ATOM      8  C   UNL     1       3.253 -36.312  15.238  1.00  0.00     0.000 C 
BRANCH   8   9
ATOM      9  C   UNL     1       3.217 -37.795  15.664  1.00  0.00     0.000 C 
BRANCH   9  10
ATOM     10  C   UNL     1       2.820 -37.981  17.140  1.00  0.00     0.006 C 
BRANCH  10  11
ATOM     11  C   UNL     1       1.297 -37.958  17.335  1.00  0.00     0.053 C 
BRANCH  11  12
ATOM     12  C   UNL     1       0.928 -37.863  18.785  1.00  0.00     0.041 C 
ATOM     13  O   UNL     1      -0.271 -37.678  19.126  1.00  0.00    -0.550 OA
ATOM     14  O   UNL     1       1.906 -38.012  19.762  1.00  0.00    -0.550 OA
ENDBRANCH  11  12
ENDBRANCH  10  11
ENDBRANCH   9  10
ENDBRANCH   8   9
ENDBRANCH   7   8
ENDBRANCH   6   7
ENDBRANCH   5   6
ENDBRANCH   4   5
ENDBRANCH   3   4
ENDBRANCH   2   3
ENDBRANCH   1   2
BRANCH   1  15
ATOM     15  C   UNL     1       6.124 -34.692  23.106  1.00  0.00     0.000 C 
BRANCH  15  16
ATOM     16  C   UNL     1       5.696 -34.595  24.583  1.00  0.00     0.000 C 
BRANCH  16  17
ATOM     17  C   UNL     1       6.080 -35.848  25.400  1.00  0.00     0.000 C 
BRANCH  17  18
ATOM     18  C   UNL     1       4.933 -36.422  26.255  1.00  0.00    -0.000 C 
BRANCH  18  19
ATOM     19  C   UNL     1       4.591 -37.897  25.985  1.00  0.00    -0.000 C 
BRANCH  19  20
ATOM     20  C   UNL     1       5.249 -38.438  24.707  1.00  0.00    -0.000 C 
BRANCH  20  21
ATOM     21  C   UNL     1       4.660 -39.797  24.315  1.00  0.00    -0.000 C 
BRANCH  21  22
ATOM     22  C   UNL     1       5.575 -40.519  23.314  1.00  0.00    -0.000 C 
BRANCH  22  23
ATOM     23  C   UNL     1       5.940 -39.647  22.101  1.00  0.00    -0.000 C 
BRANCH  23  24
ATOM     24  C   UNL     1       4.735 -39.099  21.312  1.00  0.00    -0.000 C 
BRANCH  24  25
ATOM     25  C   UNL     1       5.074 -38.687  19.865  1.00  0.00    -0.003 C 
ATOM     26  C   UNL     1       6.124 -39.598  19.230  1.00  0.00     0.004 C 
ENDBRANCH  24  25
ENDBRANCH  23  24
ENDBRANCH  22  23
ENDBRANCH  21  22
ENDBRANCH  20  21
ENDBRANCH  19  20
ENDBRANCH  18  19
ENDBRANCH  17  18
ENDBRANCH  16  17
ENDBRANCH  15  16
ENDBRANCH   1  15
TORSDOF 22
ENDMDL
MODEL 7
REMARK VINA RESULT:     2.198      2.038      6.017
REMARK INTER + INTRA:           4.956
REMARK INTER:                   3.544
REMARK INTRA:                   1.412
REMARK UNBOUND:                -0.067
REMARK SMILES CCCCCCCCCCCCCCCCCCCCCCCC(=O)[O-]
REMARK SMILES IDX 13 1 14 2 15 3 16 4 17 5 18 6 19 7 20 8 21 9 22 10 23 11
REMARK SMILES IDX 24 12 25 13 26 14 12 15 11 16 10 17 9 18 8 19 7 20 6 21 5 22
REMARK SMILES IDX 4 23 3 24 2 25 1 26
REMARK H PARENT
REMARK Flexibility Score: inf
ROOT
ATOM      1  C   UNL     1       5.820 -34.547  23.517  1.00  0.00     0.000 C 
ENDROOT
BRANCH   1   2
ATOM      2  C   UNL     1       6.045 -35.615  22.434  1.00  0.00     0.000 C 
BRANCH   2   3
ATOM      3  C   UNL     1       5.362 -35.260  21.099  1.00  0.00     0.000 C 
BRANCH   3   4
ATOM      4  C   UNL     1       6.125 -35.709  19.836  1.00  0.00     0.000 C 
BRANCH   4   5
ATOM      5  C   UNL     1       5.809 -34.904  18.559  1.00  0.00     0.000 C 
BRANCH   5   6
ATOM      6  C   UNL     1       4.307 -34.674  18.289  1.00  0.00     0.000 C 
BRANCH   6   7
ATOM      7  C   UNL     1       3.647 -35.709  17.358  1.00  0.00     0.000 C 
BRANCH   7   8
ATOM      8  C   UNL     1       3.310 -35.195  15.944  1.00  0.00     0.000 C 
BRANCH   8   9
ATOM      9  C   UNL     1       2.273 -36.058  15.194  1.00  0.00     0.000 C 
BRANCH   9  10
ATOM     10  C   UNL     1       2.100 -37.456  15.816  1.00  0.00     0.006 C 
BRANCH  10  11
ATOM     11  C   UNL     1       3.435 -38.206  15.928  1.00  0.00     0.053 C 
BRANCH  11  12
ATOM     12  C   UNL     1       4.136 -38.283  14.606  1.00  0.00     0.041 C 
ATOM     13  O   UNL     1       4.488 -39.398  14.136  1.00  0.00    -0.550 OA
ATOM     14  O   UNL     1       4.371 -37.124  13.875  1.00  0.00    -0.550 OA
ENDBRANCH  11  12
ENDBRANCH  10  11
ENDBRANCH   9  10
ENDBRANCH   8   9
ENDBRANCH   7   8
ENDBRANCH   6   7
ENDBRANCH   5   6
ENDBRANCH   4   5
ENDBRANCH   3   4
ENDBRANCH   2   3
ENDBRANCH   1   2
BRANCH   1  15
ATOM     15  C   UNL     1       5.943 -35.108  24.943  1.00  0.00     0.000 C 
BRANCH  15  16
ATOM     16  C   UNL     1       5.006 -36.304  25.200  1.00  0.00     0.000 C 
BRANCH  16  17
ATOM     17  C   UNL     1       5.747 -37.658  25.183  1.00  0.00     0.000 C 
BRANCH  17  18
ATOM     18  C   UNL     1       4.883 -38.847  24.718  1.00  0.00    -0.000 C 
BRANCH  18  19
ATOM     19  C   UNL     1       5.593 -39.853  23.797  1.00  0.00    -0.000 C 
BRANCH  19  20
ATOM     20  C   UNL     1       6.088 -39.218  22.488  1.00  0.00    -0.000 C 
BRANCH  20  21
ATOM     21  C   UNL     1       5.923 -40.183  21.310  1.00  0.00    -0.000 C 
BRANCH  21  22
ATOM     22  C   UNL     1       5.429 -39.437  20.061  1.00  0.00    -0.000 C 
BRANCH  22  23
ATOM     23  C   UNL     1       4.172 -38.592  20.327  1.00  0.00    -0.000 C 
BRANCH  23  24
ATOM     24  C   UNL     1       3.708 -37.731  19.136  1.00  0.00    -0.000 C 
BRANCH  24  25
ATOM     25  C   UNL     1       2.201 -37.405  19.154  1.00  0.00    -0.003 C 
ATOM     26  C   UNL     1       1.337 -38.653  19.335  1.00  0.00     0.004 C 
ENDBRANCH  24  25
ENDBRANCH  23  24
ENDBRANCH  22  23
ENDBRANCH  21  22
ENDBRANCH  20  21
ENDBRANCH  19  20
ENDBRANCH  18  19
ENDBRANCH  17  18
ENDBRANCH  16  17
ENDBRANCH  15  16
ENDBRANCH   1  15
TORSDOF 22
ENDMDL
MODEL 8
REMARK VINA RESULT:     2.278      3.021      6.115
REMARK INTER + INTRA:           5.141
REMARK INTER:                   6.949
REMARK INTRA:                  -1.808
REMARK UNBOUND:                -0.067
REMARK SMILES CCCCCCCCCCCCCCCCCCCCCCCC(=O)[O-]
REMARK SMILES IDX 13 1 14 2 15 3 16 4 17 5 18 6 19 7 20 8 21 9 22 10 23 11
REMARK SMILES IDX 24 12 25 13 26 14 12 15 11 16 10 17 9 18 8 19 7 20 6 21 5 22
REMARK SMILES IDX 4 23 3 24 2 25 1 26
REMARK H PARENT
REMARK Flexibility Score: inf
ROOT
ATOM      1  C   UNL     1       0.634 -37.676  19.271  1.00  0.00     0.000 C 
ENDROOT
BRANCH   1   2
ATOM      2  C   UNL     1       1.838 -37.846  20.213  1.00  0.00     0.000 C 
BRANCH   2   3
ATOM      3  C   UNL     1       3.100 -38.338  19.479  1.00  0.00     0.000 C 
BRANCH   3   4
ATOM      4  C   UNL     1       4.434 -37.817  20.053  1.00  0.00     0.000 C 
BRANCH   4   5
ATOM      5  C   UNL     1       5.648 -38.741  19.832  1.00  0.00     0.000 C 
BRANCH   5   6
ATOM      6  C   UNL     1       6.107 -39.523  21.080  1.00  0.00     0.000 C 
BRANCH   6   7
ATOM      7  C   UNL     1       5.024 -39.722  22.157  1.00  0.00     0.000 C 
BRANCH   7   8
ATOM      8  C   UNL     1       5.453 -39.356  23.592  1.00  0.00     0.000 C 
BRANCH   8   9
ATOM      9  C   UNL     1       6.052 -37.940  23.725  1.00  0.00     0.000 C 
BRANCH   9  10
ATOM     10  C   UNL     1       5.913 -37.366  25.147  1.00  0.00     0.006 C 
BRANCH  10  11
ATOM     11  C   UNL     1       4.475 -36.920  25.450  1.00  0.00     0.053 C 
BRANCH  11  12
ATOM     12  C   UNL     1       3.887 -37.694  26.590  1.00  0.00     0.041 C 
ATOM     13  O   UNL     1       2.685 -37.520  26.926  1.00  0.00    -0.550 OA
ATOM     14  O   UNL     1       4.658 -38.637  27.261  1.00  0.00    -0.550 OA
ENDBRANCH  11  12
ENDBRANCH  10  11
ENDBRANCH   9  10
ENDBRANCH   8   9
ENDBRANCH   7   8
ENDBRANCH   6   7
ENDBRANCH   5   6
ENDBRANCH   4   5
ENDBRANCH   3   4
ENDBRANCH   2   3
ENDBRANCH   1   2
BRANCH   1  15
ATOM     15  C   UNL     1       0.976 -37.988  17.805  1.00  0.00     0.000 C 
BRANCH  15  16
ATOM     16  C   UNL     1       1.069 -36.725  16.928  1.00  0.00     0.000 C 
BRANCH  16  17
ATOM     17  C   UNL     1       2.053 -36.887  15.749  1.00  0.00     0.000 C 
BRANCH  17  18
ATOM     18  C   UNL     1       3.292 -35.973  15.829  1.00  0.00    -0.000 C 
BRANCH  18  19
ATOM     19  C   UNL     1       4.176 -36.177  17.070  1.00  0.00    -0.000 C 
BRANCH  19  20
ATOM     20  C   UNL     1       4.463 -34.866  17.820  1.00  0.00    -0.000 C 
BRANCH  20  21
ATOM     21  C   UNL     1       5.948 -34.747  18.176  1.00  0.00    -0.000 C 
BRANCH  21  22
ATOM     22  C   UNL     1       6.124 -34.370  19.655  1.00  0.00    -0.000 C 
BRANCH  22  23
ATOM     23  C   UNL     1       5.728 -35.505  20.614  1.00  0.00    -0.000 C 
BRANCH  23  24
ATOM     24  C   UNL     1       5.991 -35.214  22.104  1.00  0.00    -0.000 C 
BRANCH  24  25
ATOM     25  C   UNL     1       4.731 -34.792  22.886  1.00  0.00    -0.003 C 
ATOM     26  C   UNL     1       3.514 -34.612  21.979  1.00  0.00     0.004 C 
ENDBRANCH  24  25
ENDBRANCH  23  24
ENDBRANCH  22  23
ENDBRANCH  21  22
ENDBRANCH  20  21
ENDBRANCH  19  20
ENDBRANCH  18  19
ENDBRANCH  17  18
ENDBRANCH  16  17
ENDBRANCH  15  16
ENDBRANCH   1  15
TORSDOF 22
ENDMDL
MODEL 9
REMARK VINA RESULT:     2.365      2.956      4.307
REMARK INTER + INTRA:           5.340
REMARK INTER:                   5.767
REMARK INTRA:                  -0.427
REMARK UNBOUND:                -0.067
REMARK SMILES CCCCCCCCCCCCCCCCCCCCCCCC(=O)[O-]
REMARK SMILES IDX 13 1 14 2 15 3 16 4 17 5 18 6 19 7 20 8 21 9 22 10 23 11
REMARK SMILES IDX 24 12 25 13 26 14 12 15 11 16 10 17 9 18 8 19 7 20 6 21 5 22
REMARK SMILES IDX 4 23 3 24 2 25 1 26
REMARK H PARENT
REMARK Flexibility Score: inf
ROOT
ATOM      1  C   UNL     1       4.500 -34.699  22.434  1.00  0.00     0.000 C 
ENDROOT
BRANCH   1   2
ATOM      2  C   UNL     1       5.904 -35.117  22.901  1.00  0.00     0.000 C 
BRANCH   2   3
ATOM      3  C   UNL     1       6.124 -36.640  22.830  1.00  0.00     0.000 C 
BRANCH   3   4
ATOM      4  C   UNL     1       5.359 -37.359  21.700  1.00  0.00     0.000 C 
BRANCH   4   5
ATOM      5  C   UNL     1       5.890 -38.760  21.337  1.00  0.00     0.000 C 
BRANCH   5   6
ATOM      6  C   UNL     1       5.275 -39.920  22.148  1.00  0.00     0.000 C 
BRANCH   6   7
ATOM      7  C   UNL     1       5.801 -40.057  23.589  1.00  0.00     0.000 C 
BRANCH   7   8
ATOM      8  C   UNL     1       4.906 -39.425  24.674  1.00  0.00     0.000 C 
BRANCH   8   9
ATOM      9  C   UNL     1       5.412 -38.060  25.187  1.00  0.00     0.000 C 
BRANCH   9  10
ATOM     10  C   UNL     1       4.435 -37.395  26.174  1.00  0.00     0.006 C 
BRANCH  10  11
ATOM     11  C   UNL     1       3.094 -38.140  26.245  1.00  0.00     0.053 C 
BRANCH  11  12
ATOM     12  C   UNL     1       2.195 -37.556  27.294  1.00  0.00     0.041 C 
ATOM     13  O   UNL     1       1.328 -38.274  27.860  1.00  0.00    -0.550 OA
ATOM     14  O   UNL     1       2.339 -36.225  27.670  1.00  0.00    -0.550 OA
ENDBRANCH  11  12
ENDBRANCH  10  11
ENDBRANCH   9  10
ENDBRANCH   8   9
ENDBRANCH   7   8
ENDBRANCH   6   7
ENDBRANCH   5   6
ENDBRANCH   4   5
ENDBRANCH   3   4
ENDBRANCH   2   3
ENDBRANCH   1   2
BRANCH   1  15
ATOM     15  C   UNL     1       4.339 -34.753  20.906  1.00  0.00     0.000 C 
BRANCH  15  16
ATOM     16  C   UNL     1       5.686 -34.696  20.159  1.00  0.00     0.000 C 
BRANCH  16  17
ATOM     17  C   UNL     1       5.594 -35.247  18.719  1.00  0.00     0.000 C 
BRANCH  17  18
ATOM     18  C   UNL     1       4.193 -35.755  18.325  1.00  0.00    -0.000 C 
BRANCH  18  19
ATOM     19  C   UNL     1       3.997 -37.277  18.426  1.00  0.00    -0.000 C 
BRANCH  19  20
ATOM     20  C   UNL     1       2.839 -37.669  19.357  1.00  0.00    -0.000 C 
BRANCH  20  21
ATOM     21  C   UNL     1       1.514 -37.744  18.590  1.00  0.00    -0.000 C 
BRANCH  21  22
ATOM     22  C   UNL     1       1.767 -37.867  17.080  1.00  0.00    -0.000 C 
BRANCH  22  23
ATOM     23  C   UNL     1       1.527 -36.549  16.324  1.00  0.00    -0.000 C 
BRANCH  23  24
ATOM     24  C   UNL     1       2.199 -36.467  14.939  1.00  0.00    -0.000 C 
BRANCH  24  25
ATOM     25  C   UNL     1       3.080 -37.687  14.602  1.00  0.00    -0.003 C 
ATOM     26  C   UNL     1       4.453 -37.284  14.064  1.00  0.00     0.004 C 
ENDBRANCH  24  25
ENDBRANCH  23  24
ENDBRANCH  22  23
ENDBRANCH  21  22
ENDBRANCH  20  21
ENDBRANCH  19  20
ENDBRANCH  18  19
ENDBRANCH  17  18
ENDBRANCH  16  17
ENDBRANCH  15  16
ENDBRANCH   1  15
TORSDOF 22
ENDMDL
