MODEL 1
REMARK VINA RESULT:    -7.526      0.000      0.000
REMARK INTER + INTRA:          -9.388
REMARK INTER:                  -9.066
REMARK INTRA:                  -0.321
REMARK UNBOUND:                -0.321
REMARK SMILES O=c1c(O)c(-c2ccc(O)c(O)c2)oc2cc(O)cc(O)c12
REMARK SMILES IDX 5 1 3 2 2 3 1 4 22 5 20 6 19 7 17 8 16 9 15 10 14 11 6 12
REMARK SMILES IDX 7 13 8 14 9 15 13 16 11 17 10 18 12 20 4 22 21 24 18 26
REMARK H PARENT 10 19 12 21 4 23 21 25 18 27
REMARK Flexibility Score: inf
ROOT
ATOM      1  C   UNL     1     -34.929  -3.901 -17.374  1.00  0.00     0.180 A 
ATOM      2  C   UNL     1     -35.726  -2.965 -16.694  1.00  0.00     0.208 A 
ATOM      3  C   UNL     1     -36.841  -3.417 -15.972  1.00  0.00     0.238 A 
ATOM      4  O   UNL     1     -37.593  -2.566 -15.428  1.00  0.00    -0.285 OA
ATOM      5  C   UNL     1     -37.115  -4.804 -15.892  1.00  0.00     0.111 A 
ATOM      6  C   UNL     1     -38.192  -5.378 -15.151  1.00  0.00     0.134 A 
ATOM      7  C   UNL     1     -38.428  -6.756 -15.230  1.00  0.00     0.093 A 
ATOM      8  C   UNL     1     -37.587  -7.589 -15.972  1.00  0.00     0.123 A 
ATOM      9  C   UNL     1     -36.501  -7.046 -16.654  1.00  0.00     0.094 A 
ATOM     10  C   UNL     1     -36.262  -5.670 -16.625  1.00  0.00     0.146 A 
ATOM     11  O   UNL     1     -35.228  -5.193 -17.307  1.00  0.00    -0.452 OA
ENDROOT
BRANCH   1  12
ATOM     12  C   UNL     1     -33.745  -3.501 -18.168  1.00  0.00     0.025 A 
ATOM     13  C   UNL     1     -32.465  -3.433 -17.592  1.00  0.00     0.016 A 
ATOM     14  C   UNL     1     -31.367  -3.029 -18.355  1.00  0.00     0.051 A 
ATOM     15  C   UNL     1     -31.532  -2.674 -19.700  1.00  0.00     0.157 A 
ATOM     16  C   UNL     1     -33.909  -3.124 -19.511  1.00  0.00     0.062 A 
ATOM     17  C   UNL     1     -32.812  -2.719 -20.279  1.00  0.00     0.158 A 
BRANCH  15  18
ATOM     18  O   UNL     1     -30.435  -2.273 -20.460  1.00  0.00    -0.504 OA
ATOM     19  H   UNL     1     -30.019  -1.355 -20.349  1.00  0.00     0.293 HD
ENDBRANCH  15  18
BRANCH  17  20
ATOM     20  O   UNL     1     -33.012  -2.365 -21.613  1.00  0.00    -0.504 OA
ATOM     21  H   UNL     1     -32.241  -2.232 -22.256  1.00  0.00     0.293 HD
ENDBRANCH  17  20
ENDBRANCH   1  12
BRANCH   2  22
ATOM     22  O   UNL     1     -35.396  -1.607 -16.723  1.00  0.00    -0.502 OA
ATOM     23  H   UNL     1     -35.852  -0.949 -17.344  1.00  0.00     0.293 HD
ENDBRANCH   2  22
BRANCH   6  24
ATOM     24  O   UNL     1     -39.038  -4.651 -14.306  1.00  0.00    -0.507 OA
ATOM     25  H   UNL     1     -39.448  -3.757 -14.530  1.00  0.00     0.293 HD
ENDBRANCH   6  24
BRANCH   8  26
ATOM     26  O   UNL     1     -37.819  -8.962 -16.032  1.00  0.00    -0.508 OA
ATOM     27  H   UNL     1     -37.563  -9.508 -16.848  1.00  0.00     0.293 HD
ENDBRANCH   8  26
TORSDOF 6
ENDMDL
MODEL 2
REMARK VINA RESULT:    -7.427      1.565      1.906
REMARK INTER + INTRA:          -9.268
REMARK INTER:                  -9.507
REMARK INTRA:                   0.240
REMARK UNBOUND:                -0.321
REMARK SMILES O=c1c(O)c(-c2ccc(O)c(O)c2)oc2cc(O)cc(O)c12
REMARK SMILES IDX 5 1 3 2 2 3 1 4 22 5 20 6 19 7 17 8 16 9 15 10 14 11 6 12
REMARK SMILES IDX 7 13 8 14 9 15 13 16 11 17 10 18 12 20 4 22 21 24 18 26
REMARK H PARENT 10 19 12 21 4 23 21 25 18 27
REMARK Flexibility Score: inf
ROOT
ATOM      1  C   UNL     1     -35.885  -4.760 -17.035  1.00  0.00     0.180 A 
ATOM      2  C   UNL     1     -36.064  -3.800 -16.024  1.00  0.00     0.208 A 
ATOM      3  C   UNL     1     -36.919  -4.094 -14.950  1.00  0.00     0.238 A 
ATOM      4  O   UNL     1     -37.132  -3.202 -14.088  1.00  0.00    -0.285 OA
ATOM      5  C   UNL     1     -37.543  -5.363 -14.871  1.00  0.00     0.111 A 
ATOM      6  C   UNL     1     -38.393  -5.785 -13.805  1.00  0.00     0.134 A 
ATOM      7  C   UNL     1     -39.039  -7.025 -13.885  1.00  0.00     0.093 A 
ATOM      8  C   UNL     1     -38.814  -7.885 -14.963  1.00  0.00     0.123 A 
ATOM      9  C   UNL     1     -37.943  -7.506 -15.981  1.00  0.00     0.094 A 
ATOM     10  C   UNL     1     -37.314  -6.259 -15.947  1.00  0.00     0.146 A 
ATOM     11  O   UNL     1     -36.508  -5.930 -16.950  1.00  0.00    -0.452 OA
ENDROOT
BRANCH   1  12
ATOM     12  C   UNL     1     -35.011  -4.520 -18.206  1.00  0.00     0.025 A 
ATOM     13  C   UNL     1     -33.858  -3.722 -18.106  1.00  0.00     0.016 A 
ATOM     14  C   UNL     1     -33.062  -3.490 -19.231  1.00  0.00     0.051 A 
ATOM     15  C   UNL     1     -33.412  -4.037 -20.472  1.00  0.00     0.157 A 
ATOM     16  C   UNL     1     -35.370  -5.049 -19.455  1.00  0.00     0.062 A 
ATOM     17  C   UNL     1     -34.574  -4.819 -20.584  1.00  0.00     0.158 A 
BRANCH  15  18
ATOM     18  O   UNL     1     -32.615  -3.805 -21.591  1.00  0.00    -0.504 OA
ATOM     19  H   UNL     1     -31.787  -3.222 -21.542  1.00  0.00     0.293 HD
ENDBRANCH  15  18
BRANCH  17  20
ATOM     20  O   UNL     1     -34.955  -5.372 -21.806  1.00  0.00    -0.504 OA
ATOM     21  H   UNL     1     -34.381  -5.291 -22.636  1.00  0.00     0.293 HD
ENDBRANCH  17  20
ENDBRANCH   1  12
BRANCH   2  22
ATOM     22  O   UNL     1     -35.381  -2.582 -16.082  1.00  0.00    -0.502 OA
ATOM     23  H   UNL     1     -34.470  -2.490 -16.516  1.00  0.00     0.293 HD
ENDBRANCH   2  22
BRANCH   6  24
ATOM     24  O   UNL     1     -38.617  -5.043 -12.640  1.00  0.00    -0.507 OA
ATOM     25  H   UNL     1     -37.897  -4.726 -12.009  1.00  0.00     0.293 HD
ENDBRANCH   6  24
BRANCH   8  26
ATOM     26  O   UNL     1     -39.447  -9.125 -15.027  1.00  0.00    -0.508 OA
ATOM     27  H   UNL     1     -39.571  -9.612 -15.908  1.00  0.00     0.293 HD
ENDBRANCH   8  26
TORSDOF 6
ENDMDL
MODEL 3
REMARK VINA RESULT:    -7.341      1.135      1.714
REMARK INTER + INTRA:          -9.165
REMARK INTER:                  -8.869
REMARK INTRA:                  -0.295
REMARK UNBOUND:                -0.321
REMARK SMILES O=c1c(O)c(-c2ccc(O)c(O)c2)oc2cc(O)cc(O)c12
REMARK SMILES IDX 5 1 3 2 2 3 1 4 22 5 20 6 19 7 17 8 16 9 15 10 14 11 6 12
REMARK SMILES IDX 7 13 8 14 9 15 13 16 11 17 10 18 12 20 4 22 21 24 18 26
REMARK H PARENT 10 19 12 21 4 23 21 25 18 27
REMARK Flexibility Score: inf
ROOT
ATOM      1  C   UNL     1     -35.347  -4.130 -17.001  1.00  0.00     0.180 A 
ATOM      2  C   UNL     1     -35.897  -3.138 -16.171  1.00  0.00     0.208 A 
ATOM      3  C   UNL     1     -36.740  -3.522 -15.117  1.00  0.00     0.238 A 
ATOM      4  O   UNL     1     -37.288  -2.624 -14.426  1.00  0.00    -0.285 OA
ATOM      5  C   UNL     1     -36.980  -4.895 -14.869  1.00  0.00     0.111 A 
ATOM      6  C   UNL     1     -37.781  -5.401 -13.801  1.00  0.00     0.134 A 
ATOM      7  C   UNL     1     -38.033  -6.776 -13.717  1.00  0.00     0.093 A 
ATOM      8  C   UNL     1     -37.461  -7.670 -14.626  1.00  0.00     0.123 A 
ATOM      9  C   UNL     1     -36.633  -7.192 -15.639  1.00  0.00     0.094 A 
ATOM     10  C   UNL     1     -36.393  -5.822 -15.770  1.00  0.00     0.146 A 
ATOM     11  O   UNL     1     -35.615  -5.409 -16.763  1.00  0.00    -0.452 OA
ENDROOT
BRANCH   1  12
ATOM     12  C   UNL     1     -34.460  -3.803 -18.140  1.00  0.00     0.025 A 
ATOM     13  C   UNL     1     -34.937  -3.805 -19.463  1.00  0.00     0.016 A 
ATOM     14  C   UNL     1     -34.076  -3.517 -20.524  1.00  0.00     0.051 A 
ATOM     15  C   UNL     1     -32.724  -3.237 -20.284  1.00  0.00     0.157 A 
ATOM     16  C   UNL     1     -33.101  -3.542 -17.906  1.00  0.00     0.062 A 
ATOM     17  C   UNL     1     -32.235  -3.253 -18.967  1.00  0.00     0.158 A 
BRANCH  15  18
ATOM     18  O   UNL     1     -31.868  -2.948 -21.344  1.00  0.00    -0.504 OA
ATOM     19  H   UNL     1     -30.863  -3.040 -21.256  1.00  0.00     0.293 HD
ENDBRANCH  15  18
BRANCH  17  20
ATOM     20  O   UNL     1     -30.894  -2.986 -18.693  1.00  0.00    -0.504 OA
ATOM     21  H   UNL     1     -30.371  -2.283 -19.200  1.00  0.00     0.293 HD
ENDBRANCH  17  20
ENDBRANCH   1  12
BRANCH   2  22
ATOM     22  O   UNL     1     -35.588  -1.791 -16.385  1.00  0.00    -0.502 OA
ATOM     23  H   UNL     1     -34.809  -1.333 -15.927  1.00  0.00     0.293 HD
ENDBRANCH   2  22
BRANCH   6  24
ATOM     24  O   UNL     1     -38.329  -4.606 -12.788  1.00  0.00    -0.507 OA
ATOM     25  H   UNL     1     -39.032  -3.897 -12.927  1.00  0.00     0.293 HD
ENDBRANCH   6  24
BRANCH   8  26
ATOM     26  O   UNL     1     -37.703  -9.038 -14.525  1.00  0.00    -0.508 OA
ATOM     27  H   UNL     1     -38.061  -9.572 -15.310  1.00  0.00     0.293 HD
ENDBRANCH   8  26
TORSDOF 6
ENDMDL
MODEL 4
REMARK VINA RESULT:    -7.209      1.616      2.339
REMARK INTER + INTRA:          -9.006
REMARK INTER:                  -9.175
REMARK INTRA:                   0.169
REMARK UNBOUND:                -0.321
REMARK SMILES O=c1c(O)c(-c2ccc(O)c(O)c2)oc2cc(O)cc(O)c12
REMARK SMILES IDX 5 1 3 2 2 3 1 4 22 5 20 6 19 7 17 8 16 9 15 10 14 11 6 12
REMARK SMILES IDX 7 13 8 14 9 15 13 16 11 17 10 18 12 20 4 22 21 24 18 26
REMARK H PARENT 10 19 12 21 4 23 21 25 18 27
REMARK Flexibility Score: inf
ROOT
ATOM      1  C   UNL     1     -36.185  -4.758 -16.882  1.00  0.00     0.180 A 
ATOM      2  C   UNL     1     -36.302  -3.718 -15.943  1.00  0.00     0.208 A 
ATOM      3  C   UNL     1     -37.112  -3.909 -14.813  1.00  0.00     0.238 A 
ATOM      4  O   UNL     1     -37.271  -2.948 -14.016  1.00  0.00    -0.285 OA
ATOM      5  C   UNL     1     -37.752  -5.155 -14.606  1.00  0.00     0.111 A 
ATOM      6  C   UNL     1     -38.560  -5.476 -13.473  1.00  0.00     0.134 A 
ATOM      7  C   UNL     1     -39.229  -6.705 -13.427  1.00  0.00     0.093 A 
ATOM      8  C   UNL     1     -39.067  -7.651 -14.442  1.00  0.00     0.123 A 
ATOM      9  C   UNL     1     -38.237  -7.371 -15.524  1.00  0.00     0.094 A 
ATOM     10  C   UNL     1     -37.586  -6.138 -15.617  1.00  0.00     0.146 A 
ATOM     11  O   UNL     1     -36.822  -5.905 -16.676  1.00  0.00    -0.452 OA
ENDROOT
BRANCH   1  12
ATOM     12  C   UNL     1     -35.361  -4.628 -18.105  1.00  0.00     0.025 A 
ATOM     13  C   UNL     1     -35.788  -5.156 -19.336  1.00  0.00     0.016 A 
ATOM     14  C   UNL     1     -34.982  -5.042 -20.471  1.00  0.00     0.051 A 
ATOM     15  C   UNL     1     -33.733  -4.411 -20.393  1.00  0.00     0.157 A 
ATOM     16  C   UNL     1     -34.100  -4.015 -18.026  1.00  0.00     0.062 A 
ATOM     17  C   UNL     1     -33.290  -3.898 -19.162  1.00  0.00     0.158 A 
BRANCH  15  18
ATOM     18  O   UNL     1     -32.933  -4.297 -21.527  1.00  0.00    -0.504 OA
ATOM     19  H   UNL     1     -32.009  -3.883 -21.485  1.00  0.00     0.293 HD
ENDBRANCH  15  18
BRANCH  17  20
ATOM     20  O   UNL     1     -32.049  -3.272 -19.047  1.00  0.00    -0.504 OA
ATOM     21  H   UNL     1     -31.719  -2.887 -18.171  1.00  0.00     0.293 HD
ENDBRANCH  17  20
ENDBRANCH   1  12
BRANCH   2  22
ATOM     22  O   UNL     1     -35.602  -2.523 -16.127  1.00  0.00    -0.502 OA
ATOM     23  H   UNL     1     -34.628  -2.500 -16.406  1.00  0.00     0.293 HD
ENDBRANCH   2  22
BRANCH   6  24
ATOM     24  O   UNL     1     -38.719  -4.640 -12.362  1.00  0.00    -0.507 OA
ATOM     25  H   UNL     1     -39.498  -4.016 -12.216  1.00  0.00     0.293 HD
ENDBRANCH   6  24
BRANCH   8  26
ATOM     26  O   UNL     1     -39.723  -8.879 -14.379  1.00  0.00    -0.508 OA
ATOM     27  H   UNL     1     -40.334  -9.115 -13.605  1.00  0.00     0.293 HD
ENDBRANCH   8  26
TORSDOF 6
ENDMDL
MODEL 5
REMARK VINA RESULT:    -7.200      5.357      6.915
REMARK INTER + INTRA:          -8.995
REMARK INTER:                  -8.688
REMARK INTRA:                  -0.307
REMARK UNBOUND:                -0.321
REMARK SMILES O=c1c(O)c(-c2ccc(O)c(O)c2)oc2cc(O)cc(O)c12
REMARK SMILES IDX 5 1 3 2 2 3 1 4 22 5 20 6 19 7 17 8 16 9 15 10 14 11 6 12
REMARK SMILES IDX 7 13 8 14 9 15 13 16 11 17 10 18 12 20 4 22 21 24 18 26
REMARK H PARENT 10 19 12 21 4 23 21 25 18 27
REMARK Flexibility Score: inf
ROOT
ATOM      1  C   UNL     1     -37.536  -4.655 -12.633  1.00  0.00     0.180 A 
ATOM      2  C   UNL     1     -36.367  -5.254 -13.132  1.00  0.00     0.208 A 
ATOM      3  C   UNL     1     -36.461  -6.493 -13.785  1.00  0.00     0.238 A 
ATOM      4  O   UNL     1     -35.402  -7.058 -14.162  1.00  0.00    -0.285 OA
ATOM      5  C   UNL     1     -37.729  -7.094 -13.979  1.00  0.00     0.111 A 
ATOM      6  C   UNL     1     -37.948  -8.326 -14.666  1.00  0.00     0.134 A 
ATOM      7  C   UNL     1     -39.235  -8.876 -14.706  1.00  0.00     0.093 A 
ATOM      8  C   UNL     1     -40.322  -8.207 -14.138  1.00  0.00     0.123 A 
ATOM      9  C   UNL     1     -40.128  -6.977 -13.514  1.00  0.00     0.094 A 
ATOM     10  C   UNL     1     -38.850  -6.421 -13.426  1.00  0.00     0.146 A 
ATOM     11  O   UNL     1     -38.707  -5.257 -12.803  1.00  0.00    -0.452 OA
ENDROOT
BRANCH   1  12
ATOM     12  C   UNL     1     -37.516  -3.357 -11.922  1.00  0.00     0.025 A 
ATOM     13  C   UNL     1     -37.553  -3.290 -10.518  1.00  0.00     0.016 A 
ATOM     14  C   UNL     1     -37.558  -2.053  -9.870  1.00  0.00     0.051 A 
ATOM     15  C   UNL     1     -37.538  -0.864 -10.613  1.00  0.00     0.157 A 
ATOM     16  C   UNL     1     -37.518  -2.164 -12.662  1.00  0.00     0.062 A 
ATOM     17  C   UNL     1     -37.521  -0.922 -12.017  1.00  0.00     0.158 A 
BRANCH  15  18
ATOM     18  O   UNL     1     -37.541   0.368  -9.963  1.00  0.00    -0.504 OA
ATOM     19  H   UNL     1     -37.105   1.185 -10.373  1.00  0.00     0.293 HD
ENDBRANCH  15  18
BRANCH  17  20
ATOM     20  O   UNL     1     -37.510   0.241 -12.785  1.00  0.00    -0.504 OA
ATOM     21  H   UNL     1     -37.087   0.275 -13.705  1.00  0.00     0.293 HD
ENDBRANCH  17  20
ENDBRANCH   1  12
BRANCH   2  22
ATOM     22  O   UNL     1     -35.134  -4.610 -12.997  1.00  0.00    -0.502 OA
ATOM     23  H   UNL     1     -34.997  -3.823 -12.373  1.00  0.00     0.293 HD
ENDBRANCH   2  22
BRANCH   6  24
ATOM     24  O   UNL     1     -36.949  -9.034 -15.344  1.00  0.00    -0.507 OA
ATOM     25  H   UNL     1     -36.150  -9.466 -14.907  1.00  0.00     0.293 HD
ENDBRANCH   6  24
BRANCH   8  26
ATOM     26  O   UNL     1     -41.602  -8.753 -14.196  1.00  0.00    -0.508 OA
ATOM     27  H   UNL     1     -42.401  -8.276 -13.792  1.00  0.00     0.293 HD
ENDBRANCH   8  26
TORSDOF 6
ENDMDL
MODEL 6
REMARK VINA RESULT:    -7.194      2.022      2.953
REMARK INTER + INTRA:          -8.988
REMARK INTER:                  -8.748
REMARK INTRA:                  -0.240
REMARK UNBOUND:                -0.321
REMARK SMILES O=c1c(O)c(-c2ccc(O)c(O)c2)oc2cc(O)cc(O)c12
REMARK SMILES IDX 5 1 3 2 2 3 1 4 22 5 20 6 19 7 17 8 16 9 15 10 14 11 6 12
REMARK SMILES IDX 7 13 8 14 9 15 13 16 11 17 10 18 12 20 4 22 21 24 18 26
REMARK H PARENT 10 19 12 21 4 23 21 25 18 27
REMARK Flexibility Score: inf
ROOT
ATOM      1  C   UNL     1     -37.142  -4.367 -15.947  1.00  0.00     0.180 A 
ATOM      2  C   UNL     1     -37.462  -3.412 -14.966  1.00  0.00     0.208 A 
ATOM      3  C   UNL     1     -38.289  -3.786 -13.896  1.00  0.00     0.238 A 
ATOM      4  O   UNL     1     -38.632  -2.907 -13.063  1.00  0.00    -0.285 OA
ATOM      5  C   UNL     1     -38.743  -5.123 -13.789  1.00  0.00     0.111 A 
ATOM      6  C   UNL     1     -39.549  -5.624 -12.722  1.00  0.00     0.134 A 
ATOM      7  C   UNL     1     -40.026  -6.940 -12.775  1.00  0.00     0.093 A 
ATOM      8  C   UNL     1     -39.673  -7.792 -13.825  1.00  0.00     0.123 A 
ATOM      9  C   UNL     1     -38.841  -7.329 -14.842  1.00  0.00     0.094 A 
ATOM     10  C   UNL     1     -38.381  -6.010 -14.836  1.00  0.00     0.146 A 
ATOM     11  O   UNL     1     -37.608  -5.605 -15.836  1.00  0.00    -0.452 OA
ENDROOT
BRANCH   1  12
ATOM     12  C   UNL     1     -36.287  -4.045 -17.112  1.00  0.00     0.025 A 
ATOM     13  C   UNL     1     -34.904  -3.838 -16.971  1.00  0.00     0.016 A 
ATOM     14  C   UNL     1     -34.122  -3.512 -18.081  1.00  0.00     0.051 A 
ATOM     15  C   UNL     1     -34.710  -3.374 -19.346  1.00  0.00     0.157 A 
ATOM     16  C   UNL     1     -36.875  -3.886 -18.377  1.00  0.00     0.062 A 
ATOM     17  C   UNL     1     -36.095  -3.559 -19.493  1.00  0.00     0.158 A 
BRANCH  15  18
ATOM     18  O   UNL     1     -33.926  -3.050 -20.452  1.00  0.00    -0.504 OA
ATOM     19  H   UNL     1     -32.929  -2.896 -20.369  1.00  0.00     0.293 HD
ENDBRANCH  15  18
BRANCH  17  20
ATOM     20  O   UNL     1     -36.713  -3.422 -20.735  1.00  0.00    -0.504 OA
ATOM     21  H   UNL     1     -36.323  -2.844 -21.469  1.00  0.00     0.293 HD
ENDBRANCH  17  20
ENDBRANCH   1  12
BRANCH   2  22
ATOM     22  O   UNL     1     -36.942  -2.117 -15.050  1.00  0.00    -0.502 OA
ATOM     23  H   UNL     1     -36.061  -1.913 -15.506  1.00  0.00     0.293 HD
ENDBRANCH   2  22
BRANCH   6  24
ATOM     24  O   UNL     1     -39.888  -4.887 -11.582  1.00  0.00    -0.507 OA
ATOM     25  H   UNL     1     -39.430  -4.964 -10.687  1.00  0.00     0.293 HD
ENDBRANCH   6  24
BRANCH   8  26
ATOM     26  O   UNL     1     -40.137  -9.105 -13.862  1.00  0.00    -0.508 OA
ATOM     27  H   UNL     1     -39.635  -9.831 -14.362  1.00  0.00     0.293 HD
ENDBRANCH   8  26
TORSDOF 6
ENDMDL
MODEL 7
REMARK VINA RESULT:    -7.092      2.490      4.276
REMARK INTER + INTRA:          -8.865
REMARK INTER:                  -8.644
REMARK INTRA:                  -0.221
REMARK UNBOUND:                -0.321
REMARK SMILES O=c1c(O)c(-c2ccc(O)c(O)c2)oc2cc(O)cc(O)c12
REMARK SMILES IDX 5 1 3 2 2 3 1 4 22 5 20 6 19 7 17 8 16 9 15 10 14 11 6 12
REMARK SMILES IDX 7 13 8 14 9 15 13 16 11 17 10 18 12 20 4 22 21 24 18 26
REMARK H PARENT 10 19 12 21 4 23 21 25 18 27
REMARK Flexibility Score: inf
ROOT
ATOM      1  C   UNL     1     -37.127  -4.639 -15.891  1.00  0.00     0.180 A 
ATOM      2  C   UNL     1     -37.700  -5.919 -15.790  1.00  0.00     0.208 A 
ATOM      3  C   UNL     1     -38.432  -6.249 -14.639  1.00  0.00     0.238 A 
ATOM      4  O   UNL     1     -38.878  -7.420 -14.523  1.00  0.00    -0.285 OA
ATOM      5  C   UNL     1     -38.630  -5.279 -13.627  1.00  0.00     0.111 A 
ATOM      6  C   UNL     1     -39.393  -5.489 -12.438  1.00  0.00     0.134 A 
ATOM      7  C   UNL     1     -39.433  -4.490 -11.457  1.00  0.00     0.093 A 
ATOM      8  C   UNL     1     -38.790  -3.265 -11.650  1.00  0.00     0.123 A 
ATOM      9  C   UNL     1     -38.089  -3.029 -12.831  1.00  0.00     0.094 A 
ATOM     10  C   UNL     1     -38.000  -4.020 -13.811  1.00  0.00     0.146 A 
ATOM     11  O   UNL     1     -37.304  -3.761 -14.911  1.00  0.00    -0.452 OA
ENDROOT
BRANCH   1  12
ATOM     12  C   UNL     1     -36.330  -4.222 -17.067  1.00  0.00     0.025 A 
ATOM     13  C   UNL     1     -34.943  -4.011 -16.973  1.00  0.00     0.016 A 
ATOM     14  C   UNL     1     -34.216  -3.593 -18.091  1.00  0.00     0.051 A 
ATOM     15  C   UNL     1     -34.863  -3.368 -19.313  1.00  0.00     0.157 A 
ATOM     16  C   UNL     1     -36.977  -3.975 -18.287  1.00  0.00     0.062 A 
ATOM     17  C   UNL     1     -36.252  -3.557 -19.410  1.00  0.00     0.158 A 
BRANCH  15  18
ATOM     18  O   UNL     1     -34.135  -2.954 -20.426  1.00  0.00    -0.504 OA
ATOM     19  H   UNL     1     -34.343  -2.084 -20.903  1.00  0.00     0.293 HD
ENDBRANCH  15  18
BRANCH  17  20
ATOM     20  O   UNL     1     -36.928  -3.334 -20.609  1.00  0.00    -0.504 OA
ATOM     21  H   UNL     1     -36.679  -2.578 -21.234  1.00  0.00     0.293 HD
ENDBRANCH  17  20
ENDBRANCH   1  12
BRANCH   2  22
ATOM     22  O   UNL     1     -37.556  -6.838 -16.834  1.00  0.00    -0.502 OA
ATOM     23  H   UNL     1     -36.997  -6.643 -17.656  1.00  0.00     0.293 HD
ENDBRANCH   2  22
BRANCH   6  24
ATOM     24  O   UNL     1     -40.146  -6.640 -12.183  1.00  0.00    -0.507 OA
ATOM     25  H   UNL     1     -41.079  -6.809 -12.529  1.00  0.00     0.293 HD
ENDBRANCH   6  24
BRANCH   8  26
ATOM     26  O   UNL     1     -38.848  -2.270 -10.676  1.00  0.00    -0.508 OA
ATOM     27  H   UNL     1     -38.994  -2.494  -9.698  1.00  0.00     0.293 HD
ENDBRANCH   8  26
TORSDOF 6
ENDMDL
MODEL 8
REMARK VINA RESULT:    -6.952      2.244      3.955
REMARK INTER + INTRA:          -8.696
REMARK INTER:                  -8.625
REMARK INTRA:                  -0.071
REMARK UNBOUND:                -0.321
REMARK SMILES O=c1c(O)c(-c2ccc(O)c(O)c2)oc2cc(O)cc(O)c12
REMARK SMILES IDX 5 1 3 2 2 3 1 4 22 5 20 6 19 7 17 8 16 9 15 10 14 11 6 12
REMARK SMILES IDX 7 13 8 14 9 15 13 16 11 17 10 18 12 20 4 22 21 24 18 26
REMARK H PARENT 10 19 12 21 4 23 21 25 18 27
REMARK Flexibility Score: inf
ROOT
ATOM      1  C   UNL     1     -35.618  -4.127 -16.584  1.00  0.00     0.180 A 
ATOM      2  C   UNL     1     -36.044  -5.298 -15.933  1.00  0.00     0.208 A 
ATOM      3  C   UNL     1     -36.718  -5.189 -14.706  1.00  0.00     0.238 A 
ATOM      4  O   UNL     1     -37.029  -6.243 -14.094  1.00  0.00    -0.285 OA
ATOM      5  C   UNL     1     -37.006  -3.910 -14.170  1.00  0.00     0.111 A 
ATOM      6  C   UNL     1     -37.722  -3.680 -12.957  1.00  0.00     0.134 A 
ATOM      7  C   UNL     1     -37.856  -2.374 -12.471  1.00  0.00     0.093 A 
ATOM      8  C   UNL     1     -37.355  -1.284 -13.187  1.00  0.00     0.123 A 
ATOM      9  C   UNL     1     -36.704  -1.493 -14.400  1.00  0.00     0.094 A 
ATOM     10  C   UNL     1     -36.521  -2.788 -14.892  1.00  0.00     0.146 A 
ATOM     11  O   UNL     1     -35.875  -2.943 -16.041  1.00  0.00    -0.452 OA
ENDROOT
BRANCH   1  12
ATOM     12  C   UNL     1     -34.891  -4.161 -17.872  1.00  0.00     0.025 A 
ATOM     13  C   UNL     1     -33.633  -3.551 -18.019  1.00  0.00     0.016 A 
ATOM     14  C   UNL     1     -32.976  -3.575 -19.252  1.00  0.00     0.051 A 
ATOM     15  C   UNL     1     -33.570  -4.196 -20.359  1.00  0.00     0.157 A 
ATOM     16  C   UNL     1     -35.491  -4.764 -18.989  1.00  0.00     0.062 A 
ATOM     17  C   UNL     1     -34.836  -4.791 -20.226  1.00  0.00     0.158 A 
BRANCH  15  18
ATOM     18  O   UNL     1     -32.912  -4.220 -21.586  1.00  0.00    -0.504 OA
ATOM     19  H   UNL     1     -32.911  -3.417 -22.204  1.00  0.00     0.293 HD
ENDBRANCH  15  18
BRANCH  17  20
ATOM     20  O   UNL     1     -35.459  -5.410 -21.309  1.00  0.00    -0.504 OA
ATOM     21  H   UNL     1     -36.455  -5.589 -21.326  1.00  0.00     0.293 HD
ENDBRANCH  17  20
ENDBRANCH   1  12
BRANCH   2  22
ATOM     22  O   UNL     1     -35.817  -6.548 -16.515  1.00  0.00    -0.502 OA
ATOM     23  H   UNL     1     -36.570  -7.131 -16.863  1.00  0.00     0.293 HD
ENDBRANCH   2  22
BRANCH   6  24
ATOM     24  O   UNL     1     -38.339  -4.687 -12.208  1.00  0.00    -0.507 OA
ATOM     25  H   UNL     1     -39.298  -4.981 -12.314  1.00  0.00     0.293 HD
ENDBRANCH   6  24
BRANCH   8  26
ATOM     26  O   UNL     1     -37.508   0.015 -12.705  1.00  0.00    -0.508 OA
ATOM     27  H   UNL     1     -37.404   0.230 -11.719  1.00  0.00     0.293 HD
ENDBRANCH   8  26
TORSDOF 6
ENDMDL
MODEL 9
REMARK VINA RESULT:    -6.913      2.022      3.678
REMARK INTER + INTRA:          -8.650
REMARK INTER:                  -8.420
REMARK INTRA:                  -0.230
REMARK UNBOUND:                -0.321
REMARK SMILES O=c1c(O)c(-c2ccc(O)c(O)c2)oc2cc(O)cc(O)c12
REMARK SMILES IDX 5 1 3 2 2 3 1 4 22 5 20 6 19 7 17 8 16 9 15 10 14 11 6 12
REMARK SMILES IDX 7 13 8 14 9 15 13 16 11 17 10 18 12 20 4 22 21 24 18 26
REMARK H PARENT 10 19 12 21 4 23 21 25 18 27
REMARK Flexibility Score: inf
ROOT
ATOM      1  C   UNL     1     -36.254  -4.905 -16.754  1.00  0.00     0.180 A 
ATOM      2  C   UNL     1     -36.368  -6.165 -16.142  1.00  0.00     0.208 A 
ATOM      3  C   UNL     1     -37.225  -6.313 -15.041  1.00  0.00     0.238 A 
ATOM      4  O   UNL     1     -37.265  -7.425 -14.452  1.00  0.00    -0.285 OA
ATOM      5  C   UNL     1     -37.999  -5.213 -14.596  1.00  0.00     0.111 A 
ATOM      6  C   UNL     1     -38.934  -5.260 -13.518  1.00  0.00     0.134 A 
ATOM      7  C   UNL     1     -39.566  -4.083 -13.099  1.00  0.00     0.093 A 
ATOM      8  C   UNL     1     -39.345  -2.873 -13.762  1.00  0.00     0.123 A 
ATOM      9  C   UNL     1     -38.478  -2.827 -14.850  1.00  0.00     0.094 A 
ATOM     10  C   UNL     1     -37.804  -3.978 -15.267  1.00  0.00     0.146 A 
ATOM     11  O   UNL     1     -36.970  -3.884 -16.295  1.00  0.00    -0.452 OA
ENDROOT
BRANCH   1  12
ATOM     12  C   UNL     1     -35.362  -4.667 -17.911  1.00  0.00     0.025 A 
ATOM     13  C   UNL     1     -34.193  -3.896 -17.788  1.00  0.00     0.016 A 
ATOM     14  C   UNL     1     -33.379  -3.665 -18.899  1.00  0.00     0.051 A 
ATOM     15  C   UNL     1     -33.726  -4.188 -20.152  1.00  0.00     0.157 A 
ATOM     16  C   UNL     1     -35.717  -5.172 -19.172  1.00  0.00     0.062 A 
ATOM     17  C   UNL     1     -34.903  -4.943 -20.288  1.00  0.00     0.158 A 
BRANCH  15  18
ATOM     18  O   UNL     1     -32.911  -3.958 -21.259  1.00  0.00    -0.504 OA
ATOM     19  H   UNL     1     -31.904  -4.052 -21.205  1.00  0.00     0.293 HD
ENDBRANCH  15  18
BRANCH  17  20
ATOM     20  O   UNL     1     -35.282  -5.472 -21.522  1.00  0.00    -0.504 OA
ATOM     21  H   UNL     1     -35.761  -6.360 -21.602  1.00  0.00     0.293 HD
ENDBRANCH  17  20
ENDBRANCH   1  12
BRANCH   2  22
ATOM     22  O   UNL     1     -35.653  -7.257 -16.643  1.00  0.00    -0.502 OA
ATOM     23  H   UNL     1     -36.048  -7.904 -17.315  1.00  0.00     0.293 HD
ENDBRANCH   2  22
BRANCH   6  24
ATOM     24  O   UNL     1     -39.295  -6.432 -12.844  1.00  0.00    -0.507 OA
ATOM     25  H   UNL     1     -39.355  -6.527 -11.842  1.00  0.00     0.293 HD
ENDBRANCH   6  24
BRANCH   8  26
ATOM     26  O   UNL     1     -39.991  -1.709 -13.350  1.00  0.00    -0.508 OA
ATOM     27  H   UNL     1     -39.592  -0.792 -13.521  1.00  0.00     0.293 HD
ENDBRANCH   8  26
TORSDOF 6
ENDMDL
