MODEL 1
REMARK VINA RESULT:     0.000      0.000      0.000
REMARK INTER + INTRA:          -0.065
REMARK INTER:                   0.000
REMARK INTRA:                  -0.065
REMARK UNBOUND:                -0.065
REMARK SMILES COc1cc2ccc(=O)oc2cc1O
REMARK SMILES IDX 3 1 13 2 12 3 11 4 5 5 4 6 6 7 7 8 8 9 9 10 10 11 2 12 1 13
REMARK SMILES IDX 14 14
REMARK H PARENT 14 15
REMARK Flexibility Score: inf
ROOT
ATOM      1  C   UNL     1     176.968 179.057 178.964  1.00  0.00     0.161 A 
ATOM      2  C   UNL     1     176.944 178.173 180.054  1.00  0.00     0.161 A 
ATOM      3  C   UNL     1     178.101 177.955 180.816  1.00  0.00     0.098 A 
ATOM      4  C   UNL     1     179.289 178.617 180.495  1.00  0.00     0.142 A 
ATOM      5  C   UNL     1     179.323 179.507 179.401  1.00  0.00     0.022 A 
ATOM      6  C   UNL     1     178.166 179.726 178.641  1.00  0.00     0.062 A 
ATOM      7  C   UNL     1     180.527 180.155 179.106  1.00  0.00     0.019 A 
ATOM      8  C   UNL     1     181.650 179.904 179.894  1.00  0.00     0.094 A 
ATOM      9  C   UNL     1     181.542 179.008 180.962  1.00  0.00     0.336 A 
ATOM     10  O   UNL     1     182.545 178.768 181.685  1.00  0.00    -0.246 OA
ATOM     11  O   UNL     1     180.384 178.406 181.221  1.00  0.00    -0.423 OA
ENDROOT
BRANCH   1  12
ATOM     12  O   UNL     1     175.786 179.245 178.231  1.00  0.00    -0.493 OA
ATOM     13  C   UNL     1     174.936 180.382 178.349  1.00  0.00     0.278 C 
ENDBRANCH   1  12
BRANCH   2  14
ATOM     14  O   UNL     1     175.759 177.510 180.375  1.00  0.00    -0.504 OA
ATOM     15  H   UNL     1     175.521 176.618 179.959  1.00  0.00     0.293 HD
ENDBRANCH   2  14
TORSDOF 2
ENDMDL
MODEL 2
REMARK VINA RESULT:     0.000      3.109      4.040
REMARK INTER + INTRA:          -0.065
REMARK INTER:                   0.000
REMARK INTRA:                  -0.065
REMARK UNBOUND:                -0.065
REMARK SMILES COc1cc2ccc(=O)oc2cc1O
REMARK SMILES IDX 3 1 13 2 12 3 11 4 5 5 4 6 6 7 7 8 8 9 9 10 10 11 2 12 1 13
REMARK SMILES IDX 14 14
REMARK H PARENT 14 15
REMARK Flexibility Score: inf
ROOT
ATOM      1  C   UNL     1     177.366 178.877 177.177  1.00  0.00     0.161 A 
ATOM      2  C   UNL     1     177.528 179.281 175.843  1.00  0.00     0.161 A 
ATOM      3  C   UNL     1     178.654 180.023 175.458  1.00  0.00     0.098 A 
ATOM      4  C   UNL     1     179.625 180.366 176.402  1.00  0.00     0.142 A 
ATOM      5  C   UNL     1     179.471 179.965 177.746  1.00  0.00     0.022 A 
ATOM      6  C   UNL     1     178.346 179.223 178.130  1.00  0.00     0.062 A 
ATOM      7  C   UNL     1     180.461 180.324 178.667  1.00  0.00     0.019 A 
ATOM      8  C   UNL     1     181.563 181.062 178.234  1.00  0.00     0.094 A 
ATOM      9  C   UNL     1     181.648 181.426 176.886  1.00  0.00     0.336 A 
ATOM     10  O   UNL     1     182.635 182.092 176.476  1.00  0.00    -0.246 OA
ATOM     11  O   UNL     1     180.692 181.071 176.031  1.00  0.00    -0.423 OA
ENDROOT
BRANCH   1  12
ATOM     12  O   UNL     1     176.223 178.136 177.516  1.00  0.00    -0.493 OA
ATOM     13  C   UNL     1     176.210 176.728 177.730  1.00  0.00     0.278 C 
ENDBRANCH   1  12
BRANCH   2  14
ATOM     14  O   UNL     1     176.559 178.940 174.899  1.00  0.00    -0.504 OA
ATOM     15  H   UNL     1     175.658 178.566 175.175  1.00  0.00     0.293 HD
ENDBRANCH   2  14
TORSDOF 2
ENDMDL
MODEL 3
REMARK VINA RESULT:     0.000      8.013      9.288
REMARK INTER + INTRA:          -0.065
REMARK INTER:                   0.000
REMARK INTRA:                  -0.065
REMARK UNBOUND:                -0.065
REMARK SMILES COc1cc2ccc(=O)oc2cc1O
REMARK SMILES IDX 3 1 13 2 12 3 11 4 5 5 4 6 6 7 7 8 8 9 9 10 10 11 2 12 1 13
REMARK SMILES IDX 14 14
REMARK H PARENT 14 15
REMARK Flexibility Score: inf
ROOT
ATOM      1  C   UNL     1     179.613 184.493 176.244  1.00  0.00     0.161 A 
ATOM      2  C   UNL     1     180.322 184.110 175.095  1.00  0.00     0.161 A 
ATOM      3  C   UNL     1     180.925 185.079 174.279  1.00  0.00     0.098 A 
ATOM      4  C   UNL     1     180.825 186.434 174.605  1.00  0.00     0.142 A 
ATOM      5  C   UNL     1     180.114 186.827 175.758  1.00  0.00     0.022 A 
ATOM      6  C   UNL     1     179.512 185.860 176.574  1.00  0.00     0.062 A 
ATOM      7  C   UNL     1     180.032 188.191 176.058  1.00  0.00     0.019 A 
ATOM      8  C   UNL     1     180.650 189.115 175.215  1.00  0.00     0.094 A 
ATOM      9  C   UNL     1     181.337 188.651 174.088  1.00  0.00     0.336 A 
ATOM     10  O   UNL     1     181.901 189.470 173.315  1.00  0.00    -0.246 OA
ATOM     11  O   UNL     1     181.400 187.349 173.827  1.00  0.00    -0.423 OA
ENDROOT
BRANCH   1  12
ATOM     12  O   UNL     1     179.026 183.489 177.031  1.00  0.00    -0.493 OA
ATOM     13  C   UNL     1     179.560 183.015 178.263  1.00  0.00     0.278 C 
ENDBRANCH   1  12
BRANCH   2  14
ATOM     14  O   UNL     1     180.422 182.758 174.767  1.00  0.00    -0.504 OA
ATOM     15  H   UNL     1     180.233 182.032 175.448  1.00  0.00     0.293 HD
ENDBRANCH   2  14
TORSDOF 2
ENDMDL
MODEL 4
REMARK VINA RESULT:     0.000      3.956      4.320
REMARK INTER + INTRA:          -0.065
REMARK INTER:                   0.000
REMARK INTRA:                  -0.065
REMARK UNBOUND:                -0.065
REMARK SMILES COc1cc2ccc(=O)oc2cc1O
REMARK SMILES IDX 3 1 13 2 12 3 11 4 5 5 4 6 6 7 7 8 8 9 9 10 10 11 2 12 1 13
REMARK SMILES IDX 14 14
REMARK H PARENT 14 15
REMARK Flexibility Score: inf
ROOT
ATOM      1  C   UNL     1     176.373 181.386 180.791  1.00  0.00     0.161 A 
ATOM      2  C   UNL     1     177.176 180.646 179.909  1.00  0.00     0.161 A 
ATOM      3  C   UNL     1     178.389 181.172 179.443  1.00  0.00     0.098 A 
ATOM      4  C   UNL     1     178.810 182.439 179.855  1.00  0.00     0.142 A 
ATOM      5  C   UNL     1     178.010 183.191 180.741  1.00  0.00     0.022 A 
ATOM      6  C   UNL     1     176.797 182.664 181.207  1.00  0.00     0.062 A 
ATOM      7  C   UNL     1     178.458 184.455 181.135  1.00  0.00     0.019 A 
ATOM      8  C   UNL     1     179.674 184.934 180.644  1.00  0.00     0.094 A 
ATOM      9  C   UNL     1     180.413 184.134 179.767  1.00  0.00     0.336 A 
ATOM     10  O   UNL     1     181.512 184.548 179.313  1.00  0.00    -0.246 OA
ATOM     11  O   UNL     1     179.963 182.934 179.409  1.00  0.00    -0.423 OA
ENDROOT
BRANCH   1  12
ATOM     12  O   UNL     1     175.167 180.819 181.231  1.00  0.00    -0.493 OA
ATOM     13  C   UNL     1     174.972 180.234 182.515  1.00  0.00     0.278 C 
ENDBRANCH   1  12
BRANCH   2  14
ATOM     14  O   UNL     1     176.757 179.381 179.496  1.00  0.00    -0.504 OA
ATOM     15  H   UNL     1     175.984 178.905 179.946  1.00  0.00     0.293 HD
ENDBRANCH   2  14
TORSDOF 2
ENDMDL
MODEL 5
REMARK VINA RESULT:     0.000      6.167      7.573
REMARK INTER + INTRA:          -0.065
REMARK INTER:                   0.000
REMARK INTRA:                  -0.065
REMARK UNBOUND:                -0.065
REMARK SMILES COc1cc2ccc(=O)oc2cc1O
REMARK SMILES IDX 3 1 13 2 12 3 11 4 5 5 4 6 6 7 7 8 8 9 9 10 10 11 2 12 1 13
REMARK SMILES IDX 14 14
REMARK H PARENT 14 15
REMARK Flexibility Score: inf
ROOT
ATOM      1  C   UNL     1     180.419 183.474 186.195  1.00  0.00     0.161 A 
ATOM      2  C   UNL     1     179.750 183.066 185.031  1.00  0.00     0.161 A 
ATOM      3  C   UNL     1     180.476 182.651 183.905  1.00  0.00     0.098 A 
ATOM      4  C   UNL     1     181.872 182.641 183.933  1.00  0.00     0.142 A 
ATOM      5  C   UNL     1     182.554 183.050 185.098  1.00  0.00     0.022 A 
ATOM      6  C   UNL     1     181.829 183.464 186.224  1.00  0.00     0.062 A 
ATOM      7  C   UNL     1     183.952 183.029 185.095  1.00  0.00     0.019 A 
ATOM      8  C   UNL     1     184.628 182.607 183.950  1.00  0.00     0.094 A 
ATOM      9  C   UNL     1     183.885 182.217 182.831  1.00  0.00     0.336 A 
ATOM     10  O   UNL     1     184.477 181.833 181.787  1.00  0.00    -0.246 OA
ATOM     11  O   UNL     1     182.556 182.246 182.861  1.00  0.00    -0.423 OA
ENDROOT
BRANCH   1  12
ATOM     12  O   UNL     1     179.652 183.881 187.298  1.00  0.00    -0.493 OA
ATOM     13  C   UNL     1     179.412 183.081 188.453  1.00  0.00     0.278 C 
ENDBRANCH   1  12
BRANCH   2  14
ATOM     14  O   UNL     1     178.356 183.076 185.001  1.00  0.00    -0.504 OA
ATOM     15  H   UNL     1     177.842 183.715 184.405  1.00  0.00     0.293 HD
ENDBRANCH   2  14
TORSDOF 2
ENDMDL
MODEL 6
REMARK VINA RESULT:     0.000      7.113      9.075
REMARK INTER + INTRA:          -0.065
REMARK INTER:                   0.000
REMARK INTRA:                  -0.065
REMARK UNBOUND:                -0.065
REMARK SMILES COc1cc2ccc(=O)oc2cc1O
REMARK SMILES IDX 3 1 13 2 12 3 11 4 5 5 4 6 6 7 7 8 8 9 9 10 10 11 2 12 1 13
REMARK SMILES IDX 14 14
REMARK H PARENT 14 15
REMARK Flexibility Score: inf
ROOT
ATOM      1  C   UNL     1     184.917 183.054 173.932  1.00  0.00     0.161 A 
ATOM      2  C   UNL     1     184.402 183.094 175.237  1.00  0.00     0.161 A 
ATOM      3  C   UNL     1     183.884 181.933 175.830  1.00  0.00     0.098 A 
ATOM      4  C   UNL     1     183.878 180.726 175.126  1.00  0.00     0.142 A 
ATOM      5  C   UNL     1     184.394 180.677 173.814  1.00  0.00     0.022 A 
ATOM      6  C   UNL     1     184.912 181.837 173.221  1.00  0.00     0.062 A 
ATOM      7  C   UNL     1     184.374 179.454 173.135  1.00  0.00     0.019 A 
ATOM      8  C   UNL     1     183.849 178.328 173.769  1.00  0.00     0.094 A 
ATOM      9  C   UNL     1     183.354 178.453 175.071  1.00  0.00     0.336 A 
ATOM     10  O   UNL     1     182.876 177.447 175.660  1.00  0.00    -0.246 OA
ATOM     11  O   UNL     1     183.385 179.628 175.694  1.00  0.00    -0.423 OA
ENDROOT
BRANCH   1  12
ATOM     12  O   UNL     1     185.425 184.240 173.379  1.00  0.00    -0.493 OA
ATOM     13  C   UNL     1     186.811 184.546 173.261  1.00  0.00     0.278 C 
ENDBRANCH   1  12
BRANCH   2  14
ATOM     14  O   UNL     1     184.406 184.297 175.941  1.00  0.00    -0.504 OA
ATOM     15  H   UNL     1     184.049 185.153 175.532  1.00  0.00     0.293 HD
ENDBRANCH   2  14
TORSDOF 2
ENDMDL
MODEL 7
REMARK VINA RESULT:     0.000      5.703      7.338
REMARK INTER + INTRA:          -0.065
REMARK INTER:                   0.000
REMARK INTRA:                  -0.065
REMARK UNBOUND:                -0.065
REMARK SMILES COc1cc2ccc(=O)oc2cc1O
REMARK SMILES IDX 3 1 13 2 12 3 11 4 5 5 4 6 6 7 7 8 8 9 9 10 10 11 2 12 1 13
REMARK SMILES IDX 14 14
REMARK H PARENT 14 15
REMARK Flexibility Score: inf
ROOT
ATOM      1  C   UNL     1     178.078 184.846 182.125  1.00  0.00     0.161 A 
ATOM      2  C   UNL     1     179.101 184.061 181.571  1.00  0.00     0.161 A 
ATOM      3  C   UNL     1     179.123 183.793 180.195  1.00  0.00     0.098 A 
ATOM      4  C   UNL     1     178.125 184.306 179.363  1.00  0.00     0.142 A 
ATOM      5  C   UNL     1     177.091 185.095 179.911  1.00  0.00     0.022 A 
ATOM      6  C   UNL     1     177.070 185.364 181.286  1.00  0.00     0.062 A 
ATOM      7  C   UNL     1     176.107 185.594 179.052  1.00  0.00     0.019 A 
ATOM      8  C   UNL     1     176.173 185.300 177.690  1.00  0.00     0.094 A 
ATOM      9  C   UNL     1     177.226 184.510 177.219  1.00  0.00     0.336 A 
ATOM     10  O   UNL     1     177.303 184.233 175.992  1.00  0.00    -0.246 OA
ATOM     11  O   UNL     1     178.150 184.048 178.057  1.00  0.00    -0.423 OA
ENDROOT
BRANCH   1  12
ATOM     12  O   UNL     1     178.097 185.088 183.508  1.00  0.00    -0.493 OA
ATOM     13  C   UNL     1     178.521 186.310 184.106  1.00  0.00     0.278 C 
ENDBRANCH   1  12
BRANCH   2  14
ATOM     14  O   UNL     1     180.099 183.548 182.400  1.00  0.00    -0.504 OA
ATOM     15  H   UNL     1     179.900 183.250 183.348  1.00  0.00     0.293 HD
ENDBRANCH   2  14
TORSDOF 2
ENDMDL
MODEL 8
REMARK VINA RESULT:     0.000      5.133      6.292
REMARK INTER + INTRA:          -0.065
REMARK INTER:                   0.000
REMARK INTRA:                  -0.065
REMARK UNBOUND:                -0.065
REMARK SMILES COc1cc2ccc(=O)oc2cc1O
REMARK SMILES IDX 3 1 13 2 12 3 11 4 5 5 4 6 6 7 7 8 8 9 9 10 10 11 2 12 1 13
REMARK SMILES IDX 14 14
REMARK H PARENT 14 15
REMARK Flexibility Score: inf
ROOT
ATOM      1  C   UNL     1     178.799 183.880 183.721  1.00  0.00     0.161 A 
ATOM      2  C   UNL     1     180.008 183.177 183.596  1.00  0.00     0.161 A 
ATOM      3  C   UNL     1     180.353 182.572 182.379  1.00  0.00     0.098 A 
ATOM      4  C   UNL     1     179.497 182.664 181.280  1.00  0.00     0.142 A 
ATOM      5  C   UNL     1     178.280 183.369 181.396  1.00  0.00     0.022 A 
ATOM      6  C   UNL     1     177.935 183.975 182.612  1.00  0.00     0.062 A 
ATOM      7  C   UNL     1     177.444 183.444 180.277  1.00  0.00     0.019 A 
ATOM      8  C   UNL     1     177.833 182.825 179.089  1.00  0.00     0.094 A 
ATOM      9  C   UNL     1     179.053 182.143 179.049  1.00  0.00     0.336 A 
ATOM     10  O   UNL     1     179.422 181.578 177.985  1.00  0.00    -0.246 OA
ATOM     11  O   UNL     1     179.830 182.087 180.127  1.00  0.00    -0.423 OA
ENDROOT
BRANCH   1  12
ATOM     12  O   UNL     1     178.495 184.471 184.958  1.00  0.00    -0.493 OA
ATOM     13  C   UNL     1     178.625 185.861 185.242  1.00  0.00     0.278 C 
ENDBRANCH   1  12
BRANCH   2  14
ATOM     14  O   UNL     1     180.864 183.083 184.693  1.00  0.00    -0.504 OA
ATOM     15  H   UNL     1     181.368 182.228 184.901  1.00  0.00     0.293 HD
ENDBRANCH   2  14
TORSDOF 2
ENDMDL
MODEL 9
REMARK VINA RESULT:     0.000      3.064      4.473
REMARK INTER + INTRA:          -0.065
REMARK INTER:                   0.000
REMARK INTRA:                  -0.065
REMARK UNBOUND:                -0.065
REMARK SMILES COc1cc2ccc(=O)oc2cc1O
REMARK SMILES IDX 3 1 13 2 12 3 11 4 5 5 4 6 6 7 7 8 8 9 9 10 10 11 2 12 1 13
REMARK SMILES IDX 14 14
REMARK H PARENT 14 15
REMARK Flexibility Score: inf
ROOT
ATOM      1  C   UNL     1     179.574 174.871 180.688  1.00  0.00     0.161 A 
ATOM      2  C   UNL     1     179.160 175.267 181.970  1.00  0.00     0.161 A 
ATOM      3  C   UNL     1     178.870 176.613 182.236  1.00  0.00     0.098 A 
ATOM      4  C   UNL     1     178.991 177.572 181.228  1.00  0.00     0.142 A 
ATOM      5  C   UNL     1     179.406 177.183 179.937  1.00  0.00     0.022 A 
ATOM      6  C   UNL     1     179.696 175.838 179.670  1.00  0.00     0.062 A 
ATOM      7  C   UNL     1     179.517 178.166 178.948  1.00  0.00     0.019 A 
ATOM      8  C   UNL     1     179.217 179.492 179.264  1.00  0.00     0.094 A 
ATOM      9  C   UNL     1     178.812 179.803 180.566  1.00  0.00     0.336 A 
ATOM     10  O   UNL     1     178.536 180.993 180.870  1.00  0.00    -0.246 OA
ATOM     11  O   UNL     1     178.714 178.848 181.487  1.00  0.00    -0.423 OA
ENDROOT
BRANCH   1  12
ATOM     12  O   UNL     1     179.853 173.513 180.467  1.00  0.00    -0.493 OA
ATOM     13  C   UNL     1     178.980 172.610 179.796  1.00  0.00     0.278 C 
ENDBRANCH   1  12
BRANCH   2  14
ATOM     14  O   UNL     1     179.040 174.312 182.979  1.00  0.00    -0.504 OA
ATOM     15  H   UNL     1     179.852 173.943 183.459  1.00  0.00     0.293 HD
ENDBRANCH   2  14
TORSDOF 2
ENDMDL
