MODEL 1
REMARK VINA RESULT:     0.725      0.000      0.000
REMARK INTER + INTRA:           1.035
REMARK INTER:                   0.789
REMARK INTRA:                   0.247
REMARK UNBOUND:                 0.247
REMARK SMILES CC1(C)CC[C@@]2(C(=O)[O-])CC[C@@]3(C)C(=CC[C@H]4[C@@]5(C)CC[C@H](O)C(C)(C)[C@@H]5CC[C@]43C)[C@H]2C1
REMARK SMILES IDX 6 1 5 2 10 3 32 4 4 5 11 6 14 7 33 8 2 9 12 10 15 11 1 12
REMARK SMILES IDX 3 13 13 14 30 15 16 16 17 17 29 18 31 19 18 20 28 21 27 22
REMARK SMILES IDX 20 23 19 24 24 25 21 26 22 27 25 28 26 29 7 30 8 31 9 32
REMARK SMILES IDX 23 33
REMARK H PARENT 23 34
REMARK Flexibility Score: inf
ROOT
ATOM      1  C   UNL     1       9.769  35.859  26.369  1.00  0.00     0.017 C 
ATOM      2  C   UNL     1       9.726  35.044  27.726  1.00  0.00     0.014 C 
ATOM      3  C   UNL     1       8.875  37.122  26.549  1.00  0.00     0.014 C 
ATOM      4  C   UNL     1      11.241  36.305  26.079  1.00  0.00     0.028 C 
ATOM      5  C   UNL     1      11.029  34.279  28.019  1.00  0.00     0.007 C 
ATOM      6  C   UNL     1       8.991  38.172  25.416  1.00  0.00     0.013 C 
ATOM      7  C   UNL     1      11.342  37.422  25.018  1.00  0.00    -0.064 C 
ATOM      8  C   UNL     1      12.046  36.566  27.379  1.00  0.00     0.015 C 
ATOM      9  C   UNL     1      12.234  35.266  28.233  1.00  0.00    -0.035 C 
ATOM     10  C   UNL     1      10.441  38.680  25.060  1.00  0.00    -0.006 C 
ATOM     11  C   UNL     1      12.228  37.214  24.035  1.00  0.00    -0.027 C 
ATOM     12  C   UNL     1      13.554  34.574  27.825  1.00  0.00     0.011 C 
ATOM     13  C   UNL     1      12.330  35.649  29.732  1.00  0.00     0.011 C 
ATOM     14  C   UNL     1      10.962  39.523  26.279  1.00  0.00     0.017 C 
ATOM     15  C   UNL     1      10.468  39.594  23.665  1.00  0.00    -0.020 C 
ATOM     16  C   UNL     1      12.147  37.872  22.711  1.00  0.00     0.032 C 
ATOM     17  C   UNL     1      11.786  39.361  22.772  1.00  0.00     0.006 C 
ATOM     18  C   UNL     1       9.224  39.299  22.756  1.00  0.00     0.008 C 
ATOM     19  C   UNL     1      10.358  41.110  24.039  1.00  0.00     0.012 C 
ATOM     20  C   UNL     1      11.782  40.017  21.280  1.00  0.00    -0.025 C 
ATOM     21  C   UNL     1       9.192  40.062  21.426  1.00  0.00     0.005 C 
ATOM     22  C   UNL     1      10.410  39.718  20.545  1.00  0.00     0.003 C 
ATOM     23  C   UNL     1      12.904  39.395  20.348  1.00  0.00     0.010 C 
ATOM     24  C   UNL     1      12.100  41.545  21.419  1.00  0.00     0.012 C 
ATOM     25  C   UNL     1      10.288  40.210  19.035  1.00  0.00    -0.006 C 
ATOM     26  C   UNL     1      12.862  39.879  18.885  1.00  0.00     0.033 C 
ATOM     27  C   UNL     1      11.487  39.604  18.227  1.00  0.00     0.120 C 
ATOM     28  C   UNL     1      10.247  41.758  18.886  1.00  0.00     0.014 C 
ATOM     29  C   UNL     1       8.970  39.661  18.391  1.00  0.00     0.014 C 
ENDROOT
BRANCH   1  30
ATOM     30  C   UNL     1       9.271  34.988  25.205  1.00  0.00     0.048 C 
ATOM     31  O   UNL     1       8.884  35.519  24.129  1.00  0.00    -0.550 OA
ATOM     32  O   UNL     1       9.269  33.597  25.283  1.00  0.00    -0.550 OA
ENDBRANCH   1  30
BRANCH  27  33
ATOM     33  O   UNL     1      11.489  40.014  16.875  1.00  0.00    -0.393 OA
ATOM     34  H   UNL     1      12.425  40.209  16.603  1.00  0.00     0.210 HD
ENDBRANCH  27  33
TORSDOF 2
ENDMDL
MODEL 2
REMARK VINA RESULT:     1.981      1.731      8.117
REMARK INTER + INTRA:           2.402
REMARK INTER:                   2.244
REMARK INTRA:                   0.158
REMARK UNBOUND:                 0.247
REMARK SMILES CC1(C)CC[C@@]2(C(=O)[O-])CC[C@@]3(C)C(=CC[C@H]4[C@@]5(C)CC[C@H](O)C(C)(C)[C@@H]5CC[C@]43C)[C@H]2C1
REMARK SMILES IDX 6 1 5 2 10 3 32 4 4 5 11 6 14 7 33 8 2 9 12 10 15 11 1 12
REMARK SMILES IDX 3 13 13 14 30 15 16 16 17 17 29 18 31 19 18 20 28 21 27 22
REMARK SMILES IDX 20 23 19 24 24 25 21 26 22 27 25 28 26 29 7 30 8 31 9 32
REMARK SMILES IDX 23 33
REMARK H PARENT 23 34
REMARK Flexibility Score: inf
ROOT
ATOM      1  C   UNL     1      12.448  39.860  21.197  1.00  0.00     0.017 C 
ATOM      2  C   UNL     1      12.596  40.914  20.025  1.00  0.00     0.014 C 
ATOM      3  C   UNL     1      13.150  40.453  22.456  1.00  0.00     0.014 C 
ATOM      4  C   UNL     1      10.930  39.641  21.508  1.00  0.00     0.028 C 
ATOM      5  C   UNL     1      11.414  40.899  19.039  1.00  0.00     0.007 C 
ATOM      6  C   UNL     1      12.894  39.678  23.773  1.00  0.00     0.013 C 
ATOM      7  C   UNL     1      10.679  38.955  22.868  1.00  0.00    -0.064 C 
ATOM      8  C   UNL     1      10.085  40.915  21.254  1.00  0.00     0.015 C 
ATOM      9  C   UNL     1      10.078  41.334  19.745  1.00  0.00    -0.035 C 
ATOM     10  C   UNL     1      11.389  39.414  24.164  1.00  0.00    -0.006 C 
ATOM     11  C   UNL     1       9.841  37.910  22.848  1.00  0.00    -0.027 C 
ATOM     12  C   UNL     1       8.875  40.672  19.036  1.00  0.00     0.011 C 
ATOM     13  C   UNL     1       9.916  42.873  19.642  1.00  0.00     0.011 C 
ATOM     14  C   UNL     1      10.743  40.800  24.523  1.00  0.00     0.017 C 
ATOM     15  C   UNL     1      11.243  38.355  25.444  1.00  0.00    -0.020 C 
ATOM     16  C   UNL     1       9.838  36.847  23.879  1.00  0.00     0.032 C 
ATOM     17  C   UNL     1       9.980  37.366  25.316  1.00  0.00     0.006 C 
ATOM     18  C   UNL     1      12.525  37.464  25.606  1.00  0.00     0.008 C 
ATOM     19  C   UNL     1      11.131  39.167  26.776  1.00  0.00     0.012 C 
ATOM     20  C   UNL     1       9.903  36.138  26.385  1.00  0.00    -0.025 C 
ATOM     21  C   UNL     1      12.459  36.424  26.731  1.00  0.00     0.005 C 
ATOM     22  C   UNL     1      11.311  35.419  26.508  1.00  0.00     0.003 C 
ATOM     23  C   UNL     1       8.891  35.007  25.927  1.00  0.00     0.010 C 
ATOM     24  C   UNL     1       9.368  36.708  27.742  1.00  0.00     0.012 C 
ATOM     25  C   UNL     1      11.373  34.132  27.444  1.00  0.00    -0.006 C 
ATOM     26  C   UNL     1       8.875  33.758  26.830  1.00  0.00     0.033 C 
ATOM     27  C   UNL     1      10.281  33.119  26.953  1.00  0.00     0.120 C 
ATOM     28  C   UNL     1      11.193  34.451  28.956  1.00  0.00     0.014 C 
ATOM     29  C   UNL     1      12.762  33.423  27.296  1.00  0.00     0.014 C 
ENDROOT
BRANCH   1  30
ATOM     30  C   UNL     1      13.077  38.517  20.792  1.00  0.00     0.048 C 
ATOM     31  O   UNL     1      13.936  38.465  19.870  1.00  0.00    -0.550 OA
ATOM     32  O   UNL     1      12.754  37.332  21.450  1.00  0.00    -0.550 OA
ENDBRANCH   1  30
BRANCH  27  33
ATOM     33  O   UNL     1      10.232  31.952  27.748  1.00  0.00    -0.393 OA
ATOM     34  H   UNL     1       9.745  31.246  27.247  1.00  0.00     0.210 HD
ENDBRANCH  27  33
TORSDOF 2
ENDMDL
MODEL 3
REMARK VINA RESULT:     2.074      1.647      8.159
REMARK INTER + INTRA:           2.503
REMARK INTER:                   2.352
REMARK INTRA:                   0.150
REMARK UNBOUND:                 0.247
REMARK SMILES CC1(C)CC[C@@]2(C(=O)[O-])CC[C@@]3(C)C(=CC[C@H]4[C@@]5(C)CC[C@H](O)C(C)(C)[C@@H]5CC[C@]43C)[C@H]2C1
REMARK SMILES IDX 6 1 5 2 10 3 32 4 4 5 11 6 14 7 33 8 2 9 12 10 15 11 1 12
REMARK SMILES IDX 3 13 13 14 30 15 16 16 17 17 29 18 31 19 18 20 28 21 27 22
REMARK SMILES IDX 20 23 19 24 24 25 21 26 22 27 25 28 26 29 7 30 8 31 9 32
REMARK SMILES IDX 23 33
REMARK H PARENT 23 34
REMARK Flexibility Score: inf
ROOT
ATOM      1  C   UNL     1      12.526  39.885  20.331  1.00  0.00     0.017 C 
ATOM      2  C   UNL     1      12.645  40.716  18.989  1.00  0.00     0.014 C 
ATOM      3  C   UNL     1      13.004  40.801  21.498  1.00  0.00     0.014 C 
ATOM      4  C   UNL     1      11.030  39.490  20.565  1.00  0.00     0.028 C 
ATOM      5  C   UNL     1      11.586  40.335  17.940  1.00  0.00     0.007 C 
ATOM      6  C   UNL     1      12.725  40.249  22.919  1.00  0.00     0.013 C 
ATOM      7  C   UNL     1      10.738  39.034  22.011  1.00  0.00    -0.064 C 
ATOM      8  C   UNL     1      10.045  40.548  20.003  1.00  0.00     0.015 C 
ATOM      9  C   UNL     1      10.136  40.677  18.445  1.00  0.00    -0.035 C 
ATOM     10  C   UNL     1      11.239  39.829  23.241  1.00  0.00    -0.006 C 
ATOM     11  C   UNL     1      10.061  37.885  22.135  1.00  0.00    -0.027 C 
ATOM     12  C   UNL     1       9.117  39.715  17.793  1.00  0.00     0.011 C 
ATOM     13  C   UNL     1       9.771  42.125  18.030  1.00  0.00     0.011 C 
ATOM     14  C   UNL     1      10.371  41.138  23.271  1.00  0.00     0.017 C 
ATOM     15  C   UNL     1      11.112  39.012  24.689  1.00  0.00    -0.020 C 
ATOM     16  C   UNL     1      10.100  37.041  23.351  1.00  0.00     0.032 C 
ATOM     17  C   UNL     1      10.019  37.831  24.664  1.00  0.00     0.006 C 
ATOM     18  C   UNL     1      12.481  38.379  25.119  1.00  0.00     0.008 C 
ATOM     19  C   UNL     1      10.750  40.027  25.824  1.00  0.00     0.012 C 
ATOM     20  C   UNL     1      10.005  36.823  25.945  1.00  0.00    -0.025 C 
ATOM     21  C   UNL     1      12.446  37.565  26.418  1.00  0.00     0.005 C 
ATOM     22  C   UNL     1      11.479  36.369  26.312  1.00  0.00     0.003 C 
ATOM     23  C   UNL     1       9.214  35.483  25.644  1.00  0.00     0.010 C 
ATOM     24  C   UNL     1       9.258  37.540  27.120  1.00  0.00     0.012 C 
ATOM     25  C   UNL     1      11.624  35.301  27.485  1.00  0.00    -0.006 C 
ATOM     26  C   UNL     1       9.279  34.433  26.771  1.00  0.00     0.033 C 
ATOM     27  C   UNL     1      10.741  34.057  27.123  1.00  0.00     0.120 C 
ATOM     28  C   UNL     1      11.245  35.860  28.886  1.00  0.00     0.014 C 
ATOM     29  C   UNL     1      13.106  34.804  27.584  1.00  0.00     0.014 C 
ENDROOT
BRANCH   1  30
ATOM     30  C   UNL     1      13.375  38.606  20.246  1.00  0.00     0.048 C 
ATOM     31  O   UNL     1      14.400  38.565  19.512  1.00  0.00    -0.550 OA
ATOM     32  O   UNL     1      13.069  37.475  21.000  1.00  0.00    -0.550 OA
ENDBRANCH   1  30
BRANCH  27  33
ATOM     33  O   UNL     1      10.773  33.062  28.126  1.00  0.00    -0.393 OA
ATOM     34  H   UNL     1      10.013  32.439  27.981  1.00  0.00     0.210 HD
ENDBRANCH  27  33
TORSDOF 2
ENDMDL
MODEL 4
REMARK VINA RESULT:     2.722      2.119      3.459
REMARK INTER + INTRA:           3.207
REMARK INTER:                   3.043
REMARK INTRA:                   0.164
REMARK UNBOUND:                 0.247
REMARK SMILES CC1(C)CC[C@@]2(C(=O)[O-])CC[C@@]3(C)C(=CC[C@H]4[C@@]5(C)CC[C@H](O)C(C)(C)[C@@H]5CC[C@]43C)[C@H]2C1
REMARK SMILES IDX 6 1 5 2 10 3 32 4 4 5 11 6 14 7 33 8 2 9 12 10 15 11 1 12
REMARK SMILES IDX 3 13 13 14 30 15 16 16 17 17 29 18 31 19 18 20 28 21 27 22
REMARK SMILES IDX 20 23 19 24 24 25 21 26 22 27 25 28 26 29 7 30 8 31 9 32
REMARK SMILES IDX 23 33
REMARK H PARENT 23 34
REMARK Flexibility Score: inf
ROOT
ATOM      1  C   UNL     1      11.327  37.714  26.724  1.00  0.00     0.017 C 
ATOM      2  C   UNL     1      11.408  36.812  28.022  1.00  0.00     0.014 C 
ATOM      3  C   UNL     1      12.786  38.058  26.298  1.00  0.00     0.014 C 
ATOM      4  C   UNL     1      10.629  36.910  25.577  1.00  0.00     0.028 C 
ATOM      5  C   UNL     1      10.253  35.800  28.134  1.00  0.00     0.007 C 
ATOM      6  C   UNL     1      12.920  38.725  24.905  1.00  0.00     0.013 C 
ATOM      7  C   UNL     1      10.849  37.528  24.179  1.00  0.00    -0.064 C 
ATOM      8  C   UNL     1      10.908  35.388  25.669  1.00  0.00     0.015 C 
ATOM      9  C   UNL     1      10.302  34.749  26.965  1.00  0.00    -0.035 C 
ATOM     10  C   UNL     1      12.247  37.979  23.690  1.00  0.00    -0.006 C 
ATOM     11  C   UNL     1       9.748  37.688  23.432  1.00  0.00    -0.027 C 
ATOM     12  C   UNL     1       8.875  34.239  26.663  1.00  0.00     0.011 C 
ATOM     13  C   UNL     1      11.170  33.539  27.392  1.00  0.00     0.011 C 
ATOM     14  C   UNL     1      13.050  36.652  23.444  1.00  0.00     0.017 C 
ATOM     15  C   UNL     1      12.226  38.911  22.307  1.00  0.00    -0.020 C 
ATOM     16  C   UNL     1       9.650  38.663  22.322  1.00  0.00     0.032 C 
ATOM     17  C   UNL     1      10.893  38.720  21.426  1.00  0.00     0.006 C 
ATOM     18  C   UNL     1      12.357  40.440  22.637  1.00  0.00     0.008 C 
ATOM     19  C   UNL     1      13.478  38.567  21.434  1.00  0.00     0.012 C 
ATOM     20  C   UNL     1      10.673  39.769  20.198  1.00  0.00    -0.025 C 
ATOM     21  C   UNL     1      12.297  41.377  21.426  1.00  0.00     0.005 C 
ATOM     22  C   UNL     1      10.955  41.253  20.678  1.00  0.00     0.003 C 
ATOM     23  C   UNL     1       9.178  39.772  19.673  1.00  0.00     0.010 C 
ATOM     24  C   UNL     1      11.576  39.313  19.001  1.00  0.00     0.012 C 
ATOM     25  C   UNL     1      10.686  42.409  19.614  1.00  0.00    -0.006 C 
ATOM     26  C   UNL     1       8.877  40.840  18.603  1.00  0.00     0.033 C 
ATOM     27  C   UNL     1       9.210  42.268  19.105  1.00  0.00     0.120 C 
ATOM     28  C   UNL     1      11.686  42.404  18.423  1.00  0.00     0.014 C 
ATOM     29  C   UNL     1      10.808  43.812  20.299  1.00  0.00     0.014 C 
ENDROOT
BRANCH   1  30
ATOM     30  C   UNL     1      10.517  38.989  27.008  1.00  0.00     0.048 C 
ATOM     31  O   UNL     1       9.940  39.148  28.119  1.00  0.00    -0.550 OA
ATOM     32  O   UNL     1      10.426  40.020  26.075  1.00  0.00    -0.550 OA
ENDBRANCH   1  30
BRANCH  27  33
ATOM     33  O   UNL     1       8.884  43.231  18.124  1.00  0.00    -0.393 OA
ATOM     34  H   UNL     1       8.417  43.989  18.565  1.00  0.00     0.210 HD
ENDBRANCH  27  33
TORSDOF 2
ENDMDL
