MODEL 1
REMARK VINA RESULT:    -3.695      0.000      0.000
REMARK INTER + INTRA:          -3.803
REMARK INTER:                  -3.803
REMARK INTRA:                   0.000
REMARK UNBOUND:                 0.000
REMARK SMILES CC1(C)[C@@H]2CC[C@@](C)(C2)[C@@H]1O
REMARK SMILES IDX 1 1 2 2 4 3 5 4 6 5 7 6 9 7 10 8 8 9 3 10 11 11
REMARK H PARENT 11 12
REMARK Flexibility Score: inf
ROOT
ATOM      1  C   UNL     1     135.382 150.828 136.973  1.00  0.00     0.014 C 
ATOM      2  C   UNL     1     135.248 150.105 138.339  1.00  0.00    -0.006 C 
ATOM      3  C   UNL     1     136.592 150.046 139.144  1.00  0.00    -0.002 C 
ATOM      4  C   UNL     1     137.750 149.537 138.261  1.00  0.00     0.005 C 
ATOM      5  C   UNL     1     137.374 148.067 138.018  1.00  0.00     0.010 C 
ATOM      6  C   UNL     1     136.103 147.893 138.885  1.00  0.00    -0.006 C 
ATOM      7  C   UNL     1     136.391 148.833 140.035  1.00  0.00     0.013 C 
ATOM      8  C   UNL     1     134.889 148.588 138.209  1.00  0.00     0.126 C 
ATOM      9  C   UNL     1     135.840 146.447 139.318  1.00  0.00     0.014 C 
ATOM     10  C   UNL     1     134.171 150.863 139.155  1.00  0.00     0.014 C 
ENDROOT
BRANCH   8  11
ATOM     11  O   UNL     1     134.721 148.176 136.875  1.00  0.00    -0.392 OA
ATOM     12  H   UNL     1     133.747 148.195 136.691  1.00  0.00     0.211 HD
ENDBRANCH   8  11
TORSDOF 1
ENDMDL
MODEL 2
REMARK VINA RESULT:    -3.634     12.106     13.653
REMARK INTER + INTRA:          -3.740
REMARK INTER:                  -3.740
REMARK INTRA:                   0.000
REMARK UNBOUND:                 0.000
REMARK SMILES CC1(C)[C@@H]2CC[C@@](C)(C2)[C@@H]1O
REMARK SMILES IDX 1 1 2 2 4 3 5 4 6 5 7 6 9 7 10 8 8 9 3 10 11 11
REMARK H PARENT 11 12
REMARK Flexibility Score: inf
ROOT
ATOM      1  C   UNL     1     150.756 145.952 137.223  1.00  0.00     0.014 C 
ATOM      2  C   UNL     1     149.909 146.094 138.514  1.00  0.00    -0.006 C 
ATOM      3  C   UNL     1     149.758 144.751 139.309  1.00  0.00    -0.002 C 
ATOM      4  C   UNL     1     149.320 143.599 138.380  1.00  0.00     0.005 C 
ATOM      5  C   UNL     1     147.885 143.993 137.999  1.00  0.00     0.010 C 
ATOM      6  C   UNL     1     147.645 145.265 138.847  1.00  0.00    -0.006 C 
ATOM      7  C   UNL     1     148.468 144.966 140.081  1.00  0.00     0.013 C 
ATOM      8  C   UNL     1     148.415 146.471 138.242  1.00  0.00     0.126 C 
ATOM      9  C   UNL     1     146.167 145.546 139.142  1.00  0.00     0.014 C 
ATOM     10  C   UNL     1     150.598 147.162 139.400  1.00  0.00     0.014 C 
ENDROOT
BRANCH   8  11
ATOM     11  O   UNL     1     148.133 146.644 136.875  1.00  0.00    -0.392 OA
ATOM     12  H   UNL     1     148.131 147.622 136.706  1.00  0.00     0.211 HD
ENDBRANCH   8  11
TORSDOF 1
ENDMDL
MODEL 3
REMARK VINA RESULT:    -3.569     11.986     13.538
REMARK INTER + INTRA:          -3.673
REMARK INTER:                  -3.673
REMARK INTRA:                   0.000
REMARK UNBOUND:                 0.000
REMARK SMILES CC1(C)[C@@H]2CC[C@@](C)(C2)[C@@H]1O
REMARK SMILES IDX 1 1 2 2 4 3 5 4 6 5 7 6 9 7 10 8 8 9 3 10 11 11
REMARK H PARENT 11 12
REMARK Flexibility Score: inf
ROOT
ATOM      1  C   UNL     1     130.875 135.714 137.298  1.00  0.00     0.014 C 
ATOM      2  C   UNL     1     131.701 135.525 138.597  1.00  0.00    -0.006 C 
ATOM      3  C   UNL     1     131.948 136.864 139.376  1.00  0.00    -0.002 C 
ATOM      4  C   UNL     1     132.479 137.966 138.435  1.00  0.00     0.005 C 
ATOM      5  C   UNL     1     133.883 137.458 138.071  1.00  0.00     0.010 C 
ATOM      6  C   UNL     1     134.019 136.183 138.938  1.00  0.00    -0.006 C 
ATOM      7  C   UNL     1     133.212 136.561 140.161  1.00  0.00     0.013 C 
ATOM      8  C   UNL     1     133.163 135.032 138.342  1.00  0.00     0.126 C 
ATOM      9  C   UNL     1     135.468 135.794 139.247  1.00  0.00     0.014 C 
ATOM     10  C   UNL     1     130.925 134.526 139.491  1.00  0.00     0.014 C 
ENDROOT
BRANCH   8  11
ATOM     11  O   UNL     1     133.440 134.819 136.980  1.00  0.00    -0.392 OA
ATOM     12  H   UNL     1     134.228 134.217 136.940  1.00  0.00     0.211 HD
ENDBRANCH   8  11
TORSDOF 1
ENDMDL
MODEL 4
REMARK VINA RESULT:    -3.527     17.079     19.162
REMARK INTER + INTRA:          -3.630
REMARK INTER:                  -3.630
REMARK INTRA:                   0.000
REMARK UNBOUND:                 0.000
REMARK SMILES CC1(C)[C@@H]2CC[C@@](C)(C2)[C@@H]1O
REMARK SMILES IDX 1 1 2 2 4 3 5 4 6 5 7 6 9 7 10 8 8 9 3 10 11 11
REMARK H PARENT 11 12
REMARK Flexibility Score: inf
ROOT
ATOM      1  C   UNL     1     145.808 130.875 137.239  1.00  0.00     0.014 C 
ATOM      2  C   UNL     1     146.034 131.704 138.530  1.00  0.00    -0.006 C 
ATOM      3  C   UNL     1     144.725 131.918 139.366  1.00  0.00    -0.002 C 
ATOM      4  C   UNL     1     143.570 132.422 138.476  1.00  0.00     0.005 C 
ATOM      5  C   UNL     1     144.027 133.838 138.093  1.00  0.00     0.010 C 
ATOM      6  C   UNL     1     145.335 134.005 138.903  1.00  0.00    -0.006 C 
ATOM      7  C   UNL     1     145.030 133.188 140.140  1.00  0.00     0.013 C 
ATOM      8  C   UNL     1     146.480 133.178 138.257  1.00  0.00     0.126 C 
ATOM      9  C   UNL     1     145.701 135.463 139.199  1.00  0.00     0.014 C 
ATOM     10  C   UNL     1     147.090 130.952 139.378  1.00  0.00     0.014 C 
ENDROOT
BRANCH   8  11
ATOM     11  O   UNL     1     146.627 133.461 136.887  1.00  0.00    -0.392 OA
ATOM     12  H   UNL     1     146.436 132.619 136.399  1.00  0.00     0.211 HD
ENDBRANCH   8  11
TORSDOF 1
ENDMDL
MODEL 5
REMARK VINA RESULT:    -3.349     17.246     18.885
REMARK INTER + INTRA:          -3.447
REMARK INTER:                  -3.447
REMARK INTRA:                   0.000
REMARK UNBOUND:                 0.000
REMARK SMILES CC1(C)[C@@H]2CC[C@@](C)(C2)[C@@H]1O
REMARK SMILES IDX 1 1 2 2 4 3 5 4 6 5 7 6 9 7 10 8 8 9 3 10 11 11
REMARK H PARENT 11 12
REMARK Flexibility Score: inf
ROOT
ATOM      1  C   UNL     1     147.611 133.647 139.402  1.00  0.00     0.014 C 
ATOM      2  C   UNL     1     146.080 133.880 139.319  1.00  0.00    -0.006 C 
ATOM      3  C   UNL     1     145.277 133.139 140.444  1.00  0.00    -0.002 C 
ATOM      4  C   UNL     1     145.694 131.657 140.544  1.00  0.00     0.005 C 
ATOM      5  C   UNL     1     145.165 131.064 139.229  1.00  0.00     0.010 C 
ATOM      6  C   UNL     1     144.415 132.260 138.593  1.00  0.00    -0.006 C 
ATOM      7  C   UNL     1     143.902 132.981 139.821  1.00  0.00     0.013 C 
ATOM      8  C   UNL     1     145.427 133.291 138.025  1.00  0.00     0.126 C 
ATOM      9  C   UNL     1     143.314 131.850 137.610  1.00  0.00     0.014 C 
ATOM     10  C   UNL     1     145.843 135.408 139.415  1.00  0.00     0.014 C 
ENDROOT
BRANCH   8  11
ATOM     11  O   UNL     1     146.363 132.692 137.162  1.00  0.00    -0.392 OA
ATOM     12  H   UNL     1     147.261 132.879 137.542  1.00  0.00     0.211 HD
ENDBRANCH   8  11
TORSDOF 1
ENDMDL
MODEL 6
REMARK VINA RESULT:    -3.341     12.057     13.445
REMARK INTER + INTRA:          -3.439
REMARK INTER:                  -3.439
REMARK INTRA:                   0.000
REMARK UNBOUND:                 0.000
REMARK SMILES CC1(C)[C@@H]2CC[C@@](C)(C2)[C@@H]1O
REMARK SMILES IDX 1 1 2 2 4 3 5 4 6 5 7 6 9 7 10 8 8 9 3 10 11 11
REMARK H PARENT 11 12
REMARK Flexibility Score: inf
ROOT
ATOM      1  C   UNL     1     147.930 147.623 139.274  1.00  0.00     0.014 C 
ATOM      2  C   UNL     1     147.705 146.089 139.249  1.00  0.00    -0.006 C 
ATOM      3  C   UNL     1     148.477 145.330 140.385  1.00  0.00    -0.002 C 
ATOM      4  C   UNL     1     149.958 145.759 140.436  1.00  0.00     0.005 C 
ATOM      5  C   UNL     1     150.524 145.188 139.126  1.00  0.00     0.010 C 
ATOM      6  C   UNL     1     149.320 144.409 138.545  1.00  0.00    -0.006 C 
ATOM      7  C   UNL     1     148.630 143.935 139.805  1.00  0.00     0.013 C 
ATOM      8  C   UNL     1     148.268 145.395 137.965  1.00  0.00     0.126 C 
ATOM      9  C   UNL     1     149.714 143.277 137.591  1.00  0.00     0.014 C 
ATOM     10  C   UNL     1     146.181 145.846 139.389  1.00  0.00     0.014 C 
ENDROOT
BRANCH   8  11
ATOM     11  O   UNL     1     148.842 146.304 137.058  1.00  0.00    -0.392 OA
ATOM     12  H   UNL     1     148.196 147.050 136.954  1.00  0.00     0.211 HD
ENDBRANCH   8  11
TORSDOF 1
ENDMDL
MODEL 7
REMARK VINA RESULT:    -3.333      1.332      2.971
REMARK INTER + INTRA:          -3.430
REMARK INTER:                  -3.430
REMARK INTRA:                   0.000
REMARK UNBOUND:                 0.000
REMARK SMILES CC1(C)[C@@H]2CC[C@@](C)(C2)[C@@H]1O
REMARK SMILES IDX 1 1 2 2 4 3 5 4 6 5 7 6 9 7 10 8 8 9 3 10 11 11
REMARK H PARENT 11 12
REMARK Flexibility Score: inf
ROOT
ATOM      1  C   UNL     1     133.971 147.827 139.411  1.00  0.00     0.014 C 
ATOM      2  C   UNL     1     135.501 147.595 139.309  1.00  0.00    -0.006 C 
ATOM      3  C   UNL     1     136.317 148.338 140.424  1.00  0.00    -0.002 C 
ATOM      4  C   UNL     1     135.899 149.820 140.528  1.00  0.00     0.005 C 
ATOM      5  C   UNL     1     136.411 150.412 139.206  1.00  0.00     0.010 C 
ATOM      6  C   UNL     1     137.155 149.217 138.562  1.00  0.00    -0.006 C 
ATOM      7  C   UNL     1     137.684 148.497 139.783  1.00  0.00     0.013 C 
ATOM      8  C   UNL     1     136.136 148.184 138.007  1.00  0.00     0.126 C 
ATOM      9  C   UNL     1     138.243 149.627 137.564  1.00  0.00     0.014 C 
ATOM     10  C   UNL     1     135.740 146.068 139.403  1.00  0.00     0.014 C 
ENDROOT
BRANCH   8  11
ATOM     11  O   UNL     1     135.189 148.782 137.156  1.00  0.00    -0.392 OA
ATOM     12  H   UNL     1     134.328 148.793 137.650  1.00  0.00     0.211 HD
ENDBRANCH   8  11
TORSDOF 1
ENDMDL
MODEL 8
REMARK VINA RESULT:    -3.331     11.829     13.525
REMARK INTER + INTRA:          -3.428
REMARK INTER:                  -3.428
REMARK INTRA:                   0.000
REMARK UNBOUND:                 0.000
REMARK SMILES CC1(C)[C@@H]2CC[C@@](C)(C2)[C@@H]1O
REMARK SMILES IDX 1 1 2 2 4 3 5 4 6 5 7 6 9 7 10 8 8 9 3 10 11 11
REMARK H PARENT 11 12
REMARK Flexibility Score: inf
ROOT
ATOM      1  C   UNL     1     133.680 134.004 139.361  1.00  0.00     0.014 C 
ATOM      2  C   UNL     1     133.930 135.534 139.301  1.00  0.00    -0.006 C 
ATOM      3  C   UNL     1     133.160 136.333 140.409  1.00  0.00    -0.002 C 
ATOM      4  C   UNL     1     131.672 135.928 140.457  1.00  0.00     0.005 C 
ATOM      5  C   UNL     1     131.127 136.476 139.128  1.00  0.00     0.010 C 
ATOM      6  C   UNL     1     132.349 137.221 138.540  1.00  0.00    -0.006 C 
ATOM      7  C   UNL     1     133.035 137.715 139.794  1.00  0.00     0.013 C 
ATOM      8  C   UNL     1     133.389 136.204 137.995  1.00  0.00     0.126 C 
ATOM      9  C   UNL     1     131.982 138.335 137.554  1.00  0.00     0.014 C 
ATOM     10  C   UNL     1     135.456 135.755 139.448  1.00  0.00     0.014 C 
ENDROOT
BRANCH   8  11
ATOM     11  O   UNL     1     132.810 135.282 137.104  1.00  0.00    -0.392 OA
ATOM     12  H   UNL     1     131.908 135.630 136.881  1.00  0.00     0.211 HD
ENDBRANCH   8  11
TORSDOF 1
ENDMDL
MODEL 9
REMARK VINA RESULT:    -3.279     11.968     13.592
REMARK INTER + INTRA:          -3.375
REMARK INTER:                  -3.375
REMARK INTRA:                   0.000
REMARK UNBOUND:                 0.000
REMARK SMILES CC1(C)[C@@H]2CC[C@@](C)(C2)[C@@H]1O
REMARK SMILES IDX 1 1 2 2 4 3 5 4 6 5 7 6 9 7 10 8 8 9 3 10 11 11
REMARK H PARENT 11 12
REMARK Flexibility Score: inf
ROOT
ATOM      1  C   UNL     1     146.481 145.407 138.859  1.00  0.00     0.014 C 
ATOM      2  C   UNL     1     147.986 145.054 138.979  1.00  0.00    -0.006 C 
ATOM      3  C   UNL     1     148.633 145.541 140.322  1.00  0.00    -0.002 C 
ATOM      4  C   UNL     1     148.299 147.023 140.597  1.00  0.00     0.005 C 
ATOM      5  C   UNL     1     149.079 147.758 139.496  1.00  0.00     0.010 C 
ATOM      6  C   UNL     1     149.848 146.611 138.798  1.00  0.00    -0.006 C 
ATOM      7  C   UNL     1     150.101 145.669 139.955  1.00  0.00     0.013 C 
ATOM      8  C   UNL     1     148.883 145.772 137.917  1.00  0.00     0.126 C 
ATOM      9  C   UNL     1     151.123 147.065 138.079  1.00  0.00     0.014 C 
ATOM     10  C   UNL     1     148.107 143.514 138.859  1.00  0.00     0.014 C 
ENDROOT
BRANCH   8  11
ATOM     11  O   UNL     1     148.145 146.576 137.030  1.00  0.00    -0.392 OA
ATOM     12  H   UNL     1     147.358 146.042 136.749  1.00  0.00     0.211 HD
ENDBRANCH   8  11
TORSDOF 1
ENDMDL
