MODEL 1
REMARK VINA RESULT:    -6.562      0.000      0.000
REMARK INTER + INTRA:         -11.359
REMARK INTER:                  -9.630
REMARK INTRA:                  -1.729
REMARK UNBOUND:                -1.729
REMARK SMILES O=c1c(O[C@H]2O[C@@H](CO)[C@@H](O)[C@@H](O)[C@H]2O)c(-c2ccc(O)c(O)c2)oc2cc(O)cc(O)c12
REMARK SMILES IDX 4 1 3 2 16 3 25 4 2 5 26 6 1 7 33 8 27 9 31 10 28 11 30 12
REMARK SMILES IDX 17 13 18 14 19 15 20 16 24 17 22 18 21 19 23 21 32 23 29 25
REMARK SMILES IDX 5 27 14 28 6 29 12 30 7 31 10 32 15 33 13 35 8 37 9 38 11 40
REMARK H PARENT 21 20 23 22 32 24 29 26 15 34 13 36 9 39 11 41
REMARK Flexibility Score: inf
ROOT
ATOM      1  O   UNL     1       8.377  -5.469 -25.465  1.00  0.00    -0.454 OA
ENDROOT
BRANCH   1   2
ATOM      2  C   UNL     1       7.440  -4.439 -25.611  1.00  0.00     0.214 A 
ATOM      3  C   UNL     1       6.054  -4.695 -25.579  1.00  0.00     0.180 A 
ATOM      4  O   UNL     1       5.193  -3.716 -25.835  1.00  0.00    -0.452 OA
ATOM      5  C   UNL     1       7.878  -3.126 -25.826  1.00  0.00     0.239 A 
ATOM      6  C   UNL     1       5.566  -2.466 -26.084  1.00  0.00     0.146 A 
ATOM      7  O   UNL     1       9.113  -2.880 -25.815  1.00  0.00    -0.285 OA
ATOM      8  C   UNL     1       6.935  -2.107 -26.072  1.00  0.00     0.111 A 
ATOM      9  C   UNL     1       4.586  -1.503 -26.350  1.00  0.00     0.094 A 
ATOM     10  C   UNL     1       7.295  -0.760 -26.313  1.00  0.00     0.134 A 
ATOM     11  C   UNL     1       4.949  -0.175 -26.595  1.00  0.00     0.123 A 
ATOM     12  C   UNL     1       6.297   0.191 -26.572  1.00  0.00     0.093 A 
BRANCH   3  13
ATOM     13  C   UNL     1       5.515  -6.027 -25.236  1.00  0.00     0.025 A 
ATOM     14  C   UNL     1       5.194  -6.938 -26.254  1.00  0.00     0.016 A 
ATOM     15  C   UNL     1       4.642  -8.186 -25.936  1.00  0.00     0.051 A 
ATOM     16  C   UNL     1       4.392  -8.528 -24.599  1.00  0.00     0.157 A 
ATOM     17  C   UNL     1       5.231  -6.360 -23.902  1.00  0.00     0.062 A 
ATOM     18  C   UNL     1       4.673  -7.602 -23.580  1.00  0.00     0.158 A 
BRANCH  16  19
ATOM     19  O   UNL     1       3.875  -9.781 -24.281  1.00  0.00    -0.504 OA
ATOM     20  H   UNL     1       4.473 -10.594 -24.205  1.00  0.00     0.293 HD
ENDBRANCH  16  19
BRANCH  18  21
ATOM     21  O   UNL     1       4.399  -7.895 -22.245  1.00  0.00    -0.504 OA
ATOM     22  H   UNL     1       3.501  -7.688 -21.819  1.00  0.00     0.293 HD
ENDBRANCH  18  21
ENDBRANCH   3  13
BRANCH  10  23
ATOM     23  O   UNL     1       8.633  -0.361 -26.295  1.00  0.00    -0.507 OA
ATOM     24  H   UNL     1       9.049   0.065 -25.476  1.00  0.00     0.293 HD
ENDBRANCH  10  23
BRANCH  11  25
ATOM     25  O   UNL     1       3.979   0.790 -26.865  1.00  0.00    -0.508 OA
ATOM     26  H   UNL     1       4.228   1.723 -27.174  1.00  0.00     0.293 HD
ENDBRANCH  11  25
ENDBRANCH   1   2
BRANCH   1  27
ATOM     27  C   UNL     1       8.647  -6.377 -26.535  1.00  0.00     0.339 C 
ATOM     28  C   UNL     1       9.347  -7.663 -26.017  1.00  0.00     0.214 C 
ATOM     29  O   UNL     1       9.348  -5.689 -27.571  1.00  0.00    -0.332 OA
ATOM     30  C   UNL     1      10.817  -7.414 -25.571  1.00  0.00     0.180 C 
ATOM     31  C   UNL     1      10.738  -5.990 -27.659  1.00  0.00     0.179 C 
ATOM     32  C   UNL     1      11.412  -6.173 -26.276  1.00  0.00     0.177 C 
BRANCH  28  33
ATOM     33  O   UNL     1       8.575  -8.304 -25.030  1.00  0.00    -0.384 OA
ATOM     34  H   UNL     1       9.029  -9.151 -24.796  1.00  0.00     0.211 HD
ENDBRANCH  28  33
BRANCH  30  35
ATOM     35  O   UNL     1      10.934  -7.274 -24.176  1.00  0.00    -0.387 OA
ATOM     36  H   UNL     1      11.076  -6.308 -23.997  1.00  0.00     0.211 HD
ENDBRANCH  30  35
BRANCH  31  37
ATOM     37  C   UNL     1      11.434  -4.904 -28.492  1.00  0.00     0.191 C 
BRANCH  37  38
ATOM     38  O   UNL     1      12.671  -4.565 -27.927  1.00  0.00    -0.394 OA
ATOM     39  H   UNL     1      13.291  -4.424 -28.689  1.00  0.00     0.210 HD
ENDBRANCH  37  38
ENDBRANCH  31  37
BRANCH  32  40
ATOM     40  O   UNL     1      11.216  -5.017 -25.498  1.00  0.00    -0.387 OA
ATOM     41  H   UNL     1      10.370  -4.597 -25.806  1.00  0.00     0.211 HD
ENDBRANCH  32  40
ENDBRANCH   1  27
TORSDOF 12
ENDMDL
MODEL 2
REMARK VINA RESULT:    -6.417      2.513      6.112
REMARK INTER + INTRA:         -11.147
REMARK INTER:                  -9.343
REMARK INTRA:                  -1.804
REMARK UNBOUND:                -1.729
REMARK SMILES O=c1c(O[C@H]2O[C@@H](CO)[C@@H](O)[C@@H](O)[C@H]2O)c(-c2ccc(O)c(O)c2)oc2cc(O)cc(O)c12
REMARK SMILES IDX 4 1 3 2 16 3 25 4 2 5 26 6 1 7 33 8 27 9 31 10 28 11 30 12
REMARK SMILES IDX 17 13 18 14 19 15 20 16 24 17 22 18 21 19 23 21 32 23 29 25
REMARK SMILES IDX 5 27 14 28 6 29 12 30 7 31 10 32 15 33 13 35 8 37 9 38 11 40
REMARK H PARENT 21 20 23 22 32 24 29 26 15 34 13 36 9 39 11 41
REMARK Flexibility Score: inf
ROOT
ATOM      1  O   UNL     1       8.366  -2.932 -26.070  1.00  0.00    -0.454 OA
ENDROOT
BRANCH   1   2
ATOM      2  C   UNL     1       9.626  -2.966 -26.678  1.00  0.00     0.214 A 
ATOM      3  C   UNL     1      10.353  -4.168 -26.801  1.00  0.00     0.180 A 
ATOM      4  O   UNL     1      11.593  -4.149 -27.278  1.00  0.00    -0.452 OA
ATOM      5  C   UNL     1      10.202  -1.781 -27.151  1.00  0.00     0.239 A 
ATOM      6  C   UNL     1      12.192  -3.042 -27.699  1.00  0.00     0.146 A 
ATOM      7  O   UNL     1       9.545  -0.709 -27.084  1.00  0.00    -0.285 OA
ATOM      8  C   UNL     1      11.512  -1.800 -27.672  1.00  0.00     0.111 A 
ATOM      9  C   UNL     1      13.504  -3.118 -28.180  1.00  0.00     0.094 A 
ATOM     10  C   UNL     1      12.171  -0.645 -28.155  1.00  0.00     0.134 A 
ATOM     11  C   UNL     1      14.152  -1.971 -28.649  1.00  0.00     0.123 A 
ATOM     12  C   UNL     1      13.485  -0.744 -28.638  1.00  0.00     0.093 A 
BRANCH   3  13
ATOM     13  C   UNL     1       9.765  -5.475 -26.439  1.00  0.00     0.025 A 
ATOM     14  C   UNL     1       8.514  -5.850 -26.955  1.00  0.00     0.016 A 
ATOM     15  C   UNL     1       7.934  -7.068 -26.581  1.00  0.00     0.051 A 
ATOM     16  C   UNL     1       8.589  -7.916 -25.676  1.00  0.00     0.157 A 
ATOM     17  C   UNL     1      10.402  -6.310 -25.507  1.00  0.00     0.062 A 
ATOM     18  C   UNL     1       9.821  -7.525 -25.125  1.00  0.00     0.158 A 
BRANCH  16  19
ATOM     19  O   UNL     1       8.027  -9.142 -25.331  1.00  0.00    -0.504 OA
ATOM     20  H   UNL     1       7.513  -9.695 -26.005  1.00  0.00     0.293 HD
ENDBRANCH  16  19
BRANCH  18  21
ATOM     21  O   UNL     1      10.479  -8.325 -24.193  1.00  0.00    -0.504 OA
ATOM     22  H   UNL     1       9.984  -8.822 -23.459  1.00  0.00     0.293 HD
ENDBRANCH  18  21
ENDBRANCH   3  13
BRANCH  10  23
ATOM     23  O   UNL     1      11.531   0.596 -28.161  1.00  0.00    -0.507 OA
ATOM     24  H   UNL     1      11.897   1.380 -28.689  1.00  0.00     0.293 HD
ENDBRANCH  10  23
BRANCH  11  25
ATOM     25  O   UNL     1      15.461  -2.038 -29.125  1.00  0.00    -0.508 OA
ATOM     26  H   UNL     1      16.149  -1.331 -28.890  1.00  0.00     0.293 HD
ENDBRANCH  11  25
ENDBRANCH   1   2
BRANCH   1  27
ATOM     27  C   UNL     1       8.231  -3.001 -24.649  1.00  0.00     0.339 C 
ATOM     28  C   UNL     1       6.747  -3.191 -24.235  1.00  0.00     0.214 C 
ATOM     29  O   UNL     1       8.878  -1.874 -24.060  1.00  0.00    -0.332 OA
ATOM     30  C   UNL     1       5.885  -1.917 -24.471  1.00  0.00     0.180 C 
ATOM     31  C   UNL     1       8.000  -0.865 -23.571  1.00  0.00     0.179 C 
ATOM     32  C   UNL     1       6.761  -0.643 -24.475  1.00  0.00     0.177 C 
BRANCH  28  33
ATOM     33  O   UNL     1       6.193  -4.344 -24.824  1.00  0.00    -0.384 OA
ATOM     34  H   UNL     1       5.962  -4.973 -24.096  1.00  0.00     0.211 HD
ENDBRANCH  28  33
BRANCH  30  35
ATOM     35  O   UNL     1       5.141  -1.990 -25.662  1.00  0.00    -0.387 OA
ATOM     36  H   UNL     1       5.697  -1.573 -26.372  1.00  0.00     0.211 HD
ENDBRANCH  30  35
BRANCH  31  37
ATOM     37  C   UNL     1       8.795   0.434 -23.367  1.00  0.00     0.191 C 
BRANCH  37  38
ATOM     38  O   UNL     1       9.700   0.630 -24.419  1.00  0.00    -0.394 OA
ATOM     39  H   UNL     1       9.178   1.038 -25.158  1.00  0.00     0.210 HD
ENDBRANCH  37  38
ENDBRANCH  31  37
BRANCH  32  40
ATOM     40  O   UNL     1       7.179  -0.330 -25.781  1.00  0.00    -0.387 OA
ATOM     41  H   UNL     1       6.726   0.517 -26.037  1.00  0.00     0.211 HD
ENDBRANCH  32  40
ENDBRANCH   1  27
TORSDOF 12
ENDMDL
MODEL 3
REMARK VINA RESULT:    -6.342      2.637      6.333
REMARK INTER + INTRA:         -11.037
REMARK INTER:                  -9.382
REMARK INTRA:                  -1.655
REMARK UNBOUND:                -1.729
REMARK SMILES O=c1c(O[C@H]2O[C@@H](CO)[C@@H](O)[C@@H](O)[C@H]2O)c(-c2ccc(O)c(O)c2)oc2cc(O)cc(O)c12
REMARK SMILES IDX 4 1 3 2 16 3 25 4 2 5 26 6 1 7 33 8 27 9 31 10 28 11 30 12
REMARK SMILES IDX 17 13 18 14 19 15 20 16 24 17 22 18 21 19 23 21 32 23 29 25
REMARK SMILES IDX 5 27 14 28 6 29 12 30 7 31 10 32 15 33 13 35 8 37 9 38 11 40
REMARK H PARENT 21 20 23 22 32 24 29 26 15 34 13 36 9 39 11 41
REMARK Flexibility Score: inf
ROOT
ATOM      1  O   UNL     1       9.324  -4.454 -27.847  1.00  0.00    -0.454 OA
ENDROOT
BRANCH   1   2
ATOM      2  C   UNL     1      10.299  -3.451 -27.817  1.00  0.00     0.214 A 
ATOM      3  C   UNL     1       9.996  -2.142 -27.389  1.00  0.00     0.180 A 
ATOM      4  O   UNL     1      10.913  -1.184 -27.480  1.00  0.00    -0.452 OA
ATOM      5  C   UNL     1      11.602  -3.733 -28.247  1.00  0.00     0.239 A 
ATOM      6  C   UNL     1      12.147  -1.399 -27.921  1.00  0.00     0.146 A 
ATOM      7  O   UNL     1      11.894  -4.908 -28.592  1.00  0.00    -0.285 OA
ATOM      8  C   UNL     1      12.557  -2.697 -28.309  1.00  0.00     0.111 A 
ATOM      9  C   UNL     1      13.042  -0.326 -27.987  1.00  0.00     0.094 A 
ATOM     10  C   UNL     1      13.887  -2.896 -28.747  1.00  0.00     0.134 A 
ATOM     11  C   UNL     1      14.354  -0.529 -28.428  1.00  0.00     0.123 A 
ATOM     12  C   UNL     1      14.771  -1.808 -28.801  1.00  0.00     0.093 A 
BRANCH   3  13
ATOM     13  C   UNL     1       8.682  -1.797 -26.807  1.00  0.00     0.025 A 
ATOM     14  C   UNL     1       7.694  -1.200 -27.605  1.00  0.00     0.016 A 
ATOM     15  C   UNL     1       6.464  -0.832 -27.047  1.00  0.00     0.051 A 
ATOM     16  C   UNL     1       6.214  -1.043 -25.683  1.00  0.00     0.157 A 
ATOM     17  C   UNL     1       8.442  -1.975 -25.435  1.00  0.00     0.062 A 
ATOM     18  C   UNL     1       7.216  -1.601 -24.871  1.00  0.00     0.158 A 
BRANCH  16  19
ATOM     19  O   UNL     1       4.979  -0.708 -25.136  1.00  0.00    -0.504 OA
ATOM     20  H   UNL     1       4.848  -0.634 -24.135  1.00  0.00     0.293 HD
ENDBRANCH  16  19
BRANCH  18  21
ATOM     21  O   UNL     1       7.016  -1.788 -23.505  1.00  0.00    -0.504 OA
ATOM     22  H   UNL     1       6.100  -1.985 -23.114  1.00  0.00     0.293 HD
ENDBRANCH  18  21
ENDBRANCH   3  13
BRANCH  10  23
ATOM     23  O   UNL     1      14.337  -4.163 -29.125  1.00  0.00    -0.507 OA
ATOM     24  H   UNL     1      13.696  -4.935 -29.261  1.00  0.00     0.293 HD
ENDBRANCH  10  23
BRANCH  11  25
ATOM     25  O   UNL     1      15.252   0.536 -28.503  1.00  0.00    -0.508 OA
ATOM     26  H   UNL     1      14.935   1.491 -28.626  1.00  0.00     0.293 HD
ENDBRANCH  11  25
ENDBRANCH   1   2
BRANCH   1  27
ATOM     27  C   UNL     1       9.470  -5.647 -27.073  1.00  0.00     0.339 C 
ATOM     28  C   UNL     1       8.875  -6.874 -27.814  1.00  0.00     0.214 C 
ATOM     29  O   UNL     1       8.946  -5.425 -25.764  1.00  0.00    -0.332 OA
ATOM     30  C   UNL     1       7.319  -6.847 -27.877  1.00  0.00     0.180 C 
ATOM     31  C   UNL     1       7.685  -6.038 -25.509  1.00  0.00     0.179 C 
ATOM     32  C   UNL     1       6.730  -5.996 -26.729  1.00  0.00     0.177 C 
BRANCH  28  33
ATOM     33  O   UNL     1       9.471  -7.049 -29.077  1.00  0.00    -0.384 OA
ATOM     34  H   UNL     1      10.394  -7.373 -28.932  1.00  0.00     0.211 HD
ENDBRANCH  28  33
BRANCH  30  35
ATOM     35  O   UNL     1       6.844  -6.378 -29.114  1.00  0.00    -0.387 OA
ATOM     36  H   UNL     1       6.088  -5.765 -28.916  1.00  0.00     0.211 HD
ENDBRANCH  30  35
BRANCH  31  37
ATOM     37  C   UNL     1       7.054  -5.387 -24.270  1.00  0.00     0.191 C 
BRANCH  37  38
ATOM     38  O   UNL     1       8.031  -4.751 -23.492  1.00  0.00    -0.394 OA
ATOM     39  H   UNL     1       7.906  -5.087 -22.566  1.00  0.00     0.210 HD
ENDBRANCH  37  38
ENDBRANCH  31  37
BRANCH  32  40
ATOM     40  O   UNL     1       6.545  -4.664 -27.140  1.00  0.00    -0.387 OA
ATOM     41  H   UNL     1       5.893  -4.677 -27.890  1.00  0.00     0.211 HD
ENDBRANCH  32  40
ENDBRANCH   1  27
TORSDOF 12
ENDMDL
MODEL 4
REMARK VINA RESULT:    -6.205      2.668      6.310
REMARK INTER + INTRA:         -10.835
REMARK INTER:                  -9.538
REMARK INTRA:                  -1.298
REMARK UNBOUND:                -1.729
REMARK SMILES O=c1c(O[C@H]2O[C@@H](CO)[C@@H](O)[C@@H](O)[C@H]2O)c(-c2ccc(O)c(O)c2)oc2cc(O)cc(O)c12
REMARK SMILES IDX 4 1 3 2 16 3 25 4 2 5 26 6 1 7 33 8 27 9 31 10 28 11 30 12
REMARK SMILES IDX 17 13 18 14 19 15 20 16 24 17 22 18 21 19 23 21 32 23 29 25
REMARK SMILES IDX 5 27 14 28 6 29 12 30 7 31 10 32 15 33 13 35 8 37 9 38 11 40
REMARK H PARENT 21 20 23 22 32 24 29 26 15 34 13 36 9 39 11 41
REMARK Flexibility Score: inf
ROOT
ATOM      1  O   UNL     1       9.239  -4.218 -27.473  1.00  0.00    -0.454 OA
ENDROOT
BRANCH   1   2
ATOM      2  C   UNL     1      10.243  -3.244 -27.532  1.00  0.00     0.214 A 
ATOM      3  C   UNL     1      10.007  -1.917 -27.121  1.00  0.00     0.180 A 
ATOM      4  O   UNL     1      10.943  -0.990 -27.296  1.00  0.00    -0.452 OA
ATOM      5  C   UNL     1      11.506  -3.577 -28.038  1.00  0.00     0.239 A 
ATOM      6  C   UNL     1      12.139  -1.254 -27.810  1.00  0.00     0.146 A 
ATOM      7  O   UNL     1      11.740  -4.769 -28.370  1.00  0.00    -0.285 OA
ATOM      8  C   UNL     1      12.484  -2.573 -28.190  1.00  0.00     0.111 A 
ATOM      9  C   UNL     1      13.059  -0.211 -27.963  1.00  0.00     0.094 A 
ATOM     10  C   UNL     1      13.777  -2.824 -28.707  1.00  0.00     0.134 A 
ATOM     11  C   UNL     1      14.333  -0.465 -28.482  1.00  0.00     0.123 A 
ATOM     12  C   UNL     1      14.687  -1.765 -28.848  1.00  0.00     0.093 A 
BRANCH   3  13
ATOM     13  C   UNL     1       8.745  -1.517 -26.464  1.00  0.00     0.025 A 
ATOM     14  C   UNL     1       7.616  -1.209 -27.238  1.00  0.00     0.016 A 
ATOM     15  C   UNL     1       6.431  -0.788 -26.622  1.00  0.00     0.051 A 
ATOM     16  C   UNL     1       6.367  -0.657 -25.227  1.00  0.00     0.157 A 
ATOM     17  C   UNL     1       8.688  -1.351 -25.070  1.00  0.00     0.062 A 
ATOM     18  C   UNL     1       7.508  -0.923 -24.451  1.00  0.00     0.158 A 
BRANCH  16  19
ATOM     19  O   UNL     1       5.179  -0.272 -24.612  1.00  0.00    -0.504 OA
ATOM     20  H   UNL     1       4.782  -0.806 -23.850  1.00  0.00     0.293 HD
ENDBRANCH  16  19
BRANCH  18  21
ATOM     21  O   UNL     1       7.490  -0.765 -23.066  1.00  0.00    -0.504 OA
ATOM     22  H   UNL     1       8.193  -0.221 -22.575  1.00  0.00     0.293 HD
ENDBRANCH  18  21
ENDBRANCH   3  13
BRANCH  10  23
ATOM     23  O   UNL     1      14.164  -4.113 -29.080  1.00  0.00    -0.507 OA
ATOM     24  H   UNL     1      14.845  -4.272 -29.812  1.00  0.00     0.293 HD
ENDBRANCH  10  23
BRANCH  11  25
ATOM     25  O   UNL     1      15.255   0.570 -28.643  1.00  0.00    -0.508 OA
ATOM     26  H   UNL     1      16.178   0.529 -28.227  1.00  0.00     0.293 HD
ENDBRANCH  11  25
ENDBRANCH   1   2
BRANCH   1  27
ATOM     27  C   UNL     1       8.715  -4.660 -26.219  1.00  0.00     0.339 C 
ATOM     28  C   UNL     1       9.611  -5.762 -25.592  1.00  0.00     0.214 C 
ATOM     29  O   UNL     1       7.344  -5.024 -26.384  1.00  0.00    -0.332 OA
ATOM     30  C   UNL     1       9.523  -7.118 -26.352  1.00  0.00     0.180 C 
ATOM     31  C   UNL     1       7.091  -6.426 -26.391  1.00  0.00     0.179 C 
ATOM     32  C   UNL     1       8.188  -7.240 -27.123  1.00  0.00     0.177 C 
BRANCH  28  33
ATOM     33  O   UNL     1      10.935  -5.313 -25.425  1.00  0.00    -0.384 OA
ATOM     34  H   UNL     1      11.528  -5.933 -25.918  1.00  0.00     0.211 HD
ENDBRANCH  28  33
BRANCH  30  35
ATOM     35  O   UNL     1      10.603  -7.306 -27.233  1.00  0.00    -0.387 OA
ATOM     36  H   UNL     1      10.401  -6.779 -28.050  1.00  0.00     0.211 HD
ENDBRANCH  30  35
BRANCH  31  37
ATOM     37  C   UNL     1       5.700  -6.680 -26.989  1.00  0.00     0.191 C 
BRANCH  37  38
ATOM     38  O   UNL     1       5.699  -7.851 -27.759  1.00  0.00    -0.394 OA
ATOM     39  H   UNL     1       6.608  -7.920 -28.154  1.00  0.00     0.210 HD
ENDBRANCH  37  38
ENDBRANCH  31  37
BRANCH  32  40
ATOM     40  O   UNL     1       8.328  -6.767 -28.440  1.00  0.00    -0.387 OA
ATOM     41  H   UNL     1       7.734  -7.320 -29.014  1.00  0.00     0.211 HD
ENDBRANCH  32  40
ENDBRANCH   1  27
TORSDOF 12
ENDMDL
MODEL 5
REMARK VINA RESULT:    -6.193      2.010      2.325
REMARK INTER + INTRA:         -10.819
REMARK INTER:                  -8.796
REMARK INTRA:                  -2.022
REMARK UNBOUND:                -1.729
REMARK SMILES O=c1c(O[C@H]2O[C@@H](CO)[C@@H](O)[C@@H](O)[C@H]2O)c(-c2ccc(O)c(O)c2)oc2cc(O)cc(O)c12
REMARK SMILES IDX 4 1 3 2 16 3 25 4 2 5 26 6 1 7 33 8 27 9 31 10 28 11 30 12
REMARK SMILES IDX 17 13 18 14 19 15 20 16 24 17 22 18 21 19 23 21 32 23 29 25
REMARK SMILES IDX 5 27 14 28 6 29 12 30 7 31 10 32 15 33 13 35 8 37 9 38 11 40
REMARK H PARENT 21 20 23 22 32 24 29 26 15 34 13 36 9 39 11 41
REMARK Flexibility Score: inf
ROOT
ATOM      1  O   UNL     1       8.465  -5.144 -25.751  1.00  0.00    -0.454 OA
ENDROOT
BRANCH   1   2
ATOM      2  C   UNL     1       7.705  -4.179 -25.079  1.00  0.00     0.214 A 
ATOM      3  C   UNL     1       6.342  -4.388 -24.786  1.00  0.00     0.180 A 
ATOM      4  O   UNL     1       5.620  -3.409 -24.250  1.00  0.00    -0.452 OA
ATOM      5  C   UNL     1       8.294  -2.963 -24.712  1.00  0.00     0.239 A 
ATOM      6  C   UNL     1       6.129  -2.226 -23.925  1.00  0.00     0.146 A 
ATOM      7  O   UNL     1       9.520  -2.782 -24.932  1.00  0.00    -0.285 OA
ATOM      8  C   UNL     1       7.503  -1.953 -24.125  1.00  0.00     0.111 A 
ATOM      9  C   UNL     1       5.289  -1.253 -23.372  1.00  0.00     0.094 A 
ATOM     10  C   UNL     1       8.017  -0.692 -23.741  1.00  0.00     0.134 A 
ATOM     11  C   UNL     1       5.802  -0.006 -23.001  1.00  0.00     0.123 A 
ATOM     12  C   UNL     1       7.159   0.268 -23.183  1.00  0.00     0.093 A 
BRANCH   3  13
ATOM     13  C   UNL     1       5.683  -5.688 -25.029  1.00  0.00     0.025 A 
ATOM     14  C   UNL     1       5.755  -6.704 -24.064  1.00  0.00     0.016 A 
ATOM     15  C   UNL     1       5.168  -7.952 -24.309  1.00  0.00     0.051 A 
ATOM     16  C   UNL     1       4.517  -8.201 -25.526  1.00  0.00     0.157 A 
ATOM     17  C   UNL     1       5.060  -5.952 -26.259  1.00  0.00     0.062 A 
ATOM     18  C   UNL     1       4.479  -7.201 -26.511  1.00  0.00     0.158 A 
BRANCH  16  19
ATOM     19  O   UNL     1       3.905  -9.430 -25.755  1.00  0.00    -0.504 OA
ATOM     20  H   UNL     1       4.336 -10.298 -25.460  1.00  0.00     0.293 HD
ENDBRANCH  16  19
BRANCH  18  21
ATOM     21  O   UNL     1       3.875  -7.429 -27.746  1.00  0.00    -0.504 OA
ATOM     22  H   UNL     1       3.085  -8.057 -27.854  1.00  0.00     0.293 HD
ENDBRANCH  18  21
ENDBRANCH   3  13
BRANCH  10  23
ATOM     23  O   UNL     1       9.370  -0.388 -23.906  1.00  0.00    -0.507 OA
ATOM     24  H   UNL     1       9.802   0.389 -23.421  1.00  0.00     0.293 HD
ENDBRANCH  10  23
BRANCH  11  25
ATOM     25  O   UNL     1       4.971   0.971 -22.454  1.00  0.00    -0.508 OA
ATOM     26  H   UNL     1       4.823   1.862 -22.914  1.00  0.00     0.293 HD
ENDBRANCH  11  25
ENDBRANCH   1   2
BRANCH   1  27
ATOM     27  C   UNL     1       8.445  -5.236 -27.177  1.00  0.00     0.339 C 
ATOM     28  C   UNL     1       8.903  -6.640 -27.656  1.00  0.00     0.214 C 
ATOM     29  O   UNL     1       9.180  -4.144 -27.729  1.00  0.00    -0.332 OA
ATOM     30  C   UNL     1      10.427  -6.883 -27.446  1.00  0.00     0.180 C 
ATOM     31  C   UNL     1      10.463  -4.485 -28.247  1.00  0.00     0.179 C 
ATOM     32  C   UNL     1      11.203  -5.547 -27.394  1.00  0.00     0.177 C 
BRANCH  28  33
ATOM     33  O   UNL     1       8.105  -7.657 -27.100  1.00  0.00    -0.384 OA
ATOM     34  H   UNL     1       8.682  -8.447 -26.952  1.00  0.00     0.211 HD
ENDBRANCH  28  33
BRANCH  30  35
ATOM     35  O   UNL     1      10.691  -7.636 -26.288  1.00  0.00    -0.387 OA
ATOM     36  H   UNL     1      11.335  -8.346 -26.550  1.00  0.00     0.211 HD
ENDBRANCH  30  35
BRANCH  31  37
ATOM     37  C   UNL     1      11.295  -3.203 -28.405  1.00  0.00     0.191 C 
BRANCH  37  38
ATOM     38  O   UNL     1      11.208  -2.411 -27.252  1.00  0.00    -0.394 OA
ATOM     39  H   UNL     1      11.553  -1.516 -27.508  1.00  0.00     0.210 HD
ENDBRANCH  37  38
ENDBRANCH  31  37
BRANCH  32  40
ATOM     40  O   UNL     1      11.321  -5.091 -26.069  1.00  0.00    -0.387 OA
ATOM     41  H   UNL     1      12.243  -5.307 -25.767  1.00  0.00     0.211 HD
ENDBRANCH  32  40
ENDBRANCH   1  27
TORSDOF 12
ENDMDL
MODEL 6
REMARK VINA RESULT:    -6.135      2.001      5.194
REMARK INTER + INTRA:         -10.733
REMARK INTER:                  -9.007
REMARK INTRA:                  -1.725
REMARK UNBOUND:                -1.729
REMARK SMILES O=c1c(O[C@H]2O[C@@H](CO)[C@@H](O)[C@@H](O)[C@H]2O)c(-c2ccc(O)c(O)c2)oc2cc(O)cc(O)c12
REMARK SMILES IDX 4 1 3 2 16 3 25 4 2 5 26 6 1 7 33 8 27 9 31 10 28 11 30 12
REMARK SMILES IDX 17 13 18 14 19 15 20 16 24 17 22 18 21 19 23 21 32 23 29 25
REMARK SMILES IDX 5 27 14 28 6 29 12 30 7 31 10 32 15 33 13 35 8 37 9 38 11 40
REMARK H PARENT 21 20 23 22 32 24 29 26 15 34 13 36 9 39 11 41
REMARK Flexibility Score: inf
ROOT
ATOM      1  O   UNL     1       7.269  -4.376 -25.812  1.00  0.00    -0.454 OA
ENDROOT
BRANCH   1   2
ATOM      2  C   UNL     1       8.090  -3.334 -26.261  1.00  0.00     0.214 A 
ATOM      3  C   UNL     1       9.464  -3.533 -26.508  1.00  0.00     0.180 A 
ATOM      4  O   UNL     1      10.239  -2.501 -26.821  1.00  0.00    -0.452 OA
ATOM      5  C   UNL     1       7.553  -2.054 -26.442  1.00  0.00     0.239 A 
ATOM      6  C   UNL     1       9.778  -1.263 -26.964  1.00  0.00     0.146 A 
ATOM      7  O   UNL     1       6.319  -1.874 -26.264  1.00  0.00    -0.285 OA
ATOM      8  C   UNL     1       8.400  -0.985 -26.798  1.00  0.00     0.111 A 
ATOM      9  C   UNL     1      10.672  -0.237 -27.289  1.00  0.00     0.094 A 
ATOM     10  C   UNL     1       7.939   0.340 -26.984  1.00  0.00     0.134 A 
ATOM     11  C   UNL     1      10.210   1.071 -27.465  1.00  0.00     0.123 A 
ATOM     12  C   UNL     1       8.851   1.354 -27.316  1.00  0.00     0.093 A 
BRANCH   3  13
ATOM     13  C   UNL     1      10.078  -4.876 -26.458  1.00  0.00     0.025 A 
ATOM     14  C   UNL     1      10.358  -5.566 -27.648  1.00  0.00     0.016 A 
ATOM     15  C   UNL     1      10.900  -6.857 -27.605  1.00  0.00     0.051 A 
ATOM     16  C   UNL     1      11.153  -7.476 -26.373  1.00  0.00     0.157 A 
ATOM     17  C   UNL     1      10.301  -5.514 -25.227  1.00  0.00     0.062 A 
ATOM     18  C   UNL     1      10.835  -6.807 -25.179  1.00  0.00     0.158 A 
BRANCH  16  19
ATOM     19  O   UNL     1      11.723  -8.746 -26.330  1.00  0.00    -0.504 OA
ATOM     20  H   UNL     1      11.251  -9.521 -25.884  1.00  0.00     0.293 HD
ENDBRANCH  16  19
BRANCH  18  21
ATOM     21  O   UNL     1      11.037  -7.410 -23.939  1.00  0.00    -0.504 OA
ATOM     22  H   UNL     1      11.547  -8.282 -23.838  1.00  0.00     0.293 HD
ENDBRANCH  18  21
ENDBRANCH   3  13
BRANCH  10  23
ATOM     23  O   UNL     1       6.586   0.655 -26.845  1.00  0.00    -0.507 OA
ATOM     24  H   UNL     1       5.862  -0.040 -26.984  1.00  0.00     0.293 HD
ENDBRANCH  10  23
BRANCH  11  25
ATOM     25  O   UNL     1      11.096   2.101 -27.785  1.00  0.00    -0.508 OA
ATOM     26  H   UNL     1      11.851   1.967 -28.448  1.00  0.00     0.293 HD
ENDBRANCH  11  25
ENDBRANCH   1   2
BRANCH   1  27
ATOM     27  C   UNL     1       6.631  -5.260 -26.736  1.00  0.00     0.339 C 
ATOM     28  C   UNL     1       5.086  -5.206 -26.589  1.00  0.00     0.214 C 
ATOM     29  O   UNL     1       7.200  -6.563 -26.610  1.00  0.00    -0.332 OA
ATOM     30  C   UNL     1       4.580  -5.866 -25.274  1.00  0.00     0.180 C 
ATOM     31  C   UNL     1       6.379  -7.514 -25.937  1.00  0.00     0.179 C 
ATOM     32  C   UNL     1       5.593  -6.908 -24.747  1.00  0.00     0.177 C 
BRANCH  28  33
ATOM     33  O   UNL     1       4.601  -3.896 -26.768  1.00  0.00    -0.384 OA
ATOM     34  H   UNL     1       4.054  -3.668 -25.975  1.00  0.00     0.211 HD
ENDBRANCH  28  33
BRANCH  30  35
ATOM     35  O   UNL     1       4.304  -4.917 -24.274  1.00  0.00    -0.387 OA
ATOM     36  H   UNL     1       3.318  -4.798 -24.257  1.00  0.00     0.211 HD
ENDBRANCH  30  35
BRANCH  31  37
ATOM     37  C   UNL     1       7.247  -8.703 -25.498  1.00  0.00     0.191 C 
BRANCH  37  38
ATOM     38  O   UNL     1       8.203  -8.297 -24.558  1.00  0.00    -0.394 OA
ATOM     39  H   UNL     1       9.072  -8.283 -25.038  1.00  0.00     0.210 HD
ENDBRANCH  37  38
ENDBRANCH  31  37
BRANCH  32  40
ATOM     40  O   UNL     1       6.490  -6.316 -23.839  1.00  0.00    -0.387 OA
ATOM     41  H   UNL     1       6.215  -5.367 -23.734  1.00  0.00     0.211 HD
ENDBRANCH  32  40
ENDBRANCH   1  27
TORSDOF 12
ENDMDL
MODEL 7
REMARK VINA RESULT:    -6.079      2.718      6.264
REMARK INTER + INTRA:         -10.651
REMARK INTER:                  -8.684
REMARK INTRA:                  -1.967
REMARK UNBOUND:                -1.729
REMARK SMILES O=c1c(O[C@H]2O[C@@H](CO)[C@@H](O)[C@@H](O)[C@H]2O)c(-c2ccc(O)c(O)c2)oc2cc(O)cc(O)c12
REMARK SMILES IDX 4 1 3 2 16 3 25 4 2 5 26 6 1 7 33 8 27 9 31 10 28 11 30 12
REMARK SMILES IDX 17 13 18 14 19 15 20 16 24 17 22 18 21 19 23 21 32 23 29 25
REMARK SMILES IDX 5 27 14 28 6 29 12 30 7 31 10 32 15 33 13 35 8 37 9 38 11 40
REMARK H PARENT 21 20 23 22 32 24 29 26 15 34 13 36 9 39 11 41
REMARK Flexibility Score: inf
ROOT
ATOM      1  O   UNL     1       9.569  -3.996 -27.647  1.00  0.00    -0.454 OA
ENDROOT
BRANCH   1   2
ATOM      2  C   UNL     1       8.697  -2.937 -27.926  1.00  0.00     0.214 A 
ATOM      3  C   UNL     1       9.125  -1.595 -27.869  1.00  0.00     0.180 A 
ATOM      4  O   UNL     1       8.247  -0.610 -28.026  1.00  0.00    -0.452 OA
ATOM      5  C   UNL     1       7.358  -3.203 -28.240  1.00  0.00     0.239 A 
ATOM      6  C   UNL     1       6.961  -0.818 -28.285  1.00  0.00     0.146 A 
ATOM      7  O   UNL     1       6.975  -4.399 -28.335  1.00  0.00    -0.285 OA
ATOM      8  C   UNL     1       6.458  -2.134 -28.424  1.00  0.00     0.111 A 
ATOM      9  C   UNL     1       6.109   0.283 -28.428  1.00  0.00     0.094 A 
ATOM     10  C   UNL     1       5.088  -2.318 -28.727  1.00  0.00     0.134 A 
ATOM     11  C   UNL     1       4.755   0.093 -28.721  1.00  0.00     0.123 A 
ATOM     12  C   UNL     1       4.252  -1.200 -28.873  1.00  0.00     0.093 A 
BRANCH   3  13
ATOM     13  C   UNL     1      10.544  -1.238 -27.666  1.00  0.00     0.025 A 
ATOM     14  C   UNL     1      11.500  -1.573 -28.638  1.00  0.00     0.016 A 
ATOM     15  C   UNL     1      12.852  -1.275 -28.430  1.00  0.00     0.051 A 
ATOM     16  C   UNL     1      13.265  -0.654 -27.243  1.00  0.00     0.157 A 
ATOM     17  C   UNL     1      10.966  -0.647 -26.464  1.00  0.00     0.062 A 
ATOM     18  C   UNL     1      12.318  -0.355 -26.249  1.00  0.00     0.158 A 
BRANCH  16  19
ATOM     19  O   UNL     1      14.605  -0.327 -27.051  1.00  0.00    -0.504 OA
ATOM     20  H   UNL     1      14.920   0.635 -27.061  1.00  0.00     0.293 HD
ENDBRANCH  16  19
BRANCH  18  21
ATOM     21  O   UNL     1      12.700   0.226 -25.041  1.00  0.00    -0.504 OA
ATOM     22  H   UNL     1      12.255   1.063 -24.678  1.00  0.00     0.293 HD
ENDBRANCH  18  21
ENDBRANCH   3  13
BRANCH  10  23
ATOM     23  O   UNL     1       4.554  -3.598 -28.888  1.00  0.00    -0.507 OA
ATOM     24  H   UNL     1       4.900  -4.232 -29.598  1.00  0.00     0.293 HD
ENDBRANCH  10  23
BRANCH  11  25
ATOM     25  O   UNL     1       3.898   1.185 -28.861  1.00  0.00    -0.508 OA
ATOM     26  H   UNL     1       2.924   1.136 -28.581  1.00  0.00     0.293 HD
ENDBRANCH  11  25
ENDBRANCH   1   2
BRANCH   1  27
ATOM     27  C   UNL     1       9.900  -4.342 -26.301  1.00  0.00     0.339 C 
ATOM     28  C   UNL     1      11.067  -5.365 -26.255  1.00  0.00     0.214 C 
ATOM     29  O   UNL     1       8.717  -4.752 -25.616  1.00  0.00    -0.332 OA
ATOM     30  C   UNL     1      10.650  -6.782 -26.745  1.00  0.00     0.180 C 
ATOM     31  C   UNL     1       8.605  -6.156 -25.397  1.00  0.00     0.179 C 
ATOM     32  C   UNL     1       9.128  -7.002 -26.585  1.00  0.00     0.177 C 
BRANCH  28  33
ATOM     33  O   UNL     1      12.208  -4.870 -26.916  1.00  0.00    -0.384 OA
ATOM     34  H   UNL     1      12.592  -5.611 -27.448  1.00  0.00     0.211 HD
ENDBRANCH  28  33
BRANCH  30  35
ATOM     35  O   UNL     1      11.031  -7.018 -28.079  1.00  0.00    -0.387 OA
ATOM     36  H   UNL     1      11.428  -6.172 -28.416  1.00  0.00     0.211 HD
ENDBRANCH  30  35
BRANCH  31  37
ATOM     37  C   UNL     1       7.146  -6.494 -25.057  1.00  0.00     0.191 C 
BRANCH  37  38
ATOM     38  O   UNL     1       6.271  -5.871 -25.957  1.00  0.00    -0.394 OA
ATOM     39  H   UNL     1       6.193  -4.928 -25.655  1.00  0.00     0.210 HD
ENDBRANCH  37  38
ENDBRANCH  31  37
BRANCH  32  40
ATOM     40  O   UNL     1       8.446  -6.640 -27.761  1.00  0.00    -0.387 OA
ATOM     41  H   UNL     1       7.749  -7.330 -27.919  1.00  0.00     0.211 HD
ENDBRANCH  32  40
ENDBRANCH   1  27
TORSDOF 12
ENDMDL
MODEL 8
REMARK VINA RESULT:    -5.988      2.044      6.119
REMARK INTER + INTRA:         -10.517
REMARK INTER:                  -9.226
REMARK INTRA:                  -1.292
REMARK UNBOUND:                -1.729
REMARK SMILES O=c1c(O[C@H]2O[C@@H](CO)[C@@H](O)[C@@H](O)[C@H]2O)c(-c2ccc(O)c(O)c2)oc2cc(O)cc(O)c12
REMARK SMILES IDX 4 1 3 2 16 3 25 4 2 5 26 6 1 7 33 8 27 9 31 10 28 11 30 12
REMARK SMILES IDX 17 13 18 14 19 15 20 16 24 17 22 18 21 19 23 21 32 23 29 25
REMARK SMILES IDX 5 27 14 28 6 29 12 30 7 31 10 32 15 33 13 35 8 37 9 38 11 40
REMARK H PARENT 21 20 23 22 32 24 29 26 15 34 13 36 9 39 11 41
REMARK Flexibility Score: inf
ROOT
ATOM      1  O   UNL     1      10.189  -3.946 -26.451  1.00  0.00    -0.454 OA
ENDROOT
BRANCH   1   2
ATOM      2  C   UNL     1       9.009  -4.390 -25.842  1.00  0.00     0.214 A 
ATOM      3  C   UNL     1       8.105  -3.488 -25.243  1.00  0.00     0.180 A 
ATOM      4  O   UNL     1       7.053  -3.948 -24.575  1.00  0.00    -0.452 OA
ATOM      5  C   UNL     1       8.723  -5.760 -25.795  1.00  0.00     0.239 A 
ATOM      6  C   UNL     1       6.767  -5.241 -24.470  1.00  0.00     0.146 A 
ATOM      7  O   UNL     1       9.502  -6.570 -26.363  1.00  0.00    -0.285 OA
ATOM      8  C   UNL     1       7.585  -6.212 -25.096  1.00  0.00     0.111 A 
ATOM      9  C   UNL     1       5.640  -5.632 -23.740  1.00  0.00     0.094 A 
ATOM     10  C   UNL     1       7.235  -7.579 -24.988  1.00  0.00     0.134 A 
ATOM     11  C   UNL     1       5.304  -6.985 -23.630  1.00  0.00     0.123 A 
ATOM     12  C   UNL     1       6.097  -7.950 -24.255  1.00  0.00     0.093 A 
BRANCH   3  13
ATOM     13  C   UNL     1       8.273  -2.025 -25.358  1.00  0.00     0.025 A 
ATOM     14  C   UNL     1       7.571  -1.312 -26.342  1.00  0.00     0.016 A 
ATOM     15  C   UNL     1       7.760   0.069 -26.483  1.00  0.00     0.051 A 
ATOM     16  C   UNL     1       8.663   0.748 -25.651  1.00  0.00     0.157 A 
ATOM     17  C   UNL     1       9.201  -1.348 -24.551  1.00  0.00     0.062 A 
ATOM     18  C   UNL     1       9.399   0.031 -24.693  1.00  0.00     0.158 A 
BRANCH  16  19
ATOM     19  O   UNL     1       8.825   2.125 -25.769  1.00  0.00    -0.504 OA
ATOM     20  H   UNL     1       8.852   2.578 -26.674  1.00  0.00     0.293 HD
ENDBRANCH  16  19
BRANCH  18  21
ATOM     21  O   UNL     1      10.333   0.667 -23.878  1.00  0.00    -0.504 OA
ATOM     22  H   UNL     1      10.174   1.593 -23.494  1.00  0.00     0.293 HD
ENDBRANCH  18  21
ENDBRANCH   3  13
BRANCH  10  23
ATOM     23  O   UNL     1       8.005  -8.568 -25.603  1.00  0.00    -0.507 OA
ATOM     24  H   UNL     1       8.492  -9.274 -25.064  1.00  0.00     0.293 HD
ENDBRANCH  10  23
BRANCH  11  25
ATOM     25  O   UNL     1       4.184  -7.384 -22.900  1.00  0.00    -0.508 OA
ATOM     26  H   UNL     1       3.245  -7.280 -23.267  1.00  0.00     0.293 HD
ENDBRANCH  11  25
ENDBRANCH   1   2
BRANCH   1  27
ATOM     27  C   UNL     1      10.157  -3.241 -27.693  1.00  0.00     0.339 C 
ATOM     28  C   UNL     1      10.078  -4.221 -28.894  1.00  0.00     0.214 C 
ATOM     29  O   UNL     1      11.249  -2.322 -27.740  1.00  0.00    -0.332 OA
ATOM     30  C   UNL     1      11.403  -5.004 -29.125  1.00  0.00     0.180 C 
ATOM     31  C   UNL     1      12.326  -2.712 -28.588  1.00  0.00     0.179 C 
ATOM     32  C   UNL     1      12.613  -4.234 -28.548  1.00  0.00     0.177 C 
BRANCH  28  33
ATOM     33  O   UNL     1       8.954  -5.064 -28.794  1.00  0.00    -0.384 OA
ATOM     34  H   UNL     1       8.303  -4.626 -28.192  1.00  0.00     0.211 HD
ENDBRANCH  28  33
BRANCH  30  35
ATOM     35  O   UNL     1      11.357  -6.301 -28.582  1.00  0.00    -0.387 OA
ATOM     36  H   UNL     1      12.159  -6.781 -28.921  1.00  0.00     0.211 HD
ENDBRANCH  30  35
BRANCH  31  37
ATOM     37  C   UNL     1      13.571  -1.889 -28.226  1.00  0.00     0.191 C 
BRANCH  37  38
ATOM     38  O   UNL     1      14.736  -2.639 -28.429  1.00  0.00    -0.394 OA
ATOM     39  H   UNL     1      14.532  -3.269 -29.169  1.00  0.00     0.210 HD
ENDBRANCH  37  38
ENDBRANCH  31  37
BRANCH  32  40
ATOM     40  O   UNL     1      12.872  -4.632 -27.223  1.00  0.00    -0.387 OA
ATOM     41  H   UNL     1      12.904  -3.807 -26.671  1.00  0.00     0.211 HD
ENDBRANCH  32  40
ENDBRANCH   1  27
TORSDOF 12
ENDMDL
MODEL 9
REMARK VINA RESULT:    -5.941      2.746      3.992
REMARK INTER + INTRA:         -10.448
REMARK INTER:                  -9.294
REMARK INTRA:                  -1.154
REMARK UNBOUND:                -1.729
REMARK SMILES O=c1c(O[C@H]2O[C@@H](CO)[C@@H](O)[C@@H](O)[C@H]2O)c(-c2ccc(O)c(O)c2)oc2cc(O)cc(O)c12
REMARK SMILES IDX 4 1 3 2 16 3 25 4 2 5 26 6 1 7 33 8 27 9 31 10 28 11 30 12
REMARK SMILES IDX 17 13 18 14 19 15 20 16 24 17 22 18 21 19 23 21 32 23 29 25
REMARK SMILES IDX 5 27 14 28 6 29 12 30 7 31 10 32 15 33 13 35 8 37 9 38 11 40
REMARK H PARENT 21 20 23 22 32 24 29 26 15 34 13 36 9 39 11 41
REMARK Flexibility Score: inf
ROOT
ATOM      1  O   UNL     1      10.356  -2.695 -26.383  1.00  0.00    -0.454 OA
ENDROOT
BRANCH   1   2
ATOM      2  C   UNL     1       9.385  -2.182 -25.515  1.00  0.00     0.214 A 
ATOM      3  C   UNL     1       8.243  -2.930 -25.163  1.00  0.00     0.180 A 
ATOM      4  O   UNL     1       7.285  -2.374 -24.429  1.00  0.00    -0.452 OA
ATOM      5  C   UNL     1       9.525  -0.887 -25.002  1.00  0.00     0.239 A 
ATOM      6  C   UNL     1       7.358  -1.136 -23.956  1.00  0.00     0.146 A 
ATOM      7  O   UNL     1      10.561  -0.226 -25.276  1.00  0.00    -0.285 OA
ATOM      8  C   UNL     1       8.499  -0.336 -24.207  1.00  0.00     0.111 A 
ATOM      9  C   UNL     1       6.296  -0.632 -23.198  1.00  0.00     0.094 A 
ATOM     10  C   UNL     1       8.556   0.970 -23.664  1.00  0.00     0.134 A 
ATOM     11  C   UNL     1       6.356   0.662 -22.671  1.00  0.00     0.123 A 
ATOM     12  C   UNL     1       7.482   1.454 -22.902  1.00  0.00     0.093 A 
BRANCH   3  13
ATOM     13  C   UNL     1       8.084  -4.344 -25.563  1.00  0.00     0.025 A 
ATOM     14  C   UNL     1       7.024  -4.722 -26.401  1.00  0.00     0.016 A 
ATOM     15  C   UNL     1       6.844  -6.067 -26.747  1.00  0.00     0.051 A 
ATOM     16  C   UNL     1       7.712  -7.049 -26.247  1.00  0.00     0.157 A 
ATOM     17  C   UNL     1       8.930  -5.334 -25.036  1.00  0.00     0.062 A 
ATOM     18  C   UNL     1       8.749  -6.680 -25.373  1.00  0.00     0.158 A 
BRANCH  16  19
ATOM     19  O   UNL     1       7.553  -8.381 -26.619  1.00  0.00    -0.504 OA
ATOM     20  H   UNL     1       8.332  -8.930 -26.960  1.00  0.00     0.293 HD
ENDBRANCH  16  19
BRANCH  18  21
ATOM     21  O   UNL     1       9.604  -7.635 -24.827  1.00  0.00    -0.504 OA
ATOM     22  H   UNL     1       9.554  -8.616 -25.082  1.00  0.00     0.293 HD
ENDBRANCH  18  21
ENDBRANCH   3  13
BRANCH  10  23
ATOM     23  O   UNL     1       9.669   1.786 -23.874  1.00  0.00    -0.507 OA
ATOM     24  H   UNL     1      10.592   1.397 -24.024  1.00  0.00     0.293 HD
ENDBRANCH  10  23
BRANCH  11  25
ATOM     25  O   UNL     1       5.298   1.173 -21.918  1.00  0.00    -0.508 OA
ATOM     26  H   UNL     1       5.341   1.221 -20.906  1.00  0.00     0.293 HD
ENDBRANCH  11  25
ENDBRANCH   1   2
BRANCH   1  27
ATOM     27  C   UNL     1      10.680  -2.025 -27.604  1.00  0.00     0.339 C 
ATOM     28  C   UNL     1      10.094  -2.779 -28.829  1.00  0.00     0.214 C 
ATOM     29  O   UNL     1      12.088  -1.797 -27.657  1.00  0.00    -0.332 OA
ATOM     30  C   UNL     1      10.826  -4.121 -29.120  1.00  0.00     0.180 C 
ATOM     31  C   UNL     1      12.802  -2.652 -28.545  1.00  0.00     0.179 C 
ATOM     32  C   UNL     1      12.265  -4.106 -28.556  1.00  0.00     0.177 C 
BRANCH  28  33
ATOM     33  O   UNL     1       8.699  -2.927 -28.720  1.00  0.00    -0.384 OA
ATOM     34  H   UNL     1       8.315  -2.837 -29.628  1.00  0.00     0.211 HD
ENDBRANCH  28  33
BRANCH  30  35
ATOM     35  O   UNL     1      10.125  -5.230 -28.613  1.00  0.00    -0.387 OA
ATOM     36  H   UNL     1      10.431  -5.358 -27.676  1.00  0.00     0.211 HD
ENDBRANCH  30  35
BRANCH  31  37
ATOM     37  C   UNL     1      14.297  -2.600 -28.196  1.00  0.00     0.191 C 
BRANCH  37  38
ATOM     38  O   UNL     1      14.817  -3.894 -28.056  1.00  0.00    -0.394 OA
ATOM     39  H   UNL     1      14.691  -4.139 -27.102  1.00  0.00     0.210 HD
ENDBRANCH  37  38
ENDBRANCH  31  37
BRANCH  32  40
ATOM     40  O   UNL     1      12.296  -4.631 -27.251  1.00  0.00    -0.387 OA
ATOM     41  H   UNL     1      12.265  -3.860 -26.625  1.00  0.00     0.211 HD
ENDBRANCH  32  40
ENDBRANCH   1  27
TORSDOF 12
ENDMDL
