MODEL 1
REMARK VINA RESULT:   148.245      0.000      0.000
REMARK INTER + INTRA:         161.439
REMARK INTER:                 161.244
REMARK INTRA:                   0.195
REMARK UNBOUND:                 0.195
REMARK SMILES CC1(C)CC[C@@]2(C(=O)[O-])CC[C@]3(C)C(=CC[C@@H]4[C@]5(C)CC[C@@H](O)C(C)(C)[C@@H]5CC[C@]43C)[C@H]2C1
REMARK SMILES IDX 6 1 5 2 10 3 32 4 4 5 11 6 14 7 33 8 2 9 12 10 15 11 1 12
REMARK SMILES IDX 3 13 13 14 30 15 16 16 17 17 29 18 31 19 18 20 28 21 27 22
REMARK SMILES IDX 20 23 19 24 24 25 21 26 22 27 25 28 26 29 7 30 8 31 9 32
REMARK SMILES IDX 23 33
REMARK H PARENT 23 34
REMARK Flexibility Score: inf
ROOT
ATOM      1  C   UNL     1      21.594  43.864  10.380  1.00  0.00     0.017 C 
ATOM      2  C   UNL     1      21.265  44.924   9.292  1.00  0.00     0.014 C 
ATOM      3  C   UNL     1      20.754  44.182  11.638  1.00  0.00     0.014 C 
ATOM      4  C   UNL     1      21.339  42.392   9.840  1.00  0.00     0.028 C 
ATOM      5  C   UNL     1      22.089  44.708   8.026  1.00  0.00     0.007 C 
ATOM      6  C   UNL     1      19.265  43.836  11.486  1.00  0.00     0.013 C 
ATOM      7  C   UNL     1      19.990  41.723  10.232  1.00  0.00    -0.064 C 
ATOM      8  C   UNL     1      21.692  42.170   8.311  1.00  0.00     0.015 C 
ATOM      9  C   UNL     1      21.736  43.393   7.319  1.00  0.00    -0.035 C 
ATOM     10  C   UNL     1      19.001  42.320  11.236  1.00  0.00    -0.006 C 
ATOM     11  C   UNL     1      19.747  40.442   9.829  1.00  0.00    -0.027 C 
ATOM     12  C   UNL     1      22.812  43.114   6.248  1.00  0.00     0.011 C 
ATOM     13  C   UNL     1      20.387  43.562   6.566  1.00  0.00     0.011 C 
ATOM     14  C   UNL     1      19.267  41.591  12.611  1.00  0.00     0.017 C 
ATOM     15  C   UNL     1      17.523  42.049  10.652  1.00  0.00    -0.020 C 
ATOM     16  C   UNL     1      18.417  39.716   9.970  1.00  0.00     0.032 C 
ATOM     17  C   UNL     1      17.261  40.500  10.697  1.00  0.00     0.006 C 
ATOM     18  C   UNL     1      16.439  42.756  11.509  1.00  0.00     0.008 C 
ATOM     19  C   UNL     1      17.439  42.588   9.175  1.00  0.00     0.012 C 
ATOM     20  C   UNL     1      15.773  39.962  10.434  1.00  0.00    -0.025 C 
ATOM     21  C   UNL     1      15.003  42.345  11.156  1.00  0.00     0.005 C 
ATOM     22  C   UNL     1      14.720  40.815  11.276  1.00  0.00     0.003 C 
ATOM     23  C   UNL     1      15.380  39.970   8.920  1.00  0.00     0.010 C 
ATOM     24  C   UNL     1      15.759  38.475  10.938  1.00  0.00     0.012 C 
ATOM     25  C   UNL     1      13.181  40.481  10.965  1.00  0.00    -0.006 C 
ATOM     26  C   UNL     1      13.917  39.591   8.639  1.00  0.00     0.033 C 
ATOM     27  C   UNL     1      12.936  40.485   9.416  1.00  0.00     0.120 C 
ATOM     28  C   UNL     1      12.237  41.544  11.597  1.00  0.00     0.014 C 
ATOM     29  C   UNL     1      12.756  39.122  11.610  1.00  0.00     0.014 C 
ENDROOT
BRANCH   1  30
ATOM     30  C   UNL     1      23.062  44.056  10.779  1.00  0.00     0.048 C 
ATOM     31  O   UNL     1      23.662  45.125  10.468  1.00  0.00    -0.550 OA
ATOM     32  O   UNL     1      23.790  43.036  11.389  1.00  0.00    -0.550 OA
ENDBRANCH   1  30
BRANCH  27  33
ATOM     33  O   UNL     1      11.603  40.190   9.077  1.00  0.00    -0.393 OA
ATOM     34  H   UNL     1      11.015  40.841   9.533  1.00  0.00     0.210 HD
ENDBRANCH  27  33
TORSDOF 2
ENDMDL
MODEL 2
REMARK VINA RESULT:   148.435      1.953      3.474
REMARK INTER + INTRA:         161.646
REMARK INTER:                 161.052
REMARK INTRA:                   0.594
REMARK UNBOUND:                 0.195
REMARK SMILES CC1(C)CC[C@@]2(C(=O)[O-])CC[C@]3(C)C(=CC[C@@H]4[C@]5(C)CC[C@@H](O)C(C)(C)[C@@H]5CC[C@]43C)[C@H]2C1
REMARK SMILES IDX 6 1 5 2 10 3 32 4 4 5 11 6 14 7 33 8 2 9 12 10 15 11 1 12
REMARK SMILES IDX 3 13 13 14 30 15 16 16 17 17 29 18 31 19 18 20 28 21 27 22
REMARK SMILES IDX 20 23 19 24 24 25 21 26 22 27 25 28 26 29 7 30 8 31 9 32
REMARK SMILES IDX 23 33
REMARK H PARENT 23 34
REMARK Flexibility Score: inf
ROOT
ATOM      1  C   UNL     1      21.500  40.860  11.219  1.00  0.00     0.017 C 
ATOM      2  C   UNL     1      21.518  41.399  12.675  1.00  0.00     0.014 C 
ATOM      3  C   UNL     1      20.885  39.442  11.233  1.00  0.00     0.014 C 
ATOM      4  C   UNL     1      20.718  41.847  10.251  1.00  0.00     0.028 C 
ATOM      5  C   UNL     1      22.154  42.784  12.756  1.00  0.00     0.007 C 
ATOM      6  C   UNL     1      19.365  39.434  11.453  1.00  0.00     0.013 C 
ATOM      7  C   UNL     1      19.239  41.488   9.927  1.00  0.00    -0.064 C 
ATOM      8  C   UNL     1      20.900  43.387  10.579  1.00  0.00     0.015 C 
ATOM      9  C   UNL     1      21.327  43.848  12.023  1.00  0.00    -0.035 C 
ATOM     10  C   UNL     1      18.571  40.171  10.332  1.00  0.00    -0.006 C 
ATOM     11  C   UNL     1      18.541  42.283   9.065  1.00  0.00    -0.027 C 
ATOM     12  C   UNL     1      22.185  45.125  11.893  1.00  0.00     0.011 C 
ATOM     13  C   UNL     1      20.092  44.224  12.888  1.00  0.00     0.011 C 
ATOM     14  C   UNL     1      18.625  39.237   9.061  1.00  0.00     0.017 C 
ATOM     15  C   UNL     1      17.068  40.532  10.789  1.00  0.00    -0.020 C 
ATOM     16  C   UNL     1      17.048  42.178   8.789  1.00  0.00     0.032 C 
ATOM     17  C   UNL     1      16.277  41.013   9.518  1.00  0.00     0.006 C 
ATOM     18  C   UNL     1      16.344  39.291  11.377  1.00  0.00     0.008 C 
ATOM     19  C   UNL     1      17.112  41.663  11.883  1.00  0.00     0.012 C 
ATOM     20  C   UNL     1      14.685  41.178   9.617  1.00  0.00    -0.025 C 
ATOM     21  C   UNL     1      14.840  39.499  11.605  1.00  0.00     0.005 C 
ATOM     22  C   UNL     1      14.041  39.902  10.328  1.00  0.00     0.003 C 
ATOM     23  C   UNL     1      14.252  42.482  10.364  1.00  0.00     0.010 C 
ATOM     24  C   UNL     1      14.170  41.263   8.137  1.00  0.00     0.012 C 
ATOM     25  C   UNL     1      12.471  40.026  10.637  1.00  0.00    -0.006 C 
ATOM     26  C   UNL     1      12.738  42.609  10.600  1.00  0.00     0.033 C 
ATOM     27  C   UNL     1      12.173  41.390  11.349  1.00  0.00     0.120 C 
ATOM     28  C   UNL     1      11.994  38.884  11.581  1.00  0.00     0.014 C 
ATOM     29  C   UNL     1      11.623  39.861   9.335  1.00  0.00     0.014 C 
ENDROOT
BRANCH   1  30
ATOM     30  C   UNL     1      22.958  40.695  10.772  1.00  0.00     0.048 C 
ATOM     31  O   UNL     1      23.853  41.441  11.265  1.00  0.00    -0.550 OA
ATOM     32  O   UNL     1      23.313  39.810   9.755  1.00  0.00    -0.550 OA
ENDBRANCH   1  30
BRANCH  27  33
ATOM     33  O   UNL     1      10.808  41.563  11.641  1.00  0.00    -0.393 OA
ATOM     34  H   UNL     1      10.714  42.346  12.238  1.00  0.00     0.210 HD
ENDBRANCH  27  33
TORSDOF 2
ENDMDL
MODEL 3
REMARK VINA RESULT:   149.234      3.524      6.471
REMARK INTER + INTRA:         162.515
REMARK INTER:                 162.015
REMARK INTRA:                   0.500
REMARK UNBOUND:                 0.195
REMARK SMILES CC1(C)CC[C@@]2(C(=O)[O-])CC[C@]3(C)C(=CC[C@@H]4[C@]5(C)CC[C@@H](O)C(C)(C)[C@@H]5CC[C@]43C)[C@H]2C1
REMARK SMILES IDX 6 1 5 2 10 3 32 4 4 5 11 6 14 7 33 8 2 9 12 10 15 11 1 12
REMARK SMILES IDX 3 13 13 14 30 15 16 16 17 17 29 18 31 19 18 20 28 21 27 22
REMARK SMILES IDX 20 23 19 24 24 25 21 26 22 27 25 28 26 29 7 30 8 31 9 32
REMARK SMILES IDX 23 33
REMARK H PARENT 23 34
REMARK Flexibility Score: inf
ROOT
ATOM      1  C   UNL     1      22.561  43.097   3.373  1.00  0.00     0.017 C 
ATOM      2  C   UNL     1      21.457  44.129   3.014  1.00  0.00     0.014 C 
ATOM      3  C   UNL     1      23.489  43.729   4.436  1.00  0.00     0.014 C 
ATOM      4  C   UNL     1      21.926  41.726   3.863  1.00  0.00     0.028 C 
ATOM      5  C   UNL     1      20.519  43.599   1.933  1.00  0.00     0.007 C 
ATOM      6  C   UNL     1      22.853  43.814   5.832  1.00  0.00     0.013 C 
ATOM      7  C   UNL     1      21.842  41.501   5.401  1.00  0.00    -0.064 C 
ATOM      8  C   UNL     1      20.588  41.308   3.125  1.00  0.00     0.015 C 
ATOM      9  C   UNL     1      19.699  42.395   2.413  1.00  0.00    -0.035 C 
ATOM     10  C   UNL     1      22.489  42.424   6.436  1.00  0.00    -0.006 C 
ATOM     11  C   UNL     1      21.345  40.318   5.867  1.00  0.00    -0.027 C 
ATOM     12  C   UNL     1      19.026  41.746   1.184  1.00  0.00     0.011 C 
ATOM     13  C   UNL     1      18.556  42.891   3.340  1.00  0.00     0.011 C 
ATOM     14  C   UNL     1      23.854  41.746   6.846  1.00  0.00     0.017 C 
ATOM     15  C   UNL     1      21.450  42.548   7.663  1.00  0.00    -0.020 C 
ATOM     16  C   UNL     1      21.028  40.015   7.324  1.00  0.00     0.032 C 
ATOM     17  C   UNL     1      21.365  41.146   8.369  1.00  0.00     0.006 C 
ATOM     18  C   UNL     1      21.931  43.593   8.705  1.00  0.00     0.008 C 
ATOM     19  C   UNL     1      20.042  42.986   7.113  1.00  0.00     0.012 C 
ATOM     20  C   UNL     1      20.619  41.040   9.785  1.00  0.00    -0.025 C 
ATOM     21  C   UNL     1      21.121  43.587  10.010  1.00  0.00     0.005 C 
ATOM     22  C   UNL     1      21.099  42.215  10.751  1.00  0.00     0.003 C 
ATOM     23  C   UNL     1      19.060  41.055   9.656  1.00  0.00     0.010 C 
ATOM     24  C   UNL     1      21.049  39.658  10.393  1.00  0.00     0.012 C 
ATOM     25  C   UNL     1      20.298  42.315  12.138  1.00  0.00    -0.006 C 
ATOM     26  C   UNL     1      18.310  41.094  10.998  1.00  0.00     0.033 C 
ATOM     27  C   UNL     1      18.754  42.282  11.867  1.00  0.00     0.120 C 
ATOM     28  C   UNL     1      20.621  43.645  12.878  1.00  0.00     0.014 C 
ATOM     29  C   UNL     1      20.732  41.183  13.125  1.00  0.00     0.014 C 
ENDROOT
BRANCH   1  30
ATOM     30  C   UNL     1      23.419  42.887   2.119  1.00  0.00     0.048 C 
ATOM     31  O   UNL     1      24.680  42.850   2.222  1.00  0.00    -0.550 OA
ATOM     32  O   UNL     1      22.852  42.840   0.847  1.00  0.00    -0.550 OA
ENDBRANCH   1  30
BRANCH  27  33
ATOM     33  O   UNL     1      17.994  42.359  13.047  1.00  0.00    -0.393 OA
ATOM     34  H   UNL     1      18.576  42.697  13.771  1.00  0.00     0.210 HD
ENDBRANCH  27  33
TORSDOF 2
ENDMDL
