MODEL 1
REMARK VINA RESULT:    59.754      0.000      0.000
REMARK INTER + INTRA:          92.330
REMARK INTER:                  87.699
REMARK INTRA:                   4.631
REMARK UNBOUND:                 4.631
REMARK SMILES O=c1c(O[C@H]2O[C@H](CO)[C@H](O)[C@H](O)[C@H]2O)c(-c2ccc(O)c(O)c2)oc2cc(O)cc(O)c12
REMARK SMILES IDX 4 1 3 2 16 3 25 4 2 5 26 6 1 7 33 8 27 9 31 10 28 11 30 12
REMARK SMILES IDX 17 13 18 14 19 15 20 16 24 17 22 18 21 19 23 21 32 23 29 25
REMARK SMILES IDX 5 27 14 28 6 29 12 30 7 31 10 32 15 33 13 35 8 37 9 38 11 40
REMARK H PARENT 21 20 23 22 32 24 29 26 15 34 13 36 9 39 11 41
REMARK Flexibility Score: inf
ROOT
ATOM      1  O   UNL     1      -4.636  -1.529   3.296  1.00  0.00    -0.454 OA
ENDROOT
BRANCH   1   2
ATOM      2  C   UNL     1      -5.039  -0.184   3.261  1.00  0.00     0.214 A 
ATOM      3  C   UNL     1      -4.046   0.815   3.230  1.00  0.00     0.180 A 
ATOM      4  O   UNL     1      -4.386   2.097   3.327  1.00  0.00    -0.452 OA
ATOM      5  C   UNL     1      -6.391   0.213   3.285  1.00  0.00     0.239 A 
ATOM      6  C   UNL     1      -5.643   2.512   3.405  1.00  0.00     0.146 A 
ATOM      7  O   UNL     1      -7.304  -0.653   3.215  1.00  0.00    -0.285 OA
ATOM      8  C   UNL     1      -6.711   1.585   3.371  1.00  0.00     0.111 A 
ATOM      9  C   UNL     1      -5.901   3.882   3.512  1.00  0.00     0.094 A 
ATOM     10  C   UNL     1      -8.041   2.065   3.419  1.00  0.00     0.134 A 
ATOM     11  C   UNL     1      -7.214   4.351   3.567  1.00  0.00     0.123 A 
ATOM     12  C   UNL     1      -8.279   3.444   3.518  1.00  0.00     0.093 A 
BRANCH   3  13
ATOM     13  C   UNL     1      -2.611   0.470   3.133  1.00  0.00     0.025 A 
ATOM     14  C   UNL     1      -1.970  -0.147   4.220  1.00  0.00     0.016 A 
ATOM     15  C   UNL     1      -0.618  -0.491   4.140  1.00  0.00     0.051 A 
ATOM     16  C   UNL     1       0.118  -0.208   2.980  1.00  0.00     0.157 A 
ATOM     17  C   UNL     1      -1.864   0.775   1.980  1.00  0.00     0.062 A 
ATOM     18  C   UNL     1      -0.509   0.434   1.898  1.00  0.00     0.158 A 
BRANCH  16  19
ATOM     19  O   UNL     1       1.464  -0.563   2.899  1.00  0.00    -0.504 OA
ATOM     20  H   UNL     1       2.041  -0.651   3.728  1.00  0.00     0.293 HD
ENDBRANCH  16  19
BRANCH  18  21
ATOM     21  O   UNL     1       0.197   0.746   0.737  1.00  0.00    -0.504 OA
ATOM     22  H   UNL     1       0.719   0.047   0.220  1.00  0.00     0.293 HD
ENDBRANCH  18  21
ENDBRANCH   3  13
BRANCH  10  23
ATOM     23  O   UNL     1      -9.125   1.188   3.371  1.00  0.00    -0.507 OA
ATOM     24  H   UNL     1     -10.077   1.522   3.294  1.00  0.00     0.293 HD
ENDBRANCH  10  23
BRANCH  11  25
ATOM     25  O   UNL     1      -7.449   5.720   3.670  1.00  0.00    -0.508 OA
ATOM     26  H   UNL     1      -6.856   6.395   3.202  1.00  0.00     0.293 HD
ENDBRANCH  11  25
ENDBRANCH   1   2
BRANCH   1  27
ATOM     27  C   UNL     1      -4.845  -2.490   2.258  1.00  0.00     0.339 C 
ATOM     28  C   UNL     1      -3.701  -2.416   1.230  1.00  0.00     0.214 C 
ATOM     29  O   UNL     1      -6.116  -2.318   1.644  1.00  0.00    -0.332 OA
ATOM     30  C   UNL     1      -3.775  -1.096   0.443  1.00  0.00     0.180 C 
ATOM     31  C   UNL     1      -6.226  -1.047   1.020  1.00  0.00     0.179 C 
ATOM     32  C   UNL     1      -5.189  -0.905  -0.122  1.00  0.00     0.177 C 
BRANCH  28  33
ATOM     33  O   UNL     1      -2.472  -2.516   1.902  1.00  0.00    -0.384 OA
ATOM     34  H   UNL     1      -2.253  -1.608   2.239  1.00  0.00     0.211 HD
ENDBRANCH  28  33
BRANCH  30  35
ATOM     35  O   UNL     1      -2.851  -1.104  -0.620  1.00  0.00    -0.387 OA
ATOM     36  H   UNL     1      -2.000  -0.741  -0.260  1.00  0.00     0.211 HD
ENDBRANCH  30  35
BRANCH  31  37
ATOM     37  C   UNL     1      -7.656  -0.891   0.488  1.00  0.00     0.191 C 
BRANCH  37  38
ATOM     38  O   UNL     1      -7.646  -0.413  -0.831  1.00  0.00    -0.394 OA
ATOM     39  H   UNL     1      -7.422   0.554  -0.783  1.00  0.00     0.210 HD
ENDBRANCH  37  38
ENDBRANCH  31  37
BRANCH  32  40
ATOM     40  O   UNL     1      -5.429  -1.864  -1.124  1.00  0.00    -0.387 OA
ATOM     41  H   UNL     1      -5.735  -1.377  -1.933  1.00  0.00     0.211 HD
ENDBRANCH  32  40
ENDBRANCH   1  27
TORSDOF 12
ENDMDL
MODEL 2
REMARK VINA RESULT:    62.627      1.896      3.198
REMARK INTER + INTRA:          96.547
REMARK INTER:                  91.096
REMARK INTRA:                   5.451
REMARK UNBOUND:                 4.631
REMARK SMILES O=c1c(O[C@H]2O[C@H](CO)[C@H](O)[C@H](O)[C@H]2O)c(-c2ccc(O)c(O)c2)oc2cc(O)cc(O)c12
REMARK SMILES IDX 4 1 3 2 16 3 25 4 2 5 26 6 1 7 33 8 27 9 31 10 28 11 30 12
REMARK SMILES IDX 17 13 18 14 19 15 20 16 24 17 22 18 21 19 23 21 32 23 29 25
REMARK SMILES IDX 5 27 14 28 6 29 12 30 7 31 10 32 15 33 13 35 8 37 9 38 11 40
REMARK H PARENT 21 20 23 22 32 24 29 26 15 34 13 36 9 39 11 41
REMARK Flexibility Score: inf
ROOT
ATOM      1  O   UNL     1      -2.606  -0.494   1.138  1.00  0.00    -0.454 OA
ENDROOT
BRANCH   1   2
ATOM      2  C   UNL     1      -2.861   0.187   2.340  1.00  0.00     0.214 A 
ATOM      3  C   UNL     1      -1.817   0.310   3.277  1.00  0.00     0.180 A 
ATOM      4  O   UNL     1      -2.054   0.832   4.477  1.00  0.00    -0.452 OA
ATOM      5  C   UNL     1      -4.122   0.727   2.663  1.00  0.00     0.239 A 
ATOM      6  C   UNL     1      -3.238   1.304   4.842  1.00  0.00     0.146 A 
ATOM      7  O   UNL     1      -5.049   0.721   1.809  1.00  0.00    -0.285 OA
ATOM      8  C   UNL     1      -4.329   1.289   3.942  1.00  0.00     0.111 A 
ATOM      9  C   UNL     1      -3.393   1.828   6.129  1.00  0.00     0.094 A 
ATOM     10  C   UNL     1      -5.569   1.835   4.352  1.00  0.00     0.134 A 
ATOM     11  C   UNL     1      -4.619   2.358   6.533  1.00  0.00     0.123 A 
ATOM     12  C   UNL     1      -5.701   2.363   5.644  1.00  0.00     0.093 A 
BRANCH   3  13
ATOM     13  C   UNL     1      -0.451  -0.172   2.975  1.00  0.00     0.025 A 
ATOM     14  C   UNL     1       0.325  -0.744   3.996  1.00  0.00     0.016 A 
ATOM     15  C   UNL     1       1.613  -1.217   3.724  1.00  0.00     0.051 A 
ATOM     16  C   UNL     1       2.149  -1.107   2.433  1.00  0.00     0.157 A 
ATOM     17  C   UNL     1       0.100  -0.042   1.687  1.00  0.00     0.062 A 
ATOM     18  C   UNL     1       1.390  -0.510   1.412  1.00  0.00     0.158 A 
BRANCH  16  19
ATOM     19  O   UNL     1       3.430  -1.589   2.163  1.00  0.00    -0.504 OA
ATOM     20  H   UNL     1       4.257  -1.137   2.535  1.00  0.00     0.293 HD
ENDBRANCH  16  19
BRANCH  18  21
ATOM     21  O   UNL     1       1.899  -0.370   0.122  1.00  0.00    -0.504 OA
ATOM     22  H   UNL     1       1.514   0.294  -0.541  1.00  0.00     0.293 HD
ENDBRANCH  18  21
ENDBRANCH   3  13
BRANCH  10  23
ATOM     23  O   UNL     1      -6.666   1.856   3.490  1.00  0.00    -0.507 OA
ATOM     24  H   UNL     1      -7.437   2.496   3.628  1.00  0.00     0.293 HD
ENDBRANCH  10  23
BRANCH  11  25
ATOM     25  O   UNL     1      -4.751   2.879   7.818  1.00  0.00    -0.508 OA
ATOM     26  H   UNL     1      -5.469   3.556   8.043  1.00  0.00     0.293 HD
ENDBRANCH  11  25
ENDBRANCH   1   2
BRANCH   1  27
ATOM     27  C   UNL     1      -3.154  -1.761   0.765  1.00  0.00     0.339 C 
ATOM     28  C   UNL     1      -4.442  -1.560  -0.053  1.00  0.00     0.214 C 
ATOM     29  O   UNL     1      -3.376  -2.583   1.904  1.00  0.00    -0.332 OA
ATOM     30  C   UNL     1      -5.561  -0.997   0.841  1.00  0.00     0.180 C 
ATOM     31  C   UNL     1      -4.321  -2.001   2.790  1.00  0.00     0.179 C 
ATOM     32  C   UNL     1      -5.702  -1.858   2.104  1.00  0.00     0.177 C 
BRANCH  28  33
ATOM     33  O   UNL     1      -4.180  -0.683  -1.118  1.00  0.00    -0.384 OA
ATOM     34  H   UNL     1      -3.944  -1.244  -1.902  1.00  0.00     0.211 HD
ENDBRANCH  28  33
BRANCH  30  35
ATOM     35  O   UNL     1      -6.787  -0.987   0.150  1.00  0.00    -0.387 OA
ATOM     36  H   UNL     1      -7.155  -0.069   0.236  1.00  0.00     0.211 HD
ENDBRANCH  30  35
BRANCH  31  37
ATOM     37  C   UNL     1      -4.417  -2.881   4.042  1.00  0.00     0.191 C 
BRANCH  37  38
ATOM     38  O   UNL     1      -5.655  -2.707   4.678  1.00  0.00    -0.394 OA
ATOM     39  H   UNL     1      -6.353  -2.971   4.022  1.00  0.00     0.210 HD
ENDBRANCH  37  38
ENDBRANCH  31  37
BRANCH  32  40
ATOM     40  O   UNL     1      -6.209  -3.125   1.755  1.00  0.00    -0.387 OA
ATOM     41  H   UNL     1      -5.615  -3.805   2.168  1.00  0.00     0.211 HD
ENDBRANCH  32  40
ENDBRANCH   1  27
TORSDOF 12
ENDMDL
