MODEL 1
REMARK VINA RESULT:    -2.791      0.000      0.000
REMARK INTER + INTRA:          -7.103
REMARK INTER:                  -7.034
REMARK INTRA:                  -0.069
REMARK UNBOUND:                -0.069
REMARK SMILES CCCCCCCCCCCCCCCCCCCCCCCCCCCC(=O)[O-]
REMARK SMILES IDX 15 1 16 2 17 3 18 4 19 5 20 6 21 7 22 8 23 9 24 10 25 11
REMARK SMILES IDX 26 12 27 13 28 14 29 15 30 16 14 17 13 18 12 19 11 20 10 21
REMARK SMILES IDX 9 22 8 23 7 24 6 25 5 26 4 27 3 28 2 29 1 30
REMARK H PARENT
REMARK Flexibility Score: inf
ROOT
ATOM      1  C   UNL     1      11.271  -7.539   5.458  1.00  0.00     0.000 C 
ENDROOT
BRANCH   1   2
ATOM      2  C   UNL     1      12.279  -8.640   5.814  1.00  0.00     0.000 C 
BRANCH   2   3
ATOM      3  C   UNL     1      12.703  -9.426   4.568  1.00  0.00     0.000 C 
BRANCH   3   4
ATOM      4  C   UNL     1      14.070  -8.949   4.054  1.00  0.00     0.000 C 
BRANCH   4   5
ATOM      5  C   UNL     1      15.235  -9.777   4.617  1.00  0.00     0.000 C 
BRANCH   5   6
ATOM      6  C   UNL     1      16.558  -9.520   3.875  1.00  0.00     0.000 C 
BRANCH   6   7
ATOM      7  C   UNL     1      17.037  -8.065   4.014  1.00  0.00     0.000 C 
BRANCH   7   8
ATOM      8  C   UNL     1      18.524  -7.969   4.399  1.00  0.00     0.000 C 
BRANCH   8   9
ATOM      9  C   UNL     1      19.273  -9.293   4.191  1.00  0.00     0.000 C 
BRANCH   9  10
ATOM     10  C   UNL     1      19.747  -9.919   5.514  1.00  0.00     0.000 C 
BRANCH  10  11
ATOM     11  C   UNL     1      20.296  -8.877   6.505  1.00  0.00     0.000 C 
BRANCH  11  12
ATOM     12  C   UNL     1      19.517  -8.773   7.829  1.00  0.00     0.006 C 
BRANCH  12  13
ATOM     13  C   UNL     1      19.077  -7.339   8.151  1.00  0.00     0.053 C 
BRANCH  13  14
ATOM     14  C   UNL     1      17.591  -7.210   8.032  1.00  0.00     0.041 C 
ATOM     15  O   UNL     1      16.944  -6.533   8.873  1.00  0.00    -0.550 OA
ATOM     16  O   UNL     1      16.915  -7.880   7.020  1.00  0.00    -0.550 OA
ENDBRANCH  13  14
ENDBRANCH  12  13
ENDBRANCH  11  12
ENDBRANCH  10  11
ENDBRANCH   9  10
ENDBRANCH   8   9
ENDBRANCH   7   8
ENDBRANCH   6   7
ENDBRANCH   5   6
ENDBRANCH   4   5
ENDBRANCH   3   4
ENDBRANCH   2   3
ENDBRANCH   1   2
BRANCH   1  17
ATOM     17  C   UNL     1      10.285  -8.023   4.388  1.00  0.00     0.000 C 
BRANCH  17  18
ATOM     18  C   UNL     1      10.082  -9.544   4.471  1.00  0.00     0.000 C 
BRANCH  18  19
ATOM     19  C   UNL     1       8.601  -9.949   4.310  1.00  0.00     0.000 C 
BRANCH  19  20
ATOM     20  C   UNL     1       7.801  -9.917   5.624  1.00  0.00     0.000 C 
BRANCH  20  21
ATOM     21  C   UNL     1       8.635  -9.437   6.823  1.00  0.00     0.000 C 
BRANCH  21  22
ATOM     22  C   UNL     1       7.844  -8.508   7.757  1.00  0.00    -0.000 C 
BRANCH  22  23
ATOM     23  C   UNL     1       6.645  -7.844   7.055  1.00  0.00    -0.000 C 
BRANCH  23  24
ATOM     24  C   UNL     1       7.070  -6.930   5.894  1.00  0.00    -0.000 C 
BRANCH  24  25
ATOM     25  C   UNL     1       6.179  -7.101   4.652  1.00  0.00    -0.000 C 
BRANCH  25  26
ATOM     26  C   UNL     1       4.917  -7.929   4.938  1.00  0.00    -0.000 C 
BRANCH  26  27
ATOM     27  C   UNL     1       3.809  -7.706   3.893  1.00  0.00    -0.000 C 
BRANCH  27  28
ATOM     28  C   UNL     1       3.007  -6.414   4.161  1.00  0.00    -0.000 C 
BRANCH  28  29
ATOM     29  C   UNL     1       3.882  -5.230   4.607  1.00  0.00    -0.003 C 
ATOM     30  C   UNL     1       3.202  -3.877   4.413  1.00  0.00     0.004 C 
ENDBRANCH  28  29
ENDBRANCH  27  28
ENDBRANCH  26  27
ENDBRANCH  25  26
ENDBRANCH  24  25
ENDBRANCH  23  24
ENDBRANCH  22  23
ENDBRANCH  21  22
ENDBRANCH  20  21
ENDBRANCH  19  20
ENDBRANCH  18  19
ENDBRANCH  17  18
ENDBRANCH   1  17
TORSDOF 26
ENDMDL
MODEL 2
REMARK VINA RESULT:    -1.827      3.567     11.687
REMARK INTER + INTRA:          -4.674
REMARK INTER:                  -1.898
REMARK INTRA:                  -2.776
REMARK UNBOUND:                -0.069
REMARK SMILES CCCCCCCCCCCCCCCCCCCCCCCCCCCC(=O)[O-]
REMARK SMILES IDX 15 1 16 2 17 3 18 4 19 5 20 6 21 7 22 8 23 9 24 10 25 11
REMARK SMILES IDX 26 12 27 13 28 14 29 15 30 16 14 17 13 18 12 19 11 20 10 21
REMARK SMILES IDX 9 22 8 23 7 24 6 25 5 26 4 27 3 28 2 29 1 30
REMARK H PARENT
REMARK Flexibility Score: inf
ROOT
ATOM      1  C   UNL     1      17.063  -6.658   8.003  1.00  0.00     0.000 C 
ENDROOT
BRANCH   1   2
ATOM      2  C   UNL     1      16.272  -7.389   6.910  1.00  0.00     0.000 C 
BRANCH   2   3
ATOM      3  C   UNL     1      16.165  -6.537   5.640  1.00  0.00     0.000 C 
BRANCH   3   4
ATOM      4  C   UNL     1      15.220  -7.188   4.618  1.00  0.00     0.000 C 
BRANCH   4   5
ATOM      5  C   UNL     1      14.546  -8.457   5.162  1.00  0.00     0.000 C 
BRANCH   5   6
ATOM      6  C   UNL     1      14.487  -9.589   4.121  1.00  0.00     0.000 C 
BRANCH   6   7
ATOM      7  C   UNL     1      13.057 -10.112   3.900  1.00  0.00     0.000 C 
BRANCH   7   8
ATOM      8  C   UNL     1      12.011  -8.984   3.904  1.00  0.00     0.000 C 
BRANCH   8   9
ATOM      9  C   UNL     1      11.048  -9.078   5.097  1.00  0.00     0.000 C 
BRANCH   9  10
ATOM     10  C   UNL     1      10.057  -7.902   5.150  1.00  0.00     0.000 C 
BRANCH  10  11
ATOM     11  C   UNL     1       9.044  -8.024   6.302  1.00  0.00     0.000 C 
BRANCH  11  12
ATOM     12  C   UNL     1       7.651  -8.532   5.886  1.00  0.00     0.006 C 
BRANCH  12  13
ATOM     13  C   UNL     1       6.530  -7.539   6.217  1.00  0.00     0.053 C 
BRANCH  13  14
ATOM     14  C   UNL     1       5.609  -7.383   5.048  1.00  0.00     0.041 C 
ATOM     15  O   UNL     1       5.566  -8.269   4.154  1.00  0.00    -0.550 OA
ATOM     16  O   UNL     1       4.836  -6.237   4.920  1.00  0.00    -0.550 OA
ENDBRANCH  13  14
ENDBRANCH  12  13
ENDBRANCH  11  12
ENDBRANCH  10  11
ENDBRANCH   9  10
ENDBRANCH   8   9
ENDBRANCH   7   8
ENDBRANCH   6   7
ENDBRANCH   5   6
ENDBRANCH   4   5
ENDBRANCH   3   4
ENDBRANCH   2   3
ENDBRANCH   1   2
BRANCH   1  17
ATOM     17  C   UNL     1      18.095  -7.589   8.649  1.00  0.00     0.000 C 
BRANCH  17  18
ATOM     18  C   UNL     1      19.528  -7.126   8.338  1.00  0.00     0.000 C 
BRANCH  18  19
ATOM     19  C   UNL     1      19.767  -5.652   8.726  1.00  0.00     0.000 C 
BRANCH  19  20
ATOM     20  C   UNL     1      20.179  -4.757   7.545  1.00  0.00     0.000 C 
BRANCH  20  21
ATOM     21  C   UNL     1      21.239  -5.406   6.640  1.00  0.00     0.000 C 
BRANCH  21  22
ATOM     22  C   UNL     1      20.865  -5.339   5.152  1.00  0.00    -0.000 C 
BRANCH  22  23
ATOM     23  C   UNL     1      19.691  -6.268   4.794  1.00  0.00    -0.000 C 
BRANCH  23  24
ATOM     24  C   UNL     1      20.113  -7.431   3.879  1.00  0.00    -0.000 C 
BRANCH  24  25
ATOM     25  C   UNL     1      21.612  -7.757   3.993  1.00  0.00    -0.000 C 
BRANCH  25  26
ATOM     26  C   UNL     1      21.899  -9.264   3.904  1.00  0.00    -0.000 C 
BRANCH  26  27
ATOM     27  C   UNL     1      20.669 -10.125   4.243  1.00  0.00    -0.000 C 
BRANCH  27  28
ATOM     28  C   UNL     1      20.267 -10.006   5.729  1.00  0.00    -0.000 C 
BRANCH  28  29
ATOM     29  C   UNL     1      18.755  -9.824   5.943  1.00  0.00    -0.003 C 
ATOM     30  C   UNL     1      17.956  -9.869   4.642  1.00  0.00     0.004 C 
ENDBRANCH  28  29
ENDBRANCH  27  28
ENDBRANCH  26  27
ENDBRANCH  25  26
ENDBRANCH  24  25
ENDBRANCH  23  24
ENDBRANCH  22  23
ENDBRANCH  21  22
ENDBRANCH  20  21
ENDBRANCH  19  20
ENDBRANCH  18  19
ENDBRANCH  17  18
ENDBRANCH   1  17
TORSDOF 26
ENDMDL
MODEL 3
REMARK VINA RESULT:    -1.336      1.877      4.352
REMARK INTER + INTRA:          -3.435
REMARK INTER:                  -2.214
REMARK INTRA:                  -1.221
REMARK UNBOUND:                -0.069
REMARK SMILES CCCCCCCCCCCCCCCCCCCCCCCCCCCC(=O)[O-]
REMARK SMILES IDX 15 1 16 2 17 3 18 4 19 5 20 6 21 7 22 8 23 9 24 10 25 11
REMARK SMILES IDX 26 12 27 13 28 14 29 15 30 16 14 17 13 18 12 19 11 20 10 21
REMARK SMILES IDX 9 22 8 23 7 24 6 25 5 26 4 27 3 28 2 29 1 30
REMARK H PARENT
REMARK Flexibility Score: inf
ROOT
ATOM      1  C   UNL     1      17.287  -7.284   5.042  1.00  0.00     0.000 C 
ENDROOT
BRANCH   1   2
ATOM      2  C   UNL     1      17.553  -8.767   4.754  1.00  0.00     0.000 C 
BRANCH   2   3
ATOM      3  C   UNL     1      18.797  -8.946   3.875  1.00  0.00     0.000 C 
BRANCH   3   4
ATOM      4  C   UNL     1      19.839  -9.834   4.571  1.00  0.00     0.000 C 
BRANCH   4   5
ATOM      5  C   UNL     1      21.211  -9.786   3.880  1.00  0.00     0.000 C 
BRANCH   5   6
ATOM      6  C   UNL     1      21.828  -8.376   3.884  1.00  0.00     0.000 C 
BRANCH   6   7
ATOM      7  C   UNL     1      22.370  -7.974   5.266  1.00  0.00     0.000 C 
BRANCH   7   8
ATOM      8  C   UNL     1      21.262  -7.482   6.213  1.00  0.00     0.000 C 
BRANCH   8   9
ATOM      9  C   UNL     1      20.838  -6.035   5.922  1.00  0.00     0.000 C 
BRANCH   9  10
ATOM     10  C   UNL     1      20.608  -5.217   7.205  1.00  0.00     0.000 C 
BRANCH  10  11
ATOM     11  C   UNL     1      19.422  -5.735   8.040  1.00  0.00     0.000 C 
BRANCH  11  12
ATOM     12  C   UNL     1      19.255  -7.265   8.045  1.00  0.00     0.006 C 
BRANCH  12  13
ATOM     13  C   UNL     1      19.677  -7.907   9.372  1.00  0.00     0.053 C 
BRANCH  13  14
ATOM     14  C   UNL     1      19.653  -9.400   9.260  1.00  0.00     0.041 C 
ATOM     15  O   UNL     1      19.681 -10.113  10.297  1.00  0.00    -0.550 OA
ATOM     16  O   UNL     1      19.653 -10.002   8.009  1.00  0.00    -0.550 OA
ENDBRANCH  13  14
ENDBRANCH  12  13
ENDBRANCH  11  12
ENDBRANCH  10  11
ENDBRANCH   9  10
ENDBRANCH   8   9
ENDBRANCH   7   8
ENDBRANCH   6   7
ENDBRANCH   5   6
ENDBRANCH   4   5
ENDBRANCH   3   4
ENDBRANCH   2   3
ENDBRANCH   1   2
BRANCH   1  17
ATOM     17  C   UNL     1      15.851  -7.069   5.536  1.00  0.00     0.000 C 
BRANCH  17  18
ATOM     18  C   UNL     1      14.860  -7.939   4.747  1.00  0.00     0.000 C 
BRANCH  18  19
ATOM     19  C   UNL     1      13.403  -7.741   5.214  1.00  0.00     0.000 C 
BRANCH  19  20
ATOM     20  C   UNL     1      12.736  -9.026   5.733  1.00  0.00     0.000 C 
BRANCH  20  21
ATOM     21  C   UNL     1      12.080  -9.856   4.618  1.00  0.00     0.000 C 
BRANCH  21  22
ATOM     22  C   UNL     1      10.856  -9.157   4.006  1.00  0.00    -0.000 C 
BRANCH  22  23
ATOM     23  C   UNL     1       9.731  -8.929   5.032  1.00  0.00    -0.000 C 
BRANCH  23  24
ATOM     24  C   UNL     1       8.332  -8.956   4.394  1.00  0.00    -0.000 C 
BRANCH  24  25
ATOM     25  C   UNL     1       7.293  -9.664   5.279  1.00  0.00    -0.000 C 
BRANCH  25  26
ATOM     26  C   UNL     1       6.086  -8.772   5.605  1.00  0.00    -0.000 C 
BRANCH  26  27
ATOM     27  C   UNL     1       6.483  -7.311   5.884  1.00  0.00    -0.000 C 
BRANCH  27  28
ATOM     28  C   UNL     1       5.373  -6.319   5.475  1.00  0.00    -0.000 C 
BRANCH  28  29
ATOM     29  C   UNL     1       4.737  -6.638   4.111  1.00  0.00    -0.003 C 
ATOM     30  C   UNL     1       3.308  -7.163   4.226  1.00  0.00     0.004 C 
ENDBRANCH  28  29
ENDBRANCH  27  28
ENDBRANCH  26  27
ENDBRANCH  25  26
ENDBRANCH  24  25
ENDBRANCH  23  24
ENDBRANCH  22  23
ENDBRANCH  21  22
ENDBRANCH  20  21
ENDBRANCH  19  20
ENDBRANCH  18  19
ENDBRANCH  17  18
ENDBRANCH   1  17
TORSDOF 26
ENDMDL
MODEL 4
REMARK VINA RESULT:    -1.301      2.481      4.339
REMARK INTER + INTRA:          -3.348
REMARK INTER:                  -2.589
REMARK INTRA:                  -0.758
REMARK UNBOUND:                -0.069
REMARK SMILES CCCCCCCCCCCCCCCCCCCCCCCCCCCC(=O)[O-]
REMARK SMILES IDX 15 1 16 2 17 3 18 4 19 5 20 6 21 7 22 8 23 9 24 10 25 11
REMARK SMILES IDX 26 12 27 13 28 14 29 15 30 16 14 17 13 18 12 19 11 20 10 21
REMARK SMILES IDX 9 22 8 23 7 24 6 25 5 26 4 27 3 28 2 29 1 30
REMARK H PARENT
REMARK Flexibility Score: inf
ROOT
ATOM      1  C   UNL     1      14.844  -7.493   7.786  1.00  0.00     0.000 C 
ENDROOT
BRANCH   1   2
ATOM      2  C   UNL     1      15.544  -7.187   6.455  1.00  0.00     0.000 C 
BRANCH   2   3
ATOM      3  C   UNL     1      16.919  -7.862   6.385  1.00  0.00     0.000 C 
BRANCH   3   4
ATOM      4  C   UNL     1      17.683  -7.694   7.707  1.00  0.00     0.000 C 
BRANCH   4   5
ATOM      5  C   UNL     1      19.086  -7.100   7.506  1.00  0.00     0.000 C 
BRANCH   5   6
ATOM      6  C   UNL     1      20.161  -8.179   7.289  1.00  0.00     0.000 C 
BRANCH   6   7
ATOM      7  C   UNL     1      19.575  -9.494   6.747  1.00  0.00     0.000 C 
BRANCH   7   8
ATOM      8  C   UNL     1      20.455 -10.125   5.655  1.00  0.00     0.000 C 
BRANCH   8   9
ATOM      9  C   UNL     1      20.952  -9.094   4.630  1.00  0.00     0.000 C 
BRANCH   9  10
ATOM     10  C   UNL     1      22.397  -8.642   4.900  1.00  0.00     0.000 C 
BRANCH  10  11
ATOM     11  C   UNL     1      22.902  -7.609   3.877  1.00  0.00     0.000 C 
BRANCH  11  12
ATOM     12  C   UNL     1      22.593  -6.143   4.233  1.00  0.00     0.006 C 
BRANCH  12  13
ATOM     13  C   UNL     1      21.165  -5.945   4.756  1.00  0.00     0.053 C 
BRANCH  13  14
ATOM     14  C   UNL     1      20.955  -4.523   5.174  1.00  0.00     0.041 C 
ATOM     15  O   UNL     1      20.756  -4.242   6.385  1.00  0.00    -0.550 OA
ATOM     16  O   UNL     1      20.930  -3.515   4.219  1.00  0.00    -0.550 OA
ENDBRANCH  13  14
ENDBRANCH  12  13
ENDBRANCH  11  12
ENDBRANCH  10  11
ENDBRANCH   9  10
ENDBRANCH   8   9
ENDBRANCH   7   8
ENDBRANCH   6   7
ENDBRANCH   5   6
ENDBRANCH   4   5
ENDBRANCH   3   4
ENDBRANCH   2   3
ENDBRANCH   1   2
BRANCH   1  17
ATOM     17  C   UNL     1      14.277  -8.918   7.792  1.00  0.00     0.000 C 
BRANCH  17  18
ATOM     18  C   UNL     1      12.898  -8.967   7.116  1.00  0.00     0.000 C 
BRANCH  18  19
ATOM     19  C   UNL     1      12.743  -7.895   6.017  1.00  0.00     0.000 C 
BRANCH  19  20
ATOM     20  C   UNL     1      12.666  -8.470   4.593  1.00  0.00     0.000 C 
BRANCH  20  21
ATOM     21  C   UNL     1      12.062  -9.883   4.547  1.00  0.00     0.000 C 
BRANCH  21  22
ATOM     22  C   UNL     1      10.653  -9.902   3.934  1.00  0.00    -0.000 C 
BRANCH  22  23
ATOM     23  C   UNL     1       9.962  -8.529   3.995  1.00  0.00    -0.000 C 
BRANCH  23  24
ATOM     24  C   UNL     1       8.523  -8.612   4.531  1.00  0.00    -0.000 C 
BRANCH  24  25
ATOM     25  C   UNL     1       8.461  -9.130   5.977  1.00  0.00    -0.000 C 
BRANCH  25  26
ATOM     26  C   UNL     1       7.695  -8.183   6.914  1.00  0.00    -0.000 C 
BRANCH  26  27
ATOM     27  C   UNL     1       6.562  -7.426   6.198  1.00  0.00    -0.000 C 
BRANCH  27  28
ATOM     28  C   UNL     1       5.478  -8.380   5.654  1.00  0.00    -0.000 C 
BRANCH  28  29
ATOM     29  C   UNL     1       4.809  -7.876   4.363  1.00  0.00    -0.003 C 
ATOM     30  C   UNL     1       4.951  -6.369   4.164  1.00  0.00     0.004 C 
ENDBRANCH  28  29
ENDBRANCH  27  28
ENDBRANCH  26  27
ENDBRANCH  25  26
ENDBRANCH  24  25
ENDBRANCH  23  24
ENDBRANCH  22  23
ENDBRANCH  21  22
ENDBRANCH  20  21
ENDBRANCH  19  20
ENDBRANCH  18  19
ENDBRANCH  17  18
ENDBRANCH   1  17
TORSDOF 26
ENDMDL
MODEL 5
REMARK VINA RESULT:    -1.038      4.281     12.232
REMARK INTER + INTRA:          -2.685
REMARK INTER:                  -1.970
REMARK INTRA:                  -0.715
REMARK UNBOUND:                -0.069
REMARK SMILES CCCCCCCCCCCCCCCCCCCCCCCCCCCC(=O)[O-]
REMARK SMILES IDX 15 1 16 2 17 3 18 4 19 5 20 6 21 7 22 8 23 9 24 10 25 11
REMARK SMILES IDX 26 12 27 13 28 14 29 15 30 16 14 17 13 18 12 19 11 20 10 21
REMARK SMILES IDX 9 22 8 23 7 24 6 25 5 26 4 27 3 28 2 29 1 30
REMARK H PARENT
REMARK Flexibility Score: inf
ROOT
ATOM      1  C   UNL     1      16.461  -6.665   6.457  1.00  0.00     0.000 C 
ENDROOT
BRANCH   1   2
ATOM      2  C   UNL     1      15.933  -6.759   5.020  1.00  0.00     0.000 C 
BRANCH   2   3
ATOM      3  C   UNL     1      14.536  -7.391   4.984  1.00  0.00     0.000 C 
BRANCH   3   4
ATOM      4  C   UNL     1      14.459  -8.610   5.915  1.00  0.00     0.000 C 
BRANCH   4   5
ATOM      5  C   UNL     1      13.062  -9.248   5.940  1.00  0.00     0.000 C 
BRANCH   5   6
ATOM      6  C   UNL     1      12.602  -9.722   4.549  1.00  0.00     0.000 C 
BRANCH   6   7
ATOM      7  C   UNL     1      11.297  -9.045   4.099  1.00  0.00     0.000 C 
BRANCH   7   8
ATOM      8  C   UNL     1      10.452  -8.548   5.285  1.00  0.00     0.000 C 
BRANCH   8   9
ATOM      9  C   UNL     1       8.999  -9.040   5.220  1.00  0.00     0.000 C 
BRANCH   9  10
ATOM     10  C   UNL     1       8.382  -9.244   6.614  1.00  0.00     0.000 C 
BRANCH  10  11
ATOM     11  C   UNL     1       7.001  -8.580   6.762  1.00  0.00     0.000 C 
BRANCH  11  12
ATOM     12  C   UNL     1       6.409  -8.024   5.454  1.00  0.00     0.006 C 
BRANCH  12  13
ATOM     13  C   UNL     1       5.575  -6.755   5.668  1.00  0.00     0.053 C 
BRANCH  13  14
ATOM     14  C   UNL     1       4.683  -6.512   4.491  1.00  0.00     0.041 C 
ATOM     15  O   UNL     1       4.529  -5.345   4.044  1.00  0.00    -0.550 OA
ATOM     16  O   UNL     1       3.984  -7.567   3.921  1.00  0.00    -0.550 OA
ENDBRANCH  13  14
ENDBRANCH  12  13
ENDBRANCH  11  12
ENDBRANCH  10  11
ENDBRANCH   9  10
ENDBRANCH   8   9
ENDBRANCH   7   8
ENDBRANCH   6   7
ENDBRANCH   5   6
ENDBRANCH   4   5
ENDBRANCH   3   4
ENDBRANCH   2   3
ENDBRANCH   1   2
BRANCH   1  17
ATOM     17  C   UNL     1      17.566  -7.699   6.704  1.00  0.00     0.000 C 
BRANCH  17  18
ATOM     18  C   UNL     1      18.676  -7.119   7.596  1.00  0.00     0.000 C 
BRANCH  18  19
ATOM     19  C   UNL     1      19.209  -8.149   8.615  1.00  0.00     0.000 C 
BRANCH  19  20
ATOM     20  C   UNL     1      19.613  -9.494   7.986  1.00  0.00     0.000 C 
BRANCH  20  21
ATOM     21  C   UNL     1      19.659  -9.449   6.450  1.00  0.00     0.000 C 
BRANCH  21  22
ATOM     22  C   UNL     1      20.927 -10.103   5.880  1.00  0.00    -0.000 C 
BRANCH  22  23
ATOM     23  C   UNL     1      21.401  -9.437   4.576  1.00  0.00    -0.000 C 
BRANCH  23  24
ATOM     24  C   UNL     1      22.331  -8.238   4.826  1.00  0.00    -0.000 C 
BRANCH  24  25
ATOM     25  C   UNL     1      22.046  -7.062   3.876  1.00  0.00    -0.000 C 
BRANCH  25  26
ATOM     26  C   UNL     1      21.380  -5.874   4.587  1.00  0.00    -0.000 C 
BRANCH  26  27
ATOM     27  C   UNL     1      21.732  -4.521   3.943  1.00  0.00    -0.000 C 
BRANCH  27  28
ATOM     28  C   UNL     1      20.516  -3.573   3.881  1.00  0.00    -0.000 C 
BRANCH  28  29
ATOM     29  C   UNL     1      20.567  -2.440   4.921  1.00  0.00    -0.003 C 
ATOM     30  C   UNL     1      21.539  -1.325   4.545  1.00  0.00     0.004 C 
ENDBRANCH  28  29
ENDBRANCH  27  28
ENDBRANCH  26  27
ENDBRANCH  25  26
ENDBRANCH  24  25
ENDBRANCH  23  24
ENDBRANCH  22  23
ENDBRANCH  21  22
ENDBRANCH  20  21
ENDBRANCH  19  20
ENDBRANCH  18  19
ENDBRANCH  17  18
ENDBRANCH   1  17
TORSDOF 26
ENDMDL
MODEL 6
REMARK VINA RESULT:    -0.671      1.843      3.821
REMARK INTER + INTRA:          -1.760
REMARK INTER:                  -2.834
REMARK INTRA:                   1.074
REMARK UNBOUND:                -0.069
REMARK SMILES CCCCCCCCCCCCCCCCCCCCCCCCCCCC(=O)[O-]
REMARK SMILES IDX 15 1 16 2 17 3 18 4 19 5 20 6 21 7 22 8 23 9 24 10 25 11
REMARK SMILES IDX 26 12 27 13 28 14 29 15 30 16 14 17 13 18 12 19 11 20 10 21
REMARK SMILES IDX 9 22 8 23 7 24 6 25 5 26 4 27 3 28 2 29 1 30
REMARK H PARENT
REMARK Flexibility Score: inf
ROOT
ATOM      1  C   UNL     1       9.888  -9.335   5.966  1.00  0.00     0.000 C 
ENDROOT
BRANCH   1   2
ATOM      2  C   UNL     1      10.441  -8.034   6.564  1.00  0.00     0.000 C 
BRANCH   2   3
ATOM      3  C   UNL     1      11.935  -7.874   6.253  1.00  0.00     0.000 C 
BRANCH   3   4
ATOM      4  C   UNL     1      12.539  -9.196   5.757  1.00  0.00     0.000 C 
BRANCH   4   5
ATOM      5  C   UNL     1      13.416  -9.013   4.509  1.00  0.00     0.000 C 
BRANCH   5   6
ATOM      6  C   UNL     1      14.644  -9.941   4.507  1.00  0.00     0.000 C 
BRANCH   6   7
ATOM      7  C   UNL     1      15.517  -9.765   5.760  1.00  0.00     0.000 C 
BRANCH   7   8
ATOM      8  C   UNL     1      16.010  -8.319   5.937  1.00  0.00     0.000 C 
BRANCH   8   9
ATOM      9  C   UNL     1      17.532  -8.234   6.126  1.00  0.00     0.000 C 
BRANCH   9  10
ATOM     10  C   UNL     1      18.288  -9.312   5.330  1.00  0.00     0.000 C 
BRANCH  10  11
ATOM     11  C   UNL     1      19.217  -8.721   4.254  1.00  0.00     0.000 C 
BRANCH  11  12
ATOM     12  C   UNL     1      20.720  -8.833   4.567  1.00  0.00     0.006 C 
BRANCH  12  13
ATOM     13  C   UNL     1      21.475  -7.516   4.346  1.00  0.00     0.053 C 
BRANCH  13  14
ATOM     14  C   UNL     1      20.691  -6.367   4.897  1.00  0.00     0.041 C 
ATOM     15  O   UNL     1      20.513  -6.258   6.138  1.00  0.00    -0.550 OA
ATOM     16  O   UNL     1      20.113  -5.444   4.034  1.00  0.00    -0.550 OA
ENDBRANCH  13  14
ENDBRANCH  12  13
ENDBRANCH  11  12
ENDBRANCH  10  11
ENDBRANCH   9  10
ENDBRANCH   8   9
ENDBRANCH   7   8
ENDBRANCH   6   7
ENDBRANCH   5   6
ENDBRANCH   4   5
ENDBRANCH   3   4
ENDBRANCH   2   3
ENDBRANCH   1   2
BRANCH   1  17
ATOM     17  C   UNL     1       8.373  -9.240   5.755  1.00  0.00     0.000 C 
BRANCH  17  18
ATOM     18  C   UNL     1       8.027  -9.170   4.259  1.00  0.00     0.000 C 
BRANCH  18  19
ATOM     19  C   UNL     1       6.877 -10.125   3.875  1.00  0.00     0.000 C 
BRANCH  19  20
ATOM     20  C   UNL     1       5.527  -9.763   4.518  1.00  0.00     0.000 C 
BRANCH  20  21
ATOM     21  C   UNL     1       5.123  -8.299   4.283  1.00  0.00     0.000 C 
BRANCH  21  22
ATOM     22  C   UNL     1       3.617  -8.137   4.026  1.00  0.00    -0.000 C 
BRANCH  22  23
ATOM     23  C   UNL     1       3.021  -6.916   4.749  1.00  0.00    -0.000 C 
BRANCH  23  24
ATOM     24  C   UNL     1       3.961  -5.699   4.729  1.00  0.00    -0.000 C 
BRANCH  24  25
ATOM     25  C   UNL     1       5.425  -6.079   5.006  1.00  0.00    -0.000 C 
BRANCH  25  26
ATOM     26  C   UNL     1       5.770  -6.056   6.503  1.00  0.00    -0.000 C 
BRANCH  26  27
ATOM     27  C   UNL     1       6.999  -6.917   6.844  1.00  0.00    -0.000 C 
BRANCH  27  28
ATOM     28  C   UNL     1       6.782  -7.762   8.117  1.00  0.00    -0.000 C 
BRANCH  28  29
ATOM     29  C   UNL     1       6.859  -9.278   7.868  1.00  0.00    -0.003 C 
ATOM     30  C   UNL     1       7.270 -10.069   9.108  1.00  0.00     0.004 C 
ENDBRANCH  28  29
ENDBRANCH  27  28
ENDBRANCH  26  27
ENDBRANCH  25  26
ENDBRANCH  24  25
ENDBRANCH  23  24
ENDBRANCH  22  23
ENDBRANCH  21  22
ENDBRANCH  20  21
ENDBRANCH  19  20
ENDBRANCH  18  19
ENDBRANCH  17  18
ENDBRANCH   1  17
TORSDOF 26
ENDMDL
MODEL 7
REMARK VINA RESULT:    -0.583      2.194      4.701
REMARK INTER + INTRA:          -1.538
REMARK INTER:                  -2.294
REMARK INTRA:                   0.756
REMARK UNBOUND:                -0.069
REMARK SMILES CCCCCCCCCCCCCCCCCCCCCCCCCCCC(=O)[O-]
REMARK SMILES IDX 15 1 16 2 17 3 18 4 19 5 20 6 21 7 22 8 23 9 24 10 25 11
REMARK SMILES IDX 26 12 27 13 28 14 29 15 30 16 14 17 13 18 12 19 11 20 10 21
REMARK SMILES IDX 9 22 8 23 7 24 6 25 5 26 4 27 3 28 2 29 1 30
REMARK H PARENT
REMARK Flexibility Score: inf
ROOT
ATOM      1  C   UNL     1      16.823  -7.694   7.636  1.00  0.00     0.000 C 
ENDROOT
BRANCH   1   2
ATOM      2  C   UNL     1      17.153  -6.438   8.452  1.00  0.00     0.000 C 
BRANCH   2   3
ATOM      3  C   UNL     1      18.648  -6.371   8.785  1.00  0.00     0.000 C 
BRANCH   3   4
ATOM      4  C   UNL     1      19.480  -7.133   7.742  1.00  0.00     0.000 C 
BRANCH   4   5
ATOM      5  C   UNL     1      18.719  -7.352   6.426  1.00  0.00     0.000 C 
BRANCH   5   6
ATOM      6  C   UNL     1      19.320  -6.556   5.254  1.00  0.00     0.000 C 
BRANCH   6   7
ATOM      7  C   UNL     1      18.952  -7.154   3.886  1.00  0.00     0.000 C 
BRANCH   7   8
ATOM      8  C   UNL     1      17.918  -8.287   3.998  1.00  0.00     0.000 C 
BRANCH   8   9
ATOM      9  C   UNL     1      18.562  -9.681   3.945  1.00  0.00     0.000 C 
BRANCH   9  10
ATOM     10  C   UNL     1      19.254 -10.061   5.266  1.00  0.00     0.000 C 
BRANCH  10  11
ATOM     11  C   UNL     1      20.757  -9.729   5.272  1.00  0.00     0.000 C 
BRANCH  11  12
ATOM     12  C   UNL     1      21.399  -9.618   3.877  1.00  0.00     0.006 C 
BRANCH  12  13
ATOM     13  C   UNL     1      22.794  -8.980   3.911  1.00  0.00     0.053 C 
BRANCH  13  14
ATOM     14  C   UNL     1      22.792  -7.768   4.789  1.00  0.00     0.041 C 
ATOM     15  O   UNL     1      23.102  -7.867   6.005  1.00  0.00    -0.550 OA
ATOM     16  O   UNL     1      22.398  -6.540   4.276  1.00  0.00    -0.550 OA
ENDBRANCH  13  14
ENDBRANCH  12  13
ENDBRANCH  11  12
ENDBRANCH  10  11
ENDBRANCH   9  10
ENDBRANCH   8   9
ENDBRANCH   7   8
ENDBRANCH   6   7
ENDBRANCH   5   6
ENDBRANCH   4   5
ENDBRANCH   3   4
ENDBRANCH   2   3
ENDBRANCH   1   2
BRANCH   1  17
ATOM     17  C   UNL     1      15.333  -7.741   7.278  1.00  0.00     0.000 C 
BRANCH  17  18
ATOM     18  C   UNL     1      15.039  -8.875   6.283  1.00  0.00     0.000 C 
BRANCH  18  19
ATOM     19  C   UNL     1      14.975  -8.375   4.824  1.00  0.00     0.000 C 
BRANCH  19  20
ATOM     20  C   UNL     1      13.856  -9.024   3.993  1.00  0.00     0.000 C 
BRANCH  20  21
ATOM     21  C   UNL     1      12.465  -8.866   4.630  1.00  0.00     0.000 C 
BRANCH  21  22
ATOM     22  C   UNL     1      11.520 -10.025   4.278  1.00  0.00    -0.000 C 
BRANCH  22  23
ATOM     23  C   UNL     1      10.101  -9.545   3.927  1.00  0.00    -0.000 C 
BRANCH  23  24
ATOM     24  C   UNL     1       9.324  -9.042   5.155  1.00  0.00    -0.000 C 
BRANCH  24  25
ATOM     25  C   UNL     1       8.007  -8.345   4.775  1.00  0.00    -0.000 C 
BRANCH  25  26
ATOM     26  C   UNL     1       6.769  -9.180   5.134  1.00  0.00    -0.000 C 
BRANCH  26  27
ATOM     27  C   UNL     1       5.449  -8.436   4.863  1.00  0.00    -0.000 C 
BRANCH  27  28
ATOM     28  C   UNL     1       5.495  -6.973   5.354  1.00  0.00    -0.000 C 
BRANCH  28  29
ATOM     29  C   UNL     1       4.916  -5.968   4.342  1.00  0.00    -0.003 C 
ATOM     30  C   UNL     1       3.416  -5.744   4.513  1.00  0.00     0.004 C 
ENDBRANCH  28  29
ENDBRANCH  27  28
ENDBRANCH  26  27
ENDBRANCH  25  26
ENDBRANCH  24  25
ENDBRANCH  23  24
ENDBRANCH  22  23
ENDBRANCH  21  22
ENDBRANCH  20  21
ENDBRANCH  19  20
ENDBRANCH  18  19
ENDBRANCH  17  18
ENDBRANCH   1  17
TORSDOF 26
ENDMDL
