MODEL 1
REMARK VINA RESULT:    -4.599      0.000      0.000
REMARK INTER + INTRA:          -8.089
REMARK INTER:                  -7.288
REMARK INTRA:                  -0.801
REMARK UNBOUND:                -0.801
REMARK SMILES CCCCCCCCCCCC(=O)[O-]
REMARK SMILES IDX 7 1 8 2 9 3 10 4 11 5 12 6 13 7 14 8 6 9 5 10 4 11 3 12 2 13
REMARK SMILES IDX 1 14
REMARK H PARENT
REMARK Flexibility Score: inf
ROOT
ATOM      1  C   UNL     1     -10.291  -6.394  -7.649  1.00  0.00     0.000 C 
ENDROOT
BRANCH   1   2
ATOM      2  C   UNL     1     -10.544  -5.047  -8.343  1.00  0.00     0.000 C 
BRANCH   2   3
ATOM      3  C   UNL     1     -11.052  -3.965  -7.374  1.00  0.00     0.000 C 
BRANCH   3   4
ATOM      4  C   UNL     1     -12.356  -4.380  -6.661  1.00  0.00     0.006 C 
BRANCH   4   5
ATOM      5  C   UNL     1     -12.208  -4.510  -5.137  1.00  0.00     0.053 C 
BRANCH   5   6
ATOM      6  C   UNL     1     -13.022  -5.634  -4.579  1.00  0.00     0.041 C 
ATOM      7  O   UNL     1     -13.130  -6.716  -5.215  1.00  0.00    -0.550 OA
ATOM      8  O   UNL     1     -13.685  -5.480  -3.367  1.00  0.00    -0.550 OA
ENDBRANCH   5   6
ENDBRANCH   4   5
ENDBRANCH   3   4
ENDBRANCH   2   3
ENDBRANCH   1   2
BRANCH   1   9
ATOM      9  C   UNL     1      -9.282  -6.287  -6.494  1.00  0.00     0.000 C 
BRANCH   9  10
ATOM     10  C   UNL     1      -9.675  -7.215  -5.335  1.00  0.00    -0.000 C 
BRANCH  10  11
ATOM     11  C   UNL     1      -8.608  -8.282  -5.039  1.00  0.00    -0.000 C 
BRANCH  11  12
ATOM     12  C   UNL     1      -9.176  -9.711  -5.072  1.00  0.00    -0.000 C 
BRANCH  12  13
ATOM     13  C   UNL     1      -8.099 -10.765  -5.379  1.00  0.00    -0.003 C 
ATOM     14  C   UNL     1      -6.723 -10.150  -5.632  1.00  0.00     0.004 C 
ENDBRANCH  12  13
ENDBRANCH  11  12
ENDBRANCH  10  11
ENDBRANCH   9  10
ENDBRANCH   1   9
TORSDOF 10
ENDMDL
MODEL 2
REMARK VINA RESULT:    -4.528      3.047      6.021
REMARK INTER + INTRA:          -7.976
REMARK INTER:                  -6.971
REMARK INTRA:                  -1.005
REMARK UNBOUND:                -0.801
REMARK SMILES CCCCCCCCCCCC(=O)[O-]
REMARK SMILES IDX 7 1 8 2 9 3 10 4 11 5 12 6 13 7 14 8 6 9 5 10 4 11 3 12 2 13
REMARK SMILES IDX 1 14
REMARK H PARENT
REMARK Flexibility Score: inf
ROOT
ATOM      1  C   UNL     1      -9.335  -6.000  -6.622  1.00  0.00     0.000 C 
ENDROOT
BRANCH   1   2
ATOM      2  C   UNL     1      -9.511  -6.811  -5.328  1.00  0.00     0.000 C 
BRANCH   2   3
ATOM      3  C   UNL     1     -10.416  -8.040  -5.517  1.00  0.00     0.000 C 
BRANCH   3   4
ATOM      4  C   UNL     1      -9.688  -9.362  -5.195  1.00  0.00     0.006 C 
BRANCH   4   5
ATOM      5  C   UNL     1      -8.174  -9.194  -4.985  1.00  0.00     0.053 C 
BRANCH   5   6
ATOM      6  C   UNL     1      -7.399 -10.386  -5.449  1.00  0.00     0.041 C 
ATOM      7  O   UNL     1      -7.961 -11.508  -5.552  1.00  0.00    -0.550 OA
ATOM      8  O   UNL     1      -6.046 -10.265  -5.744  1.00  0.00    -0.550 OA
ENDBRANCH   5   6
ENDBRANCH   4   5
ENDBRANCH   3   4
ENDBRANCH   2   3
ENDBRANCH   1   2
BRANCH   1   9
ATOM      9  C   UNL     1     -10.543  -6.115  -7.565  1.00  0.00     0.000 C 
BRANCH   9  10
ATOM     10  C   UNL     1     -11.053  -4.725  -7.973  1.00  0.00    -0.000 C 
BRANCH  10  11
ATOM     11  C   UNL     1     -11.696  -3.961  -6.803  1.00  0.00    -0.000 C 
BRANCH  11  12
ATOM     12  C   UNL     1     -12.746  -4.800  -6.055  1.00  0.00    -0.000 C 
BRANCH  12  13
ATOM     13  C   UNL     1     -12.416  -4.959  -4.562  1.00  0.00    -0.003 C 
ATOM     14  C   UNL     1     -13.459  -5.784  -3.808  1.00  0.00     0.004 C 
ENDBRANCH  12  13
ENDBRANCH  11  12
ENDBRANCH  10  11
ENDBRANCH   9  10
ENDBRANCH   1   9
TORSDOF 10
ENDMDL
MODEL 3
REMARK VINA RESULT:    -4.517      3.112      6.004
REMARK INTER + INTRA:          -7.958
REMARK INTER:                  -7.052
REMARK INTRA:                  -0.906
REMARK UNBOUND:                -0.801
REMARK SMILES CCCCCCCCCCCC(=O)[O-]
REMARK SMILES IDX 7 1 8 2 9 3 10 4 11 5 12 6 13 7 14 8 6 9 5 10 4 11 3 12 2 13
REMARK SMILES IDX 1 14
REMARK H PARENT
REMARK Flexibility Score: inf
ROOT
ATOM      1  C   UNL     1     -11.705  -6.609  -5.528  1.00  0.00     0.000 C 
ENDROOT
BRANCH   1   2
ATOM      2  C   UNL     1     -10.228  -6.248  -5.300  1.00  0.00     0.000 C 
BRANCH   2   3
ATOM      3  C   UNL     1      -9.265  -7.309  -5.860  1.00  0.00     0.000 C 
BRANCH   3   4
ATOM      4  C   UNL     1      -8.764  -8.281  -4.771  1.00  0.00     0.006 C 
BRANCH   4   5
ATOM      5  C   UNL     1      -9.119  -9.751  -5.049  1.00  0.00     0.053 C 
BRANCH   5   6
ATOM      6  C   UNL     1      -7.925 -10.559  -5.449  1.00  0.00     0.041 C 
ATOM      7  O   UNL     1      -8.070 -11.730  -5.887  1.00  0.00    -0.550 OA
ATOM      8  O   UNL     1      -6.648 -10.027  -5.314  1.00  0.00    -0.550 OA
ENDBRANCH   5   6
ENDBRANCH   4   5
ENDBRANCH   3   4
ENDBRANCH   2   3
ENDBRANCH   1   2
BRANCH   1   9
ATOM      9  C   UNL     1     -12.639  -5.394  -5.406  1.00  0.00     0.000 C 
BRANCH   9  10
ATOM     10  C   UNL     1     -11.953  -4.122  -5.923  1.00  0.00    -0.000 C 
BRANCH  10  11
ATOM     11  C   UNL     1     -12.154  -3.910  -7.433  1.00  0.00    -0.000 C 
BRANCH  11  12
ATOM     12  C   UNL     1     -10.823  -3.863  -8.205  1.00  0.00    -0.000 C 
BRANCH  12  13
ATOM     13  C   UNL     1     -10.499  -5.196  -8.899  1.00  0.00    -0.003 C 
ATOM     14  C   UNL     1     -11.301  -5.408 -10.183  1.00  0.00     0.004 C 
ENDBRANCH  12  13
ENDBRANCH  11  12
ENDBRANCH  10  11
ENDBRANCH   9  10
ENDBRANCH   1   9
TORSDOF 10
ENDMDL
MODEL 4
REMARK VINA RESULT:    -4.467      3.692      6.999
REMARK INTER + INTRA:          -7.879
REMARK INTER:                  -7.225
REMARK INTRA:                  -0.654
REMARK UNBOUND:                -0.801
REMARK SMILES CCCCCCCCCCCC(=O)[O-]
REMARK SMILES IDX 7 1 8 2 9 3 10 4 11 5 12 6 13 7 14 8 6 9 5 10 4 11 3 12 2 13
REMARK SMILES IDX 1 14
REMARK H PARENT
REMARK Flexibility Score: inf
ROOT
ATOM      1  C   UNL     1      -9.933  -7.374  -5.689  1.00  0.00     0.000 C 
ENDROOT
BRANCH   1   2
ATOM      2  C   UNL     1      -8.798  -8.037  -4.892  1.00  0.00     0.000 C 
BRANCH   2   3
ATOM      3  C   UNL     1      -8.729  -9.558  -5.109  1.00  0.00     0.000 C 
BRANCH   3   4
ATOM      4  C   UNL     1      -7.284 -10.096  -5.047  1.00  0.00     0.006 C 
BRANCH   4   5
ATOM      5  C   UNL     1      -6.522  -9.965  -6.376  1.00  0.00     0.053 C 
BRANCH   5   6
ATOM      6  C   UNL     1      -5.926 -11.263  -6.821  1.00  0.00     0.041 C 
ATOM      7  O   UNL     1      -4.682 -11.445  -6.759  1.00  0.00    -0.550 OA
ATOM      8  O   UNL     1      -6.743 -12.266  -7.330  1.00  0.00    -0.550 OA
ENDBRANCH   5   6
ENDBRANCH   4   5
ENDBRANCH   3   4
ENDBRANCH   2   3
ENDBRANCH   1   2
BRANCH   1   9
ATOM      9  C   UNL     1      -9.461  -6.147  -6.485  1.00  0.00     0.000 C 
BRANCH   9  10
ATOM     10  C   UNL     1     -10.084  -6.133  -7.889  1.00  0.00    -0.000 C 
BRANCH  10  11
ATOM     11  C   UNL     1     -11.020  -4.934  -8.112  1.00  0.00    -0.000 C 
BRANCH  11  12
ATOM     12  C   UNL     1     -11.309  -4.160  -6.814  1.00  0.00    -0.000 C 
BRANCH  12  13
ATOM     13  C   UNL     1     -12.737  -4.393  -6.295  1.00  0.00    -0.003 C 
ATOM     14  C   UNL     1     -12.771  -5.173  -4.981  1.00  0.00     0.004 C 
ENDBRANCH  12  13
ENDBRANCH  11  12
ENDBRANCH  10  11
ENDBRANCH   9  10
ENDBRANCH   1   9
TORSDOF 10
ENDMDL
MODEL 5
REMARK VINA RESULT:    -4.450      3.714      6.980
REMARK INTER + INTRA:          -7.853
REMARK INTER:                  -7.395
REMARK INTRA:                  -0.458
REMARK UNBOUND:                -0.801
REMARK SMILES CCCCCCCCCCCC(=O)[O-]
REMARK SMILES IDX 7 1 8 2 9 3 10 4 11 5 12 6 13 7 14 8 6 9 5 10 4 11 3 12 2 13
REMARK SMILES IDX 1 14
REMARK H PARENT
REMARK Flexibility Score: inf
ROOT
ATOM      1  C   UNL     1      -9.662  -7.115  -5.320  1.00  0.00     0.000 C 
ENDROOT
BRANCH   1   2
ATOM      2  C   UNL     1      -8.698  -8.288  -5.077  1.00  0.00     0.000 C 
BRANCH   2   3
ATOM      3  C   UNL     1      -9.402  -9.655  -5.124  1.00  0.00     0.000 C 
BRANCH   3   4
ATOM      4  C   UNL     1      -8.408 -10.822  -5.300  1.00  0.00     0.006 C 
BRANCH   4   5
ATOM      5  C   UNL     1      -6.938 -10.409  -5.119  1.00  0.00     0.053 C 
BRANCH   5   6
ATOM      6  C   UNL     1      -6.100 -10.750  -6.311  1.00  0.00     0.041 C 
ATOM      7  O   UNL     1      -6.638 -11.199  -7.357  1.00  0.00    -0.550 OA
ATOM      8  O   UNL     1      -4.720 -10.595  -6.258  1.00  0.00    -0.550 OA
ENDBRANCH   5   6
ENDBRANCH   4   5
ENDBRANCH   3   4
ENDBRANCH   2   3
ENDBRANCH   1   2
BRANCH   1   9
ATOM      9  C   UNL     1      -9.260  -6.256  -6.528  1.00  0.00     0.000 C 
BRANCH   9  10
ATOM     10  C   UNL     1     -10.495  -5.835  -7.337  1.00  0.00    -0.000 C 
BRANCH  10  11
ATOM     11  C   UNL     1     -10.651  -4.308  -7.432  1.00  0.00    -0.000 C 
BRANCH  11  12
ATOM     12  C   UNL     1     -11.068  -3.842  -8.839  1.00  0.00    -0.000 C 
BRANCH  12  13
ATOM     13  C   UNL     1     -10.797  -4.907  -9.914  1.00  0.00    -0.003 C 
ATOM     14  C   UNL     1     -11.722  -4.777 -11.124  1.00  0.00     0.004 C 
ENDBRANCH  12  13
ENDBRANCH  11  12
ENDBRANCH  10  11
ENDBRANCH   9  10
ENDBRANCH   1   9
TORSDOF 10
ENDMDL
MODEL 6
REMARK VINA RESULT:    -4.444      2.254      3.246
REMARK INTER + INTRA:          -7.843
REMARK INTER:                  -7.032
REMARK INTRA:                  -0.811
REMARK UNBOUND:                -0.801
REMARK SMILES CCCCCCCCCCCC(=O)[O-]
REMARK SMILES IDX 7 1 8 2 9 3 10 4 11 5 12 6 13 7 14 8 6 9 5 10 4 11 3 12 2 13
REMARK SMILES IDX 1 14
REMARK H PARENT
REMARK Flexibility Score: inf
ROOT
ATOM      1  C   UNL     1     -11.108  -7.403  -5.773  1.00  0.00     0.000 C 
ENDROOT
BRANCH   1   2
ATOM      2  C   UNL     1     -12.074  -6.308  -5.292  1.00  0.00     0.000 C 
BRANCH   2   3
ATOM      3  C   UNL     1     -11.576  -4.890  -5.622  1.00  0.00     0.000 C 
BRANCH   3   4
ATOM      4  C   UNL     1     -12.122  -4.375  -6.971  1.00  0.00     0.006 C 
BRANCH   4   5
ATOM      5  C   UNL     1     -11.027  -3.862  -7.920  1.00  0.00     0.053 C 
BRANCH   5   6
ATOM      6  C   UNL     1     -10.822  -4.767  -9.094  1.00  0.00     0.041 C 
ATOM      7  O   UNL     1     -10.710  -6.009  -8.925  1.00  0.00    -0.550 OA
ATOM      8  O   UNL     1     -10.728  -4.235 -10.375  1.00  0.00    -0.550 OA
ENDBRANCH   5   6
ENDBRANCH   4   5
ENDBRANCH   3   4
ENDBRANCH   2   3
ENDBRANCH   1   2
BRANCH   1   9
ATOM      9  C   UNL     1      -9.632  -7.008  -5.606  1.00  0.00     0.000 C 
BRANCH   9  10
ATOM     10  C   UNL     1      -8.835  -8.138  -4.938  1.00  0.00    -0.000 C 
BRANCH  10  11
ATOM     11  C   UNL     1      -9.461  -9.523  -5.166  1.00  0.00    -0.000 C 
BRANCH  11  12
ATOM     12  C   UNL     1      -8.405 -10.627  -5.346  1.00  0.00    -0.000 C 
BRANCH  12  13
ATOM     13  C   UNL     1      -6.973 -10.110  -5.137  1.00  0.00    -0.003 C 
ATOM     14  C   UNL     1      -6.087 -10.301  -6.369  1.00  0.00     0.004 C 
ENDBRANCH  12  13
ENDBRANCH  11  12
ENDBRANCH  10  11
ENDBRANCH   9  10
ENDBRANCH   1   9
TORSDOF 10
ENDMDL
MODEL 7
REMARK VINA RESULT:    -4.328      1.328      2.579
REMARK INTER + INTRA:          -7.659
REMARK INTER:                  -7.219
REMARK INTRA:                  -0.440
REMARK UNBOUND:                -0.801
REMARK SMILES CCCCCCCCCCCC(=O)[O-]
REMARK SMILES IDX 7 1 8 2 9 3 10 4 11 5 12 6 13 7 14 8 6 9 5 10 4 11 3 12 2 13
REMARK SMILES IDX 1 14
REMARK H PARENT
REMARK Flexibility Score: inf
ROOT
ATOM      1  C   UNL     1      -9.650  -7.257  -5.374  1.00  0.00     0.000 C 
ENDROOT
BRANCH   1   2
ATOM      2  C   UNL     1      -9.303  -6.345  -6.562  1.00  0.00     0.000 C 
BRANCH   2   3
ATOM      3  C   UNL     1     -10.444  -6.246  -7.588  1.00  0.00     0.000 C 
BRANCH   3   4
ATOM      4  C   UNL     1     -10.516  -4.857  -8.257  1.00  0.00     0.006 C 
BRANCH   4   5
ATOM      5  C   UNL     1     -10.903  -3.728  -7.287  1.00  0.00     0.053 C 
BRANCH   5   6
ATOM      6  C   UNL     1     -11.980  -4.141  -6.334  1.00  0.00     0.041 C 
ATOM      7  O   UNL     1     -13.168  -4.261  -6.733  1.00  0.00    -0.550 OA
ATOM      8  O   UNL     1     -11.676  -4.368  -4.997  1.00  0.00    -0.550 OA
ENDBRANCH   5   6
ENDBRANCH   4   5
ENDBRANCH   3   4
ENDBRANCH   2   3
ENDBRANCH   1   2
BRANCH   1   9
ATOM      9  C   UNL     1      -8.572  -8.319  -5.106  1.00  0.00     0.000 C 
BRANCH   9  10
ATOM     10  C   UNL     1      -9.186  -9.726  -5.067  1.00  0.00    -0.000 C 
BRANCH  10  11
ATOM     11  C   UNL     1      -8.176 -10.826  -5.434  1.00  0.00    -0.000 C 
BRANCH  11  12
ATOM     12  C   UNL     1      -6.717 -10.377  -5.240  1.00  0.00    -0.000 C 
BRANCH  12  13
ATOM     13  C   UNL     1      -5.858 -10.612  -6.493  1.00  0.00    -0.003 C 
ATOM     14  C   UNL     1      -4.393 -10.896  -6.163  1.00  0.00     0.004 C 
ENDBRANCH  12  13
ENDBRANCH  11  12
ENDBRANCH  10  11
ENDBRANCH   9  10
ENDBRANCH   1   9
TORSDOF 10
ENDMDL
MODEL 8
REMARK VINA RESULT:    -4.168      5.954      9.313
REMARK INTER + INTRA:          -7.406
REMARK INTER:                  -7.078
REMARK INTRA:                  -0.328
REMARK UNBOUND:                -0.801
REMARK SMILES CCCCCCCCCCCC(=O)[O-]
REMARK SMILES IDX 7 1 8 2 9 3 10 4 11 5 12 6 13 7 14 8 6 9 5 10 4 11 3 12 2 13
REMARK SMILES IDX 1 14
REMARK H PARENT
REMARK Flexibility Score: inf
ROOT
ATOM      1  C   UNL     1      -6.066 -10.226  -6.349  1.00  0.00     0.000 C 
ENDROOT
BRANCH   1   2
ATOM      2  C   UNL     1      -4.982 -11.304  -6.503  1.00  0.00     0.000 C 
BRANCH   2   3
ATOM      3  C   UNL     1      -3.647 -10.901  -5.852  1.00  0.00     0.000 C 
BRANCH   3   4
ATOM      4  C   UNL     1      -2.846 -12.122  -5.351  1.00  0.00     0.006 C 
BRANCH   4   5
ATOM      5  C   UNL     1      -2.621 -12.126  -3.830  1.00  0.00     0.053 C 
BRANCH   5   6
ATOM      6  C   UNL     1      -1.492 -13.020  -3.424  1.00  0.00     0.041 C 
ATOM      7  O   UNL     1      -0.537 -13.236  -4.216  1.00  0.00    -0.550 OA
ATOM      8  O   UNL     1      -1.507 -13.637  -2.179  1.00  0.00    -0.550 OA
ENDBRANCH   5   6
ENDBRANCH   4   5
ENDBRANCH   3   4
ENDBRANCH   2   3
ENDBRANCH   1   2
BRANCH   1   9
ATOM      9  C   UNL     1      -6.852 -10.356  -5.035  1.00  0.00     0.000 C 
BRANCH   9  10
ATOM     10  C   UNL     1      -8.313  -9.923  -5.225  1.00  0.00    -0.000 C 
BRANCH  10  11
ATOM     11  C   UNL     1      -8.575  -8.488  -4.739  1.00  0.00    -0.000 C 
BRANCH  11  12
ATOM     12  C   UNL     1      -9.712  -7.800  -5.514  1.00  0.00    -0.000 C 
BRANCH  12  13
ATOM     13  C   UNL     1      -9.327  -6.392  -5.997  1.00  0.00    -0.003 C 
ATOM     14  C   UNL     1     -10.063  -5.979  -7.271  1.00  0.00     0.004 C 
ENDBRANCH  12  13
ENDBRANCH  11  12
ENDBRANCH  10  11
ENDBRANCH   9  10
ENDBRANCH   1   9
TORSDOF 10
ENDMDL
MODEL 9
REMARK VINA RESULT:    -4.143      5.078      8.341
REMARK INTER + INTRA:          -7.365
REMARK INTER:                  -6.983
REMARK INTRA:                  -0.382
REMARK UNBOUND:                -0.801
REMARK SMILES CCCCCCCCCCCC(=O)[O-]
REMARK SMILES IDX 7 1 8 2 9 3 10 4 11 5 12 6 13 7 14 8 6 9 5 10 4 11 3 12 2 13
REMARK SMILES IDX 1 14
REMARK H PARENT
REMARK Flexibility Score: inf
ROOT
ATOM      1  C   UNL     1      -8.140 -10.881  -5.423  1.00  0.00     0.000 C 
ENDROOT
BRANCH   1   2
ATOM      2  C   UNL     1      -6.703 -10.347  -5.313  1.00  0.00     0.000 C 
BRANCH   2   3
ATOM      3  C   UNL     1      -5.956 -10.372  -6.657  1.00  0.00     0.000 C 
BRANCH   3   4
ATOM      4  C   UNL     1      -4.799 -11.394  -6.668  1.00  0.00     0.006 C 
BRANCH   4   5
ATOM      5  C   UNL     1      -3.632 -11.010  -5.745  1.00  0.00     0.053 C 
BRANCH   5   6
ATOM      6  C   UNL     1      -2.647 -12.124  -5.580  1.00  0.00     0.041 C 
ATOM      7  O   UNL     1      -2.939 -13.290  -5.953  1.00  0.00    -0.550 OA
ATOM      8  O   UNL     1      -1.413 -11.880  -4.989  1.00  0.00    -0.550 OA
ENDBRANCH   5   6
ENDBRANCH   4   5
ENDBRANCH   3   4
ENDBRANCH   2   3
ENDBRANCH   1   2
BRANCH   1   9
ATOM      9  C   UNL     1      -9.197  -9.816  -5.092  1.00  0.00     0.000 C 
BRANCH   9  10
ATOM     10  C   UNL     1      -8.566  -8.417  -5.035  1.00  0.00    -0.000 C 
BRANCH  10  11
ATOM     11  C   UNL     1      -9.598  -7.291  -5.219  1.00  0.00    -0.000 C 
BRANCH  11  12
ATOM     12  C   UNL     1      -9.303  -6.413  -6.448  1.00  0.00    -0.000 C 
BRANCH  12  13
ATOM     13  C   UNL     1     -10.574  -5.784  -7.039  1.00  0.00    -0.003 C 
ATOM     14  C   UNL     1     -10.445  -5.475  -8.531  1.00  0.00     0.004 C 
ENDBRANCH  12  13
ENDBRANCH  11  12
ENDBRANCH  10  11
ENDBRANCH   9  10
ENDBRANCH   1   9
TORSDOF 10
ENDMDL
