MODEL 1
REMARK VINA RESULT:    -3.485      0.000      0.000
REMARK INTER + INTRA:          -7.920
REMARK INTER:                  -5.930
REMARK INTRA:                  -1.989
REMARK UNBOUND:                -1.989
REMARK SMILES CCCCCCCCCCCCCC(=O)[O-]
REMARK SMILES IDX 8 1 9 2 10 3 11 4 12 5 13 6 14 7 15 8 16 9 7 10 6 11 5 12
REMARK SMILES IDX 4 13 3 14 2 15 1 16
REMARK H PARENT
REMARK Flexibility Score: inf
ROOT
ATOM      1  C   UNL     1      20.388  14.846 -20.030  1.00  0.00     0.000 C 
ENDROOT
BRANCH   1   2
ATOM      2  C   UNL     1      19.076  14.076 -19.767  1.00  0.00     0.000 C 
BRANCH   2   3
ATOM      3  C   UNL     1      19.250  12.950 -18.737  1.00  0.00     0.000 C 
BRANCH   3   4
ATOM      4  C   UNL     1      18.017  12.844 -17.824  1.00  0.00     0.000 C 
BRANCH   4   5
ATOM      5  C   UNL     1      18.275  11.986 -16.577  1.00  0.00     0.006 C 
BRANCH   5   6
ATOM      6  C   UNL     1      19.569  11.168 -16.679  1.00  0.00     0.053 C 
BRANCH   6   7
ATOM      7  C   UNL     1      19.259   9.734 -16.972  1.00  0.00     0.041 C 
ATOM      8  O   UNL     1      19.490   8.846 -16.109  1.00  0.00    -0.550 OA
ATOM      9  O   UNL     1      18.667   9.383 -18.180  1.00  0.00    -0.550 OA
ENDBRANCH   6   7
ENDBRANCH   5   6
ENDBRANCH   4   5
ENDBRANCH   3   4
ENDBRANCH   2   3
ENDBRANCH   1   2
BRANCH   1  10
ATOM     10  C   UNL     1      20.344  16.320 -19.585  1.00  0.00     0.000 C 
BRANCH  10  11
ATOM     11  C   UNL     1      19.642  16.577 -18.239  1.00  0.00    -0.000 C 
BRANCH  11  12
ATOM     12  C   UNL     1      20.574  16.591 -17.011  1.00  0.00    -0.000 C 
BRANCH  12  13
ATOM     13  C   UNL     1      20.424  15.340 -16.133  1.00  0.00    -0.000 C 
BRANCH  13  14
ATOM     14  C   UNL     1      21.594  14.368 -16.360  1.00  0.00    -0.000 C 
BRANCH  14  15
ATOM     15  C   UNL     1      22.773  15.024 -17.094  1.00  0.00    -0.003 C 
ATOM     16  C   UNL     1      23.386  14.114 -18.159  1.00  0.00     0.004 C 
ENDBRANCH  14  15
ENDBRANCH  13  14
ENDBRANCH  12  13
ENDBRANCH  11  12
ENDBRANCH  10  11
ENDBRANCH   1  10
TORSDOF 12
ENDMDL
MODEL 2
REMARK VINA RESULT:    -3.455      1.305      2.913
REMARK INTER + INTRA:          -7.868
REMARK INTER:                  -6.291
REMARK INTRA:                  -1.577
REMARK UNBOUND:                -1.989
REMARK SMILES CCCCCCCCCCCCCC(=O)[O-]
REMARK SMILES IDX 8 1 9 2 10 3 11 4 12 5 13 6 14 7 15 8 16 9 7 10 6 11 5 12
REMARK SMILES IDX 4 13 3 14 2 15 1 16
REMARK H PARENT
REMARK Flexibility Score: inf
ROOT
ATOM      1  C   UNL     1      21.199  13.988 -16.366  1.00  0.00     0.000 C 
ENDROOT
BRANCH   1   2
ATOM      2  C   UNL     1      19.853  13.994 -15.609  1.00  0.00     0.000 C 
BRANCH   2   3
ATOM      3  C   UNL     1      19.091  12.668 -15.754  1.00  0.00     0.000 C 
BRANCH   3   4
ATOM      4  C   UNL     1      18.372  12.592 -17.111  1.00  0.00     0.000 C 
BRANCH   4   5
ATOM      5  C   UNL     1      18.504  11.214 -17.775  1.00  0.00     0.006 C 
BRANCH   5   6
ATOM      6  C   UNL     1      18.730  10.087 -16.759  1.00  0.00     0.053 C 
BRANCH   6   7
ATOM      7  C   UNL     1      19.877   9.225 -17.180  1.00  0.00     0.041 C 
ATOM      8  O   UNL     1      20.630   9.588 -18.123  1.00  0.00    -0.550 OA
ATOM      9  O   UNL     1      20.147   8.044 -16.499  1.00  0.00    -0.550 OA
ENDBRANCH   6   7
ENDBRANCH   5   6
ENDBRANCH   4   5
ENDBRANCH   3   4
ENDBRANCH   2   3
ENDBRANCH   1   2
BRANCH   1  10
ATOM     10  C   UNL     1      21.832  15.385 -16.519  1.00  0.00     0.000 C 
BRANCH  10  11
ATOM     11  C   UNL     1      20.833  16.535 -16.740  1.00  0.00    -0.000 C 
BRANCH  11  12
ATOM     12  C   UNL     1      21.111  17.412 -17.977  1.00  0.00    -0.000 C 
BRANCH  12  13
ATOM     13  C   UNL     1      21.261  16.593 -19.268  1.00  0.00    -0.000 C 
BRANCH  13  14
ATOM     14  C   UNL     1      19.885  16.225 -19.847  1.00  0.00    -0.000 C 
BRANCH  14  15
ATOM     15  C   UNL     1      19.612  14.714 -19.807  1.00  0.00    -0.003 C 
ATOM     16  C   UNL     1      20.874  13.879 -20.022  1.00  0.00     0.004 C 
ENDBRANCH  14  15
ENDBRANCH  13  14
ENDBRANCH  12  13
ENDBRANCH  11  12
ENDBRANCH  10  11
ENDBRANCH   1  10
TORSDOF 12
ENDMDL
MODEL 3
REMARK VINA RESULT:    -3.443      1.718      2.752
REMARK INTER + INTRA:          -7.848
REMARK INTER:                  -5.911
REMARK INTRA:                  -1.937
REMARK UNBOUND:                -1.989
REMARK SMILES CCCCCCCCCCCCCC(=O)[O-]
REMARK SMILES IDX 8 1 9 2 10 3 11 4 12 5 13 6 14 7 15 8 16 9 7 10 6 11 5 12
REMARK SMILES IDX 4 13 3 14 2 15 1 16
REMARK H PARENT
REMARK Flexibility Score: inf
ROOT
ATOM      1  C   UNL     1      19.870  14.202 -15.416  1.00  0.00     0.000 C 
ENDROOT
BRANCH   1   2
ATOM      2  C   UNL     1      19.292  12.846 -15.874  1.00  0.00     0.000 C 
BRANCH   2   3
ATOM      3  C   UNL     1      18.319  12.989 -17.054  1.00  0.00     0.000 C 
BRANCH   3   4
ATOM      4  C   UNL     1      17.920  11.612 -17.608  1.00  0.00     0.000 C 
BRANCH   4   5
ATOM      5  C   UNL     1      18.724  10.464 -16.978  1.00  0.00     0.006 C 
BRANCH   5   6
ATOM      6  C   UNL     1      19.091   9.373 -17.993  1.00  0.00     0.053 C 
BRANCH   6   7
ATOM      7  C   UNL     1      20.138   8.466 -17.429  1.00  0.00     0.041 C 
ATOM      8  O   UNL     1      20.022   8.013 -16.260  1.00  0.00    -0.550 OA
ATOM      9  O   UNL     1      21.219   8.080 -18.213  1.00  0.00    -0.550 OA
ENDBRANCH   6   7
ENDBRANCH   5   6
ENDBRANCH   4   5
ENDBRANCH   3   4
ENDBRANCH   2   3
ENDBRANCH   1   2
BRANCH   1  10
ATOM     10  C   UNL     1      19.875  15.280 -16.517  1.00  0.00     0.000 C 
BRANCH  10  11
ATOM     11  C   UNL     1      21.191  16.067 -16.655  1.00  0.00    -0.000 C 
BRANCH  11  12
ATOM     12  C   UNL     1      22.464  15.202 -16.733  1.00  0.00    -0.000 C 
BRANCH  12  13
ATOM     13  C   UNL     1      22.467  14.252 -17.940  1.00  0.00    -0.000 C 
BRANCH  13  14
ATOM     14  C   UNL     1      22.644  12.793 -17.490  1.00  0.00    -0.000 C 
BRANCH  14  15
ATOM     15  C   UNL     1      21.955  11.796 -18.434  1.00  0.00    -0.003 C 
ATOM     16  C   UNL     1      21.074  12.482 -19.478  1.00  0.00     0.004 C 
ENDBRANCH  14  15
ENDBRANCH  13  14
ENDBRANCH  12  13
ENDBRANCH  11  12
ENDBRANCH  10  11
ENDBRANCH   1  10
TORSDOF 12
ENDMDL
MODEL 4
REMARK VINA RESULT:    -3.420      2.385      4.059
REMARK INTER + INTRA:          -7.808
REMARK INTER:                  -6.290
REMARK INTRA:                  -1.518
REMARK UNBOUND:                -1.989
REMARK SMILES CCCCCCCCCCCCCC(=O)[O-]
REMARK SMILES IDX 8 1 9 2 10 3 11 4 12 5 13 6 14 7 15 8 16 9 7 10 6 11 5 12
REMARK SMILES IDX 4 13 3 14 2 15 1 16
REMARK H PARENT
REMARK Flexibility Score: inf
ROOT
ATOM      1  C   UNL     1      17.939  10.855 -18.894  1.00  0.00     0.000 C 
ENDROOT
BRANCH   1   2
ATOM      2  C   UNL     1      19.406  10.617 -19.313  1.00  0.00     0.000 C 
BRANCH   2   3
ATOM      3  C   UNL     1      19.871   9.179 -19.038  1.00  0.00     0.000 C 
BRANCH   3   4
ATOM      4  C   UNL     1      20.515   9.067 -17.647  1.00  0.00     0.000 C 
BRANCH   4   5
ATOM      5  C   UNL     1      19.687   8.210 -16.677  1.00  0.00     0.006 C 
BRANCH   5   6
ATOM      6  C   UNL     1      18.693   7.292 -17.401  1.00  0.00     0.053 C 
BRANCH   6   7
ATOM      7  C   UNL     1      19.118   5.863 -17.279  1.00  0.00     0.041 C 
ATOM      8  O   UNL     1      18.267   4.939 -17.369  1.00  0.00    -0.550 OA
ATOM      9  O   UNL     1      20.462   5.548 -17.117  1.00  0.00    -0.550 OA
ENDBRANCH   6   7
ENDBRANCH   5   6
ENDBRANCH   4   5
ENDBRANCH   3   4
ENDBRANCH   2   3
ENDBRANCH   1   2
BRANCH   1  10
ATOM     10  C   UNL     1      17.756  12.020 -17.902  1.00  0.00     0.000 C 
BRANCH  10  11
ATOM     11  C   UNL     1      18.081  11.686 -16.435  1.00  0.00    -0.000 C 
BRANCH  11  12
ATOM     12  C   UNL     1      19.097  12.628 -15.761  1.00  0.00    -0.000 C 
BRANCH  12  13
ATOM     13  C   UNL     1      20.506  12.513 -16.359  1.00  0.00    -0.000 C 
BRANCH  13  14
ATOM     14  C   UNL     1      21.170  13.896 -16.470  1.00  0.00    -0.000 C 
BRANCH  14  15
ATOM     15  C   UNL     1      20.194  15.044 -16.171  1.00  0.00    -0.003 C 
ATOM     16  C   UNL     1      20.735  16.407 -16.603  1.00  0.00     0.004 C 
ENDBRANCH  14  15
ENDBRANCH  13  14
ENDBRANCH  12  13
ENDBRANCH  11  12
ENDBRANCH  10  11
ENDBRANCH   1  10
TORSDOF 12
ENDMDL
MODEL 5
REMARK VINA RESULT:    -3.399      3.180      6.132
REMARK INTER + INTRA:          -7.773
REMARK INTER:                  -6.835
REMARK INTRA:                  -0.938
REMARK UNBOUND:                -1.989
REMARK SMILES CCCCCCCCCCCCCC(=O)[O-]
REMARK SMILES IDX 8 1 9 2 10 3 11 4 12 5 13 6 14 7 15 8 16 9 7 10 6 11 5 12
REMARK SMILES IDX 4 13 3 14 2 15 1 16
REMARK H PARENT
REMARK Flexibility Score: inf
ROOT
ATOM      1  C   UNL     1      21.232  13.451 -16.540  1.00  0.00     0.000 C 
ENDROOT
BRANCH   1   2
ATOM      2  C   UNL     1      21.880  14.840 -16.725  1.00  0.00     0.000 C 
BRANCH   2   3
ATOM      3  C   UNL     1      20.978  15.981 -16.231  1.00  0.00     0.000 C 
BRANCH   3   4
ATOM      4  C   UNL     1      20.776  17.037 -17.329  1.00  0.00     0.000 C 
BRANCH   4   5
ATOM      5  C   UNL     1      19.794  16.581 -18.418  1.00  0.00     0.006 C 
BRANCH   5   6
ATOM      6  C   UNL     1      20.323  16.833 -19.835  1.00  0.00     0.053 C 
BRANCH   6   7
ATOM      7  C   UNL     1      19.198  16.827 -20.822  1.00  0.00     0.041 C 
ATOM      8  O   UNL     1      18.369  17.774 -20.843  1.00  0.00    -0.550 OA
ATOM      9  O   UNL     1      19.095  15.801 -21.753  1.00  0.00    -0.550 OA
ENDBRANCH   6   7
ENDBRANCH   5   6
ENDBRANCH   4   5
ENDBRANCH   3   4
ENDBRANCH   2   3
ENDBRANCH   1   2
BRANCH   1  10
ATOM     10  C   UNL     1      19.809  13.502 -15.952  1.00  0.00     0.000 C 
BRANCH  10  11
ATOM     11  C   UNL     1      18.679  13.172 -16.944  1.00  0.00    -0.000 C 
BRANCH  11  12
ATOM     12  C   UNL     1      17.946  11.842 -16.679  1.00  0.00    -0.000 C 
BRANCH  12  13
ATOM     13  C   UNL     1      18.466  10.689 -17.550  1.00  0.00    -0.000 C 
BRANCH  13  14
ATOM     14  C   UNL     1      19.483   9.833 -16.778  1.00  0.00    -0.000 C 
BRANCH  14  15
ATOM     15  C   UNL     1      19.051   8.364 -16.662  1.00  0.00    -0.003 C 
ATOM     16  C   UNL     1      20.169   7.387 -17.026  1.00  0.00     0.004 C 
ENDBRANCH  14  15
ENDBRANCH  13  14
ENDBRANCH  12  13
ENDBRANCH  11  12
ENDBRANCH  10  11
ENDBRANCH   1  10
TORSDOF 12
ENDMDL
MODEL 6
REMARK VINA RESULT:    -3.382      1.161      2.900
REMARK INTER + INTRA:          -7.744
REMARK INTER:                  -5.779
REMARK INTRA:                  -1.965
REMARK UNBOUND:                -1.989
REMARK SMILES CCCCCCCCCCCCCC(=O)[O-]
REMARK SMILES IDX 8 1 9 2 10 3 11 4 12 5 13 6 14 7 15 8 16 9 7 10 6 11 5 12
REMARK SMILES IDX 4 13 3 14 2 15 1 16
REMARK H PARENT
REMARK Flexibility Score: inf
ROOT
ATOM      1  C   UNL     1      22.598  13.664 -17.960  1.00  0.00     0.000 C 
ENDROOT
BRANCH   1   2
ATOM      2  C   UNL     1      21.474  12.943 -17.184  1.00  0.00     0.000 C 
BRANCH   2   3
ATOM      3  C   UNL     1      20.977  13.754 -15.979  1.00  0.00     0.000 C 
BRANCH   3   4
ATOM      4  C   UNL     1      19.441  13.790 -15.936  1.00  0.00     0.000 C 
BRANCH   4   5
ATOM      5  C   UNL     1      18.797  12.873 -16.987  1.00  0.00     0.006 C 
BRANCH   5   6
ATOM      6  C   UNL     1      18.194  11.602 -16.373  1.00  0.00     0.053 C 
BRANCH   6   7
ATOM      7  C   UNL     1      18.706  10.388 -17.080  1.00  0.00     0.041 C 
ATOM      8  O   UNL     1      19.352   9.511 -16.448  1.00  0.00    -0.550 OA
ATOM      9  O   UNL     1      18.427  10.198 -18.429  1.00  0.00    -0.550 OA
ENDBRANCH   6   7
ENDBRANCH   5   6
ENDBRANCH   4   5
ENDBRANCH   3   4
ENDBRANCH   2   3
ENDBRANCH   1   2
BRANCH   1  10
ATOM     10  C   UNL     1      23.039  14.995 -17.322  1.00  0.00     0.000 C 
BRANCH  10  11
ATOM     11  C   UNL     1      23.419  16.104 -18.320  1.00  0.00    -0.000 C 
BRANCH  11  12
ATOM     12  C   UNL     1      22.264  17.040 -18.726  1.00  0.00    -0.000 C 
BRANCH  12  13
ATOM     13  C   UNL     1      21.173  17.144 -17.650  1.00  0.00    -0.000 C 
BRANCH  13  14
ATOM     14  C   UNL     1      19.835  16.594 -18.169  1.00  0.00    -0.000 C 
BRANCH  14  15
ATOM     15  C   UNL     1      19.864  16.297 -19.676  1.00  0.00    -0.003 C 
ATOM     16  C   UNL     1      19.596  14.825 -19.994  1.00  0.00     0.004 C 
ENDBRANCH  14  15
ENDBRANCH  13  14
ENDBRANCH  12  13
ENDBRANCH  11  12
ENDBRANCH  10  11
ENDBRANCH   1  10
TORSDOF 12
ENDMDL
MODEL 7
REMARK VINA RESULT:    -3.368      1.178      2.593
REMARK INTER + INTRA:          -7.720
REMARK INTER:                  -5.859
REMARK INTRA:                  -1.862
REMARK UNBOUND:                -1.989
REMARK SMILES CCCCCCCCCCCCCC(=O)[O-]
REMARK SMILES IDX 8 1 9 2 10 3 11 4 12 5 13 6 14 7 15 8 16 9 7 10 6 11 5 12
REMARK SMILES IDX 4 13 3 14 2 15 1 16
REMARK H PARENT
REMARK Flexibility Score: inf
ROOT
ATOM      1  C   UNL     1      21.568  13.250 -18.308  1.00  0.00     0.000 C 
ENDROOT
BRANCH   1   2
ATOM      2  C   UNL     1      20.158  13.354 -18.927  1.00  0.00     0.000 C 
BRANCH   2   3
ATOM      3  C   UNL     1      19.051  13.415 -17.863  1.00  0.00     0.000 C 
BRANCH   3   4
ATOM      4  C   UNL     1      17.774  12.717 -18.357  1.00  0.00     0.000 C 
BRANCH   4   5
ATOM      5  C   UNL     1      17.756  11.216 -18.031  1.00  0.00     0.006 C 
BRANCH   5   6
ATOM      6  C   UNL     1      18.454  10.890 -16.704  1.00  0.00     0.053 C 
BRANCH   6   7
ATOM      7  C   UNL     1      19.496   9.836 -16.908  1.00  0.00     0.041 C 
ATOM      8  O   UNL     1      20.351   9.958 -17.824  1.00  0.00    -0.550 OA
ATOM      9  O   UNL     1      19.556   8.743 -16.051  1.00  0.00    -0.550 OA
ENDBRANCH   6   7
ENDBRANCH   5   6
ENDBRANCH   4   5
ENDBRANCH   3   4
ENDBRANCH   2   3
ENDBRANCH   1   2
BRANCH   1  10
ATOM     10  C   UNL     1      21.620  13.614 -16.812  1.00  0.00     0.000 C 
BRANCH  10  11
ATOM     11  C   UNL     1      22.054  15.059 -16.506  1.00  0.00    -0.000 C 
BRANCH  11  12
ATOM     12  C   UNL     1      20.911  16.013 -16.107  1.00  0.00    -0.000 C 
BRANCH  12  13
ATOM     13  C   UNL     1      20.371  16.826 -17.293  1.00  0.00    -0.000 C 
BRANCH  13  14
ATOM     14  C   UNL     1      21.503  17.200 -18.263  1.00  0.00    -0.000 C 
BRANCH  14  15
ATOM     15  C   UNL     1      21.200  16.787 -19.712  1.00  0.00    -0.003 C 
ATOM     16  C   UNL     1      19.726  16.958 -20.080  1.00  0.00     0.004 C 
ENDBRANCH  14  15
ENDBRANCH  13  14
ENDBRANCH  12  13
ENDBRANCH  11  12
ENDBRANCH  10  11
ENDBRANCH   1  10
TORSDOF 12
ENDMDL
MODEL 8
REMARK VINA RESULT:    -3.356      2.053      4.362
REMARK INTER + INTRA:          -7.700
REMARK INTER:                  -6.241
REMARK INTRA:                  -1.460
REMARK UNBOUND:                -1.989
REMARK SMILES CCCCCCCCCCCCCC(=O)[O-]
REMARK SMILES IDX 8 1 9 2 10 3 11 4 12 5 13 6 14 7 15 8 16 9 7 10 6 11 5 12
REMARK SMILES IDX 4 13 3 14 2 15 1 16
REMARK H PARENT
REMARK Flexibility Score: inf
ROOT
ATOM      1  C   UNL     1      20.666  16.688 -16.824  1.00  0.00     0.000 C 
ENDROOT
BRANCH   1   2
ATOM      2  C   UNL     1      21.489  15.473 -16.345  1.00  0.00     0.000 C 
BRANCH   2   3
ATOM      3  C   UNL     1      20.606  14.268 -15.985  1.00  0.00     0.000 C 
BRANCH   3   4
ATOM      4  C   UNL     1      21.061  13.008 -16.738  1.00  0.00     0.000 C 
BRANCH   4   5
ATOM      5  C   UNL     1      20.165  12.682 -17.943  1.00  0.00     0.006 C 
BRANCH   5   6
ATOM      6  C   UNL     1      18.774  13.320 -17.836  1.00  0.00     0.053 C 
BRANCH   6   7
ATOM      7  C   UNL     1      17.734  12.271 -17.601  1.00  0.00     0.041 C 
ATOM      8  O   UNL     1      16.936  11.952 -18.522  1.00  0.00    -0.550 OA
ATOM      9  O   UNL     1      17.677  11.609 -16.381  1.00  0.00    -0.550 OA
ENDBRANCH   6   7
ENDBRANCH   5   6
ENDBRANCH   4   5
ENDBRANCH   3   4
ENDBRANCH   2   3
ENDBRANCH   1   2
BRANCH   1  10
ATOM     10  C   UNL     1      21.110  17.239 -18.193  1.00  0.00     0.000 C 
BRANCH  10  11
ATOM     11  C   UNL     1      21.649  16.186 -19.178  1.00  0.00    -0.000 C 
BRANCH  11  12
ATOM     12  C   UNL     1      20.620  15.659 -20.197  1.00  0.00    -0.000 C 
BRANCH  12  13
ATOM     13  C   UNL     1      19.540  16.694 -20.544  1.00  0.00    -0.000 C 
BRANCH  13  14
ATOM     14  C   UNL     1      20.026  17.644 -21.650  1.00  0.00    -0.000 C 
BRANCH  14  15
ATOM     15  C   UNL     1      19.055  18.808 -21.897  1.00  0.00    -0.003 C 
ATOM     16  C   UNL     1      17.643  18.520 -21.384  1.00  0.00     0.004 C 
ENDBRANCH  14  15
ENDBRANCH  13  14
ENDBRANCH  12  13
ENDBRANCH  11  12
ENDBRANCH  10  11
ENDBRANCH   1  10
TORSDOF 12
ENDMDL
MODEL 9
REMARK VINA RESULT:    -3.303      3.346      5.829
REMARK INTER + INTRA:          -7.610
REMARK INTER:                  -5.985
REMARK INTRA:                  -1.625
REMARK UNBOUND:                -1.989
REMARK SMILES CCCCCCCCCCCCCC(=O)[O-]
REMARK SMILES IDX 8 1 9 2 10 3 11 4 12 5 13 6 14 7 15 8 16 9 7 10 6 11 5 12
REMARK SMILES IDX 4 13 3 14 2 15 1 16
REMARK H PARENT
REMARK Flexibility Score: inf
ROOT
ATOM      1  C   UNL     1      22.832  15.328 -17.350  1.00  0.00     0.000 C 
ENDROOT
BRANCH   1   2
ATOM      2  C   UNL     1      22.270  16.477 -18.215  1.00  0.00     0.000 C 
BRANCH   2   3
ATOM      3  C   UNL     1      21.003  17.102 -17.612  1.00  0.00     0.000 C 
BRANCH   3   4
ATOM      4  C   UNL     1      19.767  16.773 -18.464  1.00  0.00     0.000 C 
BRANCH   4   5
ATOM      5  C   UNL     1      20.131  16.343 -19.893  1.00  0.00     0.006 C 
BRANCH   5   6
ATOM      6  C   UNL     1      19.819  17.426 -20.934  1.00  0.00     0.053 C 
BRANCH   6   7
ATOM      7  C   UNL     1      18.386  17.348 -21.356  1.00  0.00     0.041 C 
ATOM      8  O   UNL     1      17.910  16.264 -21.785  1.00  0.00    -0.550 OA
ATOM      9  O   UNL     1      17.562  18.460 -21.228  1.00  0.00    -0.550 OA
ENDBRANCH   6   7
ENDBRANCH   5   6
ENDBRANCH   4   5
ENDBRANCH   3   4
ENDBRANCH   2   3
ENDBRANCH   1   2
BRANCH   1  10
ATOM     10  C   UNL     1      22.609  13.929 -17.955  1.00  0.00     0.000 C 
BRANCH  10  11
ATOM     11  C   UNL     1      21.687  13.003 -17.140  1.00  0.00    -0.000 C 
BRANCH  11  12
ATOM     12  C   UNL     1      20.949  13.684 -15.971  1.00  0.00    -0.000 C 
BRANCH  12  13
ATOM     13  C   UNL     1      19.483  14.007 -16.297  1.00  0.00    -0.000 C 
BRANCH  13  14
ATOM     14  C   UNL     1      18.974  13.134 -17.456  1.00  0.00    -0.000 C 
BRANCH  14  15
ATOM     15  C   UNL     1      18.044  12.007 -16.981  1.00  0.00    -0.003 C 
ATOM     16  C   UNL     1      18.778  10.682 -16.774  1.00  0.00     0.004 C 
ENDBRANCH  14  15
ENDBRANCH  13  14
ENDBRANCH  12  13
ENDBRANCH  11  12
ENDBRANCH  10  11
ENDBRANCH   1  10
TORSDOF 12
ENDMDL
