MODEL 1
REMARK VINA RESULT:    -5.988      0.000      0.000
REMARK INTER + INTRA:          -7.326
REMARK INTER:                  -7.038
REMARK INTRA:                  -0.288
REMARK UNBOUND:                -0.288
REMARK SMILES O=c1c(O)c(-c2ccc(O)cc2)oc2cc(O)cc(O)c12
REMARK SMILES IDX 5 1 3 2 2 3 1 4 21 5 19 6 18 7 16 8 15 9 14 10 13 11 6 12
REMARK SMILES IDX 7 13 8 14 9 15 12 16 11 17 10 18 4 20 20 22 17 24
REMARK H PARENT 10 19 4 21 20 23 17 25
REMARK Flexibility Score: inf
ROOT
ATOM      1  C   UNL     1      -9.104   9.018   6.427  1.00  0.00     0.180 A 
ATOM      2  C   UNL     1     -10.371   9.624   6.385  1.00  0.00     0.208 A 
ATOM      3  C   UNL     1     -11.517   8.813   6.431  1.00  0.00     0.238 A 
ATOM      4  O   UNL     1     -12.647   9.358   6.339  1.00  0.00    -0.285 OA
ATOM      5  C   UNL     1     -11.381   7.407   6.534  1.00  0.00     0.111 A 
ATOM      6  C   UNL     1     -12.472   6.492   6.628  1.00  0.00     0.134 A 
ATOM      7  C   UNL     1     -12.224   5.115   6.595  1.00  0.00     0.093 A 
ATOM      8  C   UNL     1     -10.921   4.620   6.536  1.00  0.00     0.123 A 
ATOM      9  C   UNL     1      -9.844   5.506   6.503  1.00  0.00     0.094 A 
ATOM     10  C   UNL     1     -10.062   6.885   6.500  1.00  0.00     0.146 A 
ATOM     11  O   UNL     1      -9.009   7.693   6.457  1.00  0.00    -0.452 OA
ENDROOT
BRANCH   1  12
ATOM     12  C   UNL     1      -7.851   9.807   6.408  1.00  0.00     0.021 A 
ATOM     13  C   UNL     1      -7.236  10.175   5.197  1.00  0.00     0.016 A 
ATOM     14  C   UNL     1      -6.067  10.943   5.203  1.00  0.00     0.047 A 
ATOM     15  C   UNL     1      -5.506  11.363   6.413  1.00  0.00     0.115 A 
ATOM     16  C   UNL     1      -7.294  10.251   7.619  1.00  0.00     0.016 A 
ATOM     17  C   UNL     1      -6.124  11.017   7.622  1.00  0.00     0.047 A 
BRANCH  15  18
ATOM     18  O   UNL     1      -4.341  12.125   6.403  1.00  0.00    -0.508 OA
ATOM     19  H   UNL     1      -3.458  11.747   6.728  1.00  0.00     0.293 HD
ENDBRANCH  15  18
ENDBRANCH   1  12
BRANCH   2  20
ATOM     20  O   UNL     1     -10.483  11.012   6.261  1.00  0.00    -0.502 OA
ATOM     21  H   UNL     1     -10.209  11.648   7.000  1.00  0.00     0.293 HD
ENDBRANCH   2  20
BRANCH   6  22
ATOM     22  O   UNL     1     -13.806   6.882   6.784  1.00  0.00    -0.507 OA
ATOM     23  H   UNL     1     -14.598   6.378   6.418  1.00  0.00     0.293 HD
ENDBRANCH   6  22
BRANCH   8  24
ATOM     24  O   UNL     1     -10.710   3.242   6.519  1.00  0.00    -0.508 OA
ATOM     25  H   UNL     1     -10.974   2.656   7.302  1.00  0.00     0.293 HD
ENDBRANCH   8  24
TORSDOF 5
ENDMDL
MODEL 2
REMARK VINA RESULT:    -5.564      1.404      6.404
REMARK INTER + INTRA:          -6.828
REMARK INTER:                  -6.622
REMARK INTRA:                  -0.206
REMARK UNBOUND:                -0.288
REMARK SMILES O=c1c(O)c(-c2ccc(O)cc2)oc2cc(O)cc(O)c12
REMARK SMILES IDX 5 1 3 2 2 3 1 4 21 5 19 6 18 7 16 8 15 9 14 10 13 11 6 12
REMARK SMILES IDX 7 13 8 14 9 15 12 16 11 17 10 18 4 20 20 22 17 24
REMARK H PARENT 10 19 4 21 20 23 17 25
REMARK Flexibility Score: inf
ROOT
ATOM      1  C   UNL     1      -9.859   7.434   6.590  1.00  0.00     0.180 A 
ATOM      2  C   UNL     1     -10.707   8.466   6.151  1.00  0.00     0.208 A 
ATOM      3  C   UNL     1     -10.142   9.690   5.757  1.00  0.00     0.238 A 
ATOM      4  O   UNL     1     -10.909  10.628   5.417  1.00  0.00    -0.285 OA
ATOM      5  C   UNL     1      -8.737   9.862   5.794  1.00  0.00     0.111 A 
ATOM      6  C   UNL     1      -8.054  11.046   5.381  1.00  0.00     0.134 A 
ATOM      7  C   UNL     1      -6.672  11.152   5.583  1.00  0.00     0.093 A 
ATOM      8  C   UNL     1      -5.940  10.094   6.122  1.00  0.00     0.123 A 
ATOM      9  C   UNL     1      -6.589   8.910   6.474  1.00  0.00     0.094 A 
ATOM     10  C   UNL     1      -7.971   8.788   6.318  1.00  0.00     0.146 A 
ATOM     11  O   UNL     1      -8.551   7.648   6.676  1.00  0.00    -0.452 OA
ENDROOT
BRANCH   1  12
ATOM     12  C   UNL     1     -10.378   6.108   6.997  1.00  0.00     0.021 A 
ATOM     13  C   UNL     1     -10.921   5.214   6.057  1.00  0.00     0.016 A 
ATOM     14  C   UNL     1     -11.382   3.957   6.461  1.00  0.00     0.047 A 
ATOM     15  C   UNL     1     -11.296   3.573   7.803  1.00  0.00     0.115 A 
ATOM     16  C   UNL     1     -10.276   5.707   8.340  1.00  0.00     0.016 A 
ATOM     17  C   UNL     1     -10.738   4.451   8.741  1.00  0.00     0.047 A 
BRANCH  15  18
ATOM     18  O   UNL     1     -11.761   2.319   8.190  1.00  0.00    -0.508 OA
ATOM     19  H   UNL     1     -12.152   2.161   9.112  1.00  0.00     0.293 HD
ENDBRANCH  15  18
ENDBRANCH   1  12
BRANCH   2  20
ATOM     20  O   UNL     1     -12.092   8.284   6.143  1.00  0.00    -0.502 OA
ATOM     21  H   UNL     1     -12.709   8.824   5.549  1.00  0.00     0.293 HD
ENDBRANCH   2  20
BRANCH   6  22
ATOM     22  O   UNL     1      -8.676  12.124   4.747  1.00  0.00    -0.507 OA
ATOM     23  H   UNL     1      -8.400  12.504   3.855  1.00  0.00     0.293 HD
ENDBRANCH   6  22
BRANCH   8  24
ATOM     24  O   UNL     1      -4.564  10.229   6.295  1.00  0.00    -0.508 OA
ATOM     25  H   UNL     1      -4.004   9.482   6.688  1.00  0.00     0.293 HD
ENDBRANCH   8  24
TORSDOF 5
ENDMDL
MODEL 3
REMARK VINA RESULT:    -5.152      2.401      6.565
REMARK INTER + INTRA:          -6.343
REMARK INTER:                  -6.301
REMARK INTRA:                  -0.043
REMARK UNBOUND:                -0.288
REMARK SMILES O=c1c(O)c(-c2ccc(O)cc2)oc2cc(O)cc(O)c12
REMARK SMILES IDX 5 1 3 2 2 3 1 4 21 5 19 6 18 7 16 8 15 9 14 10 13 11 6 12
REMARK SMILES IDX 7 13 8 14 9 15 12 16 11 17 10 18 4 20 20 22 17 24
REMARK H PARENT 10 19 4 21 20 23 17 25
REMARK Flexibility Score: inf
ROOT
ATOM      1  C   UNL     1     -12.035   7.513   6.751  1.00  0.00     0.180 A 
ATOM      2  C   UNL     1     -13.274   8.017   6.317  1.00  0.00     0.208 A 
ATOM      3  C   UNL     1     -13.317   9.277   5.697  1.00  0.00     0.238 A 
ATOM      4  O   UNL     1     -14.435   9.746   5.361  1.00  0.00    -0.285 OA
ATOM      5  C   UNL     1     -12.121  10.009   5.506  1.00  0.00     0.111 A 
ATOM      6  C   UNL     1     -12.042  11.277   4.854  1.00  0.00     0.134 A 
ATOM      7  C   UNL     1     -10.826  11.970   4.835  1.00  0.00     0.093 A 
ATOM      8  C   UNL     1      -9.672  11.413   5.386  1.00  0.00     0.123 A 
ATOM      9  C   UNL     1      -9.724  10.148   5.973  1.00  0.00     0.094 A 
ATOM     10  C   UNL     1     -10.931   9.449   6.039  1.00  0.00     0.146 A 
ATOM     11  O   UNL     1     -10.940   8.253   6.616  1.00  0.00    -0.452 OA
ENDROOT
BRANCH   1  12
ATOM     12  C   UNL     1     -11.905   6.183   7.390  1.00  0.00     0.021 A 
ATOM     13  C   UNL     1     -12.626   5.857   8.553  1.00  0.00     0.016 A 
ATOM     14  C   UNL     1     -12.507   4.586   9.125  1.00  0.00     0.047 A 
ATOM     15  C   UNL     1     -11.680   3.624   8.537  1.00  0.00     0.115 A 
ATOM     16  C   UNL     1     -11.093   5.205   6.793  1.00  0.00     0.016 A 
ATOM     17  C   UNL     1     -10.975   3.936   7.367  1.00  0.00     0.047 A 
BRANCH  15  18
ATOM     18  O   UNL     1     -11.570   2.364   9.119  1.00  0.00    -0.508 OA
ATOM     19  H   UNL     1     -11.940   2.174  10.044  1.00  0.00     0.293 HD
ENDBRANCH  15  18
ENDBRANCH   1  12
BRANCH   2  20
ATOM     20  O   UNL     1     -14.445   7.288   6.537  1.00  0.00    -0.502 OA
ATOM     21  H   UNL     1     -14.528   6.601   7.277  1.00  0.00     0.293 HD
ENDBRANCH   2  20
BRANCH   6  22
ATOM     22  O   UNL     1     -13.115  11.880   4.191  1.00  0.00    -0.507 OA
ATOM     23  H   UNL     1     -13.677  11.434   3.482  1.00  0.00     0.293 HD
ENDBRANCH   6  22
BRANCH   8  24
ATOM     24  O   UNL     1      -8.475  12.125   5.337  1.00  0.00    -0.508 OA
ATOM     25  H   UNL     1      -7.589  11.660   5.178  1.00  0.00     0.293 HD
ENDBRANCH   8  24
TORSDOF 5
ENDMDL
MODEL 4
REMARK VINA RESULT:    -4.974      1.656      3.167
REMARK INTER + INTRA:          -6.134
REMARK INTER:                  -6.047
REMARK INTRA:                  -0.087
REMARK UNBOUND:                -0.288
REMARK SMILES O=c1c(O)c(-c2ccc(O)cc2)oc2cc(O)cc(O)c12
REMARK SMILES IDX 5 1 3 2 2 3 1 4 21 5 19 6 18 7 16 8 15 9 14 10 13 11 6 12
REMARK SMILES IDX 7 13 8 14 9 15 12 16 11 17 10 18 4 20 20 22 17 24
REMARK H PARENT 10 19 4 21 20 23 17 25
REMARK Flexibility Score: inf
ROOT
ATOM      1  C   UNL     1      -9.942   7.772   6.177  1.00  0.00     0.180 A 
ATOM      2  C   UNL     1      -9.842   6.506   5.573  1.00  0.00     0.208 A 
ATOM      3  C   UNL     1     -10.883   5.580   5.756  1.00  0.00     0.238 A 
ATOM      4  O   UNL     1     -10.763   4.431   5.259  1.00  0.00    -0.285 OA
ATOM      5  C   UNL     1     -12.015   5.937   6.528  1.00  0.00     0.111 A 
ATOM      6  C   UNL     1     -13.146   5.093   6.745  1.00  0.00     0.134 A 
ATOM      7  C   UNL     1     -14.151   5.499   7.631  1.00  0.00     0.093 A 
ATOM      8  C   UNL     1     -14.099   6.745   8.256  1.00  0.00     0.123 A 
ATOM      9  C   UNL     1     -13.028   7.603   8.004  1.00  0.00     0.094 A 
ATOM     10  C   UNL     1     -11.993   7.211   7.153  1.00  0.00     0.146 A 
ATOM     11  O   UNL     1     -10.986   8.053   6.948  1.00  0.00    -0.452 OA
ENDROOT
BRANCH   1  12
ATOM     12  C   UNL     1      -8.898   8.809   6.009  1.00  0.00     0.021 A 
ATOM     13  C   UNL     1      -9.189  10.053   5.420  1.00  0.00     0.016 A 
ATOM     14  C   UNL     1      -8.193  11.027   5.295  1.00  0.00     0.047 A 
ATOM     15  C   UNL     1      -6.901  10.776   5.768  1.00  0.00     0.115 A 
ATOM     16  C   UNL     1      -7.604   8.573   6.500  1.00  0.00     0.016 A 
ATOM     17  C   UNL     1      -6.609   9.547   6.374  1.00  0.00     0.047 A 
BRANCH  15  18
ATOM     18  O   UNL     1      -5.919  11.755   5.635  1.00  0.00    -0.508 OA
ATOM     19  H   UNL     1      -5.241  11.927   6.369  1.00  0.00     0.293 HD
ENDBRANCH  15  18
ENDBRANCH   1  12
BRANCH   2  20
ATOM     20  O   UNL     1      -8.706   6.167   4.835  1.00  0.00    -0.502 OA
ATOM     21  H   UNL     1      -8.637   6.326   3.837  1.00  0.00     0.293 HD
ENDBRANCH   2  20
BRANCH   6  22
ATOM     22  O   UNL     1     -13.341   3.868   6.100  1.00  0.00    -0.507 OA
ATOM     23  H   UNL     1     -14.239   3.439   5.941  1.00  0.00     0.293 HD
ENDBRANCH   6  22
BRANCH   8  24
ATOM     24  O   UNL     1     -15.125   7.124   9.121  1.00  0.00    -0.508 OA
ATOM     25  H   UNL     1     -15.622   7.998   9.001  1.00  0.00     0.293 HD
ENDBRANCH   8  24
TORSDOF 5
ENDMDL
MODEL 5
REMARK VINA RESULT:    -4.972      2.415      6.621
REMARK INTER + INTRA:          -6.131
REMARK INTER:                  -6.037
REMARK INTRA:                  -0.095
REMARK UNBOUND:                -0.288
REMARK SMILES O=c1c(O)c(-c2ccc(O)cc2)oc2cc(O)cc(O)c12
REMARK SMILES IDX 5 1 3 2 2 3 1 4 21 5 19 6 18 7 16 8 15 9 14 10 13 11 6 12
REMARK SMILES IDX 7 13 8 14 9 15 12 16 11 17 10 18 4 20 20 22 17 24
REMARK H PARENT 10 19 4 21 20 23 17 25
REMARK Flexibility Score: inf
ROOT
ATOM      1  C   UNL     1     -10.966   7.520   6.677  1.00  0.00     0.180 A 
ATOM      2  C   UNL     1      -9.651   7.975   6.477  1.00  0.00     0.208 A 
ATOM      3  C   UNL     1      -9.448   9.247   5.917  1.00  0.00     0.238 A 
ATOM      4  O   UNL     1      -8.270   9.626   5.691  1.00  0.00    -0.285 OA
ATOM      5  C   UNL     1     -10.561  10.053   5.577  1.00  0.00     0.111 A 
ATOM      6  C   UNL     1     -10.473  11.373   5.040  1.00  0.00     0.134 A 
ATOM      7  C   UNL     1     -11.637  12.027   4.620  1.00  0.00     0.093 A 
ATOM      8  C   UNL     1     -12.891  11.437   4.777  1.00  0.00     0.123 A 
ATOM      9  C   UNL     1     -12.994  10.171   5.355  1.00  0.00     0.094 A 
ATOM     10  C   UNL     1     -11.848   9.479   5.751  1.00  0.00     0.146 A 
ATOM     11  O   UNL     1     -11.989   8.272   6.287  1.00  0.00    -0.452 OA
ENDROOT
BRANCH   1  12
ATOM     12  C   UNL     1     -11.260   6.202   7.285  1.00  0.00     0.021 A 
ATOM     13  C   UNL     1     -10.836   5.005   6.680  1.00  0.00     0.016 A 
ATOM     14  C   UNL     1     -11.103   3.773   7.285  1.00  0.00     0.047 A 
ATOM     15  C   UNL     1     -11.784   3.721   8.506  1.00  0.00     0.115 A 
ATOM     16  C   UNL     1     -11.925   6.143   8.521  1.00  0.00     0.016 A 
ATOM     17  C   UNL     1     -12.192   4.910   9.124  1.00  0.00     0.047 A 
BRANCH  15  18
ATOM     18  O   UNL     1     -12.044   2.487   9.095  1.00  0.00    -0.508 OA
ATOM     19  H   UNL     1     -12.019   2.365  10.102  1.00  0.00     0.293 HD
ENDBRANCH  15  18
ENDBRANCH   1  12
BRANCH   2  20
ATOM     20  O   UNL     1      -8.567   7.154   6.799  1.00  0.00    -0.502 OA
ATOM     21  H   UNL     1      -7.607   7.426   6.620  1.00  0.00     0.293 HD
ENDBRANCH   2  20
BRANCH   6  22
ATOM     22  O   UNL     1      -9.278  12.089   4.927  1.00  0.00    -0.507 OA
ATOM     23  H   UNL     1      -8.553  11.894   4.254  1.00  0.00     0.293 HD
ENDBRANCH   6  22
BRANCH   8  24
ATOM     24  O   UNL     1     -14.030  12.123   4.361  1.00  0.00    -0.508 OA
ATOM     25  H   UNL     1     -14.239  12.256   3.379  1.00  0.00     0.293 HD
ENDBRANCH   8  24
TORSDOF 5
ENDMDL
MODEL 6
REMARK VINA RESULT:    -4.732      1.445      3.295
REMARK INTER + INTRA:          -5.850
REMARK INTER:                  -5.550
REMARK INTRA:                  -0.300
REMARK UNBOUND:                -0.288
REMARK SMILES O=c1c(O)c(-c2ccc(O)cc2)oc2cc(O)cc(O)c12
REMARK SMILES IDX 5 1 3 2 2 3 1 4 21 5 19 6 18 7 16 8 15 9 14 10 13 11 6 12
REMARK SMILES IDX 7 13 8 14 9 15 12 16 11 17 10 18 4 20 20 22 17 24
REMARK H PARENT 10 19 4 21 20 23 17 25
REMARK Flexibility Score: inf
ROOT
ATOM      1  C   UNL     1      -9.363   9.318   6.381  1.00  0.00     0.180 A 
ATOM      2  C   UNL     1      -9.492   7.933   6.579  1.00  0.00     0.208 A 
ATOM      3  C   UNL     1     -10.767   7.349   6.504  1.00  0.00     0.238 A 
ATOM      4  O   UNL     1     -10.883   6.118   6.735  1.00  0.00    -0.285 OA
ATOM      5  C   UNL     1     -11.895   8.156   6.219  1.00  0.00     0.111 A 
ATOM      6  C   UNL     1     -13.228   7.666   6.080  1.00  0.00     0.134 A 
ATOM      7  C   UNL     1     -14.285   8.571   5.925  1.00  0.00     0.093 A 
ATOM      8  C   UNL     1     -14.050   9.943   5.839  1.00  0.00     0.123 A 
ATOM      9  C   UNL     1     -12.744  10.429   5.914  1.00  0.00     0.094 A 
ATOM     10  C   UNL     1     -11.673   9.553   6.104  1.00  0.00     0.146 A 
ATOM     11  O   UNL     1     -10.448  10.058   6.180  1.00  0.00    -0.452 OA
ENDROOT
BRANCH   1  12
ATOM     12  C   UNL     1      -8.049  10.001   6.420  1.00  0.00     0.021 A 
ATOM     13  C   UNL     1      -7.254  10.126   5.267  1.00  0.00     0.016 A 
ATOM     14  C   UNL     1      -6.028  10.797   5.322  1.00  0.00     0.047 A 
ATOM     15  C   UNL     1      -5.588  11.362   6.523  1.00  0.00     0.115 A 
ATOM     16  C   UNL     1      -7.610  10.588   7.619  1.00  0.00     0.016 A 
ATOM     17  C   UNL     1      -6.384  11.258   7.672  1.00  0.00     0.047 A 
BRANCH  15  18
ATOM     18  O   UNL     1      -4.365  12.025   6.563  1.00  0.00    -0.508 OA
ATOM     19  H   UNL     1      -4.009  12.428   7.423  1.00  0.00     0.293 HD
ENDBRANCH  15  18
ENDBRANCH   1  12
BRANCH   2  20
ATOM     20  O   UNL     1      -8.369   7.158   6.882  1.00  0.00    -0.502 OA
ATOM     21  H   UNL     1      -7.454   7.348   6.490  1.00  0.00     0.293 HD
ENDBRANCH   2  20
BRANCH   6  22
ATOM     22  O   UNL     1     -13.561   6.308   6.059  1.00  0.00    -0.507 OA
ATOM     23  H   UNL     1     -14.146   5.871   5.363  1.00  0.00     0.293 HD
ENDBRANCH   6  22
BRANCH   8  24
ATOM     24  O   UNL     1     -15.125  10.815   5.670  1.00  0.00    -0.508 OA
ATOM     25  H   UNL     1     -16.048  10.476   5.427  1.00  0.00     0.293 HD
ENDBRANCH   8  24
TORSDOF 5
ENDMDL
MODEL 7
REMARK VINA RESULT:    -4.377      3.681      6.556
REMARK INTER + INTRA:          -5.433
REMARK INTER:                  -5.178
REMARK INTRA:                  -0.255
REMARK UNBOUND:                -0.288
REMARK SMILES O=c1c(O)c(-c2ccc(O)cc2)oc2cc(O)cc(O)c12
REMARK SMILES IDX 5 1 3 2 2 3 1 4 21 5 19 6 18 7 16 8 15 9 14 10 13 11 6 12
REMARK SMILES IDX 7 13 8 14 9 15 12 16 11 17 10 18 4 20 20 22 17 24
REMARK H PARENT 10 19 4 21 20 23 17 25
REMARK Flexibility Score: inf
ROOT
ATOM      1  C   UNL     1     -11.119  11.116   5.189  1.00  0.00     0.180 A 
ATOM      2  C   UNL     1     -11.367  11.647   6.467  1.00  0.00     0.208 A 
ATOM      3  C   UNL     1     -10.317  11.699   7.398  1.00  0.00     0.238 A 
ATOM      4  O   UNL     1     -10.558  12.125   8.557  1.00  0.00    -0.285 OA
ATOM      5  C   UNL     1      -9.030  11.233   7.035  1.00  0.00     0.111 A 
ATOM      6  C   UNL     1      -7.884  11.275   7.885  1.00  0.00     0.134 A 
ATOM      7  C   UNL     1      -6.693  10.668   7.468  1.00  0.00     0.093 A 
ATOM      8  C   UNL     1      -6.587  10.079   6.208  1.00  0.00     0.123 A 
ATOM      9  C   UNL     1      -7.684  10.085   5.346  1.00  0.00     0.094 A 
ATOM     10  C   UNL     1      -8.896  10.651   5.748  1.00  0.00     0.146 A 
ATOM     11  O   UNL     1      -9.919  10.627   4.901  1.00  0.00    -0.452 OA
ENDROOT
BRANCH   1  12
ATOM     12  C   UNL     1     -12.169  11.051   4.146  1.00  0.00     0.021 A 
ATOM     13  C   UNL     1     -12.211  11.979   3.089  1.00  0.00     0.016 A 
ATOM     14  C   UNL     1     -13.196  11.882   2.102  1.00  0.00     0.047 A 
ATOM     15  C   UNL     1     -14.142  10.853   2.149  1.00  0.00     0.115 A 
ATOM     16  C   UNL     1     -13.110  10.008   4.175  1.00  0.00     0.016 A 
ATOM     17  C   UNL     1     -14.095   9.914   3.187  1.00  0.00     0.047 A 
BRANCH  15  18
ATOM     18  O   UNL     1     -15.118  10.771   1.160  1.00  0.00    -0.508 OA
ATOM     19  H   UNL     1     -15.141  10.001   0.501  1.00  0.00     0.293 HD
ENDBRANCH  15  18
ENDBRANCH   1  12
BRANCH   2  20
ATOM     20  O   UNL     1     -12.650  12.080   6.811  1.00  0.00    -0.502 OA
ATOM     21  H   UNL     1     -12.812  12.833   7.471  1.00  0.00     0.293 HD
ENDBRANCH   2  20
BRANCH   6  22
ATOM     22  O   UNL     1      -7.856  11.919   9.125  1.00  0.00    -0.507 OA
ATOM     23  H   UNL     1      -8.574  12.538   9.467  1.00  0.00     0.293 HD
ENDBRANCH   6  22
BRANCH   8  24
ATOM     24  O   UNL     1      -5.382   9.497   5.821  1.00  0.00    -0.508 OA
ATOM     25  H   UNL     1      -5.106   8.580   6.152  1.00  0.00     0.293 HD
ENDBRANCH   8  24
TORSDOF 5
ENDMDL
