MODEL 1
REMARK VINA RESULT:    -5.057      0.000      0.000
REMARK INTER + INTRA:         -17.006
REMARK INTER:                 -12.745
REMARK INTRA:                  -4.261
REMARK UNBOUND:                -4.261
REMARK SMILES CCCCCCCCCCCCCCCCCCCCCCCCCCCC(=O)[O-]
REMARK SMILES IDX 15 1 16 2 17 3 18 4 19 5 20 6 21 7 22 8 23 9 24 10 25 11
REMARK SMILES IDX 26 12 27 13 28 14 29 15 30 16 14 17 13 18 12 19 11 20 10 21
REMARK SMILES IDX 9 22 8 23 7 24 6 25 5 26 4 27 3 28 2 29 1 30
REMARK H PARENT
REMARK Flexibility Score: inf
ROOT
ATOM      1  C   UNL     1      -8.521 -39.408  45.484  1.00  0.00     0.000 C 
ENDROOT
BRANCH   1   2
ATOM      2  C   UNL     1      -8.427 -38.304  46.556  1.00  0.00     0.000 C 
BRANCH   2   3
ATOM      3  C   UNL     1      -8.016 -38.813  47.953  1.00  0.00     0.000 C 
BRANCH   3   4
ATOM      4  C   UNL     1      -8.536 -40.232  48.249  1.00  0.00     0.000 C 
BRANCH   4   5
ATOM      5  C   UNL     1      -9.892 -40.225  48.973  1.00  0.00     0.000 C 
BRANCH   5   6
ATOM      6  C   UNL     1     -11.082 -40.403  48.018  1.00  0.00     0.000 C 
BRANCH   6   7
ATOM      7  C   UNL     1     -11.829 -39.074  47.824  1.00  0.00     0.000 C 
BRANCH   7   8
ATOM      8  C   UNL     1     -11.693 -38.132  49.030  1.00  0.00     0.000 C 
BRANCH   8   9
ATOM      9  C   UNL     1     -12.025 -36.671  48.681  1.00  0.00     0.000 C 
BRANCH   9  10
ATOM     10  C   UNL     1     -11.419 -36.239  47.336  1.00  0.00     0.000 C 
BRANCH  10  11
ATOM     11  C   UNL     1     -10.186 -35.334  47.505  1.00  0.00     0.000 C 
BRANCH  11  12
ATOM     12  C   UNL     1      -9.828 -34.568  46.217  1.00  0.00     0.006 C 
BRANCH  12  13
ATOM     13  C   UNL     1     -10.620 -35.015  44.978  1.00  0.00     0.053 C 
BRANCH  13  14
ATOM     14  C   UNL     1     -10.045 -34.458  43.710  1.00  0.00     0.041 C 
ATOM     15  O   UNL     1      -9.053 -35.010  43.168  1.00  0.00    -0.550 OA
ATOM     16  O   UNL     1     -10.625 -33.346  43.113  1.00  0.00    -0.550 OA
ENDBRANCH  13  14
ENDBRANCH  12  13
ENDBRANCH  11  12
ENDBRANCH  10  11
ENDBRANCH   9  10
ENDBRANCH   8   9
ENDBRANCH   7   8
ENDBRANCH   6   7
ENDBRANCH   5   6
ENDBRANCH   4   5
ENDBRANCH   3   4
ENDBRANCH   2   3
ENDBRANCH   1   2
BRANCH   1  17
ATOM     17  C   UNL     1      -9.343 -39.049  44.234  1.00  0.00     0.000 C 
BRANCH  17  18
ATOM     18  C   UNL     1     -10.736 -38.492  44.576  1.00  0.00     0.000 C 
BRANCH  18  19
ATOM     19  C   UNL     1     -11.706 -38.515  43.379  1.00  0.00     0.000 C 
BRANCH  19  20
ATOM     20  C   UNL     1     -12.982 -39.356  43.579  1.00  0.00     0.000 C 
BRANCH  20  21
ATOM     21  C   UNL     1     -12.805 -40.654  44.390  1.00  0.00     0.000 C 
BRANCH  21  22
ATOM     22  C   UNL     1     -12.126 -41.802  43.613  1.00  0.00    -0.000 C 
BRANCH  22  23
ATOM     23  C   UNL     1     -11.932 -41.483  42.118  1.00  0.00    -0.000 C 
BRANCH  23  24
ATOM     24  C   UNL     1     -11.570 -42.734  41.295  1.00  0.00    -0.000 C 
BRANCH  24  25
ATOM     25  C   UNL     1     -10.129 -42.715  40.748  1.00  0.00    -0.000 C 
BRANCH  25  26
ATOM     26  C   UNL     1      -9.248 -41.678  41.469  1.00  0.00    -0.000 C 
BRANCH  26  27
ATOM     27  C   UNL     1      -8.414 -42.294  42.603  1.00  0.00    -0.000 C 
BRANCH  27  28
ATOM     28  C   UNL     1      -6.952 -41.812  42.596  1.00  0.00    -0.000 C 
BRANCH  28  29
ATOM     29  C   UNL     1      -6.011 -42.770  43.342  1.00  0.00    -0.003 C 
ATOM     30  C   UNL     1      -6.507 -44.215  43.334  1.00  0.00     0.004 C 
ENDBRANCH  28  29
ENDBRANCH  27  28
ENDBRANCH  26  27
ENDBRANCH  25  26
ENDBRANCH  24  25
ENDBRANCH  23  24
ENDBRANCH  22  23
ENDBRANCH  21  22
ENDBRANCH  20  21
ENDBRANCH  19  20
ENDBRANCH  18  19
ENDBRANCH  17  18
ENDBRANCH   1  17
TORSDOF 26
ENDMDL
MODEL 2
REMARK VINA RESULT:    -5.055      2.365      5.719
REMARK INTER + INTRA:         -16.998
REMARK INTER:                 -13.216
REMARK INTRA:                  -3.782
REMARK UNBOUND:                -4.261
REMARK SMILES CCCCCCCCCCCCCCCCCCCCCCCCCCCC(=O)[O-]
REMARK SMILES IDX 15 1 16 2 17 3 18 4 19 5 20 6 21 7 22 8 23 9 24 10 25 11
REMARK SMILES IDX 26 12 27 13 28 14 29 15 30 16 14 17 13 18 12 19 11 20 10 21
REMARK SMILES IDX 9 22 8 23 7 24 6 25 5 26 4 27 3 28 2 29 1 30
REMARK H PARENT
REMARK Flexibility Score: inf
ROOT
ATOM      1  C   UNL     1      -8.812 -40.280  43.675  1.00  0.00     0.000 C 
ENDROOT
BRANCH   1   2
ATOM      2  C   UNL     1      -8.457 -39.310  44.819  1.00  0.00     0.000 C 
BRANCH   2   3
ATOM      3  C   UNL     1      -8.787 -37.833  44.520  1.00  0.00     0.000 C 
BRANCH   3   4
ATOM      4  C   UNL     1     -10.301 -37.548  44.505  1.00  0.00     0.000 C 
BRANCH   4   5
ATOM      5  C   UNL     1     -10.625 -36.063  44.727  1.00  0.00     0.000 C 
BRANCH   5   6
ATOM      6  C   UNL     1      -9.794 -35.128  43.836  1.00  0.00     0.000 C 
BRANCH   6   7
ATOM      7  C   UNL     1     -10.596 -33.869  43.469  1.00  0.00     0.000 C 
BRANCH   7   8
ATOM      8  C   UNL     1     -10.145 -33.241  42.142  1.00  0.00     0.000 C 
BRANCH   8   9
ATOM      9  C   UNL     1      -8.949 -33.977  41.513  1.00  0.00     0.000 C 
BRANCH   9  10
ATOM     10  C   UNL     1      -7.687 -33.101  41.458  1.00  0.00     0.000 C 
BRANCH  10  11
ATOM     11  C   UNL     1      -7.735 -31.931  42.456  1.00  0.00     0.000 C 
BRANCH  11  12
ATOM     12  C   UNL     1      -6.874 -32.181  43.709  1.00  0.00     0.006 C 
BRANCH  12  13
ATOM     13  C   UNL     1      -7.667 -32.197  45.026  1.00  0.00     0.053 C 
BRANCH  13  14
ATOM     14  C   UNL     1      -6.810 -31.846  46.205  1.00  0.00     0.041 C 
ATOM     15  O   UNL     1      -7.286 -31.888  47.369  1.00  0.00    -0.550 OA
ATOM     16  O   UNL     1      -5.478 -31.499  46.019  1.00  0.00    -0.550 OA
ENDBRANCH  13  14
ENDBRANCH  12  13
ENDBRANCH  11  12
ENDBRANCH  10  11
ENDBRANCH   9  10
ENDBRANCH   8   9
ENDBRANCH   7   8
ENDBRANCH   6   7
ENDBRANCH   5   6
ENDBRANCH   4   5
ENDBRANCH   3   4
ENDBRANCH   2   3
ENDBRANCH   1   2
BRANCH   1  17
ATOM     17  C   UNL     1      -7.616 -40.835  42.882  1.00  0.00     0.000 C 
BRANCH  17  18
ATOM     18  C   UNL     1      -8.039 -41.550  41.588  1.00  0.00     0.000 C 
BRANCH  18  19
ATOM     19  C   UNL     1      -9.387 -42.283  41.716  1.00  0.00     0.000 C 
BRANCH  19  20
ATOM     20  C   UNL     1     -10.257 -42.296  40.444  1.00  0.00     0.000 C 
BRANCH  20  21
ATOM     21  C   UNL     1     -11.689 -41.752  40.609  1.00  0.00     0.000 C 
BRANCH  21  22
ATOM     22  C   UNL     1     -12.107 -41.498  42.074  1.00  0.00    -0.000 C 
BRANCH  22  23
ATOM     23  C   UNL     1     -12.441 -40.020  42.354  1.00  0.00    -0.000 C 
BRANCH  23  24
ATOM     24  C   UNL     1     -12.805 -39.773  43.831  1.00  0.00    -0.000 C 
BRANCH  24  25
ATOM     25  C   UNL     1     -12.245 -40.841  44.790  1.00  0.00    -0.000 C 
BRANCH  25  26
ATOM     26  C   UNL     1     -12.487 -40.480  46.267  1.00  0.00    -0.000 C 
BRANCH  26  27
ATOM     27  C   UNL     1     -11.183 -40.384  47.075  1.00  0.00    -0.000 C 
BRANCH  27  28
ATOM     28  C   UNL     1     -11.292 -39.415  48.267  1.00  0.00    -0.000 C 
BRANCH  28  29
ATOM     29  C   UNL     1     -10.427 -38.158  48.086  1.00  0.00    -0.003 C 
ATOM     30  C   UNL     1     -11.206 -36.865  48.318  1.00  0.00     0.004 C 
ENDBRANCH  28  29
ENDBRANCH  27  28
ENDBRANCH  26  27
ENDBRANCH  25  26
ENDBRANCH  24  25
ENDBRANCH  23  24
ENDBRANCH  22  23
ENDBRANCH  21  22
ENDBRANCH  20  21
ENDBRANCH  19  20
ENDBRANCH  18  19
ENDBRANCH  17  18
ENDBRANCH   1  17
TORSDOF 26
ENDMDL
MODEL 3
REMARK VINA RESULT:    -5.026      4.145      9.172
REMARK INTER + INTRA:         -16.927
REMARK INTER:                 -12.719
REMARK INTRA:                  -4.208
REMARK UNBOUND:                -4.261
REMARK SMILES CCCCCCCCCCCCCCCCCCCCCCCCCCCC(=O)[O-]
REMARK SMILES IDX 15 1 16 2 17 3 18 4 19 5 20 6 21 7 22 8 23 9 24 10 25 11
REMARK SMILES IDX 26 12 27 13 28 14 29 15 30 16 14 17 13 18 12 19 11 20 10 21
REMARK SMILES IDX 9 22 8 23 7 24 6 25 5 26 4 27 3 28 2 29 1 30
REMARK H PARENT
REMARK Flexibility Score: inf
ROOT
ATOM      1  C   UNL     1      -9.159 -33.224  40.792  1.00  0.00     0.000 C 
ENDROOT
BRANCH   1   2
ATOM      2  C   UNL     1      -9.899 -34.091  41.829  1.00  0.00     0.000 C 
BRANCH   2   3
ATOM      3  C   UNL     1     -10.417 -33.309  43.054  1.00  0.00     0.000 C 
BRANCH   3   4
ATOM      4  C   UNL     1     -10.398 -34.143  44.349  1.00  0.00     0.000 C 
BRANCH   4   5
ATOM      5  C   UNL     1     -10.153 -35.637  44.086  1.00  0.00     0.000 C 
BRANCH   5   6
ATOM      6  C   UNL     1     -10.406 -36.512  45.322  1.00  0.00     0.000 C 
BRANCH   6   7
ATOM      7  C   UNL     1      -9.921 -35.807  46.599  1.00  0.00     0.000 C 
BRANCH   7   8
ATOM      8  C   UNL     1     -10.641 -36.301  47.863  1.00  0.00     0.000 C 
BRANCH   8   9
ATOM      9  C   UNL     1     -12.114 -36.661  47.604  1.00  0.00     0.000 C 
BRANCH   9  10
ATOM     10  C   UNL     1     -12.483 -38.047  48.158  1.00  0.00     0.000 C 
BRANCH  10  11
ATOM     11  C   UNL     1     -11.602 -38.461  49.351  1.00  0.00     0.000 C 
BRANCH  11  12
ATOM     12  C   UNL     1     -10.879 -39.801  49.121  1.00  0.00     0.006 C 
BRANCH  12  13
ATOM     13  C   UNL     1     -10.277 -39.959  47.715  1.00  0.00     0.053 C 
BRANCH  13  14
ATOM     14  C   UNL     1      -8.786 -39.795  47.718  1.00  0.00     0.041 C 
ATOM     15  O   UNL     1      -8.068 -40.546  48.427  1.00  0.00    -0.550 OA
ATOM     16  O   UNL     1      -8.190 -38.831  46.915  1.00  0.00    -0.550 OA
ENDBRANCH  13  14
ENDBRANCH  12  13
ENDBRANCH  11  12
ENDBRANCH  10  11
ENDBRANCH   9  10
ENDBRANCH   8   9
ENDBRANCH   7   8
ENDBRANCH   6   7
ENDBRANCH   5   6
ENDBRANCH   4   5
ENDBRANCH   3   4
ENDBRANCH   2   3
ENDBRANCH   1   2
BRANCH   1  17
ATOM     17  C   UNL     1      -7.777 -32.706  41.228  1.00  0.00     0.000 C 
BRANCH  17  18
ATOM     18  C   UNL     1      -7.762 -31.189  41.482  1.00  0.00     0.000 C 
BRANCH  18  19
ATOM     19  C   UNL     1      -7.344 -30.822  42.919  1.00  0.00     0.000 C 
BRANCH  19  20
ATOM     20  C   UNL     1      -6.933 -32.009  43.811  1.00  0.00     0.000 C 
BRANCH  20  21
ATOM     21  C   UNL     1      -5.743 -31.753  44.756  1.00  0.00     0.000 C 
BRANCH  21  22
ATOM     22  C   UNL     1      -5.277 -30.282  44.807  1.00  0.00    -0.000 C 
BRANCH  22  23
ATOM     23  C   UNL     1      -5.365 -29.673  46.219  1.00  0.00    -0.000 C 
BRANCH  23  24
ATOM     24  C   UNL     1      -6.483 -28.619  46.332  1.00  0.00    -0.000 C 
BRANCH  24  25
ATOM     25  C   UNL     1      -7.895 -29.228  46.441  1.00  0.00    -0.000 C 
BRANCH  25  26
ATOM     26  C   UNL     1      -8.043 -30.135  47.676  1.00  0.00    -0.000 C 
BRANCH  26  27
ATOM     27  C   UNL     1      -8.902 -31.378  47.400  1.00  0.00    -0.000 C 
BRANCH  27  28
ATOM     28  C   UNL     1      -8.062 -32.659  47.239  1.00  0.00    -0.000 C 
BRANCH  28  29
ATOM     29  C   UNL     1      -7.183 -32.946  48.465  1.00  0.00    -0.003 C 
ATOM     30  C   UNL     1      -5.691 -32.943  48.139  1.00  0.00     0.004 C 
ENDBRANCH  28  29
ENDBRANCH  27  28
ENDBRANCH  26  27
ENDBRANCH  25  26
ENDBRANCH  24  25
ENDBRANCH  23  24
ENDBRANCH  22  23
ENDBRANCH  21  22
ENDBRANCH  20  21
ENDBRANCH  19  20
ENDBRANCH  18  19
ENDBRANCH  17  18
ENDBRANCH   1  17
TORSDOF 26
ENDMDL
MODEL 4
REMARK VINA RESULT:    -5.005      2.954      6.662
REMARK INTER + INTRA:         -16.872
REMARK INTER:                 -12.471
REMARK INTRA:                  -4.401
REMARK UNBOUND:                -4.261
REMARK SMILES CCCCCCCCCCCCCCCCCCCCCCCCCCCC(=O)[O-]
REMARK SMILES IDX 15 1 16 2 17 3 18 4 19 5 20 6 21 7 22 8 23 9 24 10 25 11
REMARK SMILES IDX 26 12 27 13 28 14 29 15 30 16 14 17 13 18 12 19 11 20 10 21
REMARK SMILES IDX 9 22 8 23 7 24 6 25 5 26 4 27 3 28 2 29 1 30
REMARK H PARENT
REMARK Flexibility Score: inf
ROOT
ATOM      1  C   UNL     1      -9.895 -35.208  46.166  1.00  0.00     0.000 C 
ENDROOT
BRANCH   1   2
ATOM      2  C   UNL     1     -10.807 -35.124  44.925  1.00  0.00     0.000 C 
BRANCH   2   3
ATOM      3  C   UNL     1     -10.371 -34.066  43.891  1.00  0.00     0.000 C 
BRANCH   3   4
ATOM      4  C   UNL     1      -9.834 -34.687  42.588  1.00  0.00     0.000 C 
BRANCH   4   5
ATOM      5  C   UNL     1      -9.668 -33.652  41.464  1.00  0.00     0.000 C 
BRANCH   5   6
ATOM      6  C   UNL     1      -8.222 -33.158  41.312  1.00  0.00     0.000 C 
BRANCH   6   7
ATOM      7  C   UNL     1      -8.159 -31.624  41.376  1.00  0.00     0.000 C 
BRANCH   7   8
ATOM      8  C   UNL     1      -7.430 -31.108  42.626  1.00  0.00     0.000 C 
BRANCH   8   9
ATOM      9  C   UNL     1      -7.059 -32.236  43.603  1.00  0.00     0.000 C 
BRANCH   9  10
ATOM     10  C   UNL     1      -6.934 -31.737  45.052  1.00  0.00     0.000 C 
BRANCH  10  11
ATOM     11  C   UNL     1      -8.240 -31.901  45.849  1.00  0.00     0.000 C 
BRANCH  11  12
ATOM     12  C   UNL     1      -8.002 -32.401  47.287  1.00  0.00     0.006 C 
BRANCH  12  13
ATOM     13  C   UNL     1      -9.212 -32.236  48.220  1.00  0.00     0.053 C 
BRANCH  13  14
ATOM     14  C   UNL     1      -8.841 -31.578  49.515  1.00  0.00     0.041 C 
ATOM     15  O   UNL     1      -8.084 -30.573  49.521  1.00  0.00    -0.550 OA
ATOM     16  O   UNL     1      -9.356 -32.059  50.713  1.00  0.00    -0.550 OA
ENDBRANCH  13  14
ENDBRANCH  12  13
ENDBRANCH  11  12
ENDBRANCH  10  11
ENDBRANCH   9  10
ENDBRANCH   8   9
ENDBRANCH   7   8
ENDBRANCH   6   7
ENDBRANCH   5   6
ENDBRANCH   4   5
ENDBRANCH   3   4
ENDBRANCH   2   3
ENDBRANCH   1   2
BRANCH   1  17
ATOM     17  C   UNL     1     -10.532 -35.845  47.413  1.00  0.00     0.000 C 
BRANCH  17  18
ATOM     18  C   UNL     1     -11.678 -36.812  47.069  1.00  0.00     0.000 C 
BRANCH  18  19
ATOM     19  C   UNL     1     -11.821 -37.963  48.083  1.00  0.00     0.000 C 
BRANCH  19  20
ATOM     20  C   UNL     1     -12.055 -39.358  47.472  1.00  0.00     0.000 C 
BRANCH  20  21
ATOM     21  C   UNL     1     -10.915 -40.374  47.672  1.00  0.00     0.000 C 
BRANCH  21  22
ATOM     22  C   UNL     1      -9.892 -39.977  48.758  1.00  0.00    -0.000 C 
BRANCH  22  23
ATOM     23  C   UNL     1      -8.445 -39.929  48.231  1.00  0.00    -0.000 C 
BRANCH  23  24
ATOM     24  C   UNL     1      -8.384 -39.911  46.692  1.00  0.00    -0.000 C 
BRANCH  24  25
ATOM     25  C   UNL     1      -8.331 -38.491  46.095  1.00  0.00    -0.000 C 
BRANCH  25  26
ATOM     26  C   UNL     1      -8.951 -38.428  44.687  1.00  0.00    -0.000 C 
BRANCH  26  27
ATOM     27  C   UNL     1      -9.246 -39.820  44.106  1.00  0.00    -0.000 C 
BRANCH  27  28
ATOM     28  C   UNL     1     -10.752 -40.083  43.926  1.00  0.00    -0.000 C 
BRANCH  28  29
ATOM     29  C   UNL     1     -11.568 -38.786  43.808  1.00  0.00    -0.003 C 
ATOM     30  C   UNL     1     -12.568 -38.818  42.654  1.00  0.00     0.004 C 
ENDBRANCH  28  29
ENDBRANCH  27  28
ENDBRANCH  26  27
ENDBRANCH  25  26
ENDBRANCH  24  25
ENDBRANCH  23  24
ENDBRANCH  22  23
ENDBRANCH  21  22
ENDBRANCH  20  21
ENDBRANCH  19  20
ENDBRANCH  18  19
ENDBRANCH  17  18
ENDBRANCH   1  17
TORSDOF 26
ENDMDL
MODEL 5
REMARK VINA RESULT:    -4.986      3.429      6.815
REMARK INTER + INTRA:         -16.826
REMARK INTER:                 -12.682
REMARK INTRA:                  -4.144
REMARK UNBOUND:                -4.261
REMARK SMILES CCCCCCCCCCCCCCCCCCCCCCCCCCCC(=O)[O-]
REMARK SMILES IDX 15 1 16 2 17 3 18 4 19 5 20 6 21 7 22 8 23 9 24 10 25 11
REMARK SMILES IDX 26 12 27 13 28 14 29 15 30 16 14 17 13 18 12 19 11 20 10 21
REMARK SMILES IDX 9 22 8 23 7 24 6 25 5 26 4 27 3 28 2 29 1 30
REMARK H PARENT
REMARK Flexibility Score: inf
ROOT
ATOM      1  C   UNL     1      -9.850 -35.163  46.012  1.00  0.00     0.000 C 
ENDROOT
BRANCH   1   2
ATOM      2  C   UNL     1     -10.940 -34.934  44.946  1.00  0.00     0.000 C 
BRANCH   2   3
ATOM      3  C   UNL     1     -10.523 -33.977  43.811  1.00  0.00     0.000 C 
BRANCH   3   4
ATOM      4  C   UNL     1      -9.878 -34.708  42.618  1.00  0.00     0.000 C 
BRANCH   4   5
ATOM      5  C   UNL     1      -9.485 -33.752  41.481  1.00  0.00     0.000 C 
BRANCH   5   6
ATOM      6  C   UNL     1      -8.020 -33.295  41.561  1.00  0.00     0.000 C 
BRANCH   6   7
ATOM      7  C   UNL     1      -7.932 -31.804  41.921  1.00  0.00     0.000 C 
BRANCH   7   8
ATOM      8  C   UNL     1      -7.131 -31.546  43.207  1.00  0.00     0.000 C 
BRANCH   8   9
ATOM      9  C   UNL     1      -7.543 -32.479  44.358  1.00  0.00     0.000 C 
BRANCH   9  10
ATOM     10  C   UNL     1      -7.697 -31.729  45.691  1.00  0.00     0.000 C 
BRANCH  10  11
ATOM     11  C   UNL     1      -6.608 -32.106  46.711  1.00  0.00     0.000 C 
BRANCH  11  12
ATOM     12  C   UNL     1      -5.403 -31.146  46.680  1.00  0.00     0.006 C 
BRANCH  12  13
ATOM     13  C   UNL     1      -5.768 -29.689  46.352  1.00  0.00     0.053 C 
BRANCH  13  14
ATOM     14  C   UNL     1      -4.789 -29.061  45.406  1.00  0.00     0.041 C 
ATOM     15  O   UNL     1      -4.198 -29.765  44.547  1.00  0.00    -0.550 OA
ATOM     16  O   UNL     1      -4.551 -27.693  45.456  1.00  0.00    -0.550 OA
ENDBRANCH  13  14
ENDBRANCH  12  13
ENDBRANCH  11  12
ENDBRANCH  10  11
ENDBRANCH   9  10
ENDBRANCH   8   9
ENDBRANCH   7   8
ENDBRANCH   6   7
ENDBRANCH   5   6
ENDBRANCH   4   5
ENDBRANCH   3   4
ENDBRANCH   2   3
ENDBRANCH   1   2
BRANCH   1  17
ATOM     17  C   UNL     1     -10.351 -35.679  47.372  1.00  0.00     0.000 C 
BRANCH  17  18
ATOM     18  C   UNL     1     -11.656 -36.487  47.258  1.00  0.00     0.000 C 
BRANCH  18  19
ATOM     19  C   UNL     1     -11.668 -37.740  48.153  1.00  0.00     0.000 C 
BRANCH  19  20
ATOM     20  C   UNL     1     -12.119 -39.042  47.461  1.00  0.00     0.000 C 
BRANCH  20  21
ATOM     21  C   UNL     1     -11.221 -40.270  47.701  1.00  0.00     0.000 C 
BRANCH  21  22
ATOM     22  C   UNL     1     -10.211 -40.104  48.857  1.00  0.00    -0.000 C 
BRANCH  22  23
ATOM     23  C   UNL     1      -8.756 -39.979  48.369  1.00  0.00    -0.000 C 
BRANCH  23  24
ATOM     24  C   UNL     1      -8.660 -39.883  46.834  1.00  0.00    -0.000 C 
BRANCH  24  25
ATOM     25  C   UNL     1      -8.333 -38.465  46.325  1.00  0.00    -0.000 C 
BRANCH  25  26
ATOM     26  C   UNL     1      -8.652 -38.297  44.829  1.00  0.00    -0.000 C 
BRANCH  26  27
ATOM     27  C   UNL     1      -9.872 -39.118  44.386  1.00  0.00    -0.000 C 
BRANCH  27  28
ATOM     28  C   UNL     1     -11.091 -38.239  44.052  1.00  0.00    -0.000 C 
BRANCH  28  29
ATOM     29  C   UNL     1     -12.151 -38.987  43.229  1.00  0.00    -0.003 C 
ATOM     30  C   UNL     1     -12.818 -40.119  44.008  1.00  0.00     0.004 C 
ENDBRANCH  28  29
ENDBRANCH  27  28
ENDBRANCH  26  27
ENDBRANCH  25  26
ENDBRANCH  24  25
ENDBRANCH  23  24
ENDBRANCH  22  23
ENDBRANCH  21  22
ENDBRANCH  20  21
ENDBRANCH  19  20
ENDBRANCH  18  19
ENDBRANCH  17  18
ENDBRANCH   1  17
TORSDOF 26
ENDMDL
MODEL 6
REMARK VINA RESULT:    -4.926      2.820      5.133
REMARK INTER + INTRA:         -16.674
REMARK INTER:                 -13.353
REMARK INTRA:                  -3.321
REMARK UNBOUND:                -4.261
REMARK SMILES CCCCCCCCCCCCCCCCCCCCCCCCCCCC(=O)[O-]
REMARK SMILES IDX 15 1 16 2 17 3 18 4 19 5 20 6 21 7 22 8 23 9 24 10 25 11
REMARK SMILES IDX 26 12 27 13 28 14 29 15 30 16 14 17 13 18 12 19 11 20 10 21
REMARK SMILES IDX 9 22 8 23 7 24 6 25 5 26 4 27 3 28 2 29 1 30
REMARK H PARENT
REMARK Flexibility Score: inf
ROOT
ATOM      1  C   UNL     1      -8.382 -39.649  46.062  1.00  0.00     0.000 C 
ENDROOT
BRANCH   1   2
ATOM      2  C   UNL     1      -8.352 -38.148  45.713  1.00  0.00     0.000 C 
BRANCH   2   3
ATOM      3  C   UNL     1      -9.408 -37.720  44.672  1.00  0.00     0.000 C 
BRANCH   3   4
ATOM      4  C   UNL     1     -10.074 -36.374  45.015  1.00  0.00     0.000 C 
BRANCH   4   5
ATOM      5  C   UNL     1     -10.635 -35.660  43.775  1.00  0.00     0.000 C 
BRANCH   5   6
ATOM      6  C   UNL     1      -9.574 -34.846  43.020  1.00  0.00     0.000 C 
BRANCH   6   7
ATOM      7  C   UNL     1     -10.227 -33.712  42.215  1.00  0.00     0.000 C 
BRANCH   7   8
ATOM      8  C   UNL     1      -9.497 -33.422  40.894  1.00  0.00     0.000 C 
BRANCH   8   9
ATOM      9  C   UNL     1      -7.993 -33.168  41.091  1.00  0.00     0.000 C 
BRANCH   9  10
ATOM     10  C   UNL     1      -7.719 -31.968  42.012  1.00  0.00     0.000 C 
BRANCH  10  11
ATOM     11  C   UNL     1      -6.972 -32.366  43.297  1.00  0.00     0.000 C 
BRANCH  11  12
ATOM     12  C   UNL     1      -6.774 -31.182  44.262  1.00  0.00     0.006 C 
BRANCH  12  13
ATOM     13  C   UNL     1      -5.540 -31.308  45.169  1.00  0.00     0.053 C 
BRANCH  13  14
ATOM     14  C   UNL     1      -5.913 -31.454  46.614  1.00  0.00     0.041 C 
ATOM     15  O   UNL     1      -6.650 -30.597  47.167  1.00  0.00    -0.550 OA
ATOM     16  O   UNL     1      -5.469 -32.551  47.341  1.00  0.00    -0.550 OA
ENDBRANCH  13  14
ENDBRANCH  12  13
ENDBRANCH  11  12
ENDBRANCH  10  11
ENDBRANCH   9  10
ENDBRANCH   8   9
ENDBRANCH   7   8
ENDBRANCH   6   7
ENDBRANCH   5   6
ENDBRANCH   4   5
ENDBRANCH   3   4
ENDBRANCH   2   3
ENDBRANCH   1   2
BRANCH   1  17
ATOM     17  C   UNL     1      -8.826 -39.987  47.495  1.00  0.00     0.000 C 
BRANCH  17  18
ATOM     18  C   UNL     1      -9.622 -38.848  48.156  1.00  0.00     0.000 C 
BRANCH  18  19
ATOM     19  C   UNL     1     -11.111 -39.189  48.355  1.00  0.00     0.000 C 
BRANCH  19  20
ATOM     20  C   UNL     1     -12.070 -38.598  47.303  1.00  0.00     0.000 C 
BRANCH  20  21
ATOM     21  C   UNL     1     -12.361 -39.496  46.085  1.00  0.00     0.000 C 
BRANCH  21  22
ATOM     22  C   UNL     1     -12.191 -41.007  46.355  1.00  0.00    -0.000 C 
BRANCH  22  23
ATOM     23  C   UNL     1     -11.602 -41.768  45.152  1.00  0.00    -0.000 C 
BRANCH  23  24
ATOM     24  C   UNL     1     -11.252 -40.830  43.981  1.00  0.00    -0.000 C 
BRANCH  24  25
ATOM     25  C   UNL     1     -10.443 -41.516  42.863  1.00  0.00    -0.000 C 
BRANCH  25  26
ATOM     26  C   UNL     1      -8.988 -41.018  42.808  1.00  0.00    -0.000 C 
BRANCH  26  27
ATOM     27  C   UNL     1      -8.083 -41.921  41.956  1.00  0.00    -0.000 C 
BRANCH  27  28
ATOM     28  C   UNL     1      -8.083 -43.384  42.435  1.00  0.00    -0.000 C 
BRANCH  28  29
ATOM     29  C   UNL     1      -6.684 -43.871  42.844  1.00  0.00    -0.003 C 
ATOM     30  C   UNL     1      -5.835 -42.772  43.478  1.00  0.00     0.004 C 
ENDBRANCH  28  29
ENDBRANCH  27  28
ENDBRANCH  26  27
ENDBRANCH  25  26
ENDBRANCH  24  25
ENDBRANCH  23  24
ENDBRANCH  22  23
ENDBRANCH  21  22
ENDBRANCH  20  21
ENDBRANCH  19  20
ENDBRANCH  18  19
ENDBRANCH  17  18
ENDBRANCH   1  17
TORSDOF 26
ENDMDL
MODEL 7
REMARK VINA RESULT:    -4.913      3.479      7.082
REMARK INTER + INTRA:         -16.642
REMARK INTER:                 -13.231
REMARK INTRA:                  -3.411
REMARK UNBOUND:                -4.261
REMARK SMILES CCCCCCCCCCCCCCCCCCCCCCCCCCCC(=O)[O-]
REMARK SMILES IDX 15 1 16 2 17 3 18 4 19 5 20 6 21 7 22 8 23 9 24 10 25 11
REMARK SMILES IDX 26 12 27 13 28 14 29 15 30 16 14 17 13 18 12 19 11 20 10 21
REMARK SMILES IDX 9 22 8 23 7 24 6 25 5 26 4 27 3 28 2 29 1 30
REMARK H PARENT
REMARK Flexibility Score: inf
ROOT
ATOM      1  C   UNL     1      -9.869 -35.058  44.759  1.00  0.00     0.000 C 
ENDROOT
BRANCH   1   2
ATOM      2  C   UNL     1     -10.226 -35.068  43.259  1.00  0.00     0.000 C 
BRANCH   2   3
ATOM      3  C   UNL     1     -10.516 -33.672  42.670  1.00  0.00     0.000 C 
BRANCH   3   4
ATOM      4  C   UNL     1      -9.795 -33.426  41.331  1.00  0.00     0.000 C 
BRANCH   4   5
ATOM      5  C   UNL     1      -8.265 -33.468  41.468  1.00  0.00     0.000 C 
BRANCH   5   6
ATOM      6  C   UNL     1      -7.677 -32.160  42.020  1.00  0.00     0.000 C 
BRANCH   6   7
ATOM      7  C   UNL     1      -7.275 -32.322  43.494  1.00  0.00     0.000 C 
BRANCH   7   8
ATOM      8  C   UNL     1      -6.615 -31.061  44.075  1.00  0.00     0.000 C 
BRANCH   8   9
ATOM      9  C   UNL     1      -5.608 -31.380  45.192  1.00  0.00     0.000 C 
BRANCH   9  10
ATOM     10  C   UNL     1      -5.070 -30.111  45.873  1.00  0.00     0.000 C 
BRANCH  10  11
ATOM     11  C   UNL     1      -5.674 -29.888  47.271  1.00  0.00     0.000 C 
BRANCH  11  12
ATOM     12  C   UNL     1      -4.883 -30.604  48.382  1.00  0.00     0.006 C 
BRANCH  12  13
ATOM     13  C   UNL     1      -5.750 -31.459  49.321  1.00  0.00     0.053 C 
BRANCH  13  14
ATOM     14  C   UNL     1      -6.309 -32.666  48.629  1.00  0.00     0.041 C 
ATOM     15  O   UNL     1      -5.573 -33.658  48.393  1.00  0.00    -0.550 OA
ATOM     16  O   UNL     1      -7.651 -32.704  48.271  1.00  0.00    -0.550 OA
ENDBRANCH  13  14
ENDBRANCH  12  13
ENDBRANCH  11  12
ENDBRANCH  10  11
ENDBRANCH   9  10
ENDBRANCH   8   9
ENDBRANCH   7   8
ENDBRANCH   6   7
ENDBRANCH   5   6
ENDBRANCH   4   5
ENDBRANCH   3   4
ENDBRANCH   2   3
ENDBRANCH   1   2
BRANCH   1  17
ATOM     17  C   UNL     1     -10.963 -35.586  45.704  1.00  0.00     0.000 C 
BRANCH  17  18
ATOM     18  C   UNL     1     -10.481 -35.720  47.158  1.00  0.00     0.000 C 
BRANCH  18  19
ATOM     19  C   UNL     1     -11.565 -36.268  48.105  1.00  0.00     0.000 C 
BRANCH  19  20
ATOM     20  C   UNL     1     -11.324 -37.698  48.628  1.00  0.00     0.000 C 
BRANCH  20  21
ATOM     21  C   UNL     1     -11.854 -38.834  47.732  1.00  0.00     0.000 C 
BRANCH  21  22
ATOM     22  C   UNL     1     -11.065 -40.156  47.849  1.00  0.00    -0.000 C 
BRANCH  22  23
ATOM     23  C   UNL     1      -9.798 -40.024  48.714  1.00  0.00    -0.000 C 
BRANCH  23  24
ATOM     24  C   UNL     1      -8.508 -40.077  47.873  1.00  0.00    -0.000 C 
BRANCH  24  25
ATOM     25  C   UNL     1      -8.364 -38.899  46.891  1.00  0.00    -0.000 C 
BRANCH  25  26
ATOM     26  C   UNL     1      -8.267 -39.369  45.428  1.00  0.00    -0.000 C 
BRANCH  26  27
ATOM     27  C   UNL     1      -9.231 -38.616  44.498  1.00  0.00    -0.000 C 
BRANCH  27  28
ATOM     28  C   UNL     1     -10.521 -39.407  44.214  1.00  0.00    -0.000 C 
BRANCH  28  29
ATOM     29  C   UNL     1     -11.683 -38.502  43.773  1.00  0.00    -0.003 C 
ATOM     30  C   UNL     1     -12.689 -39.223  42.878  1.00  0.00     0.004 C 
ENDBRANCH  28  29
ENDBRANCH  27  28
ENDBRANCH  26  27
ENDBRANCH  25  26
ENDBRANCH  24  25
ENDBRANCH  23  24
ENDBRANCH  22  23
ENDBRANCH  21  22
ENDBRANCH  20  21
ENDBRANCH  19  20
ENDBRANCH  18  19
ENDBRANCH  17  18
ENDBRANCH   1  17
TORSDOF 26
ENDMDL
MODEL 8
REMARK VINA RESULT:    -4.900      3.667      7.887
REMARK INTER + INTRA:         -16.608
REMARK INTER:                 -13.419
REMARK INTRA:                  -3.190
REMARK UNBOUND:                -4.261
REMARK SMILES CCCCCCCCCCCCCCCCCCCCCCCCCCCC(=O)[O-]
REMARK SMILES IDX 15 1 16 2 17 3 18 4 19 5 20 6 21 7 22 8 23 9 24 10 25 11
REMARK SMILES IDX 26 12 27 13 28 14 29 15 30 16 14 17 13 18 12 19 11 20 10 21
REMARK SMILES IDX 9 22 8 23 7 24 6 25 5 26 4 27 3 28 2 29 1 30
REMARK H PARENT
REMARK Flexibility Score: inf
ROOT
ATOM      1  C   UNL     1      -8.788 -38.981  45.667  1.00  0.00     0.000 C 
ENDROOT
BRANCH   1   2
ATOM      2  C   UNL     1      -8.427 -38.776  47.152  1.00  0.00     0.000 C 
BRANCH   2   3
ATOM      3  C   UNL     1      -9.305 -39.582  48.131  1.00  0.00     0.000 C 
BRANCH   3   4
ATOM      4  C   UNL     1     -10.557 -40.179  47.461  1.00  0.00     0.000 C 
BRANCH   4   5
ATOM      5  C   UNL     1     -11.798 -39.286  47.626  1.00  0.00     0.000 C 
BRANCH   5   6
ATOM      6  C   UNL     1     -12.748 -39.353  46.421  1.00  0.00     0.000 C 
BRANCH   6   7
ATOM      7  C   UNL     1     -12.215 -40.328  45.359  1.00  0.00     0.000 C 
BRANCH   7   8
ATOM      8  C   UNL     1     -12.724 -40.006  43.945  1.00  0.00     0.000 C 
BRANCH   8   9
ATOM      9  C   UNL     1     -11.723 -40.408  42.849  1.00  0.00     0.000 C 
BRANCH   9  10
ATOM     10  C   UNL     1     -10.507 -41.158  43.415  1.00  0.00     0.000 C 
BRANCH  10  11
ATOM     11  C   UNL     1      -9.205 -40.828  42.663  1.00  0.00     0.000 C 
BRANCH  11  12
ATOM     12  C   UNL     1      -8.392 -42.085  42.300  1.00  0.00     0.006 C 
BRANCH  12  13
ATOM     13  C   UNL     1      -6.871 -41.862  42.264  1.00  0.00     0.053 C 
BRANCH  13  14
ATOM     14  C   UNL     1      -6.172 -42.558  43.394  1.00  0.00     0.041 C 
ATOM     15  O   UNL     1      -6.253 -43.807  43.515  1.00  0.00    -0.550 OA
ATOM     16  O   UNL     1      -5.407 -41.827  44.295  1.00  0.00    -0.550 OA
ENDBRANCH  13  14
ENDBRANCH  12  13
ENDBRANCH  11  12
ENDBRANCH  10  11
ENDBRANCH   9  10
ENDBRANCH   8   9
ENDBRANCH   7   8
ENDBRANCH   6   7
ENDBRANCH   5   6
ENDBRANCH   4   5
ENDBRANCH   3   4
ENDBRANCH   2   3
ENDBRANCH   1   2
BRANCH   1  17
ATOM     17  C   UNL     1      -8.835 -37.701  44.814  1.00  0.00     0.000 C 
BRANCH  17  18
ATOM     18  C   UNL     1     -10.271 -37.235  44.517  1.00  0.00     0.000 C 
BRANCH  18  19
ATOM     19  C   UNL     1     -10.660 -35.955  45.281  1.00  0.00     0.000 C 
BRANCH  19  20
ATOM     20  C   UNL     1      -9.969 -34.664  44.802  1.00  0.00     0.000 C 
BRANCH  20  21
ATOM     21  C   UNL     1     -10.582 -34.003  43.552  1.00  0.00     0.000 C 
BRANCH  21  22
ATOM     22  C   UNL     1      -9.882 -34.379  42.227  1.00  0.00    -0.000 C 
BRANCH  22  23
ATOM     23  C   UNL     1      -9.513 -33.150  41.375  1.00  0.00    -0.000 C 
BRANCH  23  24
ATOM     24  C   UNL     1      -8.001 -32.854  41.400  1.00  0.00    -0.000 C 
BRANCH  24  25
ATOM     25  C   UNL     1      -7.439 -32.643  42.819  1.00  0.00    -0.000 C 
BRANCH  25  26
ATOM     26  C   UNL     1      -7.218 -31.153  43.142  1.00  0.00    -0.000 C 
BRANCH  26  27
ATOM     27  C   UNL     1      -6.816 -30.916  44.605  1.00  0.00    -0.000 C 
BRANCH  27  28
ATOM     28  C   UNL     1      -5.290 -30.881  44.805  1.00  0.00    -0.000 C 
BRANCH  28  29
ATOM     29  C   UNL     1      -4.773 -29.478  45.161  1.00  0.00    -0.003 C 
ATOM     30  C   UNL     1      -3.251 -29.375  45.104  1.00  0.00     0.004 C 
ENDBRANCH  28  29
ENDBRANCH  27  28
ENDBRANCH  26  27
ENDBRANCH  25  26
ENDBRANCH  24  25
ENDBRANCH  23  24
ENDBRANCH  22  23
ENDBRANCH  21  22
ENDBRANCH  20  21
ENDBRANCH  19  20
ENDBRANCH  18  19
ENDBRANCH  17  18
ENDBRANCH   1  17
TORSDOF 26
ENDMDL
MODEL 9
REMARK VINA RESULT:    -4.860      3.336      6.854
REMARK INTER + INTRA:         -16.509
REMARK INTER:                 -12.087
REMARK INTRA:                  -4.422
REMARK UNBOUND:                -4.261
REMARK SMILES CCCCCCCCCCCCCCCCCCCCCCCCCCCC(=O)[O-]
REMARK SMILES IDX 15 1 16 2 17 3 18 4 19 5 20 6 21 7 22 8 23 9 24 10 25 11
REMARK SMILES IDX 26 12 27 13 28 14 29 15 30 16 14 17 13 18 12 19 11 20 10 21
REMARK SMILES IDX 9 22 8 23 7 24 6 25 5 26 4 27 3 28 2 29 1 30
REMARK H PARENT
REMARK Flexibility Score: inf
ROOT
ATOM      1  C   UNL     1      -9.532 -34.653  43.755  1.00  0.00     0.000 C 
ENDROOT
BRANCH   1   2
ATOM      2  C   UNL     1     -10.389 -33.813  42.787  1.00  0.00     0.000 C 
BRANCH   2   3
ATOM      3  C   UNL     1      -9.769 -33.637  41.386  1.00  0.00     0.000 C 
BRANCH   3   4
ATOM      4  C   UNL     1      -8.289 -33.213  41.434  1.00  0.00     0.000 C 
BRANCH   4   5
ATOM      5  C   UNL     1      -8.103 -31.695  41.287  1.00  0.00     0.000 C 
BRANCH   5   6
ATOM      6  C   UNL     1      -7.435 -31.051  42.510  1.00  0.00     0.000 C 
BRANCH   6   7
ATOM      7  C   UNL     1      -7.107 -32.111  43.574  1.00  0.00     0.000 C 
BRANCH   7   8
ATOM      8  C   UNL     1      -6.601 -31.498  44.889  1.00  0.00     0.000 C 
BRANCH   8   9
ATOM      9  C   UNL     1      -7.597 -31.678  46.048  1.00  0.00     0.000 C 
BRANCH   9  10
ATOM     10  C   UNL     1      -7.016 -32.525  47.192  1.00  0.00     0.000 C 
BRANCH  10  11
ATOM     11  C   UNL     1      -8.084 -32.951  48.215  1.00  0.00     0.000 C 
BRANCH  11  12
ATOM     12  C   UNL     1      -9.406 -32.177  48.052  1.00  0.00     0.006 C 
BRANCH  12  13
ATOM     13  C   UNL     1      -9.813 -31.358  49.288  1.00  0.00     0.053 C 
BRANCH  13  14
ATOM     14  C   UNL     1      -8.683 -30.518  49.805  1.00  0.00     0.041 C 
ATOM     15  O   UNL     1      -8.199 -30.739  50.945  1.00  0.00    -0.550 OA
ATOM     16  O   UNL     1      -8.148 -29.508  49.015  1.00  0.00    -0.550 OA
ENDBRANCH  13  14
ENDBRANCH  12  13
ENDBRANCH  11  12
ENDBRANCH  10  11
ENDBRANCH   9  10
ENDBRANCH   8   9
ENDBRANCH   7   8
ENDBRANCH   6   7
ENDBRANCH   5   6
ENDBRANCH   4   5
ENDBRANCH   3   4
ENDBRANCH   2   3
ENDBRANCH   1   2
BRANCH   1  17
ATOM     17  C   UNL     1      -9.845 -34.465  45.250  1.00  0.00     0.000 C 
BRANCH  17  18
ATOM     18  C   UNL     1     -10.877 -35.478  45.775  1.00  0.00     0.000 C 
BRANCH  18  19
ATOM     19  C   UNL     1     -10.451 -36.142  47.098  1.00  0.00     0.000 C 
BRANCH  19  20
ATOM     20  C   UNL     1      -9.072 -36.830  47.078  1.00  0.00     0.000 C 
BRANCH  20  21
ATOM     21  C   UNL     1      -8.950 -38.104  47.936  1.00  0.00     0.000 C 
BRANCH  21  22
ATOM     22  C   UNL     1     -10.301 -38.739  48.329  1.00  0.00    -0.000 C 
BRANCH  22  23
ATOM     23  C   UNL     1     -10.579 -40.063  47.592  1.00  0.00    -0.000 C 
BRANCH  23  24
ATOM     24  C   UNL     1     -12.043 -40.177  47.127  1.00  0.00    -0.000 C 
BRANCH  24  25
ATOM     25  C   UNL     1     -12.488 -39.026  46.204  1.00  0.00    -0.000 C 
BRANCH  25  26
ATOM     26  C   UNL     1     -12.779 -39.508  44.772  1.00  0.00    -0.000 C 
BRANCH  26  27
ATOM     27  C   UNL     1     -11.937 -38.776  43.716  1.00  0.00    -0.000 C 
BRANCH  27  28
ATOM     28  C   UNL     1     -10.477 -38.568  44.159  1.00  0.00    -0.000 C 
BRANCH  28  29
ATOM     29  C   UNL     1      -9.625 -39.836  43.998  1.00  0.00    -0.003 C 
ATOM     30  C   UNL     1      -8.242 -39.706  44.632  1.00  0.00     0.004 C 
ENDBRANCH  28  29
ENDBRANCH  27  28
ENDBRANCH  26  27
ENDBRANCH  25  26
ENDBRANCH  24  25
ENDBRANCH  23  24
ENDBRANCH  22  23
ENDBRANCH  21  22
ENDBRANCH  20  21
ENDBRANCH  19  20
ENDBRANCH  18  19
ENDBRANCH  17  18
ENDBRANCH   1  17
TORSDOF 26
ENDMDL
