MODEL 1
REMARK VINA RESULT:    -4.463      0.000      0.000
REMARK INTER + INTRA:          -5.393
REMARK INTER:                  -5.246
REMARK INTRA:                  -0.147
REMARK UNBOUND:                -0.147
REMARK SMILES O=C([O-])C=Cc1ccc(O)c(O)c1
REMARK SMILES IDX 6 1 13 2 7 3 11 4 8 5 9 6 5 7 4 8 2 9 1 10 3 11 12 12 10 14
REMARK H PARENT 12 13 10 15
REMARK Flexibility Score: inf
ROOT
ATOM      1  C   UNL     1      21.703  42.233  28.041  1.00  0.00    -0.022 A 
ATOM      2  C   UNL     1      21.767  43.020  29.206  1.00  0.00     0.058 A 
ATOM      3  C   UNL     1      21.191  40.931  28.131  1.00  0.00     0.012 A 
ATOM      4  C   UNL     1      21.354  42.510  30.444  1.00  0.00     0.157 A 
ATOM      5  C   UNL     1      20.779  40.414  29.361  1.00  0.00     0.051 A 
ATOM      6  C   UNL     1      20.859  41.187  30.524  1.00  0.00     0.157 A 
ENDROOT
BRANCH   1   7
ATOM      7  C   UNL     1      22.119  42.740  26.709  1.00  0.00     0.010 C 
ATOM      8  C   UNL     1      21.621  42.286  25.551  1.00  0.00     0.025 C 
BRANCH   8   9
ATOM      9  C   UNL     1      22.053  42.827  24.253  1.00  0.00     0.064 C 
ATOM     10  O   UNL     1      22.731  42.108  23.474  1.00  0.00    -0.545 OA
ATOM     11  O   UNL     1      21.728  44.125  23.872  1.00  0.00    -0.545 OA
ENDBRANCH   8   9
ENDBRANCH   1   7
BRANCH   4  12
ATOM     12  O   UNL     1      21.447  43.347  31.558  1.00  0.00    -0.504 OA
ATOM     13  H   UNL     1      21.917  43.096  32.416  1.00  0.00     0.293 HD
ENDBRANCH   4  12
BRANCH   6  14
ATOM     14  O   UNL     1      20.437  40.610  31.723  1.00  0.00    -0.504 OA
ATOM     15  H   UNL     1      20.688  39.678  32.021  1.00  0.00     0.293 HD
ENDBRANCH   6  14
TORSDOF 4
ENDMDL
MODEL 2
REMARK VINA RESULT:    -4.206      2.649      6.430
REMARK INTER + INTRA:          -5.091
REMARK INTER:                  -4.946
REMARK INTRA:                  -0.145
REMARK UNBOUND:                -0.147
REMARK SMILES O=C([O-])C=Cc1ccc(O)c(O)c1
REMARK SMILES IDX 6 1 13 2 7 3 11 4 8 5 9 6 5 7 4 8 2 9 1 10 3 11 12 12 10 14
REMARK H PARENT 12 13 10 15
REMARK Flexibility Score: inf
ROOT
ATOM      1  C   UNL     1      22.639  45.039  27.611  1.00  0.00    -0.022 A 
ATOM      2  C   UNL     1      22.768  45.958  26.553  1.00  0.00     0.058 A 
ATOM      3  C   UNL     1      22.456  43.682  27.309  1.00  0.00     0.012 A 
ATOM      4  C   UNL     1      22.689  45.537  25.219  1.00  0.00     0.157 A 
ATOM      5  C   UNL     1      22.374  43.254  25.983  1.00  0.00     0.051 A 
ATOM      6  C   UNL     1      22.484  44.168  24.930  1.00  0.00     0.157 A 
ENDROOT
BRANCH   1   7
ATOM      7  C   UNL     1      22.728  45.443  29.037  1.00  0.00     0.010 C 
ATOM      8  C   UNL     1      21.930  44.959  29.998  1.00  0.00     0.025 C 
BRANCH   8   9
ATOM      9  C   UNL     1      22.062  45.378  31.403  1.00  0.00     0.064 C 
ATOM     10  O   UNL     1      23.125  45.927  31.791  1.00  0.00    -0.545 OA
ATOM     11  O   UNL     1      21.029  45.172  32.312  1.00  0.00    -0.545 OA
ENDBRANCH   8   9
ENDBRANCH   1   7
BRANCH   4  12
ATOM     12  O   UNL     1      22.826  46.505  24.221  1.00  0.00    -0.504 OA
ATOM     13  H   UNL     1      23.259  47.406  24.364  1.00  0.00     0.293 HD
ENDBRANCH   4  12
BRANCH   6  14
ATOM     14  O   UNL     1      22.387  43.678  23.626  1.00  0.00    -0.504 OA
ATOM     15  H   UNL     1      21.955  42.798  23.384  1.00  0.00     0.293 HD
ENDBRANCH   6  14
TORSDOF 4
ENDMDL
MODEL 3
REMARK VINA RESULT:    -3.891     14.861     16.733
REMARK INTER + INTRA:          -4.721
REMARK INTER:                  -4.599
REMARK INTRA:                  -0.122
REMARK UNBOUND:                -0.147
REMARK SMILES O=C([O-])C=Cc1ccc(O)c(O)c1
REMARK SMILES IDX 6 1 13 2 7 3 11 4 8 5 9 6 5 7 4 8 2 9 1 10 3 11 12 12 10 14
REMARK H PARENT 12 13 10 15
REMARK Flexibility Score: inf
ROOT
ATOM      1  C   UNL     1      14.946  29.537  21.312  1.00  0.00    -0.022 A 
ATOM      2  C   UNL     1      16.171  29.509  20.619  1.00  0.00     0.058 A 
ATOM      3  C   UNL     1      13.758  29.346  20.594  1.00  0.00     0.012 A 
ATOM      4  C   UNL     1      16.209  29.320  19.231  1.00  0.00     0.157 A 
ATOM      5  C   UNL     1      13.786  29.159  19.211  1.00  0.00     0.051 A 
ATOM      6  C   UNL     1      15.000  29.148  18.517  1.00  0.00     0.157 A 
ENDROOT
BRANCH   1   7
ATOM      7  C   UNL     1      14.864  29.723  22.783  1.00  0.00     0.010 C 
ATOM      8  C   UNL     1      15.548  28.982  23.665  1.00  0.00     0.025 C 
BRANCH   8   9
ATOM      9  C   UNL     1      15.447  29.209  25.116  1.00  0.00     0.064 C 
ATOM     10  O   UNL     1      15.204  28.241  25.881  1.00  0.00    -0.545 OA
ATOM     11  O   UNL     1      15.613  30.480  25.656  1.00  0.00    -0.545 OA
ENDBRANCH   8   9
ENDBRANCH   1   7
BRANCH   4  12
ATOM     12  O   UNL     1      17.459  29.303  18.609  1.00  0.00    -0.504 OA
ATOM     13  H   UNL     1      18.093  30.089  18.594  1.00  0.00     0.293 HD
ENDBRANCH   4  12
BRANCH   6  14
ATOM     14  O   UNL     1      14.960  28.963  17.133  1.00  0.00    -0.504 OA
ATOM     15  H   UNL     1      15.413  29.573  16.468  1.00  0.00     0.293 HD
ENDBRANCH   6  14
TORSDOF 4
ENDMDL
MODEL 4
REMARK VINA RESULT:    -3.840      3.480      6.779
REMARK INTER + INTRA:          -4.661
REMARK INTER:                  -4.539
REMARK INTRA:                  -0.122
REMARK UNBOUND:                -0.147
REMARK SMILES O=C([O-])C=Cc1ccc(O)c(O)c1
REMARK SMILES IDX 6 1 13 2 7 3 11 4 8 5 9 6 5 7 4 8 2 9 1 10 3 11 12 12 10 14
REMARK H PARENT 12 13 10 15
REMARK Flexibility Score: inf
ROOT
ATOM      1  C   UNL     1      22.004  45.003  30.813  1.00  0.00    -0.022 A 
ATOM      2  C   UNL     1      21.588  43.669  30.992  1.00  0.00     0.058 A 
ATOM      3  C   UNL     1      22.389  45.425  29.533  1.00  0.00     0.012 A 
ATOM      4  C   UNL     1      21.582  42.766  29.920  1.00  0.00     0.157 A 
ATOM      5  C   UNL     1      22.388  44.532  28.460  1.00  0.00     0.051 A 
ATOM      6  C   UNL     1      21.994  43.202  28.639  1.00  0.00     0.157 A 
ENDROOT
BRANCH   1   7
ATOM      7  C   UNL     1      22.014  45.993  31.919  1.00  0.00     0.010 C 
ATOM      8  C   UNL     1      21.217  45.914  32.994  1.00  0.00     0.025 C 
BRANCH   8   9
ATOM      9  C   UNL     1      21.268  46.912  34.074  1.00  0.00     0.064 C 
ATOM     10  O   UNL     1      21.926  46.665  35.118  1.00  0.00    -0.545 OA
ATOM     11  O   UNL     1      20.596  48.125  33.963  1.00  0.00    -0.545 OA
ENDBRANCH   8   9
ENDBRANCH   1   7
BRANCH   4  12
ATOM     12  O   UNL     1      21.158  41.460  30.171  1.00  0.00    -0.504 OA
ATOM     13  H   UNL     1      20.285  41.076  29.839  1.00  0.00     0.293 HD
ENDBRANCH   4  12
BRANCH   6  14
ATOM     14  O   UNL     1      22.021  42.357  27.527  1.00  0.00    -0.504 OA
ATOM     15  H   UNL     1      22.703  42.421  26.785  1.00  0.00     0.293 HD
ENDBRANCH   6  14
TORSDOF 4
ENDMDL
MODEL 5
REMARK VINA RESULT:    -3.750      2.911      5.680
REMARK INTER + INTRA:          -4.555
REMARK INTER:                  -4.415
REMARK INTRA:                  -0.141
REMARK UNBOUND:                -0.147
REMARK SMILES O=C([O-])C=Cc1ccc(O)c(O)c1
REMARK SMILES IDX 6 1 13 2 7 3 11 4 8 5 9 6 5 7 4 8 2 9 1 10 3 11 12 12 10 14
REMARK H PARENT 12 13 10 15
REMARK Flexibility Score: inf
ROOT
ATOM      1  C   UNL     1      22.472  43.982  27.044  1.00  0.00    -0.022 A 
ATOM      2  C   UNL     1      22.538  44.532  25.750  1.00  0.00     0.058 A 
ATOM      3  C   UNL     1      22.600  44.836  28.149  1.00  0.00     0.012 A 
ATOM      4  C   UNL     1      22.753  45.904  25.559  1.00  0.00     0.157 A 
ATOM      5  C   UNL     1      22.816  46.203  27.968  1.00  0.00     0.051 A 
ATOM      6  C   UNL     1      22.900  46.749  26.684  1.00  0.00     0.157 A 
ENDROOT
BRANCH   1   7
ATOM      7  C   UNL     1      22.234  42.537  27.288  1.00  0.00     0.010 C 
ATOM      8  C   UNL     1      21.274  42.068  28.096  1.00  0.00     0.025 C 
BRANCH   8   9
ATOM      9  C   UNL     1      21.064  40.626  28.299  1.00  0.00     0.064 C 
ATOM     10  O   UNL     1      21.062  39.851  27.307  1.00  0.00    -0.545 OA
ATOM     11  O   UNL     1      20.864  40.103  29.572  1.00  0.00    -0.545 OA
ENDBRANCH   8   9
ENDBRANCH   1   7
BRANCH   4  12
ATOM     12  O   UNL     1      22.807  46.379  24.248  1.00  0.00    -0.504 OA
ATOM     13  H   UNL     1      22.046  46.859  23.789  1.00  0.00     0.293 HD
ENDBRANCH   4  12
BRANCH   6  14
ATOM     14  O   UNL     1      23.125  48.123  26.571  1.00  0.00    -0.504 OA
ATOM     15  H   UNL     1      23.016  48.645  25.714  1.00  0.00     0.293 HD
ENDBRANCH   6  14
TORSDOF 4
ENDMDL
MODEL 6
REMARK VINA RESULT:    -3.739      0.778      1.877
REMARK INTER + INTRA:          -4.542
REMARK INTER:                  -4.422
REMARK INTRA:                  -0.121
REMARK UNBOUND:                -0.147
REMARK SMILES O=C([O-])C=Cc1ccc(O)c(O)c1
REMARK SMILES IDX 6 1 13 2 7 3 11 4 8 5 9 6 5 7 4 8 2 9 1 10 3 11 12 12 10 14
REMARK H PARENT 12 13 10 15
REMARK Flexibility Score: inf
ROOT
ATOM      1  C   UNL     1      21.811  42.396  27.917  1.00  0.00    -0.022 A 
ATOM      2  C   UNL     1      21.262  41.116  28.127  1.00  0.00     0.058 A 
ATOM      3  C   UNL     1      21.941  43.263  29.010  1.00  0.00     0.012 A 
ATOM      4  C   UNL     1      20.825  40.719  29.398  1.00  0.00     0.157 A 
ATOM      5  C   UNL     1      21.507  42.876  30.279  1.00  0.00     0.051 A 
ATOM      6  C   UNL     1      20.944  41.613  30.487  1.00  0.00     0.157 A 
ENDROOT
BRANCH   1   7
ATOM      7  C   UNL     1      22.296  42.850  26.589  1.00  0.00     0.010 C 
ATOM      8  C   UNL     1      21.715  42.512  25.430  1.00  0.00     0.025 C 
BRANCH   8   9
ATOM      9  C   UNL     1      22.221  42.996  24.136  1.00  0.00     0.064 C 
ATOM     10  O   UNL     1      22.703  42.177  23.311  1.00  0.00    -0.545 OA
ATOM     11  O   UNL     1      22.180  44.348  23.809  1.00  0.00    -0.545 OA
ENDBRANCH   8   9
ENDBRANCH   1   7
BRANCH   4  12
ATOM     12  O   UNL     1      20.291  39.436  29.531  1.00  0.00    -0.504 OA
ATOM     13  H   UNL     1      20.112  38.815  28.755  1.00  0.00     0.293 HD
ENDBRANCH   4  12
BRANCH   6  14
ATOM     14  O   UNL     1      20.524  41.289  31.779  1.00  0.00    -0.504 OA
ATOM     15  H   UNL     1      21.017  41.557  32.618  1.00  0.00     0.293 HD
ENDBRANCH   6  14
TORSDOF 4
ENDMDL
MODEL 7
REMARK VINA RESULT:    -3.686      2.375      5.465
REMARK INTER + INTRA:          -4.480
REMARK INTER:                  -4.327
REMARK INTRA:                  -0.153
REMARK UNBOUND:                -0.147
REMARK SMILES O=C([O-])C=Cc1ccc(O)c(O)c1
REMARK SMILES IDX 6 1 13 2 7 3 11 4 8 5 9 6 5 7 4 8 2 9 1 10 3 11 12 12 10 14
REMARK H PARENT 12 13 10 15
REMARK Flexibility Score: inf
ROOT
ATOM      1  C   UNL     1      21.720  43.126  29.313  1.00  0.00    -0.022 A 
ATOM      2  C   UNL     1      22.047  43.034  27.946  1.00  0.00     0.058 A 
ATOM      3  C   UNL     1      21.125  42.023  29.941  1.00  0.00     0.012 A 
ATOM      4  C   UNL     1      21.762  41.875  27.213  1.00  0.00     0.157 A 
ATOM      5  C   UNL     1      20.835  40.865  29.218  1.00  0.00     0.051 A 
ATOM      6  C   UNL     1      21.142  40.778  27.856  1.00  0.00     0.157 A 
ENDROOT
BRANCH   1   7
ATOM      7  C   UNL     1      22.017  44.331  30.127  1.00  0.00     0.010 C 
ATOM      8  C   UNL     1      21.652  44.472  31.408  1.00  0.00     0.025 C 
BRANCH   8   9
ATOM      9  C   UNL     1      21.978  45.680  32.182  1.00  0.00     0.064 C 
ATOM     10  O   UNL     1      23.121  46.195  32.080  1.00  0.00    -0.545 OA
ATOM     11  O   UNL     1      21.042  46.261  33.032  1.00  0.00    -0.545 OA
ENDBRANCH   8   9
ENDBRANCH   1   7
BRANCH   4  12
ATOM     12  O   UNL     1      22.114  41.855  25.862  1.00  0.00    -0.504 OA
ATOM     13  H   UNL     1      22.217  41.011  25.317  1.00  0.00     0.293 HD
ENDBRANCH   4  12
BRANCH   6  14
ATOM     14  O   UNL     1      20.821  39.595  27.188  1.00  0.00    -0.504 OA
ATOM     15  H   UNL     1      19.987  39.054  27.365  1.00  0.00     0.293 HD
ENDBRANCH   6  14
TORSDOF 4
ENDMDL
MODEL 8
REMARK VINA RESULT:    -3.684      2.700      6.283
REMARK INTER + INTRA:          -4.478
REMARK INTER:                  -4.355
REMARK INTRA:                  -0.123
REMARK UNBOUND:                -0.147
REMARK SMILES O=C([O-])C=Cc1ccc(O)c(O)c1
REMARK SMILES IDX 6 1 13 2 7 3 11 4 8 5 9 6 5 7 4 8 2 9 1 10 3 11 12 12 10 14
REMARK H PARENT 12 13 10 15
REMARK Flexibility Score: inf
ROOT
ATOM      1  C   UNL     1      22.405  44.733  28.950  1.00  0.00    -0.022 A 
ATOM      2  C   UNL     1      21.990  43.391  28.858  1.00  0.00     0.058 A 
ATOM      3  C   UNL     1      22.810  45.396  27.783  1.00  0.00     0.012 A 
ATOM      4  C   UNL     1      22.003  42.714  27.631  1.00  0.00     0.157 A 
ATOM      5  C   UNL     1      22.828  44.729  26.557  1.00  0.00     0.051 A 
ATOM      6  C   UNL     1      22.434  43.390  26.466  1.00  0.00     0.157 A 
ENDROOT
BRANCH   1   7
ATOM      7  C   UNL     1      22.394  45.488  30.228  1.00  0.00     0.010 C 
ATOM      8  C   UNL     1      21.945  44.985  31.385  1.00  0.00     0.025 C 
BRANCH   8   9
ATOM      9  C   UNL     1      21.964  45.765  32.632  1.00  0.00     0.064 C 
ATOM     10  O   UNL     1      21.069  46.623  32.843  1.00  0.00    -0.545 OA
ATOM     11  O   UNL     1      22.961  45.572  33.584  1.00  0.00    -0.545 OA
ENDBRANCH   8   9
ENDBRANCH   1   7
BRANCH   4  12
ATOM     12  O   UNL     1      21.579  41.384  27.617  1.00  0.00    -0.504 OA
ATOM     13  H   UNL     1      21.176  40.910  28.412  1.00  0.00     0.293 HD
ENDBRANCH   4  12
BRANCH   6  14
ATOM     14  O   UNL     1      22.482  42.778  25.212  1.00  0.00    -0.504 OA
ATOM     15  H   UNL     1      23.325  42.413  24.793  1.00  0.00     0.293 HD
ENDBRANCH   6  14
TORSDOF 4
ENDMDL
