MODEL 1
REMARK VINA RESULT:    -4.900      0.000      0.000
REMARK INTER + INTRA:         -11.576
REMARK INTER:                  -9.196
REMARK INTRA:                  -2.379
REMARK UNBOUND:                -2.379
REMARK SMILES CCCCCCCCC=CCCCCCCCC(=O)[O-]
REMARK SMILES IDX 10 1 9 2 11 3 12 4 13 5 14 6 15 7 16 8 17 9 18 10 19 11
REMARK SMILES IDX 20 12 8 13 7 14 6 15 5 16 4 17 3 18 2 19 1 20
REMARK H PARENT
REMARK Flexibility Score: inf
ROOT
ATOM      1  C   UNL     1     -13.540 -27.107 -34.558  1.00  0.00    -0.031 C 
ATOM      2  C   UNL     1     -13.694 -27.698 -33.358  1.00  0.00    -0.031 C 
ENDROOT
BRANCH   1   3
ATOM      3  C   UNL     1     -12.242 -27.047 -35.326  1.00  0.00     0.027 C 
BRANCH   3   4
ATOM      4  C   UNL     1     -11.767 -25.602 -35.539  1.00  0.00     0.004 C 
BRANCH   4   5
ATOM      5  C   UNL     1     -12.940 -24.606 -35.566  1.00  0.00     0.000 C 
BRANCH   5   6
ATOM      6  C   UNL     1     -12.481 -23.165 -35.842  1.00  0.00     0.000 C 
BRANCH   6   7
ATOM      7  C   UNL     1     -12.893 -22.189 -34.725  1.00  0.00     0.000 C 
BRANCH   7   8
ATOM      8  C   UNL     1     -13.612 -20.939 -35.264  1.00  0.00     0.006 C 
BRANCH   8   9
ATOM      9  C   UNL     1     -12.913 -19.613 -34.923  1.00  0.00     0.053 C 
BRANCH   9  10
ATOM     10  C   UNL     1     -11.725 -19.362 -35.801  1.00  0.00     0.041 C 
ATOM     11  O   UNL     1     -11.881 -18.888 -36.957  1.00  0.00    -0.550 OA
ATOM     12  O   UNL     1     -10.450 -19.686 -35.356  1.00  0.00    -0.550 OA
ENDBRANCH   9  10
ENDBRANCH   8   9
ENDBRANCH   7   8
ENDBRANCH   6   7
ENDBRANCH   5   6
ENDBRANCH   4   5
ENDBRANCH   3   4
ENDBRANCH   1   3
BRANCH   2  13
ATOM     13  C   UNL     1     -12.621 -28.478 -32.639  1.00  0.00     0.027 C 
BRANCH  13  14
ATOM     14  C   UNL     1     -12.898 -28.592 -31.129  1.00  0.00     0.004 C 
BRANCH  14  15
ATOM     15  C   UNL     1     -11.676 -28.308 -30.237  1.00  0.00     0.000 C 
BRANCH  15  16
ATOM     16  C   UNL     1     -10.533 -27.615 -30.993  1.00  0.00     0.000 C 
BRANCH  16  17
ATOM     17  C   UNL     1     -10.549 -26.102 -30.743  1.00  0.00    -0.000 C 
BRANCH  17  18
ATOM     18  C   UNL     1     -10.757 -25.329 -32.051  1.00  0.00    -0.000 C 
BRANCH  18  19
ATOM     19  C   UNL     1     -11.991 -24.424 -31.966  1.00  0.00    -0.003 C 
ATOM     20  C   UNL     1     -12.912 -24.854 -30.826  1.00  0.00     0.004 C 
ENDBRANCH  18  19
ENDBRANCH  17  18
ENDBRANCH  16  17
ENDBRANCH  15  16
ENDBRANCH  14  15
ENDBRANCH  13  14
ENDBRANCH   2  13
TORSDOF 15
ENDMDL
MODEL 2
REMARK VINA RESULT:    -4.755      2.466      6.110
REMARK INTER + INTRA:         -11.304
REMARK INTER:                  -9.170
REMARK INTRA:                  -2.134
REMARK UNBOUND:                -2.379
REMARK SMILES CCCCCCCCC=CCCCCCCCC(=O)[O-]
REMARK SMILES IDX 10 1 9 2 11 3 12 4 13 5 14 6 15 7 16 8 17 9 18 10 19 11
REMARK SMILES IDX 20 12 8 13 7 14 6 15 5 16 4 17 3 18 2 19 1 20
REMARK H PARENT
REMARK Flexibility Score: inf
ROOT
ATOM      1  C   UNL     1     -10.138 -26.382 -30.995  1.00  0.00    -0.031 C 
ATOM      2  C   UNL     1     -10.380 -25.266 -31.709  1.00  0.00    -0.031 C 
ENDROOT
BRANCH   1   3
ATOM      3  C   UNL     1     -11.142 -27.064 -30.100  1.00  0.00     0.027 C 
BRANCH   3   4
ATOM      4  C   UNL     1     -11.558 -28.438 -30.646  1.00  0.00     0.004 C 
BRANCH   4   5
ATOM      5  C   UNL     1     -12.993 -28.430 -31.200  1.00  0.00     0.000 C 
BRANCH   5   6
ATOM      6  C   UNL     1     -13.061 -27.925 -32.651  1.00  0.00     0.000 C 
BRANCH   6   7
ATOM      7  C   UNL     1     -11.863 -28.392 -33.496  1.00  0.00     0.000 C 
BRANCH   7   8
ATOM      8  C   UNL     1     -11.886 -27.821 -34.926  1.00  0.00     0.006 C 
BRANCH   8   9
ATOM      9  C   UNL     1     -12.090 -26.299 -34.994  1.00  0.00     0.053 C 
BRANCH   9  10
ATOM     10  C   UNL     1     -13.251 -25.927 -35.866  1.00  0.00     0.041 C 
ATOM     11  O   UNL     1     -13.198 -24.893 -36.583  1.00  0.00    -0.550 OA
ATOM     12  O   UNL     1     -14.403 -26.701 -35.857  1.00  0.00    -0.550 OA
ENDBRANCH   9  10
ENDBRANCH   8   9
ENDBRANCH   7   8
ENDBRANCH   6   7
ENDBRANCH   5   6
ENDBRANCH   4   5
ENDBRANCH   3   4
ENDBRANCH   1   3
BRANCH   2  13
ATOM     13  C   UNL     1     -11.721 -24.580 -31.804  1.00  0.00     0.027 C 
BRANCH  13  14
ATOM     14  C   UNL     1     -11.645 -23.096 -31.401  1.00  0.00     0.004 C 
BRANCH  14  15
ATOM     15  C   UNL     1     -11.815 -22.112 -32.573  1.00  0.00     0.000 C 
BRANCH  15  16
ATOM     16  C   UNL     1     -12.394 -22.776 -33.832  1.00  0.00     0.000 C 
BRANCH  16  17
ATOM     17  C   UNL     1     -13.213 -21.773 -34.653  1.00  0.00    -0.000 C 
BRANCH  17  18
ATOM     18  C   UNL     1     -12.494 -21.411 -35.958  1.00  0.00    -0.000 C 
BRANCH  18  19
ATOM     19  C   UNL     1     -12.420 -19.890 -36.141  1.00  0.00    -0.003 C 
ATOM     20  C   UNL     1     -12.999 -19.160 -34.932  1.00  0.00     0.004 C 
ENDBRANCH  18  19
ENDBRANCH  17  18
ENDBRANCH  16  17
ENDBRANCH  15  16
ENDBRANCH  14  15
ENDBRANCH  13  14
ENDBRANCH   2  13
TORSDOF 15
ENDMDL
MODEL 3
REMARK VINA RESULT:    -4.722      1.475      3.581
REMARK INTER + INTRA:         -11.242
REMARK INTER:                  -8.905
REMARK INTRA:                  -2.337
REMARK UNBOUND:                -2.379
REMARK SMILES CCCCCCCCC=CCCCCCCCC(=O)[O-]
REMARK SMILES IDX 10 1 9 2 11 3 12 4 13 5 14 6 15 7 16 8 17 9 18 10 19 11
REMARK SMILES IDX 20 12 8 13 7 14 6 15 5 16 4 17 3 18 2 19 1 20
REMARK H PARENT
REMARK Flexibility Score: inf
ROOT
ATOM      1  C   UNL     1     -10.518 -26.666 -30.076  1.00  0.00    -0.031 C 
ATOM      2  C   UNL     1     -11.251 -27.784 -29.913  1.00  0.00    -0.031 C 
ENDROOT
BRANCH   1   3
ATOM      3  C   UNL     1     -10.167 -26.056 -31.411  1.00  0.00     0.027 C 
BRANCH   3   4
ATOM      4  C   UNL     1     -10.625 -24.593 -31.511  1.00  0.00     0.004 C 
BRANCH   4   5
ATOM      5  C   UNL     1     -12.035 -24.468 -32.112  1.00  0.00     0.000 C 
BRANCH   5   6
ATOM      6  C   UNL     1     -12.199 -23.205 -32.973  1.00  0.00     0.000 C 
BRANCH   6   7
ATOM      7  C   UNL     1     -11.610 -21.951 -32.302  1.00  0.00     0.000 C 
BRANCH   7   8
ATOM      8  C   UNL     1     -11.912 -20.661 -33.086  1.00  0.00     0.006 C 
BRANCH   8   9
ATOM      9  C   UNL     1     -11.981 -20.849 -34.610  1.00  0.00     0.053 C 
BRANCH   9  10
ATOM     10  C   UNL     1     -13.241 -20.282 -35.189  1.00  0.00     0.041 C 
ATOM     11  O   UNL     1     -14.357 -20.572 -34.682  1.00  0.00    -0.550 OA
ATOM     12  O   UNL     1     -13.185 -19.465 -36.310  1.00  0.00    -0.550 OA
ENDBRANCH   9  10
ENDBRANCH   8   9
ENDBRANCH   7   8
ENDBRANCH   6   7
ENDBRANCH   5   6
ENDBRANCH   4   5
ENDBRANCH   3   4
ENDBRANCH   1   3
BRANCH   2  13
ATOM     13  C   UNL     1     -11.922 -28.544 -31.031  1.00  0.00     0.027 C 
BRANCH  13  14
ATOM     14  C   UNL     1     -13.224 -27.866 -31.495  1.00  0.00     0.004 C 
BRANCH  14  15
ATOM     15  C   UNL     1     -13.370 -27.753 -33.023  1.00  0.00     0.000 C 
BRANCH  15  16
ATOM     16  C   UNL     1     -12.239 -28.460 -33.785  1.00  0.00     0.000 C 
BRANCH  16  17
ATOM     17  C   UNL     1     -11.996 -27.794 -35.145  1.00  0.00    -0.000 C 
BRANCH  17  18
ATOM     18  C   UNL     1     -11.146 -26.526 -34.994  1.00  0.00    -0.000 C 
BRANCH  18  19
ATOM     19  C   UNL     1     -11.679 -25.398 -35.885  1.00  0.00    -0.003 C 
ATOM     20  C   UNL     1     -13.193 -25.498 -36.057  1.00  0.00     0.004 C 
ENDBRANCH  18  19
ENDBRANCH  17  18
ENDBRANCH  16  17
ENDBRANCH  15  16
ENDBRANCH  14  15
ENDBRANCH  13  14
ENDBRANCH   2  13
TORSDOF 15
ENDMDL
MODEL 4
REMARK VINA RESULT:    -4.654      2.458      5.746
REMARK INTER + INTRA:         -11.114
REMARK INTER:                  -8.932
REMARK INTRA:                  -2.182
REMARK UNBOUND:                -2.379
REMARK SMILES CCCCCCCCC=CCCCCCCCC(=O)[O-]
REMARK SMILES IDX 10 1 9 2 11 3 12 4 13 5 14 6 15 7 16 8 17 9 18 10 19 11
REMARK SMILES IDX 20 12 8 13 7 14 6 15 5 16 4 17 3 18 2 19 1 20
REMARK H PARENT
REMARK Flexibility Score: inf
ROOT
ATOM      1  C   UNL     1     -13.551 -27.951 -34.374  1.00  0.00    -0.031 C 
ATOM      2  C   UNL     1     -12.510 -27.880 -35.224  1.00  0.00    -0.031 C 
ENDROOT
BRANCH   1   3
ATOM      3  C   UNL     1     -13.529 -27.463 -32.946  1.00  0.00     0.027 C 
BRANCH   3   4
ATOM      4  C   UNL     1     -13.039 -28.548 -31.975  1.00  0.00     0.004 C 
BRANCH   4   5
ATOM      5  C   UNL     1     -12.630 -27.962 -30.613  1.00  0.00     0.000 C 
BRANCH   5   6
ATOM      6  C   UNL     1     -11.124 -28.109 -30.337  1.00  0.00     0.000 C 
BRANCH   6   7
ATOM      7  C   UNL     1     -10.410 -26.751 -30.216  1.00  0.00     0.000 C 
BRANCH   7   8
ATOM      8  C   UNL     1     -10.436 -25.948 -31.529  1.00  0.00     0.006 C 
BRANCH   8   9
ATOM      9  C   UNL     1     -10.337 -24.426 -31.340  1.00  0.00     0.053 C 
BRANCH   9  10
ATOM     10  C   UNL     1     -11.600 -23.846 -30.780  1.00  0.00     0.041 C 
ATOM     11  O   UNL     1     -11.558 -22.812 -30.063  1.00  0.00    -0.550 OA
ATOM     12  O   UNL     1     -12.818 -24.469 -31.021  1.00  0.00    -0.550 OA
ENDBRANCH   9  10
ENDBRANCH   8   9
ENDBRANCH   7   8
ENDBRANCH   6   7
ENDBRANCH   5   6
ENDBRANCH   4   5
ENDBRANCH   3   4
ENDBRANCH   1   3
BRANCH   2  13
ATOM     13  C   UNL     1     -11.191 -27.212 -34.917  1.00  0.00     0.027 C 
BRANCH  13  14
ATOM     14  C   UNL     1     -11.103 -25.798 -35.518  1.00  0.00     0.004 C 
BRANCH  14  15
ATOM     15  C   UNL     1     -12.321 -25.393 -36.368  1.00  0.00     0.000 C 
BRANCH  15  16
ATOM     16  C   UNL     1     -12.926 -24.047 -35.941  1.00  0.00     0.000 C 
BRANCH  16  17
ATOM     17  C   UNL     1     -12.543 -23.708 -34.495  1.00  0.00    -0.000 C 
BRANCH  17  18
ATOM     18  C   UNL     1     -12.665 -22.203 -34.231  1.00  0.00    -0.000 C 
BRANCH  18  19
ATOM     19  C   UNL     1     -12.479 -21.400 -35.524  1.00  0.00    -0.003 C 
ATOM     20  C   UNL     1     -13.516 -20.285 -35.636  1.00  0.00     0.004 C 
ENDBRANCH  18  19
ENDBRANCH  17  18
ENDBRANCH  16  17
ENDBRANCH  15  16
ENDBRANCH  14  15
ENDBRANCH  13  14
ENDBRANCH   2  13
TORSDOF 15
ENDMDL
MODEL 5
REMARK VINA RESULT:    -4.601      1.070      3.156
REMARK INTER + INTRA:         -11.015
REMARK INTER:                  -8.646
REMARK INTRA:                  -2.369
REMARK UNBOUND:                -2.379
REMARK SMILES CCCCCCCCC=CCCCCCCCC(=O)[O-]
REMARK SMILES IDX 10 1 9 2 11 3 12 4 13 5 14 6 15 7 16 8 17 9 18 10 19 11
REMARK SMILES IDX 20 12 8 13 7 14 6 15 5 16 4 17 3 18 2 19 1 20
REMARK H PARENT
REMARK Flexibility Score: inf
ROOT
ATOM      1  C   UNL     1     -11.503 -24.939 -30.325  1.00  0.00    -0.031 C 
ATOM      2  C   UNL     1     -10.771 -26.031 -30.032  1.00  0.00    -0.031 C 
ENDROOT
BRANCH   1   3
ATOM      3  C   UNL     1     -12.328 -24.769 -31.577  1.00  0.00     0.027 C 
BRANCH   3   4
ATOM      4  C   UNL     1     -11.534 -24.085 -32.700  1.00  0.00     0.004 C 
BRANCH   4   5
ATOM      5  C   UNL     1     -12.339 -22.959 -33.373  1.00  0.00     0.000 C 
BRANCH   5   6
ATOM      6  C   UNL     1     -12.910 -23.379 -34.737  1.00  0.00     0.000 C 
BRANCH   6   7
ATOM      7  C   UNL     1     -12.579 -22.372 -35.853  1.00  0.00     0.000 C 
BRANCH   7   8
ATOM      8  C   UNL     1     -13.007 -20.935 -35.502  1.00  0.00     0.006 C 
BRANCH   8   9
ATOM      9  C   UNL     1     -12.099 -19.844 -36.092  1.00  0.00     0.053 C 
BRANCH   9  10
ATOM     10  C   UNL     1     -10.714 -19.897 -35.521  1.00  0.00     0.041 C 
ATOM     11  O   UNL     1      -9.736 -20.184 -36.260  1.00  0.00    -0.550 OA
ATOM     12  O   UNL     1     -10.511 -19.665 -34.167  1.00  0.00    -0.550 OA
ENDBRANCH   9  10
ENDBRANCH   8   9
ENDBRANCH   7   8
ENDBRANCH   6   7
ENDBRANCH   5   6
ENDBRANCH   4   5
ENDBRANCH   3   4
ENDBRANCH   1   3
BRANCH   2  13
ATOM     13  C   UNL     1     -10.740 -27.294 -30.858  1.00  0.00     0.027 C 
BRANCH  13  14
ATOM     14  C   UNL     1     -11.639 -28.395 -30.269  1.00  0.00     0.004 C 
BRANCH  14  15
ATOM     15  C   UNL     1     -12.914 -28.677 -31.084  1.00  0.00     0.000 C 
BRANCH  15  16
ATOM     16  C   UNL     1     -12.676 -28.628 -32.601  1.00  0.00     0.000 C 
BRANCH  16  17
ATOM     17  C   UNL     1     -13.632 -27.635 -33.274  1.00  0.00    -0.000 C 
BRANCH  17  18
ATOM     18  C   UNL     1     -13.013 -27.055 -34.552  1.00  0.00    -0.000 C 
BRANCH  18  19
ATOM     19  C   UNL     1     -11.505 -27.321 -34.602  1.00  0.00    -0.003 C 
ATOM     20  C   UNL     1     -10.795 -26.305 -35.493  1.00  0.00     0.004 C 
ENDBRANCH  18  19
ENDBRANCH  17  18
ENDBRANCH  16  17
ENDBRANCH  15  16
ENDBRANCH  14  15
ENDBRANCH  13  14
ENDBRANCH   2  13
TORSDOF 15
ENDMDL
MODEL 6
REMARK VINA RESULT:    -4.527      1.044      1.997
REMARK INTER + INTRA:         -10.877
REMARK INTER:                  -9.151
REMARK INTRA:                  -1.726
REMARK UNBOUND:                -2.379
REMARK SMILES CCCCCCCCC=CCCCCCCCC(=O)[O-]
REMARK SMILES IDX 10 1 9 2 11 3 12 4 13 5 14 6 15 7 16 8 17 9 18 10 19 11
REMARK SMILES IDX 20 12 8 13 7 14 6 15 5 16 4 17 3 18 2 19 1 20
REMARK H PARENT
REMARK Flexibility Score: inf
ROOT
ATOM      1  C   UNL     1     -11.114 -26.725 -35.157  1.00  0.00    -0.031 C 
ATOM      2  C   UNL     1     -11.763 -27.790 -34.649  1.00  0.00    -0.031 C 
ENDROOT
BRANCH   1   3
ATOM      3  C   UNL     1     -11.786 -25.533 -35.793  1.00  0.00     0.027 C 
BRANCH   3   4
ATOM      4  C   UNL     1     -12.329 -24.552 -34.743  1.00  0.00     0.004 C 
BRANCH   4   5
ATOM      5  C   UNL     1     -12.751 -23.211 -35.369  1.00  0.00     0.000 C 
BRANCH   5   6
ATOM      6  C   UNL     1     -12.899 -22.094 -34.323  1.00  0.00     0.000 C 
BRANCH   6   7
ATOM      7  C   UNL     1     -13.459 -20.792 -34.923  1.00  0.00     0.000 C 
BRANCH   7   8
ATOM      8  C   UNL     1     -12.633 -20.286 -36.119  1.00  0.00     0.006 C 
BRANCH   8   9
ATOM      9  C   UNL     1     -11.960 -18.923 -35.890  1.00  0.00     0.053 C 
BRANCH   9  10
ATOM     10  C   UNL     1     -10.535 -19.067 -35.450  1.00  0.00     0.041 C 
ATOM     11  O   UNL     1      -9.599 -18.950 -36.284  1.00  0.00    -0.550 OA
ATOM     12  O   UNL     1     -10.243 -19.367 -34.125  1.00  0.00    -0.550 OA
ENDBRANCH   9  10
ENDBRANCH   8   9
ENDBRANCH   7   8
ENDBRANCH   6   7
ENDBRANCH   5   6
ENDBRANCH   4   5
ENDBRANCH   3   4
ENDBRANCH   1   3
BRANCH   2  13
ATOM     13  C   UNL     1     -13.263 -27.913 -34.543  1.00  0.00     0.027 C 
BRANCH  13  14
ATOM     14  C   UNL     1     -13.762 -27.723 -33.100  1.00  0.00     0.004 C 
BRANCH  14  15
ATOM     15  C   UNL     1     -12.918 -28.449 -32.036  1.00  0.00     0.000 C 
BRANCH  15  16
ATOM     16  C   UNL     1     -13.087 -27.853 -30.630  1.00  0.00     0.000 C 
BRANCH  16  17
ATOM     17  C   UNL     1     -11.729 -27.458 -30.036  1.00  0.00    -0.000 C 
BRANCH  17  18
ATOM     18  C   UNL     1     -10.640 -27.438 -31.115  1.00  0.00    -0.000 C 
BRANCH  18  19
ATOM     19  C   UNL     1      -9.981 -26.057 -31.204  1.00  0.00    -0.003 C 
ATOM     20  C   UNL     1     -11.000 -24.982 -31.574  1.00  0.00     0.004 C 
ENDBRANCH  18  19
ENDBRANCH  17  18
ENDBRANCH  16  17
ENDBRANCH  15  16
ENDBRANCH  14  15
ENDBRANCH  13  14
ENDBRANCH   2  13
TORSDOF 15
ENDMDL
MODEL 7
REMARK VINA RESULT:    -4.525      2.320      6.465
REMARK INTER + INTRA:         -10.872
REMARK INTER:                  -9.494
REMARK INTRA:                  -1.378
REMARK UNBOUND:                -2.379
REMARK SMILES CCCCCCCCC=CCCCCCCCC(=O)[O-]
REMARK SMILES IDX 10 1 9 2 11 3 12 4 13 5 14 6 15 7 16 8 17 9 18 10 19 11
REMARK SMILES IDX 20 12 8 13 7 14 6 15 5 16 4 17 3 18 2 19 1 20
REMARK H PARENT
REMARK Flexibility Score: inf
ROOT
ATOM      1  C   UNL     1     -11.686 -26.955 -34.910  1.00  0.00    -0.031 C 
ATOM      2  C   UNL     1     -11.637 -25.673 -35.317  1.00  0.00    -0.031 C 
ENDROOT
BRANCH   1   3
ATOM      3  C   UNL     1     -12.897 -27.848 -35.025  1.00  0.00     0.027 C 
BRANCH   3   4
ATOM      4  C   UNL     1     -13.964 -27.508 -33.973  1.00  0.00     0.004 C 
BRANCH   4   5
ATOM      5  C   UNL     1     -13.351 -27.290 -32.578  1.00  0.00     0.000 C 
BRANCH   5   6
ATOM      6  C   UNL     1     -12.752 -28.578 -31.990  1.00  0.00     0.000 C 
BRANCH   6   7
ATOM      7  C   UNL     1     -12.113 -28.356 -30.609  1.00  0.00     0.000 C 
BRANCH   7   8
ATOM      8  C   UNL     1     -11.645 -26.905 -30.397  1.00  0.00     0.006 C 
BRANCH   8   9
ATOM      9  C   UNL     1     -10.284 -26.580 -31.035  1.00  0.00     0.053 C 
BRANCH   9  10
ATOM     10  C   UNL     1     -10.118 -25.112 -31.287  1.00  0.00     0.041 C 
ATOM     11  O   UNL     1      -9.235 -24.460 -30.670  1.00  0.00    -0.550 OA
ATOM     12  O   UNL     1     -10.962 -24.460 -32.177  1.00  0.00    -0.550 OA
ENDBRANCH   9  10
ENDBRANCH   8   9
ENDBRANCH   7   8
ENDBRANCH   6   7
ENDBRANCH   5   6
ENDBRANCH   4   5
ENDBRANCH   3   4
ENDBRANCH   1   3
BRANCH   2  13
ATOM     13  C   UNL     1     -12.750 -24.958 -36.044  1.00  0.00     0.027 C 
BRANCH  13  14
ATOM     14  C   UNL     1     -12.638 -23.428 -35.918  1.00  0.00     0.004 C 
BRANCH  14  15
ATOM     15  C   UNL     1     -12.858 -22.891 -34.492  1.00  0.00     0.000 C 
BRANCH  15  16
ATOM     16  C   UNL     1     -12.750 -21.361 -34.407  1.00  0.00     0.000 C 
BRANCH  16  17
ATOM     17  C   UNL     1     -12.945 -20.721 -35.787  1.00  0.00    -0.000 C 
BRANCH  17  18
ATOM     18  C   UNL     1     -12.231 -19.366 -35.871  1.00  0.00    -0.000 C 
BRANCH  18  19
ATOM     19  C   UNL     1     -10.825 -19.447 -35.267  1.00  0.00    -0.003 C 
ATOM     20  C   UNL     1      -9.809 -19.936 -36.296  1.00  0.00     0.004 C 
ENDBRANCH  18  19
ENDBRANCH  17  18
ENDBRANCH  16  17
ENDBRANCH  15  16
ENDBRANCH  14  15
ENDBRANCH  13  14
ENDBRANCH   2  13
TORSDOF 15
ENDMDL
MODEL 8
REMARK VINA RESULT:    -4.441      1.483      2.369
REMARK INTER + INTRA:         -10.716
REMARK INTER:                  -8.437
REMARK INTRA:                  -2.278
REMARK UNBOUND:                -2.379
REMARK SMILES CCCCCCCCC=CCCCCCCCC(=O)[O-]
REMARK SMILES IDX 10 1 9 2 11 3 12 4 13 5 14 6 15 7 16 8 17 9 18 10 19 11
REMARK SMILES IDX 20 12 8 13 7 14 6 15 5 16 4 17 3 18 2 19 1 20
REMARK H PARENT
REMARK Flexibility Score: inf
ROOT
ATOM      1  C   UNL     1     -12.878 -27.827 -33.197  1.00  0.00    -0.031 C 
ATOM      2  C   UNL     1     -13.141 -28.275 -31.955  1.00  0.00    -0.031 C 
ENDROOT
BRANCH   1   3
ATOM      3  C   UNL     1     -11.531 -27.335 -33.666  1.00  0.00     0.027 C 
BRANCH   3   4
ATOM      4  C   UNL     1     -11.598 -26.740 -35.081  1.00  0.00     0.004 C 
BRANCH   4   5
ATOM      5  C   UNL     1     -13.040 -26.670 -35.612  1.00  0.00     0.000 C 
BRANCH   5   6
ATOM      6  C   UNL     1     -13.377 -25.301 -36.224  1.00  0.00     0.000 C 
BRANCH   6   7
ATOM      7  C   UNL     1     -12.288 -24.248 -35.954  1.00  0.00     0.000 C 
BRANCH   7   8
ATOM      8  C   UNL     1     -12.765 -23.128 -35.012  1.00  0.00     0.006 C 
BRANCH   8   9
ATOM      9  C   UNL     1     -12.617 -21.711 -35.591  1.00  0.00     0.053 C 
BRANCH   9  10
ATOM     10  C   UNL     1     -12.203 -20.719 -34.547  1.00  0.00     0.041 C 
ATOM     11  O   UNL     1     -12.479 -19.499 -34.688  1.00  0.00    -0.550 OA
ATOM     12  O   UNL     1     -11.481 -21.138 -33.437  1.00  0.00    -0.550 OA
ENDBRANCH   9  10
ENDBRANCH   8   9
ENDBRANCH   7   8
ENDBRANCH   6   7
ENDBRANCH   5   6
ENDBRANCH   4   5
ENDBRANCH   3   4
ENDBRANCH   1   3
BRANCH   2  13
ATOM     13  C   UNL     1     -12.109 -28.449 -30.867  1.00  0.00     0.027 C 
BRANCH  13  14
ATOM     14  C   UNL     1     -12.053 -27.236 -29.921  1.00  0.00     0.004 C 
BRANCH  14  15
ATOM     15  C   UNL     1     -13.297 -26.331 -29.975  1.00  0.00     0.000 C 
BRANCH  15  16
ATOM     16  C   UNL     1     -12.947 -24.847 -30.164  1.00  0.00     0.000 C 
BRANCH  16  17
ATOM     17  C   UNL     1     -12.568 -24.555 -31.621  1.00  0.00    -0.000 C 
BRANCH  17  18
ATOM     18  C   UNL     1     -11.087 -24.177 -31.739  1.00  0.00    -0.000 C 
BRANCH  18  19
ATOM     19  C   UNL     1     -10.528 -23.715 -30.389  1.00  0.00    -0.003 C 
ATOM     20  C   UNL     1      -9.008 -23.578 -30.439  1.00  0.00     0.004 C 
ENDBRANCH  18  19
ENDBRANCH  17  18
ENDBRANCH  16  17
ENDBRANCH  15  16
ENDBRANCH  14  15
ENDBRANCH  13  14
ENDBRANCH   2  13
TORSDOF 15
ENDMDL
MODEL 9
REMARK VINA RESULT:    -4.425      2.870      7.326
REMARK INTER + INTRA:         -10.685
REMARK INTER:                  -9.258
REMARK INTRA:                  -1.426
REMARK UNBOUND:                -2.379
REMARK SMILES CCCCCCCCC=CCCCCCCCC(=O)[O-]
REMARK SMILES IDX 10 1 9 2 11 3 12 4 13 5 14 6 15 7 16 8 17 9 18 10 19 11
REMARK SMILES IDX 20 12 8 13 7 14 6 15 5 16 4 17 3 18 2 19 1 20
REMARK H PARENT
REMARK Flexibility Score: inf
ROOT
ATOM      1  C   UNL     1     -11.535 -23.876 -32.054  1.00  0.00    -0.031 C 
ATOM      2  C   UNL     1     -12.279 -23.328 -33.034  1.00  0.00    -0.031 C 
ENDROOT
BRANCH   1   3
ATOM      3  C   UNL     1     -10.840 -25.212 -32.147  1.00  0.00     0.027 C 
BRANCH   3   4
ATOM      4  C   UNL     1     -10.802 -25.935 -30.792  1.00  0.00     0.004 C 
BRANCH   4   5
ATOM      5  C   UNL     1     -10.532 -27.442 -30.949  1.00  0.00     0.000 C 
BRANCH   5   6
ATOM      6  C   UNL     1     -11.576 -28.305 -30.222  1.00  0.00     0.000 C 
BRANCH   6   7
ATOM      7  C   UNL     1     -12.934 -28.325 -30.946  1.00  0.00     0.000 C 
BRANCH   7   8
ATOM      8  C   UNL     1     -12.797 -28.578 -32.458  1.00  0.00     0.006 C 
BRANCH   8   9
ATOM      9  C   UNL     1     -13.387 -27.466 -33.341  1.00  0.00     0.053 C 
BRANCH   9  10
ATOM     10  C   UNL     1     -12.854 -27.518 -34.741  1.00  0.00     0.041 C 
ATOM     11  O   UNL     1     -11.630 -27.321 -34.959  1.00  0.00    -0.550 OA
ATOM     12  O   UNL     1     -13.716 -27.749 -35.805  1.00  0.00    -0.550 OA
ENDBRANCH   9  10
ENDBRANCH   8   9
ENDBRANCH   7   8
ENDBRANCH   6   7
ENDBRANCH   5   6
ENDBRANCH   4   5
ENDBRANCH   3   4
ENDBRANCH   1   3
BRANCH   2  13
ATOM     13  C   UNL     1     -12.452 -23.917 -34.414  1.00  0.00     0.027 C 
BRANCH  13  14
ATOM     14  C   UNL     1     -12.703 -22.835 -35.479  1.00  0.00     0.004 C 
BRANCH  14  15
ATOM     15  C   UNL     1     -13.305 -21.529 -34.928  1.00  0.00     0.000 C 
BRANCH  15  16
ATOM     16  C   UNL     1     -12.894 -20.293 -35.742  1.00  0.00     0.000 C 
BRANCH  16  17
ATOM     17  C   UNL     1     -11.411 -20.358 -36.125  1.00  0.00    -0.000 C 
BRANCH  17  18
ATOM     18  C   UNL     1     -10.808 -18.952 -36.236  1.00  0.00    -0.000 C 
BRANCH  18  19
ATOM     19  C   UNL     1      -9.290 -18.987 -36.028  1.00  0.00    -0.003 C 
ATOM     20  C   UNL     1      -8.560 -19.270 -37.338  1.00  0.00     0.004 C 
ENDBRANCH  18  19
ENDBRANCH  17  18
ENDBRANCH  16  17
ENDBRANCH  15  16
ENDBRANCH  14  15
ENDBRANCH  13  14
ENDBRANCH   2  13
TORSDOF 15
ENDMDL
