MODEL 1
REMARK VINA RESULT:    -4.290      0.000      0.000
REMARK INTER + INTRA:          -9.995
REMARK INTER:                  -8.303
REMARK INTRA:                  -1.692
REMARK UNBOUND:                -1.692
REMARK SMILES CCCCCCCCCCCCCCCCCC(=O)[O-]
REMARK SMILES IDX 10 1 11 2 12 3 13 4 14 5 15 6 16 7 17 8 18 9 19 10 20 11
REMARK SMILES IDX 9 12 8 13 7 14 6 15 5 16 4 17 3 18 2 19 1 20
REMARK H PARENT
REMARK Flexibility Score: inf
ROOT
ATOM      1  C   UNL     1      23.194  -2.914  36.767  1.00  0.00     0.000 C 
ENDROOT
BRANCH   1   2
ATOM      2  C   UNL     1      24.495  -2.789  35.960  1.00  0.00     0.000 C 
BRANCH   2   3
ATOM      3  C   UNL     1      25.577  -1.989  36.706  1.00  0.00     0.000 C 
BRANCH   3   4
ATOM      4  C   UNL     1      25.111  -0.575  37.097  1.00  0.00     0.000 C 
BRANCH   4   5
ATOM      5  C   UNL     1      25.992   0.134  38.144  1.00  0.00     0.000 C 
BRANCH   5   6
ATOM      6  C   UNL     1      26.288   1.601  37.785  1.00  0.00     0.000 C 
BRANCH   6   7
ATOM      7  C   UNL     1      26.384   2.503  39.025  1.00  0.00     0.006 C 
BRANCH   7   8
ATOM      8  C   UNL     1      26.247   1.722  40.338  1.00  0.00     0.053 C 
BRANCH   8   9
ATOM      9  C   UNL     1      25.987   2.657  41.476  1.00  0.00     0.041 C 
ATOM     10  O   UNL     1      26.498   3.808  41.480  1.00  0.00    -0.550 OA
ATOM     11  O   UNL     1      25.139   2.277  42.509  1.00  0.00    -0.550 OA
ENDBRANCH   8   9
ENDBRANCH   7   8
ENDBRANCH   6   7
ENDBRANCH   5   6
ENDBRANCH   4   5
ENDBRANCH   3   4
ENDBRANCH   2   3
ENDBRANCH   1   2
BRANCH   1  12
ATOM     12  C   UNL     1      22.243  -3.976  36.195  1.00  0.00     0.000 C 
BRANCH  12  13
ATOM     13  C   UNL     1      22.808  -4.579  34.901  1.00  0.00    -0.000 C 
BRANCH  13  14
ATOM     14  C   UNL     1      22.925  -6.113  34.954  1.00  0.00    -0.000 C 
BRANCH  14  15
ATOM     15  C   UNL     1      23.697  -6.760  33.783  1.00  0.00    -0.000 C 
BRANCH  15  16
ATOM     16  C   UNL     1      24.971  -6.012  33.343  1.00  0.00    -0.000 C 
BRANCH  16  17
ATOM     17  C   UNL     1      26.254  -6.474  34.072  1.00  0.00    -0.000 C 
BRANCH  17  18
ATOM     18  C   UNL     1      26.934  -5.360  34.889  1.00  0.00    -0.000 C 
BRANCH  18  19
ATOM     19  C   UNL     1      26.883  -5.564  36.412  1.00  0.00    -0.003 C 
ATOM     20  C   UNL     1      25.983  -6.729  36.826  1.00  0.00     0.004 C 
ENDBRANCH  18  19
ENDBRANCH  17  18
ENDBRANCH  16  17
ENDBRANCH  15  16
ENDBRANCH  14  15
ENDBRANCH  13  14
ENDBRANCH  12  13
ENDBRANCH   1  12
TORSDOF 16
ENDMDL
MODEL 2
REMARK VINA RESULT:    -4.271      3.035      7.820
REMARK INTER + INTRA:          -9.959
REMARK INTER:                  -8.422
REMARK INTRA:                  -1.537
REMARK UNBOUND:                -1.692
REMARK SMILES CCCCCCCCCCCCCCCCCC(=O)[O-]
REMARK SMILES IDX 10 1 11 2 12 3 13 4 14 5 15 6 16 7 17 8 18 9 19 10 20 11
REMARK SMILES IDX 9 12 8 13 7 14 6 15 5 16 4 17 3 18 2 19 1 20
REMARK H PARENT
REMARK Flexibility Score: inf
ROOT
ATOM      1  C   UNL     1      22.614  -3.235  36.846  1.00  0.00     0.000 C 
ENDROOT
BRANCH   1   2
ATOM      2  C   UNL     1      21.991  -4.338  35.976  1.00  0.00     0.000 C 
BRANCH   2   3
ATOM      3  C   UNL     1      22.942  -4.822  34.867  1.00  0.00     0.000 C 
BRANCH   3   4
ATOM      4  C   UNL     1      23.006  -6.357  34.764  1.00  0.00     0.000 C 
BRANCH   4   5
ATOM      5  C   UNL     1      24.393  -6.970  35.038  1.00  0.00     0.000 C 
BRANCH   5   6
ATOM      6  C   UNL     1      24.944  -6.609  36.428  1.00  0.00     0.000 C 
BRANCH   6   7
ATOM      7  C   UNL     1      26.453  -6.317  36.405  1.00  0.00     0.006 C 
BRANCH   7   8
ATOM      8  C   UNL     1      26.835  -5.251  35.370  1.00  0.00     0.053 C 
BRANCH   8   9
ATOM      9  C   UNL     1      27.613  -4.150  36.019  1.00  0.00     0.041 C 
ATOM     10  O   UNL     1      28.037  -4.282  37.196  1.00  0.00    -0.550 OA
ATOM     11  O   UNL     1      27.913  -2.997  35.305  1.00  0.00    -0.550 OA
ENDBRANCH   8   9
ENDBRANCH   7   8
ENDBRANCH   6   7
ENDBRANCH   5   6
ENDBRANCH   4   5
ENDBRANCH   3   4
ENDBRANCH   2   3
ENDBRANCH   1   2
BRANCH   1  12
ATOM     12  C   UNL     1      24.096  -2.995  36.524  1.00  0.00     0.000 C 
BRANCH  12  13
ATOM     13  C   UNL     1      24.394  -1.495  36.388  1.00  0.00    -0.000 C 
BRANCH  13  14
ATOM     14  C   UNL     1      25.660  -1.062  37.149  1.00  0.00    -0.000 C 
BRANCH  14  15
ATOM     15  C   UNL     1      25.588   0.327  37.820  1.00  0.00    -0.000 C 
BRANCH  15  16
ATOM     16  C   UNL     1      26.751   0.657  38.777  1.00  0.00    -0.000 C 
BRANCH  16  17
ATOM     17  C   UNL     1      26.598   2.010  39.508  1.00  0.00    -0.000 C 
BRANCH  17  18
ATOM     18  C   UNL     1      25.139   2.363  39.854  1.00  0.00    -0.000 C 
BRANCH  18  19
ATOM     19  C   UNL     1      24.953   3.031  41.227  1.00  0.00    -0.003 C 
ATOM     20  C   UNL     1      25.867   2.444  42.303  1.00  0.00     0.004 C 
ENDBRANCH  18  19
ENDBRANCH  17  18
ENDBRANCH  16  17
ENDBRANCH  15  16
ENDBRANCH  14  15
ENDBRANCH  13  14
ENDBRANCH  12  13
ENDBRANCH   1  12
TORSDOF 16
ENDMDL
MODEL 3
REMARK VINA RESULT:    -4.252      1.294      2.553
REMARK INTER + INTRA:          -9.921
REMARK INTER:                  -8.546
REMARK INTRA:                  -1.374
REMARK UNBOUND:                -1.692
REMARK SMILES CCCCCCCCCCCCCCCCCC(=O)[O-]
REMARK SMILES IDX 10 1 11 2 12 3 13 4 14 5 15 6 16 7 17 8 18 9 19 10 20 11
REMARK SMILES IDX 9 12 8 13 7 14 6 15 5 16 4 17 3 18 2 19 1 20
REMARK H PARENT
REMARK Flexibility Score: inf
ROOT
ATOM      1  C   UNL     1      24.316  -1.126  36.490  1.00  0.00     0.000 C 
ENDROOT
BRANCH   1   2
ATOM      2  C   UNL     1      25.644  -0.722  37.149  1.00  0.00     0.000 C 
BRANCH   2   3
ATOM      3  C   UNL     1      25.462   0.359  38.228  1.00  0.00     0.000 C 
BRANCH   3   4
ATOM      4  C   UNL     1      26.701   1.259  38.388  1.00  0.00     0.000 C 
BRANCH   4   5
ATOM      5  C   UNL     1      26.433   2.625  39.047  1.00  0.00     0.000 C 
BRANCH   5   6
ATOM      6  C   UNL     1      25.288   2.581  40.074  1.00  0.00     0.000 C 
BRANCH   6   7
ATOM      7  C   UNL     1      25.776   2.818  41.512  1.00  0.00     0.006 C 
BRANCH   7   8
ATOM      8  C   UNL     1      26.112   1.513  42.246  1.00  0.00     0.053 C 
BRANCH   8   9
ATOM      9  C   UNL     1      25.894   1.672  43.717  1.00  0.00     0.041 C 
ATOM     10  O   UNL     1      24.852   1.215  44.256  1.00  0.00    -0.550 OA
ATOM     11  O   UNL     1      26.865   2.281  44.502  1.00  0.00    -0.550 OA
ENDBRANCH   8   9
ENDBRANCH   7   8
ENDBRANCH   6   7
ENDBRANCH   5   6
ENDBRANCH   4   5
ENDBRANCH   3   4
ENDBRANCH   2   3
ENDBRANCH   1   2
BRANCH   1  12
ATOM     12  C   UNL     1      24.107  -2.647  36.465  1.00  0.00     0.000 C 
BRANCH  12  13
ATOM     13  C   UNL     1      22.646  -3.007  36.770  1.00  0.00    -0.000 C 
BRANCH  13  14
ATOM     14  C   UNL     1      22.299  -4.464  36.417  1.00  0.00    -0.000 C 
BRANCH  14  15
ATOM     15  C   UNL     1      22.546  -4.866  34.946  1.00  0.00    -0.000 C 
BRANCH  15  16
ATOM     16  C   UNL     1      23.670  -5.898  34.727  1.00  0.00    -0.000 C 
BRANCH  16  17
ATOM     17  C   UNL     1      24.064  -6.677  36.003  1.00  0.00    -0.000 C 
BRANCH  17  18
ATOM     18  C   UNL     1      25.495  -6.380  36.489  1.00  0.00    -0.000 C 
BRANCH  18  19
ATOM     19  C   UNL     1      26.310  -5.470  35.555  1.00  0.00    -0.003 C 
ATOM     20  C   UNL     1      27.196  -4.481  36.313  1.00  0.00     0.004 C 
ENDBRANCH  18  19
ENDBRANCH  17  18
ENDBRANCH  16  17
ENDBRANCH  15  16
ENDBRANCH  14  15
ENDBRANCH  13  14
ENDBRANCH  12  13
ENDBRANCH   1  12
TORSDOF 16
ENDMDL
MODEL 4
REMARK VINA RESULT:    -4.238      6.184      8.838
REMARK INTER + INTRA:          -9.895
REMARK INTER:                  -8.295
REMARK INTRA:                  -1.599
REMARK UNBOUND:                -1.692
REMARK SMILES CCCCCCCCCCCCCCCCCC(=O)[O-]
REMARK SMILES IDX 10 1 11 2 12 3 13 4 14 5 15 6 16 7 17 8 18 9 19 10 20 11
REMARK SMILES IDX 9 12 8 13 7 14 6 15 5 16 4 17 3 18 2 19 1 20
REMARK H PARENT
REMARK Flexibility Score: inf
ROOT
ATOM      1  C   UNL     1      27.742  -2.269  44.349  1.00  0.00     0.000 C 
ENDROOT
BRANCH   1   2
ATOM      2  C   UNL     1      27.669  -1.335  43.131  1.00  0.00     0.000 C 
BRANCH   2   3
ATOM      3  C   UNL     1      26.472  -0.372  43.197  1.00  0.00     0.000 C 
BRANCH   3   4
ATOM      4  C   UNL     1      26.700   0.800  44.170  1.00  0.00     0.000 C 
BRANCH   4   5
ATOM      5  C   UNL     1      26.340   2.190  43.611  1.00  0.00     0.000 C 
BRANCH   5   6
ATOM      6  C   UNL     1      25.388   2.123  42.404  1.00  0.00     0.000 C 
BRANCH   6   7
ATOM      7  C   UNL     1      25.993   2.757  41.141  1.00  0.00     0.006 C 
BRANCH   7   8
ATOM      8  C   UNL     1      25.309   2.279  39.854  1.00  0.00     0.053 C 
BRANCH   8   9
ATOM      9  C   UNL     1      26.241   1.423  39.056  1.00  0.00     0.041 C 
ATOM     10  O   UNL     1      26.334   1.577  37.810  1.00  0.00    -0.550 OA
ATOM     11  O   UNL     1      27.046   0.488  39.695  1.00  0.00    -0.550 OA
ENDBRANCH   8   9
ENDBRANCH   7   8
ENDBRANCH   6   7
ENDBRANCH   5   6
ENDBRANCH   4   5
ENDBRANCH   3   4
ENDBRANCH   2   3
ENDBRANCH   1   2
BRANCH   1  12
ATOM     12  C   UNL     1      28.809  -1.833  45.365  1.00  0.00     0.000 C 
BRANCH  12  13
ATOM     13  C   UNL     1      29.366  -3.041  46.130  1.00  0.00    -0.000 C 
BRANCH  13  14
ATOM     14  C   UNL     1      28.825  -4.385  45.609  1.00  0.00    -0.000 C 
BRANCH  14  15
ATOM     15  C   UNL     1      28.784  -5.529  46.645  1.00  0.00    -0.000 C 
BRANCH  15  16
ATOM     16  C   UNL     1      27.381  -6.091  46.948  1.00  0.00    -0.000 C 
BRANCH  16  17
ATOM     17  C   UNL     1      26.228  -5.122  46.601  1.00  0.00    -0.000 C 
BRANCH  17  18
ATOM     18  C   UNL     1      25.285  -5.652  45.505  1.00  0.00    -0.000 C 
BRANCH  18  19
ATOM     19  C   UNL     1      25.556  -5.085  44.101  1.00  0.00    -0.003 C 
ATOM     20  C   UNL     1      26.546  -5.930  43.300  1.00  0.00     0.004 C 
ENDBRANCH  18  19
ENDBRANCH  17  18
ENDBRANCH  16  17
ENDBRANCH  15  16
ENDBRANCH  14  15
ENDBRANCH  13  14
ENDBRANCH  12  13
ENDBRANCH   1  12
TORSDOF 16
ENDMDL
MODEL 5
REMARK VINA RESULT:    -4.231      2.415      5.125
REMARK INTER + INTRA:          -9.881
REMARK INTER:                  -8.897
REMARK INTRA:                  -0.984
REMARK UNBOUND:                -1.692
REMARK SMILES CCCCCCCCCCCCCCCCCC(=O)[O-]
REMARK SMILES IDX 10 1 11 2 12 3 13 4 14 5 15 6 16 7 17 8 18 9 19 10 20 11
REMARK SMILES IDX 9 12 8 13 7 14 6 15 5 16 4 17 3 18 2 19 1 20
REMARK H PARENT
REMARK Flexibility Score: inf
ROOT
ATOM      1  C   UNL     1      26.111   0.930  38.750  1.00  0.00     0.000 C 
ENDROOT
BRANCH   1   2
ATOM      2  C   UNL     1      25.575   2.194  39.441  1.00  0.00     0.000 C 
BRANCH   2   3
ATOM      3  C   UNL     1      26.675   2.972  40.182  1.00  0.00     0.000 C 
BRANCH   3   4
ATOM      4  C   UNL     1      26.209   3.513  41.547  1.00  0.00     0.000 C 
BRANCH   4   5
ATOM      5  C   UNL     1      25.422   2.509  42.411  1.00  0.00     0.000 C 
BRANCH   5   6
ATOM      6  C   UNL     1      26.258   1.924  43.562  1.00  0.00     0.000 C 
BRANCH   6   7
ATOM      7  C   UNL     1      26.010   0.421  43.767  1.00  0.00     0.006 C 
BRANCH   7   8
ATOM      8  C   UNL     1      26.759  -0.446  42.747  1.00  0.00     0.053 C 
BRANCH   8   9
ATOM      9  C   UNL     1      27.535  -1.518  43.445  1.00  0.00     0.041 C 
ATOM     10  O   UNL     1      27.649  -2.659  42.926  1.00  0.00    -0.550 OA
ATOM     11  O   UNL     1      28.176  -1.241  44.646  1.00  0.00    -0.550 OA
ENDBRANCH   8   9
ENDBRANCH   7   8
ENDBRANCH   6   7
ENDBRANCH   5   6
ENDBRANCH   4   5
ENDBRANCH   3   4
ENDBRANCH   2   3
ENDBRANCH   1   2
BRANCH   1  12
ATOM     12  C   UNL     1      25.254   0.506  37.548  1.00  0.00     0.000 C 
BRANCH  12  13
ATOM     13  C   UNL     1      25.487  -0.972  37.200  1.00  0.00    -0.000 C 
BRANCH  13  14
ATOM     14  C   UNL     1      24.464  -1.520  36.189  1.00  0.00    -0.000 C 
BRANCH  14  15
ATOM     15  C   UNL     1      24.120  -3.018  36.341  1.00  0.00    -0.000 C 
BRANCH  15  16
ATOM     16  C   UNL     1      22.671  -3.318  36.775  1.00  0.00    -0.000 C 
BRANCH  16  17
ATOM     17  C   UNL     1      22.117  -4.655  36.230  1.00  0.00    -0.000 C 
BRANCH  17  18
ATOM     18  C   UNL     1      23.209  -5.695  35.920  1.00  0.00    -0.000 C 
BRANCH  18  19
ATOM     19  C   UNL     1      23.317  -6.084  34.437  1.00  0.00    -0.003 C 
ATOM     20  C   UNL     1      24.758  -6.078  33.924  1.00  0.00     0.004 C 
ENDBRANCH  18  19
ENDBRANCH  17  18
ENDBRANCH  16  17
ENDBRANCH  15  16
ENDBRANCH  14  15
ENDBRANCH  13  14
ENDBRANCH  12  13
ENDBRANCH   1  12
TORSDOF 16
ENDMDL
MODEL 6
REMARK VINA RESULT:    -4.200      3.563      8.822
REMARK INTER + INTRA:          -9.821
REMARK INTER:                  -8.866
REMARK INTRA:                  -0.955
REMARK UNBOUND:                -1.692
REMARK SMILES CCCCCCCCCCCCCCCCCC(=O)[O-]
REMARK SMILES IDX 10 1 11 2 12 3 13 4 14 5 15 6 16 7 17 8 18 9 19 10 20 11
REMARK SMILES IDX 9 12 8 13 7 14 6 15 5 16 4 17 3 18 2 19 1 20
REMARK H PARENT
REMARK Flexibility Score: inf
ROOT
ATOM      1  C   UNL     1      24.319  -1.432  36.431  1.00  0.00     0.000 C 
ENDROOT
BRANCH   1   2
ATOM      2  C   UNL     1      24.073  -2.949  36.459  1.00  0.00     0.000 C 
BRANCH   2   3
ATOM      3  C   UNL     1      22.613  -3.304  36.789  1.00  0.00     0.000 C 
BRANCH   3   4
ATOM      4  C   UNL     1      22.193  -4.679  36.238  1.00  0.00     0.000 C 
BRANCH   4   5
ATOM      5  C   UNL     1      22.807  -5.050  34.875  1.00  0.00     0.000 C 
BRANCH   5   6
ATOM      6  C   UNL     1      23.026  -6.564  34.707  1.00  0.00     0.000 C 
BRANCH   6   7
ATOM      7  C   UNL     1      24.505  -6.963  34.831  1.00  0.00     0.006 C 
BRANCH   7   8
ATOM      8  C   UNL     1      24.981  -7.026  36.288  1.00  0.00     0.053 C 
BRANCH   8   9
ATOM      9  C   UNL     1      26.336  -6.407  36.421  1.00  0.00     0.041 C 
ATOM     10  O   UNL     1      26.738  -5.572  35.568  1.00  0.00    -0.550 OA
ATOM     11  O   UNL     1      27.137  -6.714  37.514  1.00  0.00    -0.550 OA
ENDBRANCH   8   9
ENDBRANCH   7   8
ENDBRANCH   6   7
ENDBRANCH   5   6
ENDBRANCH   4   5
ENDBRANCH   3   4
ENDBRANCH   2   3
ENDBRANCH   1   2
BRANCH   1  12
ATOM     12  C   UNL     1      25.629  -1.034  37.127  1.00  0.00     0.000 C 
BRANCH  12  13
ATOM     13  C   UNL     1      25.475   0.304  37.864  1.00  0.00    -0.000 C 
BRANCH  13  14
ATOM     14  C   UNL     1      26.722   0.687  38.681  1.00  0.00    -0.000 C 
BRANCH  14  15
ATOM     15  C   UNL     1      26.742   2.135  39.218  1.00  0.00    -0.000 C 
BRANCH  15  16
ATOM     16  C   UNL     1      25.544   2.523  40.107  1.00  0.00    -0.000 C 
BRANCH  16  17
ATOM     17  C   UNL     1      25.943   3.065  41.499  1.00  0.00    -0.000 C 
BRANCH  17  18
ATOM     18  C   UNL     1      25.304   2.293  42.668  1.00  0.00    -0.000 C 
BRANCH  18  19
ATOM     19  C   UNL     1      26.311   1.631  43.623  1.00  0.00    -0.003 C 
ATOM     20  C   UNL     1      26.353   0.109  43.482  1.00  0.00     0.004 C 
ENDBRANCH  18  19
ENDBRANCH  17  18
ENDBRANCH  16  17
ENDBRANCH  15  16
ENDBRANCH  14  15
ENDBRANCH  13  14
ENDBRANCH  12  13
ENDBRANCH   1  12
TORSDOF 16
ENDMDL
MODEL 7
REMARK VINA RESULT:    -4.194      6.426      8.614
REMARK INTER + INTRA:          -9.810
REMARK INTER:                  -8.413
REMARK INTRA:                  -1.396
REMARK UNBOUND:                -1.692
REMARK SMILES CCCCCCCCCCCCCCCCCC(=O)[O-]
REMARK SMILES IDX 10 1 11 2 12 3 13 4 14 5 15 6 16 7 17 8 18 9 19 10 20 11
REMARK SMILES IDX 9 12 8 13 7 14 6 15 5 16 4 17 3 18 2 19 1 20
REMARK H PARENT
REMARK Flexibility Score: inf
ROOT
ATOM      1  C   UNL     1      27.576  -2.527  44.304  1.00  0.00     0.000 C 
ENDROOT
BRANCH   1   2
ATOM      2  C   UNL     1      27.780  -1.187  43.580  1.00  0.00     0.000 C 
BRANCH   2   3
ATOM      3  C   UNL     1      26.450  -0.503  43.220  1.00  0.00     0.000 C 
BRANCH   3   4
ATOM      4  C   UNL     1      26.321   0.908  43.823  1.00  0.00     0.000 C 
BRANCH   4   5
ATOM      5  C   UNL     1      25.493   1.902  42.985  1.00  0.00     0.000 C 
BRANCH   5   6
ATOM      6  C   UNL     1      26.327   3.085  42.461  1.00  0.00     0.000 C 
BRANCH   6   7
ATOM      7  C   UNL     1      26.296   3.194  40.929  1.00  0.00     0.006 C 
BRANCH   7   8
ATOM      8  C   UNL     1      25.985   1.856  40.245  1.00  0.00     0.053 C 
BRANCH   8   9
ATOM      9  C   UNL     1      25.719   2.065  38.789  1.00  0.00     0.041 C 
ATOM     10  O   UNL     1      26.614   1.819  37.938  1.00  0.00    -0.550 OA
ATOM     11  O   UNL     1      24.463   2.483  38.365  1.00  0.00    -0.550 OA
ENDBRANCH   8   9
ENDBRANCH   7   8
ENDBRANCH   6   7
ENDBRANCH   5   6
ENDBRANCH   4   5
ENDBRANCH   3   4
ENDBRANCH   2   3
ENDBRANCH   1   2
BRANCH   1  12
ATOM     12  C   UNL     1      28.449  -2.658  45.560  1.00  0.00     0.000 C 
BRANCH  12  13
ATOM     13  C   UNL     1      28.432  -4.097  46.095  1.00  0.00    -0.000 C 
BRANCH  13  14
ATOM     14  C   UNL     1      28.881  -5.133  45.048  1.00  0.00    -0.000 C 
BRANCH  14  15
ATOM     15  C   UNL     1      27.897  -6.297  44.803  1.00  0.00    -0.000 C 
BRANCH  15  16
ATOM     16  C   UNL     1      26.770  -6.004  43.792  1.00  0.00    -0.000 C 
BRANCH  16  17
ATOM     17  C   UNL     1      25.359  -5.950  44.422  1.00  0.00    -0.000 C 
BRANCH  17  18
ATOM     18  C   UNL     1      25.227  -6.783  45.711  1.00  0.00    -0.000 C 
BRANCH  18  19
ATOM     19  C   UNL     1      24.657  -6.011  46.912  1.00  0.00    -0.003 C 
ATOM     20  C   UNL     1      25.730  -5.608  47.924  1.00  0.00     0.004 C 
ENDBRANCH  18  19
ENDBRANCH  17  18
ENDBRANCH  16  17
ENDBRANCH  15  16
ENDBRANCH  14  15
ENDBRANCH  13  14
ENDBRANCH  12  13
ENDBRANCH   1  12
TORSDOF 16
ENDMDL
MODEL 8
REMARK VINA RESULT:    -4.166      7.774     10.950
REMARK INTER + INTRA:          -9.754
REMARK INTER:                  -8.493
REMARK INTRA:                  -1.261
REMARK UNBOUND:                -1.692
REMARK SMILES CCCCCCCCCCCCCCCCCC(=O)[O-]
REMARK SMILES IDX 10 1 11 2 12 3 13 4 14 5 15 6 16 7 17 8 18 9 19 10 20 11
REMARK SMILES IDX 9 12 8 13 7 14 6 15 5 16 4 17 3 18 2 19 1 20
REMARK H PARENT
REMARK Flexibility Score: inf
ROOT
ATOM      1  C   UNL     1      27.872  -3.799  43.383  1.00  0.00     0.000 C 
ENDROOT
BRANCH   1   2
ATOM      2  C   UNL     1      26.980  -5.046  43.497  1.00  0.00     0.000 C 
BRANCH   2   3
ATOM      3  C   UNL     1      25.642  -4.752  44.197  1.00  0.00     0.000 C 
BRANCH   3   4
ATOM      4  C   UNL     1      25.332  -5.743  45.333  1.00  0.00     0.000 C 
BRANCH   4   5
ATOM      5  C   UNL     1      25.931  -5.373  46.703  1.00  0.00     0.000 C 
BRANCH   5   6
ATOM      6  C   UNL     1      25.481  -6.319  47.830  1.00  0.00     0.000 C 
BRANCH   6   7
ATOM      7  C   UNL     1      24.056  -6.015  48.321  1.00  0.00     0.006 C 
BRANCH   7   8
ATOM      8  C   UNL     1      24.038  -5.184  49.610  1.00  0.00     0.053 C 
BRANCH   8   9
ATOM      9  C   UNL     1      22.636  -5.011  50.099  1.00  0.00     0.041 C 
ATOM     10  O   UNL     1      21.667  -5.413  49.402  1.00  0.00    -0.550 OA
ATOM     11  O   UNL     1      22.399  -4.452  51.349  1.00  0.00    -0.550 OA
ENDBRANCH   8   9
ENDBRANCH   7   8
ENDBRANCH   6   7
ENDBRANCH   5   6
ENDBRANCH   4   5
ENDBRANCH   3   4
ENDBRANCH   2   3
ENDBRANCH   1   2
BRANCH   1  12
ATOM     12  C   UNL     1      28.074  -3.092  44.732  1.00  0.00     0.000 C 
BRANCH  12  13
ATOM     13  C   UNL     1      28.039  -1.567  44.564  1.00  0.00    -0.000 C 
BRANCH  13  14
ATOM     14  C   UNL     1      27.538  -1.126  43.177  1.00  0.00    -0.000 C 
BRANCH  14  15
ATOM     15  C   UNL     1      26.102  -0.559  43.141  1.00  0.00    -0.000 C 
BRANCH  15  16
ATOM     16  C   UNL     1      25.882   0.727  43.964  1.00  0.00    -0.000 C 
BRANCH  16  17
ATOM     17  C   UNL     1      26.410   2.009  43.278  1.00  0.00    -0.000 C 
BRANCH  17  18
ATOM     18  C   UNL     1      25.472   2.553  42.184  1.00  0.00    -0.000 C 
BRANCH  18  19
ATOM     19  C   UNL     1      26.165   2.858  40.845  1.00  0.00    -0.003 C 
ATOM     20  C   UNL     1      26.143   1.672  39.881  1.00  0.00     0.004 C 
ENDBRANCH  18  19
ENDBRANCH  17  18
ENDBRANCH  16  17
ENDBRANCH  15  16
ENDBRANCH  14  15
ENDBRANCH  13  14
ENDBRANCH  12  13
ENDBRANCH   1  12
TORSDOF 16
ENDMDL
MODEL 9
REMARK VINA RESULT:    -4.110      4.840      6.653
REMARK INTER + INTRA:          -9.647
REMARK INTER:                  -7.428
REMARK INTRA:                  -2.218
REMARK UNBOUND:                -1.692
REMARK SMILES CCCCCCCCCCCCCCCCCC(=O)[O-]
REMARK SMILES IDX 10 1 11 2 12 3 13 4 14 5 15 6 16 7 17 8 18 9 19 10 20 11
REMARK SMILES IDX 9 12 8 13 7 14 6 15 5 16 4 17 3 18 2 19 1 20
REMARK H PARENT
REMARK Flexibility Score: inf
ROOT
ATOM      1  C   UNL     1      27.343  -4.600  34.862  1.00  0.00     0.000 C 
ENDROOT
BRANCH   1   2
ATOM      2  C   UNL     1      27.914  -3.335  35.522  1.00  0.00     0.000 C 
BRANCH   2   3
ATOM      3  C   UNL     1      27.719  -3.327  37.048  1.00  0.00     0.000 C 
BRANCH   3   4
ATOM      4  C   UNL     1      29.038  -3.507  37.820  1.00  0.00     0.000 C 
BRANCH   4   5
ATOM      5  C   UNL     1      30.293  -2.978  37.099  1.00  0.00     0.000 C 
BRANCH   5   6
ATOM      6  C   UNL     1      31.264  -4.098  36.685  1.00  0.00     0.000 C 
BRANCH   6   7
ATOM      7  C   UNL     1      31.985  -3.793  35.363  1.00  0.00     0.006 C 
BRANCH   7   8
ATOM      8  C   UNL     1      31.310  -2.669  34.565  1.00  0.00     0.053 C 
BRANCH   8   9
ATOM      9  C   UNL     1      32.337  -1.845  33.856  1.00  0.00     0.041 C 
ATOM     10  O   UNL     1      33.550  -1.924  34.184  1.00  0.00    -0.550 OA
ATOM     11  O   UNL     1      31.962  -1.026  32.799  1.00  0.00    -0.550 OA
ENDBRANCH   8   9
ENDBRANCH   7   8
ENDBRANCH   6   7
ENDBRANCH   5   6
ENDBRANCH   4   5
ENDBRANCH   3   4
ENDBRANCH   2   3
ENDBRANCH   1   2
BRANCH   1  12
ATOM     12  C   UNL     1      28.117  -5.869  35.248  1.00  0.00     0.000 C 
BRANCH  12  13
ATOM     13  C   UNL     1      27.161  -6.973  35.721  1.00  0.00    -0.000 C 
BRANCH  13  14
ATOM     14  C   UNL     1      26.029  -6.445  36.620  1.00  0.00    -0.000 C 
BRANCH  14  15
ATOM     15  C   UNL     1      24.609  -6.925  36.248  1.00  0.00    -0.000 C 
BRANCH  15  16
ATOM     16  C   UNL     1      24.007  -6.280  34.984  1.00  0.00    -0.000 C 
BRANCH  16  17
ATOM     17  C   UNL     1      22.607  -5.660  35.201  1.00  0.00    -0.000 C 
BRANCH  17  18
ATOM     18  C   UNL     1      22.646  -4.177  35.612  1.00  0.00    -0.000 C 
BRANCH  18  19
ATOM     19  C   UNL     1      23.890  -3.413  35.126  1.00  0.00    -0.003 C 
ATOM     20  C   UNL     1      24.280  -2.261  36.052  1.00  0.00     0.004 C 
ENDBRANCH  18  19
ENDBRANCH  17  18
ENDBRANCH  16  17
ENDBRANCH  15  16
ENDBRANCH  14  15
ENDBRANCH  13  14
ENDBRANCH  12  13
ENDBRANCH   1  12
TORSDOF 16
ENDMDL
