MODEL 1
REMARK VINA RESULT:    -5.130      0.000      0.000
REMARK INTER + INTRA:         -10.827
REMARK INTER:                  -9.629
REMARK INTRA:                  -1.197
REMARK UNBOUND:                -1.197
REMARK SMILES CCCCCCCCC=CCCCCCCCC(=O)[O-]
REMARK SMILES IDX 10 1 9 2 11 3 12 4 13 5 14 6 15 7 16 8 17 9 18 10 19 11
REMARK SMILES IDX 20 12 8 13 7 14 6 15 5 16 4 17 3 18 2 19 1 20
REMARK H PARENT
REMARK Flexibility Score: inf
ROOT
ATOM      1  C   UNL     1      20.337 -23.043  13.368  1.00  0.00    -0.031 C 
ATOM      2  C   UNL     1      19.980 -23.897  14.339  1.00  0.00    -0.031 C 
ENDROOT
BRANCH   1   3
ATOM      3  C   UNL     1      21.261 -21.886  13.635  1.00  0.00     0.027 C 
BRANCH   3   4
ATOM      4  C   UNL     1      22.620 -22.087  12.952  1.00  0.00     0.004 C 
BRANCH   4   5
ATOM      5  C   UNL     1      23.787 -21.602  13.830  1.00  0.00     0.000 C 
BRANCH   5   6
ATOM      6  C   UNL     1      23.485 -21.697  15.337  1.00  0.00     0.000 C 
BRANCH   6   7
ATOM      7  C   UNL     1      24.603 -22.329  16.187  1.00  0.00     0.000 C 
BRANCH   7   8
ATOM      8  C   UNL     1      24.155 -23.601  16.919  1.00  0.00     0.006 C 
BRANCH   8   9
ATOM      9  C   UNL     1      22.704 -23.949  16.573  1.00  0.00     0.053 C 
BRANCH   9  10
ATOM     10  C   UNL     1      21.788 -23.540  17.683  1.00  0.00     0.041 C 
ATOM     11  O   UNL     1      20.614 -23.993  17.734  1.00  0.00    -0.550 OA
ATOM     12  O   UNL     1      22.213 -22.619  18.633  1.00  0.00    -0.550 OA
ENDBRANCH   9  10
ENDBRANCH   8   9
ENDBRANCH   7   8
ENDBRANCH   6   7
ENDBRANCH   5   6
ENDBRANCH   4   5
ENDBRANCH   3   4
ENDBRANCH   1   3
BRANCH   2  13
ATOM     13  C   UNL     1      18.994 -25.004  14.089  1.00  0.00     0.027 C 
BRANCH  13  14
ATOM     14  C   UNL     1      17.938 -25.060  15.204  1.00  0.00     0.004 C 
BRANCH  14  15
ATOM     15  C   UNL     1      16.503 -25.103  14.659  1.00  0.00     0.000 C 
BRANCH  15  16
ATOM     16  C   UNL     1      15.520 -25.776  15.632  1.00  0.00     0.000 C 
BRANCH  16  17
ATOM     17  C   UNL     1      16.181 -26.122  16.984  1.00  0.00    -0.000 C 
BRANCH  17  18
ATOM     18  C   UNL     1      15.179 -26.256  18.146  1.00  0.00    -0.000 C 
BRANCH  18  19
ATOM     19  C   UNL     1      13.761 -26.677  17.726  1.00  0.00    -0.003 C 
ATOM     20  C   UNL     1      13.194 -27.802  18.591  1.00  0.00     0.004 C 
ENDBRANCH  18  19
ENDBRANCH  17  18
ENDBRANCH  16  17
ENDBRANCH  15  16
ENDBRANCH  14  15
ENDBRANCH  13  14
ENDBRANCH   2  13
TORSDOF 15
ENDMDL
MODEL 2
REMARK VINA RESULT:    -5.071      2.577      3.671
REMARK INTER + INTRA:         -10.715
REMARK INTER:                  -9.126
REMARK INTRA:                  -1.589
REMARK UNBOUND:                -1.197
REMARK SMILES CCCCCCCCC=CCCCCCCCC(=O)[O-]
REMARK SMILES IDX 10 1 9 2 11 3 12 4 13 5 14 6 15 7 16 8 17 9 18 10 19 11
REMARK SMILES IDX 20 12 8 13 7 14 6 15 5 16 4 17 3 18 2 19 1 20
REMARK H PARENT
REMARK Flexibility Score: inf
ROOT
ATOM      1  C   UNL     1      20.470 -23.561  16.407  1.00  0.00    -0.031 C 
ATOM      2  C   UNL     1      20.507 -23.945  15.122  1.00  0.00    -0.031 C 
ENDROOT
BRANCH   1   3
ATOM      3  C   UNL     1      21.594 -23.872  17.357  1.00  0.00     0.027 C 
BRANCH   3   4
ATOM      4  C   UNL     1      22.882 -24.223  16.603  1.00  0.00     0.004 C 
BRANCH   4   5
ATOM      5  C   UNL     1      24.101 -23.462  17.154  1.00  0.00     0.000 C 
BRANCH   5   6
ATOM      6  C   UNL     1      24.596 -22.354  16.206  1.00  0.00     0.000 C 
BRANCH   6   7
ATOM      7  C   UNL     1      23.489 -21.609  15.439  1.00  0.00     0.000 C 
BRANCH   7   8
ATOM      8  C   UNL     1      23.849 -21.344  13.971  1.00  0.00     0.006 C 
BRANCH   8   9
ATOM      9  C   UNL     1      22.877 -22.063  13.030  1.00  0.00     0.053 C 
BRANCH   9  10
ATOM     10  C   UNL     1      23.350 -21.965  11.614  1.00  0.00     0.041 C 
ATOM     11  O   UNL     1      23.021 -22.844  10.775  1.00  0.00    -0.550 OA
ATOM     12  O   UNL     1      24.196 -20.930  11.232  1.00  0.00    -0.550 OA
ENDBRANCH   9  10
ENDBRANCH   8   9
ENDBRANCH   7   8
ENDBRANCH   6   7
ENDBRANCH   5   6
ENDBRANCH   4   5
ENDBRANCH   3   4
ENDBRANCH   1   3
BRANCH   2  13
ATOM     13  C   UNL     1      19.348 -23.703  14.195  1.00  0.00     0.027 C 
BRANCH  13  14
ATOM     14  C   UNL     1      18.070 -23.385  14.988  1.00  0.00     0.004 C 
BRANCH  14  15
ATOM     15  C   UNL     1      16.806 -23.958  14.329  1.00  0.00     0.000 C 
BRANCH  15  16
ATOM     16  C   UNL     1      16.273 -25.206  15.054  1.00  0.00     0.000 C 
BRANCH  16  17
ATOM     17  C   UNL     1      17.212 -25.665  16.191  1.00  0.00    -0.000 C 
BRANCH  17  18
ATOM     18  C   UNL     1      16.467 -26.185  17.435  1.00  0.00    -0.000 C 
BRANCH  18  19
ATOM     19  C   UNL     1      14.935 -26.068  17.361  1.00  0.00    -0.003 C 
ATOM     20  C   UNL     1      14.219 -27.114  18.216  1.00  0.00     0.004 C 
ENDBRANCH  18  19
ENDBRANCH  17  18
ENDBRANCH  16  17
ENDBRANCH  15  16
ENDBRANCH  14  15
ENDBRANCH  13  14
ENDBRANCH   2  13
TORSDOF 15
ENDMDL
MODEL 3
REMARK VINA RESULT:    -4.862      2.677      4.134
REMARK INTER + INTRA:         -10.324
REMARK INTER:                  -8.700
REMARK INTRA:                  -1.624
REMARK UNBOUND:                -1.197
REMARK SMILES CCCCCCCCC=CCCCCCCCC(=O)[O-]
REMARK SMILES IDX 10 1 9 2 11 3 12 4 13 5 14 6 15 7 16 8 17 9 18 10 19 11
REMARK SMILES IDX 20 12 8 13 7 14 6 15 5 16 4 17 3 18 2 19 1 20
REMARK H PARENT
REMARK Flexibility Score: inf
ROOT
ATOM      1  C   UNL     1      21.959 -22.886  17.758  1.00  0.00    -0.031 C 
ATOM      2  C   UNL     1      21.249 -23.672  16.935  1.00  0.00    -0.031 C 
ENDROOT
BRANCH   1   3
ATOM      3  C   UNL     1      23.447 -23.041  17.910  1.00  0.00     0.027 C 
BRANCH   3   4
ATOM      4  C   UNL     1      24.150 -23.056  16.547  1.00  0.00     0.004 C 
BRANCH   4   5
ATOM      5  C   UNL     1      24.563 -21.645  16.093  1.00  0.00     0.000 C 
BRANCH   5   6
ATOM      6  C   UNL     1      24.152 -21.336  14.642  1.00  0.00     0.000 C 
BRANCH   6   7
ATOM      7  C   UNL     1      22.643 -21.440  14.355  1.00  0.00     0.000 C 
BRANCH   7   8
ATOM      8  C   UNL     1      22.276 -22.666  13.509  1.00  0.00     0.006 C 
BRANCH   8   9
ATOM      9  C   UNL     1      21.709 -22.244  12.150  1.00  0.00     0.053 C 
BRANCH   9  10
ATOM     10  C   UNL     1      22.630 -22.660  11.047  1.00  0.00     0.041 C 
ATOM     11  O   UNL     1      23.861 -22.405  11.120  1.00  0.00    -0.550 OA
ATOM     12  O   UNL     1      22.122 -23.283   9.913  1.00  0.00    -0.550 OA
ENDBRANCH   9  10
ENDBRANCH   8   9
ENDBRANCH   7   8
ENDBRANCH   6   7
ENDBRANCH   5   6
ENDBRANCH   4   5
ENDBRANCH   3   4
ENDBRANCH   1   3
BRANCH   2  13
ATOM     13  C   UNL     1      19.752 -23.568  16.845  1.00  0.00     0.027 C 
BRANCH  13  14
ATOM     14  C   UNL     1      19.281 -23.696  15.387  1.00  0.00     0.004 C 
BRANCH  14  15
ATOM     15  C   UNL     1      18.489 -24.987  15.133  1.00  0.00     0.000 C 
BRANCH  15  16
ATOM     16  C   UNL     1      17.113 -24.723  14.496  1.00  0.00     0.000 C 
BRANCH  16  17
ATOM     17  C   UNL     1      15.968 -25.402  15.280  1.00  0.00    -0.000 C 
BRANCH  17  18
ATOM     18  C   UNL     1      16.090 -25.251  16.808  1.00  0.00    -0.000 C 
BRANCH  18  19
ATOM     19  C   UNL     1      15.879 -26.551  17.601  1.00  0.00    -0.003 C 
ATOM     20  C   UNL     1      14.481 -26.655  18.209  1.00  0.00     0.004 C 
ENDBRANCH  18  19
ENDBRANCH  17  18
ENDBRANCH  16  17
ENDBRANCH  15  16
ENDBRANCH  14  15
ENDBRANCH  13  14
ENDBRANCH   2  13
TORSDOF 15
ENDMDL
MODEL 4
REMARK VINA RESULT:    -4.861      2.887      8.223
REMARK INTER + INTRA:         -10.321
REMARK INTER:                  -8.737
REMARK INTRA:                  -1.584
REMARK UNBOUND:                -1.197
REMARK SMILES CCCCCCCCC=CCCCCCCCC(=O)[O-]
REMARK SMILES IDX 10 1 9 2 11 3 12 4 13 5 14 6 15 7 16 8 17 9 18 10 19 11
REMARK SMILES IDX 20 12 8 13 7 14 6 15 5 16 4 17 3 18 2 19 1 20
REMARK H PARENT
REMARK Flexibility Score: inf
ROOT
ATOM      1  C   UNL     1      20.049 -22.785  15.891  1.00  0.00    -0.031 C 
ATOM      2  C   UNL     1      20.296 -23.565  16.955  1.00  0.00    -0.031 C 
ENDROOT
BRANCH   1   3
ATOM      3  C   UNL     1      18.728 -22.826  15.171  1.00  0.00     0.027 C 
BRANCH   3   4
ATOM      4  C   UNL     1      18.734 -23.873  14.050  1.00  0.00     0.004 C 
BRANCH   4   5
ATOM      5  C   UNL     1      17.508 -24.800  14.117  1.00  0.00     0.000 C 
BRANCH   5   6
ATOM      6  C   UNL     1      17.195 -25.282  15.545  1.00  0.00     0.000 C 
BRANCH   6   7
ATOM      7  C   UNL     1      15.723 -25.652  15.802  1.00  0.00     0.000 C 
BRANCH   7   8
ATOM      8  C   UNL     1      15.384 -25.769  17.294  1.00  0.00     0.006 C 
BRANCH   8   9
ATOM      9  C   UNL     1      14.134 -26.629  17.506  1.00  0.00     0.053 C 
BRANCH   9  10
ATOM     10  C   UNL     1      13.469 -26.277  18.798  1.00  0.00     0.041 C 
ATOM     11  O   UNL     1      13.129 -25.087  19.032  1.00  0.00    -0.550 OA
ATOM     12  O   UNL     1      13.270 -27.253  19.767  1.00  0.00    -0.550 OA
ENDBRANCH   9  10
ENDBRANCH   8   9
ENDBRANCH   7   8
ENDBRANCH   6   7
ENDBRANCH   5   6
ENDBRANCH   4   5
ENDBRANCH   3   4
ENDBRANCH   1   3
BRANCH   2  13
ATOM     13  C   UNL     1      21.642 -23.580  17.623  1.00  0.00     0.027 C 
BRANCH  13  14
ATOM     14  C   UNL     1      22.707 -24.184  16.694  1.00  0.00     0.004 C 
BRANCH  14  15
ATOM     15  C   UNL     1      24.119 -23.652  16.987  1.00  0.00     0.000 C 
BRANCH  15  16
ATOM     16  C   UNL     1      24.188 -22.115  16.973  1.00  0.00     0.000 C 
BRANCH  16  17
ATOM     17  C   UNL     1      25.240 -21.588  15.973  1.00  0.00    -0.000 C 
BRANCH  17  18
ATOM     18  C   UNL     1      24.627 -20.942  14.715  1.00  0.00    -0.000 C 
BRANCH  18  19
ATOM     19  C   UNL     1      23.112 -21.154  14.558  1.00  0.00    -0.003 C 
ATOM     20  C   UNL     1      22.762 -22.113  13.420  1.00  0.00     0.004 C 
ENDBRANCH  18  19
ENDBRANCH  17  18
ENDBRANCH  16  17
ENDBRANCH  15  16
ENDBRANCH  14  15
ENDBRANCH  13  14
ENDBRANCH   2  13
TORSDOF 15
ENDMDL
MODEL 5
REMARK VINA RESULT:    -4.800     16.109     18.189
REMARK INTER + INTRA:         -10.206
REMARK INTER:                  -7.419
REMARK INTRA:                  -2.788
REMARK UNBOUND:                -1.197
REMARK SMILES CCCCCCCCC=CCCCCCCCC(=O)[O-]
REMARK SMILES IDX 10 1 9 2 11 3 12 4 13 5 14 6 15 7 16 8 17 9 18 10 19 11
REMARK SMILES IDX 20 12 8 13 7 14 6 15 5 16 4 17 3 18 2 19 1 20
REMARK H PARENT
REMARK Flexibility Score: inf
ROOT
ATOM      1  C   UNL     1      30.039 -34.319  28.115  1.00  0.00    -0.031 C 
ATOM      2  C   UNL     1      29.402 -35.239  28.854  1.00  0.00    -0.031 C 
ENDROOT
BRANCH   1   3
ATOM      3  C   UNL     1      31.117 -34.700  27.137  1.00  0.00     0.027 C 
BRANCH   3   4
ATOM      4  C   UNL     1      31.059 -33.832  25.874  1.00  0.00     0.004 C 
BRANCH   4   5
ATOM      5  C   UNL     1      31.761 -34.500  24.679  1.00  0.00     0.000 C 
BRANCH   5   6
ATOM      6  C   UNL     1      32.124 -35.973  24.941  1.00  0.00     0.000 C 
BRANCH   6   7
ATOM      7  C   UNL     1      31.716 -36.954  23.827  1.00  0.00     0.000 C 
BRANCH   7   8
ATOM      8  C   UNL     1      31.175 -36.250  22.575  1.00  0.00     0.006 C 
BRANCH   8   9
ATOM      9  C   UNL     1      29.738 -36.689  22.278  1.00  0.00     0.053 C 
BRANCH   9  10
ATOM     10  C   UNL     1      29.001 -35.610  21.549  1.00  0.00     0.041 C 
ATOM     11  O   UNL     1      28.248 -35.900  20.583  1.00  0.00    -0.550 OA
ATOM     12  O   UNL     1      29.186 -34.279  21.904  1.00  0.00    -0.550 OA
ENDBRANCH   9  10
ENDBRANCH   8   9
ENDBRANCH   7   8
ENDBRANCH   6   7
ENDBRANCH   5   6
ENDBRANCH   4   5
ENDBRANCH   3   4
ENDBRANCH   1   3
BRANCH   2  13
ATOM     13  C   UNL     1      28.382 -34.848  29.888  1.00  0.00     0.027 C 
BRANCH  13  14
ATOM     14  C   UNL     1      27.158 -35.775  29.826  1.00  0.00     0.004 C 
BRANCH  14  15
ATOM     15  C   UNL     1      26.300 -35.540  28.574  1.00  0.00     0.000 C 
BRANCH  15  16
ATOM     16  C   UNL     1      26.060 -34.047  28.291  1.00  0.00     0.000 C 
BRANCH  16  17
ATOM     17  C   UNL     1      26.568 -33.630  26.893  1.00  0.00    -0.000 C 
BRANCH  17  18
ATOM     18  C   UNL     1      26.481 -34.754  25.843  1.00  0.00    -0.000 C 
BRANCH  18  19
ATOM     19  C   UNL     1      27.831 -35.173  25.239  1.00  0.00    -0.003 C 
ATOM     20  C   UNL     1      28.226 -36.604  25.606  1.00  0.00     0.004 C 
ENDBRANCH  18  19
ENDBRANCH  17  18
ENDBRANCH  16  17
ENDBRANCH  15  16
ENDBRANCH  14  15
ENDBRANCH  13  14
ENDBRANCH   2  13
TORSDOF 15
ENDMDL
MODEL 6
REMARK VINA RESULT:    -4.777      2.860      7.483
REMARK INTER + INTRA:         -10.163
REMARK INTER:                  -8.734
REMARK INTRA:                  -1.429
REMARK UNBOUND:                -1.197
REMARK SMILES CCCCCCCCC=CCCCCCCCC(=O)[O-]
REMARK SMILES IDX 10 1 9 2 11 3 12 4 13 5 14 6 15 7 16 8 17 9 18 10 19 11
REMARK SMILES IDX 20 12 8 13 7 14 6 15 5 16 4 17 3 18 2 19 1 20
REMARK H PARENT
REMARK Flexibility Score: inf
ROOT
ATOM      1  C   UNL     1      20.365 -23.154  13.740  1.00  0.00    -0.031 C 
ATOM      2  C   UNL     1      21.209 -22.128  13.558  1.00  0.00    -0.031 C 
ENDROOT
BRANCH   1   3
ATOM      3  C   UNL     1      18.965 -22.945  14.250  1.00  0.00     0.027 C 
BRANCH   3   4
ATOM      4  C   UNL     1      18.117 -24.213  14.094  1.00  0.00     0.004 C 
BRANCH   4   5
ATOM      5  C   UNL     1      16.776 -24.108  14.842  1.00  0.00     0.000 C 
BRANCH   5   6
ATOM      6  C   UNL     1      16.349 -25.433  15.500  1.00  0.00     0.000 C 
BRANCH   6   7
ATOM      7  C   UNL     1      16.613 -25.524  17.014  1.00  0.00     0.000 C 
BRANCH   7   8
ATOM      8  C   UNL     1      15.763 -26.597  17.708  1.00  0.00     0.006 C 
BRANCH   8   9
ATOM      9  C   UNL     1      14.278 -26.417  17.380  1.00  0.00     0.053 C 
BRANCH   9  10
ATOM     10  C   UNL     1      13.463 -26.390  18.634  1.00  0.00     0.041 C 
ATOM     11  O   UNL     1      13.018 -25.298  19.076  1.00  0.00    -0.550 OA
ATOM     12  O   UNL     1      13.238 -27.563  19.343  1.00  0.00    -0.550 OA
ENDBRANCH   9  10
ENDBRANCH   8   9
ENDBRANCH   7   8
ENDBRANCH   6   7
ENDBRANCH   5   6
ENDBRANCH   4   5
ENDBRANCH   3   4
ENDBRANCH   1   3
BRANCH   2  13
ATOM     13  C   UNL     1      22.632 -22.347  13.125  1.00  0.00     0.027 C 
BRANCH  13  14
ATOM     14  C   UNL     1      23.599 -21.507  13.974  1.00  0.00     0.004 C 
BRANCH  14  15
ATOM     15  C   UNL     1      23.350 -21.661  15.482  1.00  0.00     0.000 C 
BRANCH  15  16
ATOM     16  C   UNL     1      24.479 -22.425  16.194  1.00  0.00     0.000 C 
BRANCH  16  17
ATOM     17  C   UNL     1      23.982 -23.744  16.826  1.00  0.00    -0.000 C 
BRANCH  17  18
ATOM     18  C   UNL     1      22.481 -24.007  16.606  1.00  0.00    -0.000 C 
BRANCH  18  19
ATOM     19  C   UNL     1      21.553 -23.321  17.622  1.00  0.00    -0.003 C 
ATOM     20  C   UNL     1      20.109 -23.816  17.537  1.00  0.00     0.004 C 
ENDBRANCH  18  19
ENDBRANCH  17  18
ENDBRANCH  16  17
ENDBRANCH  15  16
ENDBRANCH  14  15
ENDBRANCH  13  14
ENDBRANCH   2  13
TORSDOF 15
ENDMDL
MODEL 7
REMARK VINA RESULT:    -4.726      2.624      7.924
REMARK INTER + INTRA:         -10.068
REMARK INTER:                  -8.227
REMARK INTRA:                  -1.841
REMARK UNBOUND:                -1.197
REMARK SMILES CCCCCCCCC=CCCCCCCCC(=O)[O-]
REMARK SMILES IDX 10 1 9 2 11 3 12 4 13 5 14 6 15 7 16 8 17 9 18 10 19 11
REMARK SMILES IDX 20 12 8 13 7 14 6 15 5 16 4 17 3 18 2 19 1 20
REMARK H PARENT
REMARK Flexibility Score: inf
ROOT
ATOM      1  C   UNL     1      20.816 -23.405  16.474  1.00  0.00    -0.031 C 
ATOM      2  C   UNL     1      21.841 -24.089  15.943  1.00  0.00    -0.031 C 
ENDROOT
BRANCH   1   3
ATOM      3  C   UNL     1      19.562 -23.126  15.690  1.00  0.00     0.027 C 
BRANCH   3   4
ATOM      4  C   UNL     1      19.590 -23.823  14.324  1.00  0.00     0.004 C 
BRANCH   4   5
ATOM      5  C   UNL     1      18.632 -25.026  14.268  1.00  0.00     0.000 C 
BRANCH   5   6
ATOM      6  C   UNL     1      17.163 -24.615  14.053  1.00  0.00     0.000 C 
BRANCH   6   7
ATOM      7  C   UNL     1      16.136 -25.411  14.879  1.00  0.00     0.000 C 
BRANCH   7   8
ATOM      8  C   UNL     1      16.563 -25.607  16.340  1.00  0.00     0.006 C 
BRANCH   8   9
ATOM      9  C   UNL     1      15.647 -24.826  17.287  1.00  0.00     0.053 C 
BRANCH   9  10
ATOM     10  C   UNL     1      14.744 -25.758  18.030  1.00  0.00     0.041 C 
ATOM     11  O   UNL     1      14.944 -27.001  17.989  1.00  0.00    -0.550 OA
ATOM     12  O   UNL     1      13.649 -25.260  18.726  1.00  0.00    -0.550 OA
ENDBRANCH   9  10
ENDBRANCH   8   9
ENDBRANCH   7   8
ENDBRANCH   6   7
ENDBRANCH   5   6
ENDBRANCH   4   5
ENDBRANCH   3   4
ENDBRANCH   1   3
BRANCH   2  13
ATOM     13  C   UNL     1      23.123 -24.297  16.700  1.00  0.00     0.027 C 
BRANCH  13  14
ATOM     14  C   UNL     1      23.661 -22.964  17.242  1.00  0.00     0.004 C 
BRANCH  14  15
ATOM     15  C   UNL     1      24.800 -22.392  16.384  1.00  0.00     0.000 C 
BRANCH  15  16
ATOM     16  C   UNL     1      24.467 -21.007  15.803  1.00  0.00     0.000 C 
BRANCH  16  17
ATOM     17  C   UNL     1      24.282 -21.046  14.270  1.00  0.00    -0.000 C 
BRANCH  17  18
ATOM     18  C   UNL     1      22.819 -21.240  13.829  1.00  0.00    -0.000 C 
BRANCH  18  19
ATOM     19  C   UNL     1      22.605 -22.347  12.784  1.00  0.00    -0.003 C 
ATOM     20  C   UNL     1      23.304 -22.053  11.457  1.00  0.00     0.004 C 
ENDBRANCH  18  19
ENDBRANCH  17  18
ENDBRANCH  16  17
ENDBRANCH  15  16
ENDBRANCH  14  15
ENDBRANCH  13  14
ENDBRANCH   2  13
TORSDOF 15
ENDMDL
MODEL 8
REMARK VINA RESULT:    -4.722     16.203     18.047
REMARK INTER + INTRA:         -10.059
REMARK INTER:                  -7.457
REMARK INTRA:                  -2.602
REMARK UNBOUND:                -1.197
REMARK SMILES CCCCCCCCC=CCCCCCCCC(=O)[O-]
REMARK SMILES IDX 10 1 9 2 11 3 12 4 13 5 14 6 15 7 16 8 17 9 18 10 19 11
REMARK SMILES IDX 20 12 8 13 7 14 6 15 5 16 4 17 3 18 2 19 1 20
REMARK H PARENT
REMARK Flexibility Score: inf
ROOT
ATOM      1  C   UNL     1      29.477 -33.994  26.050  1.00  0.00    -0.031 C 
ATOM      2  C   UNL     1      28.531 -34.878  25.698  1.00  0.00    -0.031 C 
ENDROOT
BRANCH   1   3
ATOM      3  C   UNL     1      30.941 -34.296  25.882  1.00  0.00     0.027 C 
BRANCH   3   4
ATOM      4  C   UNL     1      31.160 -35.543  25.017  1.00  0.00     0.004 C 
BRANCH   4   5
ATOM      5  C   UNL     1      32.011 -35.243  23.770  1.00  0.00     0.000 C 
BRANCH   5   6
ATOM      6  C   UNL     1      31.282 -35.564  22.453  1.00  0.00     0.000 C 
BRANCH   6   7
ATOM      7  C   UNL     1      29.974 -34.784  22.224  1.00  0.00     0.000 C 
BRANCH   7   8
ATOM      8  C   UNL     1      28.733 -35.687  22.199  1.00  0.00     0.006 C 
BRANCH   8   9
ATOM      9  C   UNL     1      28.971 -36.920  21.321  1.00  0.00     0.053 C 
BRANCH   9  10
ATOM     10  C   UNL     1      28.710 -36.598  19.884  1.00  0.00     0.041 C 
ATOM     11  O   UNL     1      27.553 -36.274  19.508  1.00  0.00    -0.550 OA
ATOM     12  O   UNL     1      29.734 -36.706  18.950  1.00  0.00    -0.550 OA
ENDBRANCH   9  10
ENDBRANCH   8   9
ENDBRANCH   7   8
ENDBRANCH   6   7
ENDBRANCH   5   6
ENDBRANCH   4   5
ENDBRANCH   3   4
ENDBRANCH   1   3
BRANCH   2  13
ATOM     13  C   UNL     1      27.072 -34.606  25.941  1.00  0.00     0.027 C 
BRANCH  13  14
ATOM     14  C   UNL     1      26.367 -35.856  26.492  1.00  0.00     0.004 C 
BRANCH  14  15
ATOM     15  C   UNL     1      26.187 -35.810  28.017  1.00  0.00     0.000 C 
BRANCH  15  16
ATOM     16  C   UNL     1      26.383 -34.397  28.595  1.00  0.00     0.000 C 
BRANCH  16  17
ATOM     17  C   UNL     1      27.477 -34.359  29.683  1.00  0.00    -0.000 C 
BRANCH  17  18
ATOM     18  C   UNL     1      28.290 -35.663  29.788  1.00  0.00    -0.000 C 
BRANCH  18  19
ATOM     19  C   UNL     1      29.711 -35.584  29.206  1.00  0.00    -0.003 C 
ATOM     20  C   UNL     1      30.154 -36.887  28.541  1.00  0.00     0.004 C 
ENDBRANCH  18  19
ENDBRANCH  17  18
ENDBRANCH  16  17
ENDBRANCH  15  16
ENDBRANCH  14  15
ENDBRANCH  13  14
ENDBRANCH   2  13
TORSDOF 15
ENDMDL
MODEL 9
REMARK VINA RESULT:    -4.694     15.857     18.287
REMARK INTER + INTRA:         -10.008
REMARK INTER:                  -7.188
REMARK INTRA:                  -2.820
REMARK UNBOUND:                -1.197
REMARK SMILES CCCCCCCCC=CCCCCCCCC(=O)[O-]
REMARK SMILES IDX 10 1 9 2 11 3 12 4 13 5 14 6 15 7 16 8 17 9 18 10 19 11
REMARK SMILES IDX 20 12 8 13 7 14 6 15 5 16 4 17 3 18 2 19 1 20
REMARK H PARENT
REMARK Flexibility Score: inf
ROOT
ATOM      1  C   UNL     1      30.986 -34.364  24.187  1.00  0.00    -0.031 C 
ATOM      2  C   UNL     1      29.714 -34.428  23.765  1.00  0.00    -0.031 C 
ENDROOT
BRANCH   1   3
ATOM      3  C   UNL     1      31.329 -34.197  25.642  1.00  0.00     0.027 C 
BRANCH   3   4
ATOM      4  C   UNL     1      30.075 -33.942  26.486  1.00  0.00     0.004 C 
BRANCH   4   5
ATOM      5  C   UNL     1      30.349 -34.095  27.993  1.00  0.00     0.000 C 
BRANCH   5   6
ATOM      6  C   UNL     1      29.666 -35.331  28.606  1.00  0.00     0.000 C 
BRANCH   6   7
ATOM      7  C   UNL     1      28.777 -36.133  27.637  1.00  0.00     0.000 C 
BRANCH   7   8
ATOM      8  C   UNL     1      27.278 -35.879  27.847  1.00  0.00     0.006 C 
BRANCH   8   9
ATOM      9  C   UNL     1      26.544 -35.792  26.506  1.00  0.00     0.053 C 
BRANCH   9  10
ATOM     10  C   UNL     1      26.394 -34.365  26.083  1.00  0.00     0.041 C 
ATOM     11  O   UNL     1      26.335 -34.071  24.860  1.00  0.00    -0.550 OA
ATOM     12  O   UNL     1      26.371 -33.354  27.036  1.00  0.00    -0.550 OA
ENDBRANCH   9  10
ENDBRANCH   8   9
ENDBRANCH   7   8
ENDBRANCH   6   7
ENDBRANCH   5   6
ENDBRANCH   4   5
ENDBRANCH   3   4
ENDBRANCH   1   3
BRANCH   2  13
ATOM     13  C   UNL     1      29.373 -34.515  22.304  1.00  0.00     0.027 C 
BRANCH  13  14
ATOM     14  C   UNL     1      30.458 -35.285  21.534  1.00  0.00     0.004 C 
BRANCH  14  15
ATOM     15  C   UNL     1      29.909 -36.532  20.825  1.00  0.00     0.000 C 
BRANCH  15  16
ATOM     16  C   UNL     1      30.612 -37.826  21.273  1.00  0.00     0.000 C 
BRANCH  16  17
ATOM     17  C   UNL     1      31.501 -37.606  22.516  1.00  0.00    -0.000 C 
BRANCH  17  18
ATOM     18  C   UNL     1      31.185 -38.565  23.680  1.00  0.00    -0.000 C 
BRANCH  18  19
ATOM     19  C   UNL     1      30.293 -37.967  24.780  1.00  0.00    -0.003 C 
ATOM     20  C   UNL     1      28.803 -38.054  24.448  1.00  0.00     0.004 C 
ENDBRANCH  18  19
ENDBRANCH  17  18
ENDBRANCH  16  17
ENDBRANCH  15  16
ENDBRANCH  14  15
ENDBRANCH  13  14
ENDBRANCH   2  13
TORSDOF 15
ENDMDL
