MODEL 1
REMARK VINA RESULT:    -6.382      0.000      0.000
REMARK INTER + INTRA:          -7.652
REMARK INTER:                  -7.501
REMARK INTRA:                  -0.151
REMARK UNBOUND:                -0.151
REMARK SMILES O=c1c(O)c(-c2ccc(O)cc2)oc2cc(O)cc(O)c12
REMARK SMILES IDX 5 1 3 2 2 3 1 4 21 5 19 6 18 7 16 8 15 9 14 10 13 11 6 12
REMARK SMILES IDX 7 13 8 14 9 15 12 16 11 17 10 18 4 20 20 22 17 24
REMARK H PARENT 10 19 4 21 20 23 17 25
REMARK Flexibility Score: inf
ROOT
ATOM      1  C   UNL     1     -35.476  -5.694   6.298  1.00  0.00     0.180 A 
ATOM      2  C   UNL     1     -35.820  -6.996   6.701  1.00  0.00     0.208 A 
ATOM      3  C   UNL     1     -35.625  -8.059   5.804  1.00  0.00     0.238 A 
ATOM      4  O   UNL     1     -35.884  -9.229   6.190  1.00  0.00    -0.285 OA
ATOM      5  C   UNL     1     -35.108  -7.805   4.512  1.00  0.00     0.111 A 
ATOM      6  C   UNL     1     -34.908  -8.801   3.509  1.00  0.00     0.134 A 
ATOM      7  C   UNL     1     -34.267  -8.458   2.312  1.00  0.00     0.093 A 
ATOM      8  C   UNL     1     -33.878  -7.144   2.055  1.00  0.00     0.123 A 
ATOM      9  C   UNL     1     -34.122  -6.151   3.004  1.00  0.00     0.094 A 
ATOM     10  C   UNL     1     -34.727  -6.470   4.223  1.00  0.00     0.146 A 
ATOM     11  O   UNL     1     -34.931  -5.497   5.104  1.00  0.00    -0.452 OA
ENDROOT
BRANCH   1  12
ATOM     12  C   UNL     1     -35.675  -4.519   7.177  1.00  0.00     0.021 A 
ATOM     13  C   UNL     1     -36.960  -4.122   7.591  1.00  0.00     0.016 A 
ATOM     14  C   UNL     1     -37.125  -2.995   8.403  1.00  0.00     0.047 A 
ATOM     15  C   UNL     1     -36.014  -2.243   8.797  1.00  0.00     0.115 A 
ATOM     16  C   UNL     1     -34.566  -3.747   7.561  1.00  0.00     0.016 A 
ATOM     17  C   UNL     1     -34.734  -2.620   8.373  1.00  0.00     0.047 A 
BRANCH  15  18
ATOM     18  O   UNL     1     -36.193  -1.124   9.606  1.00  0.00    -0.508 OA
ATOM     19  H   UNL     1     -35.414  -0.535   9.876  1.00  0.00     0.293 HD
ENDBRANCH  15  18
ENDBRANCH   1  12
BRANCH   2  20
ATOM     20  O   UNL     1     -36.309  -7.227   7.989  1.00  0.00    -0.502 OA
ATOM     21  H   UNL     1     -37.286  -7.424   8.172  1.00  0.00     0.293 HD
ENDBRANCH   2  20
BRANCH   6  22
ATOM     22  O   UNL     1     -35.341 -10.125   3.626  1.00  0.00    -0.507 OA
ATOM     23  H   UNL     1     -35.791 -10.513   4.443  1.00  0.00     0.293 HD
ENDBRANCH   6  22
BRANCH   8  24
ATOM     24  O   UNL     1     -33.257  -6.834   0.847  1.00  0.00    -0.508 OA
ATOM     25  H   UNL     1     -32.257  -6.937   0.724  1.00  0.00     0.293 HD
ENDBRANCH   8  24
TORSDOF 5
ENDMDL
MODEL 2
REMARK VINA RESULT:    -6.300      2.593      7.532
REMARK INTER + INTRA:          -7.556
REMARK INTER:                  -7.280
REMARK INTRA:                  -0.276
REMARK UNBOUND:                -0.151
REMARK SMILES O=c1c(O)c(-c2ccc(O)cc2)oc2cc(O)cc(O)c12
REMARK SMILES IDX 5 1 3 2 2 3 1 4 21 5 19 6 18 7 16 8 15 9 14 10 13 11 6 12
REMARK SMILES IDX 7 13 8 14 9 15 12 16 11 17 10 18 4 20 20 22 17 24
REMARK H PARENT 10 19 4 21 20 23 17 25
REMARK Flexibility Score: inf
ROOT
ATOM      1  C   UNL     1     -34.673  -8.125   2.845  1.00  0.00     0.180 A 
ATOM      2  C   UNL     1     -34.366  -6.796   3.183  1.00  0.00     0.208 A 
ATOM      3  C   UNL     1     -34.634  -6.345   4.486  1.00  0.00     0.238 A 
ATOM      4  O   UNL     1     -34.307  -5.171   4.798  1.00  0.00    -0.285 OA
ATOM      5  C   UNL     1     -35.220  -7.224   5.429  1.00  0.00     0.111 A 
ATOM      6  C   UNL     1     -35.571  -6.862   6.764  1.00  0.00     0.134 A 
ATOM      7  C   UNL     1     -36.024  -7.847   7.651  1.00  0.00     0.093 A 
ATOM      8  C   UNL     1     -36.201  -9.165   7.232  1.00  0.00     0.123 A 
ATOM      9  C   UNL     1     -35.917  -9.517   5.912  1.00  0.00     0.094 A 
ATOM     10  C   UNL     1     -35.429  -8.564   5.015  1.00  0.00     0.146 A 
ATOM     11  O   UNL     1     -35.161  -8.943   3.770  1.00  0.00    -0.452 OA
ENDROOT
BRANCH   1  12
ATOM     12  C   UNL     1     -34.444  -8.666   1.486  1.00  0.00     0.021 A 
ATOM     13  C   UNL     1     -33.265  -9.363   1.164  1.00  0.00     0.016 A 
ATOM     14  C   UNL     1     -33.061  -9.845  -0.134  1.00  0.00     0.047 A 
ATOM     15  C   UNL     1     -34.021  -9.624  -1.126  1.00  0.00     0.115 A 
ATOM     16  C   UNL     1     -35.394  -8.431   0.479  1.00  0.00     0.016 A 
ATOM     17  C   UNL     1     -35.188  -8.913  -0.817  1.00  0.00     0.047 A 
BRANCH  15  18
ATOM     18  O   UNL     1     -33.804 -10.110  -2.413  1.00  0.00    -0.508 OA
ATOM     19  H   UNL     1     -34.552 -10.531  -2.953  1.00  0.00     0.293 HD
ENDBRANCH  15  18
ENDBRANCH   1  12
BRANCH   2  20
ATOM     20  O   UNL     1     -33.768  -5.952   2.243  1.00  0.00    -0.502 OA
ATOM     21  H   UNL     1     -34.038  -5.948   1.267  1.00  0.00     0.293 HD
ENDBRANCH   2  20
BRANCH   6  22
ATOM     22  O   UNL     1     -35.519  -5.555   7.258  1.00  0.00    -0.507 OA
ATOM     23  H   UNL     1     -35.542  -5.309   8.236  1.00  0.00     0.293 HD
ENDBRANCH   6  22
BRANCH   8  24
ATOM     24  O   UNL     1     -36.669 -10.116   8.136  1.00  0.00    -0.508 OA
ATOM     25  H   UNL     1     -36.707 -11.100   7.898  1.00  0.00     0.293 HD
ENDBRANCH   8  24
TORSDOF 5
ENDMDL
MODEL 3
REMARK VINA RESULT:    -6.001      1.738      6.785
REMARK INTER + INTRA:          -7.204
REMARK INTER:                  -6.935
REMARK INTRA:                  -0.269
REMARK UNBOUND:                -0.151
REMARK SMILES O=c1c(O)c(-c2ccc(O)cc2)oc2cc(O)cc(O)c12
REMARK SMILES IDX 5 1 3 2 2 3 1 4 21 5 19 6 18 7 16 8 15 9 14 10 13 11 6 12
REMARK SMILES IDX 7 13 8 14 9 15 12 16 11 17 10 18 4 20 20 22 17 24
REMARK H PARENT 10 19 4 21 20 23 17 25
REMARK Flexibility Score: inf
ROOT
ATOM      1  C   UNL     1     -34.640  -7.915   3.640  1.00  0.00     0.180 A 
ATOM      2  C   UNL     1     -35.299  -8.780   4.531  1.00  0.00     0.208 A 
ATOM      3  C   UNL     1     -35.801  -8.263   5.736  1.00  0.00     0.238 A 
ATOM      4  O   UNL     1     -36.436  -9.031   6.504  1.00  0.00    -0.285 OA
ATOM      5  C   UNL     1     -35.623  -6.893   6.043  1.00  0.00     0.111 A 
ATOM      6  C   UNL     1     -36.055  -6.270   7.253  1.00  0.00     0.134 A 
ATOM      7  C   UNL     1     -35.943  -4.882   7.394  1.00  0.00     0.093 A 
ATOM      8  C   UNL     1     -35.357  -4.102   6.398  1.00  0.00     0.123 A 
ATOM      9  C   UNL     1     -34.877  -4.708   5.236  1.00  0.00     0.094 A 
ATOM     10  C   UNL     1     -35.008  -6.086   5.051  1.00  0.00     0.146 A 
ATOM     11  O   UNL     1     -34.548  -6.622   3.926  1.00  0.00    -0.452 OA
ENDROOT
BRANCH   1  12
ATOM     12  C   UNL     1     -34.062  -8.391   2.362  1.00  0.00     0.021 A 
ATOM     13  C   UNL     1     -34.768  -8.275   1.150  1.00  0.00     0.016 A 
ATOM     14  C   UNL     1     -34.211  -8.753  -0.041  1.00  0.00     0.047 A 
ATOM     15  C   UNL     1     -32.954  -9.363  -0.034  1.00  0.00     0.115 A 
ATOM     16  C   UNL     1     -32.808  -9.023   2.363  1.00  0.00     0.016 A 
ATOM     17  C   UNL     1     -32.254  -9.500   1.171  1.00  0.00     0.047 A 
BRANCH  15  18
ATOM     18  O   UNL     1     -32.411  -9.833  -1.228  1.00  0.00    -0.508 OA
ATOM     19  H   UNL     1     -31.612 -10.457  -1.237  1.00  0.00     0.293 HD
ENDBRANCH  15  18
ENDBRANCH   1  12
BRANCH   2  20
ATOM     20  O   UNL     1     -35.483 -10.125   4.198  1.00  0.00    -0.502 OA
ATOM     21  H   UNL     1     -35.769 -10.422   3.273  1.00  0.00     0.293 HD
ENDBRANCH   2  20
BRANCH   6  22
ATOM     22  O   UNL     1     -36.570  -6.969   8.348  1.00  0.00    -0.507 OA
ATOM     23  H   UNL     1     -37.453  -6.768   8.794  1.00  0.00     0.293 HD
ENDBRANCH   6  22
BRANCH   8  24
ATOM     24  O   UNL     1     -35.248  -2.725   6.578  1.00  0.00    -0.508 OA
ATOM     25  H   UNL     1     -35.107  -2.320   7.496  1.00  0.00     0.293 HD
ENDBRANCH   8  24
TORSDOF 5
ENDMDL
MODEL 4
REMARK VINA RESULT:    -5.889      3.064      5.590
REMARK INTER + INTRA:          -7.073
REMARK INTER:                  -6.783
REMARK INTRA:                  -0.290
REMARK UNBOUND:                -0.151
REMARK SMILES O=c1c(O)c(-c2ccc(O)cc2)oc2cc(O)cc(O)c12
REMARK SMILES IDX 5 1 3 2 2 3 1 4 21 5 19 6 18 7 16 8 15 9 14 10 13 11 6 12
REMARK SMILES IDX 7 13 8 14 9 15 12 16 11 17 10 18 4 20 20 22 17 24
REMARK H PARENT 10 19 4 21 20 23 17 25
REMARK Flexibility Score: inf
ROOT
ATOM      1  C   UNL     1     -34.471  -8.121   2.042  1.00  0.00     0.180 A 
ATOM      2  C   UNL     1     -33.264  -8.749   1.692  1.00  0.00     0.208 A 
ATOM      3  C   UNL     1     -33.065  -9.149   0.361  1.00  0.00     0.238 A 
ATOM      4  O   UNL     1     -31.961  -9.662   0.043  1.00  0.00    -0.285 OA
ATOM      5  C   UNL     1     -34.082  -8.932  -0.599  1.00  0.00     0.111 A 
ATOM      6  C   UNL     1     -34.004  -9.333  -1.967  1.00  0.00     0.134 A 
ATOM      7  C   UNL     1     -35.015  -8.951  -2.858  1.00  0.00     0.093 A 
ATOM      8  C   UNL     1     -36.130  -8.239  -2.418  1.00  0.00     0.123 A 
ATOM      9  C   UNL     1     -36.245  -7.893  -1.072  1.00  0.00     0.094 A 
ATOM     10  C   UNL     1     -35.235  -8.229  -0.166  1.00  0.00     0.146 A 
ATOM     11  O   UNL     1     -35.378  -7.872   1.105  1.00  0.00    -0.452 OA
ENDROOT
BRANCH   1  12
ATOM     12  C   UNL     1     -34.765  -7.693   3.429  1.00  0.00     0.021 A 
ATOM     13  C   UNL     1     -35.276  -8.594   4.381  1.00  0.00     0.016 A 
ATOM     14  C   UNL     1     -35.567  -8.161   5.679  1.00  0.00     0.047 A 
ATOM     15  C   UNL     1     -35.366  -6.825   6.037  1.00  0.00     0.115 A 
ATOM     16  C   UNL     1     -34.584  -6.348   3.791  1.00  0.00     0.016 A 
ATOM     17  C   UNL     1     -34.876  -5.918   5.089  1.00  0.00     0.047 A 
BRANCH  15  18
ATOM     18  O   UNL     1     -35.659  -6.409   7.333  1.00  0.00    -0.508 OA
ATOM     19  H   UNL     1     -35.330  -5.519   7.691  1.00  0.00     0.293 HD
ENDBRANCH  15  18
ENDBRANCH   1  12
BRANCH   2  20
ATOM     20  O   UNL     1     -32.264  -8.934   2.651  1.00  0.00    -0.502 OA
ATOM     21  H   UNL     1     -32.435  -8.821   3.643  1.00  0.00     0.293 HD
ENDBRANCH   2  20
BRANCH   6  22
ATOM     22  O   UNL     1     -32.978 -10.125  -2.491  1.00  0.00    -0.507 OA
ATOM     23  H   UNL     1     -32.909 -11.126  -2.377  1.00  0.00     0.293 HD
ENDBRANCH   6  22
BRANCH   8  24
ATOM     24  O   UNL     1     -37.124  -7.888  -3.329  1.00  0.00    -0.508 OA
ATOM     25  H   UNL     1     -36.921  -7.320  -4.143  1.00  0.00     0.293 HD
ENDBRANCH   8  24
TORSDOF 5
ENDMDL
MODEL 5
REMARK VINA RESULT:    -4.901      2.085      7.039
REMARK INTER + INTRA:          -5.912
REMARK INTER:                  -5.649
REMARK INTRA:                  -0.263
REMARK UNBOUND:                -0.151
REMARK SMILES O=c1c(O)c(-c2ccc(O)cc2)oc2cc(O)cc(O)c12
REMARK SMILES IDX 5 1 3 2 2 3 1 4 21 5 19 6 18 7 16 8 15 9 14 10 13 11 6 12
REMARK SMILES IDX 7 13 8 14 9 15 12 16 11 17 10 18 4 20 20 22 17 24
REMARK H PARENT 10 19 4 21 20 23 17 25
REMARK Flexibility Score: inf
ROOT
ATOM      1  C   UNL     1     -34.934  -7.930   2.639  1.00  0.00     0.180 A 
ATOM      2  C   UNL     1     -35.457  -8.828   3.585  1.00  0.00     0.208 A 
ATOM      3  C   UNL     1     -35.653  -8.390   4.905  1.00  0.00     0.238 A 
ATOM      4  O   UNL     1     -36.171  -9.182   5.734  1.00  0.00    -0.285 OA
ATOM      5  C   UNL     1     -35.307  -7.065   5.266  1.00  0.00     0.111 A 
ATOM      6  C   UNL     1     -35.426  -6.527   6.582  1.00  0.00     0.134 A 
ATOM      7  C   UNL     1     -35.178  -5.165   6.797  1.00  0.00     0.093 A 
ATOM      8  C   UNL     1     -34.755  -4.338   5.758  1.00  0.00     0.123 A 
ATOM      9  C   UNL     1     -34.579  -4.867   4.479  1.00  0.00     0.094 A 
ATOM     10  C   UNL     1     -34.853  -6.214   4.226  1.00  0.00     0.146 A 
ATOM     11  O   UNL     1     -34.682  -6.675   2.993  1.00  0.00    -0.452 OA
ENDROOT
BRANCH   1  12
ATOM     12  C   UNL     1     -34.676  -8.325   1.235  1.00  0.00     0.021 A 
ATOM     13  C   UNL     1     -35.598  -8.038   0.212  1.00  0.00     0.016 A 
ATOM     14  C   UNL     1     -35.343  -8.442  -1.103  1.00  0.00     0.047 A 
ATOM     15  C   UNL     1     -34.176  -9.149  -1.408  1.00  0.00     0.115 A 
ATOM     16  C   UNL     1     -33.516  -9.053   0.924  1.00  0.00     0.016 A 
ATOM     17  C   UNL     1     -33.263  -9.456  -0.391  1.00  0.00     0.047 A 
BRANCH  15  18
ATOM     18  O   UNL     1     -33.935  -9.544  -2.722  1.00  0.00    -0.508 OA
ATOM     19  H   UNL     1     -32.992  -9.654  -3.077  1.00  0.00     0.293 HD
ENDBRANCH  15  18
ENDBRANCH   1  12
BRANCH   2  20
ATOM     20  O   UNL     1     -35.811 -10.125   3.203  1.00  0.00    -0.502 OA
ATOM     21  H   UNL     1     -36.617 -10.318   2.620  1.00  0.00     0.293 HD
ENDBRANCH   2  20
BRANCH   6  22
ATOM     22  O   UNL     1     -35.753  -7.287   7.709  1.00  0.00    -0.507 OA
ATOM     23  H   UNL     1     -36.656  -7.704   7.879  1.00  0.00     0.293 HD
ENDBRANCH   6  22
BRANCH   8  24
ATOM     24  O   UNL     1     -34.503  -2.992   6.010  1.00  0.00    -0.508 OA
ATOM     25  H   UNL     1     -35.180  -2.274   5.781  1.00  0.00     0.293 HD
ENDBRANCH   8  24
TORSDOF 5
ENDMDL
MODEL 6
REMARK VINA RESULT:    -3.670      3.608      8.162
REMARK INTER + INTRA:          -4.465
REMARK INTER:                  -4.185
REMARK INTRA:                  -0.280
REMARK UNBOUND:                -0.151
REMARK SMILES O=c1c(O)c(-c2ccc(O)cc2)oc2cc(O)cc(O)c12
REMARK SMILES IDX 5 1 3 2 2 3 1 4 21 5 19 6 18 7 16 8 15 9 14 10 13 11 6 12
REMARK SMILES IDX 7 13 8 14 9 15 12 16 11 17 10 18 4 20 20 22 17 24
REMARK H PARENT 10 19 4 21 20 23 17 25
REMARK Flexibility Score: inf
ROOT
ATOM      1  C   UNL     1     -35.301  -8.544   1.100  1.00  0.00     0.180 A 
ATOM      2  C   UNL     1     -34.246  -7.674   1.424  1.00  0.00     0.208 A 
ATOM      3  C   UNL     1     -33.975  -7.405   2.775  1.00  0.00     0.238 A 
ATOM      4  O   UNL     1     -32.995  -6.668   3.059  1.00  0.00    -0.285 OA
ATOM      5  C   UNL     1     -34.772  -7.996   3.784  1.00  0.00     0.111 A 
ATOM      6  C   UNL     1     -34.612  -7.762   5.183  1.00  0.00     0.134 A 
ATOM      7  C   UNL     1     -35.373  -8.501   6.099  1.00  0.00     0.093 A 
ATOM      8  C   UNL     1     -36.331  -9.416   5.665  1.00  0.00     0.123 A 
ATOM      9  C   UNL     1     -36.536  -9.609   4.299  1.00  0.00     0.094 A 
ATOM     10  C   UNL     1     -35.768  -8.913   3.362  1.00  0.00     0.146 A 
ATOM     11  O   UNL     1     -35.988  -9.134   2.071  1.00  0.00    -0.452 OA
ENDROOT
BRANCH   1  12
ATOM     12  C   UNL     1     -35.664  -8.856  -0.301  1.00  0.00     0.021 A 
ATOM     13  C   UNL     1     -34.999  -9.864  -1.024  1.00  0.00     0.016 A 
ATOM     14  C   UNL     1     -35.344 -10.125  -2.354  1.00  0.00     0.047 A 
ATOM     15  C   UNL     1     -36.343  -9.376  -2.982  1.00  0.00     0.115 A 
ATOM     16  C   UNL     1     -36.653  -8.095  -0.946  1.00  0.00     0.016 A 
ATOM     17  C   UNL     1     -36.996  -8.358  -2.276  1.00  0.00     0.047 A 
BRANCH  15  18
ATOM     18  O   UNL     1     -36.677  -9.648  -4.307  1.00  0.00    -0.508 OA
ATOM     19  H   UNL     1     -36.949  -8.910  -4.946  1.00  0.00     0.293 HD
ENDBRANCH  15  18
ENDBRANCH   1  12
BRANCH   2  20
ATOM     20  O   UNL     1     -33.458  -7.119   0.412  1.00  0.00    -0.502 OA
ATOM     21  H   UNL     1     -32.602  -7.554   0.089  1.00  0.00     0.293 HD
ENDBRANCH   2  20
BRANCH   6  22
ATOM     22  O   UNL     1     -33.748  -6.804   5.721  1.00  0.00    -0.507 OA
ATOM     23  H   UNL     1     -33.302  -6.873   6.624  1.00  0.00     0.293 HD
ENDBRANCH   6  22
BRANCH   8  24
ATOM     24  O   UNL     1     -37.080 -10.123   6.603  1.00  0.00    -0.508 OA
ATOM     25  H   UNL     1     -37.988  -9.795   6.912  1.00  0.00     0.293 HD
ENDBRANCH   8  24
TORSDOF 5
ENDMDL
