MODEL 1
REMARK VINA RESULT:    -4.443      0.000      0.000
REMARK INTER + INTRA:          -4.702
REMARK INTER:                  -4.702
REMARK INTRA:                   0.000
REMARK UNBOUND:                 0.000
REMARK SMILES O=c1ccc2cc(O)c(O)cc2o1
REMARK SMILES IDX 4 1 3 2 2 3 1 4 13 5 12 6 11 7 9 8 7 9 6 10 5 11 8 12 10 14
REMARK H PARENT 8 13 10 15
REMARK Flexibility Score: inf
ROOT
ATOM      1  C   UNL     1      -3.645  -2.835  -3.869  1.00  0.00     0.019 A 
ATOM      2  C   UNL     1      -4.132  -3.902  -3.114  1.00  0.00     0.094 A 
ATOM      3  C   UNL     1      -5.285  -4.568  -3.546  1.00  0.00     0.336 A 
ATOM      4  O   UNL     1      -5.739  -5.534  -2.877  1.00  0.00    -0.246 OA
ATOM      5  O   UNL     1      -5.905  -4.187  -4.659  1.00  0.00    -0.423 OA
ATOM      6  C   UNL     1      -5.475  -3.175  -5.408  1.00  0.00     0.142 A 
ATOM      7  C   UNL     1      -6.169  -2.819  -6.568  1.00  0.00     0.098 A 
ATOM      8  C   UNL     1      -5.721  -1.753  -7.362  1.00  0.00     0.161 A 
ATOM      9  C   UNL     1      -4.568  -1.037  -6.990  1.00  0.00     0.158 A 
ATOM     10  C   UNL     1      -3.871  -1.392  -5.828  1.00  0.00     0.062 A 
ATOM     11  C   UNL     1      -4.318  -2.456  -5.035  1.00  0.00     0.022 A 
ENDROOT
BRANCH   9  12
ATOM     12  O   UNL     1      -4.100   0.026  -7.761  1.00  0.00    -0.504 OA
ATOM     13  H   UNL     1      -4.726   0.637  -8.271  1.00  0.00     0.293 HD
ENDBRANCH   9  12
BRANCH   8  14
ATOM     14  O   UNL     1      -6.415  -1.402  -8.518  1.00  0.00    -0.504 OA
ATOM     15  H   UNL     1      -6.690  -2.095  -9.204  1.00  0.00     0.293 HD
ENDBRANCH   8  14
TORSDOF 2
ENDMDL
MODEL 2
REMARK VINA RESULT:    -4.094     14.572     16.344
REMARK INTER + INTRA:          -4.333
REMARK INTER:                  -4.333
REMARK INTRA:                   0.000
REMARK UNBOUND:                 0.000
REMARK SMILES O=c1ccc2cc(O)c(O)cc2o1
REMARK SMILES IDX 4 1 3 2 2 3 1 4 13 5 12 6 11 7 9 8 7 9 6 10 5 11 8 12 10 14
REMARK H PARENT 8 13 10 15
REMARK Flexibility Score: inf
ROOT
ATOM      1  C   UNL     1      -5.043 -19.658 -10.042  1.00  0.00     0.019 A 
ATOM      2  C   UNL     1      -6.062 -19.653 -10.994  1.00  0.00     0.094 A 
ATOM      3  C   UNL     1      -7.152 -18.794 -10.816  1.00  0.00     0.336 A 
ATOM      4  O   UNL     1      -8.081 -18.775 -11.666  1.00  0.00    -0.246 OA
ATOM      5  O   UNL     1      -7.213 -17.995  -9.754  1.00  0.00    -0.423 OA
ATOM      6  C   UNL     1      -6.264 -17.968  -8.823  1.00  0.00     0.142 A 
ATOM      7  C   UNL     1      -6.382 -17.107  -7.728  1.00  0.00     0.098 A 
ATOM      8  C   UNL     1      -5.385 -17.074  -6.742  1.00  0.00     0.161 A 
ATOM      9  C   UNL     1      -4.259 -17.911  -6.855  1.00  0.00     0.158 A 
ATOM     10  C   UNL     1      -4.137 -18.774  -7.951  1.00  0.00     0.062 A 
ATOM     11  C   UNL     1      -5.134 -18.807  -8.935  1.00  0.00     0.022 A 
ENDROOT
BRANCH   9  12
ATOM     12  O   UNL     1      -3.252 -17.898  -5.890  1.00  0.00    -0.504 OA
ATOM     13  H   UNL     1      -2.694 -17.074  -5.706  1.00  0.00     0.293 HD
ENDBRANCH   9  12
BRANCH   8  14
ATOM     14  O   UNL     1      -5.507 -16.214  -5.652  1.00  0.00    -0.504 OA
ATOM     15  H   UNL     1      -4.838 -16.222  -4.892  1.00  0.00     0.293 HD
ENDBRANCH   8  14
TORSDOF 2
ENDMDL
MODEL 3
REMARK VINA RESULT:    -4.009     14.617     16.101
REMARK INTER + INTRA:          -4.243
REMARK INTER:                  -4.243
REMARK INTRA:                   0.000
REMARK UNBOUND:                 0.000
REMARK SMILES O=c1ccc2cc(O)c(O)cc2o1
REMARK SMILES IDX 4 1 3 2 2 3 1 4 13 5 12 6 11 7 9 8 7 9 6 10 5 11 8 12 10 14
REMARK H PARENT 8 13 10 15
REMARK Flexibility Score: inf
ROOT
ATOM      1  C   UNL     1      -4.148 -18.097  -8.097  1.00  0.00     0.019 A 
ATOM      2  C   UNL     1      -4.227 -17.322  -6.941  1.00  0.00     0.094 A 
ATOM      3  C   UNL     1      -5.470 -16.812  -6.549  1.00  0.00     0.336 A 
ATOM      4  O   UNL     1      -5.560 -16.110  -5.508  1.00  0.00    -0.246 OA
ATOM      5  O   UNL     1      -6.559 -17.066  -7.270  1.00  0.00    -0.423 OA
ATOM      6  C   UNL     1      -6.529 -17.801  -8.379  1.00  0.00     0.142 A 
ATOM      7  C   UNL     1      -7.705 -18.033  -9.096  1.00  0.00     0.098 A 
ATOM      8  C   UNL     1      -7.680 -18.807 -10.266  1.00  0.00     0.161 A 
ATOM      9  C   UNL     1      -6.465 -19.352 -10.721  1.00  0.00     0.158 A 
ATOM     10  C   UNL     1      -5.284 -19.121 -10.004  1.00  0.00     0.062 A 
ATOM     11  C   UNL     1      -5.310 -18.348  -8.836  1.00  0.00     0.022 A 
ENDROOT
BRANCH   9  12
ATOM     12  O   UNL     1      -6.411 -20.125 -11.880  1.00  0.00    -0.504 OA
ATOM     13  H   UNL     1      -5.547 -20.283 -12.382  1.00  0.00     0.293 HD
ENDBRANCH   9  12
BRANCH   8  14
ATOM     14  O   UNL     1      -8.856 -19.037 -10.978  1.00  0.00    -0.504 OA
ATOM     15  H   UNL     1      -9.715 -19.305 -10.512  1.00  0.00     0.293 HD
ENDBRANCH   8  14
TORSDOF 2
ENDMDL
MODEL 4
REMARK VINA RESULT:    -3.994     12.606     14.063
REMARK INTER + INTRA:          -4.228
REMARK INTER:                  -4.228
REMARK INTRA:                   0.000
REMARK UNBOUND:                 0.000
REMARK SMILES O=c1ccc2cc(O)c(O)cc2o1
REMARK SMILES IDX 4 1 3 2 2 3 1 4 13 5 12 6 11 7 9 8 7 9 6 10 5 11 8 12 10 14
REMARK H PARENT 8 13 10 15
REMARK Flexibility Score: inf
ROOT
ATOM      1  C   UNL     1      -4.081 -17.117  -7.176  1.00  0.00     0.019 A 
ATOM      2  C   UNL     1      -4.914 -17.726  -8.114  1.00  0.00     0.094 A 
ATOM      3  C   UNL     1      -6.301 -17.639  -7.947  1.00  0.00     0.336 A 
ATOM      4  O   UNL     1      -7.069 -18.183  -8.784  1.00  0.00    -0.246 OA
ATOM      5  O   UNL     1      -6.814 -16.986  -6.908  1.00  0.00    -0.423 OA
ATOM      6  C   UNL     1      -6.056 -16.391  -5.990  1.00  0.00     0.142 A 
ATOM      7  C   UNL     1      -6.652 -15.720  -4.919  1.00  0.00     0.098 A 
ATOM      8  C   UNL     1      -5.858 -15.091  -3.949  1.00  0.00     0.161 A 
ATOM      9  C   UNL     1      -4.455 -15.137  -4.052  1.00  0.00     0.158 A 
ATOM     10  C   UNL     1      -3.856 -15.808  -5.124  1.00  0.00     0.062 A 
ATOM     11  C   UNL     1      -4.649 -16.437  -6.094  1.00  0.00     0.022 A 
ENDROOT
BRANCH   9  12
ATOM     12  O   UNL     1      -3.643 -14.520  -3.102  1.00  0.00    -0.504 OA
ATOM     13  H   UNL     1      -2.640 -14.444  -3.219  1.00  0.00     0.293 HD
ENDBRANCH   9  12
BRANCH   8  14
ATOM     14  O   UNL     1      -6.456 -14.422  -2.882  1.00  0.00    -0.504 OA
ATOM     15  H   UNL     1      -7.355 -14.708  -2.513  1.00  0.00     0.293 HD
ENDBRANCH   8  14
TORSDOF 2
ENDMDL
MODEL 5
REMARK VINA RESULT:    -3.928     14.587     16.435
REMARK INTER + INTRA:          -4.158
REMARK INTER:                  -4.158
REMARK INTRA:                   0.000
REMARK UNBOUND:                 0.000
REMARK SMILES O=c1ccc2cc(O)c(O)cc2o1
REMARK SMILES IDX 4 1 3 2 2 3 1 4 13 5 12 6 11 7 9 8 7 9 6 10 5 11 8 12 10 14
REMARK H PARENT 8 13 10 15
REMARK Flexibility Score: inf
ROOT
ATOM      1  C   UNL     1      -7.644 -17.992  -9.356  1.00  0.00     0.019 A 
ATOM      2  C   UNL     1      -7.573 -18.742 -10.529  1.00  0.00     0.094 A 
ATOM      3  C   UNL     1      -6.393 -19.438 -10.817  1.00  0.00     0.336 A 
ATOM      4  O   UNL     1      -6.310 -20.122 -11.872  1.00  0.00    -0.246 OA
ATOM      5  O   UNL     1      -5.358 -19.383  -9.985  1.00  0.00    -0.423 OA
ATOM      6  C   UNL     1      -5.384 -18.679  -8.855  1.00  0.00     0.142 A 
ATOM      7  C   UNL     1      -4.264 -18.658  -8.019  1.00  0.00     0.098 A 
ATOM      8  C   UNL     1      -4.286 -17.918  -6.827  1.00  0.00     0.161 A 
ATOM      9  C   UNL     1      -5.438 -17.193  -6.472  1.00  0.00     0.158 A 
ATOM     10  C   UNL     1      -6.561 -17.212  -7.308  1.00  0.00     0.062 A 
ATOM     11  C   UNL     1      -6.540 -17.952  -8.498  1.00  0.00     0.022 A 
ENDROOT
BRANCH   9  12
ATOM     12  O   UNL     1      -5.486 -16.449  -5.293  1.00  0.00    -0.504 OA
ATOM     13  H   UNL     1      -4.656 -16.043  -4.880  1.00  0.00     0.293 HD
ENDBRANCH   9  12
BRANCH   8  14
ATOM     14  O   UNL     1      -3.167 -17.900  -5.996  1.00  0.00    -0.504 OA
ATOM     15  H   UNL     1      -2.742 -17.031  -5.695  1.00  0.00     0.293 HD
ENDBRANCH   8  14
TORSDOF 2
ENDMDL
MODEL 6
REMARK VINA RESULT:    -3.886     14.842     16.345
REMARK INTER + INTRA:          -4.114
REMARK INTER:                  -4.114
REMARK INTRA:                   0.000
REMARK UNBOUND:                 0.000
REMARK SMILES O=c1ccc2cc(O)c(O)cc2o1
REMARK SMILES IDX 4 1 3 2 2 3 1 4 13 5 12 6 11 7 9 8 7 9 6 10 5 11 8 12 10 14
REMARK H PARENT 8 13 10 15
REMARK Flexibility Score: inf
ROOT
ATOM      1  C   UNL     1      -6.815 -17.219  -7.129  1.00  0.00     0.019 A 
ATOM      2  C   UNL     1      -5.717 -17.091  -6.279  1.00  0.00     0.094 A 
ATOM      3  C   UNL     1      -4.505 -17.689  -6.643  1.00  0.00     0.336 A 
ATOM      4  O   UNL     1      -3.502 -17.584  -5.889  1.00  0.00    -0.246 OA
ATOM      5  O   UNL     1      -4.405 -18.369  -7.782  1.00  0.00    -0.423 OA
ATOM      6  C   UNL     1      -5.428 -18.516  -8.621  1.00  0.00     0.142 A 
ATOM      7  C   UNL     1      -5.264 -19.242  -9.804  1.00  0.00     0.098 A 
ATOM      8  C   UNL     1      -6.338 -19.400 -10.692  1.00  0.00     0.161 A 
ATOM      9  C   UNL     1      -7.587 -18.826 -10.392  1.00  0.00     0.158 A 
ATOM     10  C   UNL     1      -7.754 -18.097  -9.208  1.00  0.00     0.062 A 
ATOM     11  C   UNL     1      -6.681 -17.940  -8.320  1.00  0.00     0.022 A 
ENDROOT
BRANCH   9  12
ATOM     12  O   UNL     1      -8.671 -18.967 -11.257  1.00  0.00    -0.504 OA
ATOM     13  H   UNL     1      -9.233 -19.808 -11.283  1.00  0.00     0.293 HD
ENDBRANCH   9  12
BRANCH   8  14
ATOM     14  O   UNL     1      -6.169 -20.125 -11.870  1.00  0.00    -0.504 OA
ATOM     15  H   UNL     1      -6.532 -21.065 -11.972  1.00  0.00     0.293 HD
ENDBRANCH   8  14
TORSDOF 2
ENDMDL
MODEL 7
REMARK VINA RESULT:    -3.867     12.662     14.329
REMARK INTER + INTRA:          -4.093
REMARK INTER:                  -4.093
REMARK INTRA:                   0.000
REMARK UNBOUND:                 0.000
REMARK SMILES O=c1ccc2cc(O)c(O)cc2o1
REMARK SMILES IDX 4 1 3 2 2 3 1 4 13 5 12 6 11 7 9 8 7 9 6 10 5 11 8 12 10 14
REMARK H PARENT 8 13 10 15
REMARK Flexibility Score: inf
ROOT
ATOM      1  C   UNL     1      -6.599 -17.210  -7.057  1.00  0.00     0.019 A 
ATOM      2  C   UNL     1      -5.873 -17.913  -8.018  1.00  0.00     0.094 A 
ATOM      3  C   UNL     1      -4.476 -17.930  -7.935  1.00  0.00     0.336 A 
ATOM      4  O   UNL     1      -3.804 -18.560  -8.793  1.00  0.00    -0.246 OA
ATOM      5  O   UNL     1      -3.853 -17.284  -6.953  1.00  0.00    -0.423 OA
ATOM      6  C   UNL     1      -4.506 -16.602  -6.016  1.00  0.00     0.142 A 
ATOM      7  C   UNL     1      -3.797 -15.942  -5.008  1.00  0.00     0.098 A 
ATOM      8  C   UNL     1      -4.481 -15.221  -4.018  1.00  0.00     0.161 A 
ATOM      9  C   UNL     1      -5.886 -15.160  -4.039  1.00  0.00     0.158 A 
ATOM     10  C   UNL     1      -6.599 -15.820  -5.047  1.00  0.00     0.062 A 
ATOM     11  C   UNL     1      -5.917 -16.540  -6.036  1.00  0.00     0.022 A 
ENDROOT
BRANCH   9  12
ATOM     12  O   UNL     1      -6.590 -14.450  -3.067  1.00  0.00    -0.504 OA
ATOM     13  H   UNL     1      -7.510 -14.066  -3.242  1.00  0.00     0.293 HD
ENDBRANCH   9  12
BRANCH   8  14
ATOM     14  O   UNL     1      -3.769 -14.565  -3.015  1.00  0.00    -0.504 OA
ATOM     15  H   UNL     1      -3.049 -13.887  -3.231  1.00  0.00     0.293 HD
ENDBRANCH   8  14
TORSDOF 2
ENDMDL
MODEL 8
REMARK VINA RESULT:    -3.810      1.474      4.400
REMARK INTER + INTRA:          -4.033
REMARK INTER:                  -4.033
REMARK INTRA:                   0.000
REMARK UNBOUND:                 0.000
REMARK SMILES O=c1ccc2cc(O)c(O)cc2o1
REMARK SMILES IDX 4 1 3 2 2 3 1 4 13 5 12 6 11 7 9 8 7 9 6 10 5 11 8 12 10 14
REMARK H PARENT 8 13 10 15
REMARK Flexibility Score: inf
ROOT
ATOM      1  C   UNL     1      -4.511  -0.972  -6.485  1.00  0.00     0.019 A 
ATOM      2  C   UNL     1      -5.559  -0.783  -7.385  1.00  0.00     0.094 A 
ATOM      3  C   UNL     1      -6.637  -1.675  -7.367  1.00  0.00     0.336 A 
ATOM      4  O   UNL     1      -7.594  -1.520  -8.172  1.00  0.00    -0.246 OA
ATOM      5  O   UNL     1      -6.659  -2.688  -6.505  1.00  0.00    -0.423 OA
ATOM      6  C   UNL     1      -5.680  -2.905  -5.630  1.00  0.00     0.142 A 
ATOM      7  C   UNL     1      -5.757  -3.986  -4.748  1.00  0.00     0.098 A 
ATOM      8  C   UNL     1      -4.728  -4.220  -3.824  1.00  0.00     0.161 A 
ATOM      9  C   UNL     1      -3.612  -3.363  -3.784  1.00  0.00     0.158 A 
ATOM     10  C   UNL     1      -3.532  -2.279  -4.666  1.00  0.00     0.062 A 
ATOM     11  C   UNL     1      -4.560  -2.045  -5.590  1.00  0.00     0.022 A 
ENDROOT
BRANCH   9  12
ATOM     12  O   UNL     1      -2.576  -3.573  -2.875  1.00  0.00    -0.504 OA
ATOM     13  H   UNL     1      -2.519  -4.409  -2.307  1.00  0.00     0.293 HD
ENDBRANCH   9  12
BRANCH   8  14
ATOM     14  O   UNL     1      -4.810  -5.299  -2.945  1.00  0.00    -0.504 OA
ATOM     15  H   UNL     1      -4.916  -6.249  -3.280  1.00  0.00     0.293 HD
ENDBRANCH   8  14
TORSDOF 2
ENDMDL
MODEL 9
REMARK VINA RESULT:    -3.784     12.818     14.404
REMARK INTER + INTRA:          -4.006
REMARK INTER:                  -4.006
REMARK INTRA:                   0.000
REMARK UNBOUND:                 0.000
REMARK SMILES O=c1ccc2cc(O)c(O)cc2o1
REMARK SMILES IDX 4 1 3 2 2 3 1 4 13 5 12 6 11 7 9 8 7 9 6 10 5 11 8 12 10 14
REMARK H PARENT 8 13 10 15
REMARK Flexibility Score: inf
ROOT
ATOM      1  C   UNL     1      -4.251 -15.897  -4.919  1.00  0.00     0.019 A 
ATOM      2  C   UNL     1      -5.179 -15.267  -4.091  1.00  0.00     0.094 A 
ATOM      3  C   UNL     1      -6.539 -15.350  -4.411  1.00  0.00     0.336 A 
ATOM      4  O   UNL     1      -7.392 -14.788  -3.674  1.00  0.00    -0.246 OA
ATOM      5  O   UNL     1      -6.938 -16.021  -5.488  1.00  0.00    -0.423 OA
ATOM      6  C   UNL     1      -6.086 -16.636  -6.304  1.00  0.00     0.142 A 
ATOM      7  C   UNL     1      -6.563 -17.326  -7.423  1.00  0.00     0.098 A 
ATOM      8  C   UNL     1      -5.670 -17.977  -8.287  1.00  0.00     0.161 A 
ATOM      9  C   UNL     1      -4.288 -17.935  -8.028  1.00  0.00     0.158 A 
ATOM     10  C   UNL     1      -3.807 -17.246  -6.909  1.00  0.00     0.062 A 
ATOM     11  C   UNL     1      -4.699 -16.595  -6.045  1.00  0.00     0.022 A 
ENDROOT
BRANCH   9  12
ATOM     12  O   UNL     1      -3.378 -18.574  -8.871  1.00  0.00    -0.504 OA
ATOM     13  H   UNL     1      -3.139 -18.205  -9.783  1.00  0.00     0.293 HD
ENDBRANCH   9  12
BRANCH   8  14
ATOM     14  O   UNL     1      -6.151 -18.663  -9.400  1.00  0.00    -0.504 OA
ATOM     15  H   UNL     1      -7.069 -18.475  -9.785  1.00  0.00     0.293 HD
ENDBRANCH   8  14
TORSDOF 2
ENDMDL
