MODEL 1
REMARK VINA RESULT:    -3.922      0.000      0.000
REMARK INTER + INTRA:         -14.682
REMARK INTER:                  -9.884
REMARK INTRA:                  -4.798
REMARK UNBOUND:                -4.798
REMARK SMILES CCCCCCCCCCCCCCCCCCCCCCCCCCCC(=O)[O-]
REMARK SMILES IDX 15 1 16 2 17 3 18 4 19 5 20 6 21 7 22 8 23 9 24 10 25 11
REMARK SMILES IDX 26 12 27 13 28 14 29 15 30 16 14 17 13 18 12 19 11 20 10 21
REMARK SMILES IDX 9 22 8 23 7 24 6 25 5 26 4 27 3 28 2 29 1 30
REMARK H PARENT
REMARK Flexibility Score: inf
ROOT
ATOM      1  C   UNL     1      27.992  -1.606 -14.158  1.00  0.00     0.000 C 
ENDROOT
BRANCH   1   2
ATOM      2  C   UNL     1      26.718  -1.956 -14.945  1.00  0.00     0.000 C 
BRANCH   2   3
ATOM      3  C   UNL     1      26.336  -0.920 -16.022  1.00  0.00     0.000 C 
BRANCH   3   4
ATOM      4  C   UNL     1      25.137  -0.048 -15.608  1.00  0.00     0.000 C 
BRANCH   4   5
ATOM      5  C   UNL     1      25.549   1.142 -14.723  1.00  0.00     0.000 C 
BRANCH   5   6
ATOM      6  C   UNL     1      25.206   0.989 -13.226  1.00  0.00     0.000 C 
BRANCH   6   7
ATOM      7  C   UNL     1      24.065  -0.014 -12.952  1.00  0.00     0.000 C 
BRANCH   7   8
ATOM      8  C   UNL     1      24.407  -0.995 -11.813  1.00  0.00     0.000 C 
BRANCH   8   9
ATOM      9  C   UNL     1      25.656  -0.573 -11.024  1.00  0.00     0.000 C 
BRANCH   9  10
ATOM     10  C   UNL     1      25.356  -0.315  -9.538  1.00  0.00     0.000 C 
BRANCH  10  11
ATOM     11  C   UNL     1      25.229  -1.613  -8.723  1.00  0.00     0.000 C 
BRANCH  11  12
ATOM     12  C   UNL     1      26.471  -1.907  -7.864  1.00  0.00     0.006 C 
BRANCH  12  13
ATOM     13  C   UNL     1      27.434  -0.712  -7.817  1.00  0.00     0.053 C 
BRANCH  13  14
ATOM     14  C   UNL     1      28.672  -1.023  -7.033  1.00  0.00     0.041 C 
ATOM     15  O   UNL     1      29.807  -0.765  -7.513  1.00  0.00    -0.550 OA
ATOM     16  O   UNL     1      28.573  -1.576  -5.761  1.00  0.00    -0.550 OA
ENDBRANCH  13  14
ENDBRANCH  12  13
ENDBRANCH  11  12
ENDBRANCH  10  11
ENDBRANCH   9  10
ENDBRANCH   8   9
ENDBRANCH   7   8
ENDBRANCH   6   7
ENDBRANCH   5   6
ENDBRANCH   4   5
ENDBRANCH   3   4
ENDBRANCH   2   3
ENDBRANCH   1   2
BRANCH   1  17
ATOM     17  C   UNL     1      28.201  -2.489 -12.918  1.00  0.00     0.000 C 
BRANCH  17  18
ATOM     18  C   UNL     1      27.093  -3.541 -12.733  1.00  0.00     0.000 C 
BRANCH  18  19
ATOM     19  C   UNL     1      26.828  -3.923 -11.262  1.00  0.00     0.000 C 
BRANCH  19  20
ATOM     20  C   UNL     1      28.102  -3.869 -10.401  1.00  0.00     0.000 C 
BRANCH  20  21
ATOM     21  C   UNL     1      28.825  -5.226 -10.322  1.00  0.00     0.000 C 
BRANCH  21  22
ATOM     22  C   UNL     1      29.182  -5.692  -8.894  1.00  0.00    -0.000 C 
BRANCH  22  23
ATOM     23  C   UNL     1      28.594  -4.831  -7.758  1.00  0.00    -0.000 C 
BRANCH  23  24
ATOM     24  C   UNL     1      27.365  -5.438  -7.053  1.00  0.00    -0.000 C 
BRANCH  24  25
ATOM     25  C   UNL     1      26.857  -6.765  -7.653  1.00  0.00    -0.000 C 
BRANCH  25  26
ATOM     26  C   UNL     1      25.491  -6.675  -8.360  1.00  0.00    -0.000 C 
BRANCH  26  27
ATOM     27  C   UNL     1      24.954  -5.238  -8.435  1.00  0.00    -0.000 C 
BRANCH  27  28
ATOM     28  C   UNL     1      23.664  -5.179  -9.268  1.00  0.00    -0.000 C 
BRANCH  28  29
ATOM     29  C   UNL     1      23.263  -6.552  -9.829  1.00  0.00    -0.003 C 
ATOM     30  C   UNL     1      21.749  -6.745  -9.893  1.00  0.00     0.004 C 
ENDBRANCH  28  29
ENDBRANCH  27  28
ENDBRANCH  26  27
ENDBRANCH  25  26
ENDBRANCH  24  25
ENDBRANCH  23  24
ENDBRANCH  22  23
ENDBRANCH  21  22
ENDBRANCH  20  21
ENDBRANCH  19  20
ENDBRANCH  18  19
ENDBRANCH  17  18
ENDBRANCH   1  17
TORSDOF 26
ENDMDL
MODEL 2
REMARK VINA RESULT:    -3.877      1.115      6.809
REMARK INTER + INTRA:         -14.569
REMARK INTER:                  -9.281
REMARK INTRA:                  -5.288
REMARK UNBOUND:                -4.798
REMARK SMILES CCCCCCCCCCCCCCCCCCCCCCCCCCCC(=O)[O-]
REMARK SMILES IDX 15 1 16 2 17 3 18 4 19 5 20 6 21 7 22 8 23 9 24 10 25 11
REMARK SMILES IDX 26 12 27 13 28 14 29 15 30 16 14 17 13 18 12 19 11 20 10 21
REMARK SMILES IDX 9 22 8 23 7 24 6 25 5 26 4 27 3 28 2 29 1 30
REMARK H PARENT
REMARK Flexibility Score: inf
ROOT
ATOM      1  C   UNL     1      25.628  -2.202  -9.293  1.00  0.00     0.000 C 
ENDROOT
BRANCH   1   2
ATOM      2  C   UNL     1      25.133  -2.653  -7.908  1.00  0.00     0.000 C 
BRANCH   2   3
ATOM      3  C   UNL     1      24.307  -3.956  -7.926  1.00  0.00     0.000 C 
BRANCH   3   4
ATOM      4  C   UNL     1      23.808  -4.323  -9.335  1.00  0.00     0.000 C 
BRANCH   4   5
ATOM      5  C   UNL     1      23.235  -5.750  -9.405  1.00  0.00     0.000 C 
BRANCH   5   6
ATOM      6  C   UNL     1      24.167  -6.795 -10.054  1.00  0.00     0.000 C 
BRANCH   6   7
ATOM      7  C   UNL     1      25.008  -7.592  -9.034  1.00  0.00     0.000 C 
BRANCH   7   8
ATOM      8  C   UNL     1      26.403  -6.973  -8.811  1.00  0.00     0.000 C 
BRANCH   8   9
ATOM      9  C   UNL     1      26.700  -6.706  -7.328  1.00  0.00     0.000 C 
BRANCH   9  10
ATOM     10  C   UNL     1      27.521  -5.423  -7.111  1.00  0.00     0.000 C 
BRANCH  10  11
ATOM     11  C   UNL     1      28.078  -4.846  -8.423  1.00  0.00     0.000 C 
BRANCH  11  12
ATOM     12  C   UNL     1      29.374  -4.041  -8.223  1.00  0.00     0.006 C 
BRANCH  12  13
ATOM     13  C   UNL     1      29.169  -2.544  -8.490  1.00  0.00     0.053 C 
BRANCH  13  14
ATOM     14  C   UNL     1      29.160  -1.746  -7.222  1.00  0.00     0.041 C 
ATOM     15  O   UNL     1      30.124  -1.827  -6.417  1.00  0.00    -0.550 OA
ATOM     16  O   UNL     1      28.098  -0.895  -6.940  1.00  0.00    -0.550 OA
ENDBRANCH  13  14
ENDBRANCH  12  13
ENDBRANCH  11  12
ENDBRANCH  10  11
ENDBRANCH   9  10
ENDBRANCH   8   9
ENDBRANCH   7   8
ENDBRANCH   6   7
ENDBRANCH   5   6
ENDBRANCH   4   5
ENDBRANCH   3   4
ENDBRANCH   2   3
ENDBRANCH   1   2
BRANCH   1  17
ATOM     17  C   UNL     1      25.650  -0.675  -9.461  1.00  0.00     0.000 C 
BRANCH  17  18
ATOM     18  C   UNL     1      25.408  -0.224 -10.913  1.00  0.00     0.000 C 
BRANCH  18  19
ATOM     19  C   UNL     1      24.292  -1.007 -11.636  1.00  0.00     0.000 C 
BRANCH  19  20
ATOM     20  C   UNL     1      24.043  -0.493 -13.065  1.00  0.00     0.000 C 
BRANCH  20  21
ATOM     21  C   UNL     1      24.724   0.862 -13.336  1.00  0.00     0.000 C 
BRANCH  21  22
ATOM     22  C   UNL     1      25.380   0.994 -14.727  1.00  0.00    -0.000 C 
BRANCH  22  23
ATOM     23  C   UNL     1      25.078  -0.159 -15.706  1.00  0.00    -0.000 C 
BRANCH  23  24
ATOM     24  C   UNL     1      26.292  -1.035 -16.071  1.00  0.00    -0.000 C 
BRANCH  24  25
ATOM     25  C   UNL     1      27.657  -0.485 -15.609  1.00  0.00    -0.000 C 
BRANCH  25  26
ATOM     26  C   UNL     1      28.336  -1.295 -14.488  1.00  0.00    -0.000 C 
BRANCH  26  27
ATOM     27  C   UNL     1      27.331  -2.073 -13.625  1.00  0.00    -0.000 C 
BRANCH  27  28
ATOM     28  C   UNL     1      27.957  -2.467 -12.278  1.00  0.00    -0.000 C 
BRANCH  28  29
ATOM     29  C   UNL     1      27.800  -3.965 -11.972  1.00  0.00    -0.003 C 
ATOM     30  C   UNL     1      26.342  -4.423 -11.992  1.00  0.00     0.004 C 
ENDBRANCH  28  29
ENDBRANCH  27  28
ENDBRANCH  26  27
ENDBRANCH  25  26
ENDBRANCH  24  25
ENDBRANCH  23  24
ENDBRANCH  22  23
ENDBRANCH  21  22
ENDBRANCH  20  21
ENDBRANCH  19  20
ENDBRANCH  18  19
ENDBRANCH  17  18
ENDBRANCH   1  17
TORSDOF 26
ENDMDL
MODEL 3
REMARK VINA RESULT:    -3.869      2.151      4.250
REMARK INTER + INTRA:         -14.547
REMARK INTER:                  -9.568
REMARK INTRA:                  -4.979
REMARK UNBOUND:                -4.798
REMARK SMILES CCCCCCCCCCCCCCCCCCCCCCCCCCCC(=O)[O-]
REMARK SMILES IDX 15 1 16 2 17 3 18 4 19 5 20 6 21 7 22 8 23 9 24 10 25 11
REMARK SMILES IDX 26 12 27 13 28 14 29 15 30 16 14 17 13 18 12 19 11 20 10 21
REMARK SMILES IDX 9 22 8 23 7 24 6 25 5 26 4 27 3 28 2 29 1 30
REMARK H PARENT
REMARK Flexibility Score: inf
ROOT
ATOM      1  C   UNL     1      23.997  -1.698  -9.417  1.00  0.00     0.000 C 
ENDROOT
BRANCH   1   2
ATOM      2  C   UNL     1      24.318  -1.962 -10.897  1.00  0.00     0.000 C 
BRANCH   2   3
ATOM      3  C   UNL     1      23.897  -0.824 -11.848  1.00  0.00     0.000 C 
BRANCH   3   4
ATOM      4  C   UNL     1      25.003   0.230 -12.040  1.00  0.00     0.000 C 
BRANCH   4   5
ATOM      5  C   UNL     1      25.207   0.609 -13.518  1.00  0.00     0.000 C 
BRANCH   5   6
ATOM      6  C   UNL     1      24.601  -0.381 -14.534  1.00  0.00     0.000 C 
BRANCH   6   7
ATOM      7  C   UNL     1      25.657  -1.124 -15.379  1.00  0.00     0.000 C 
BRANCH   7   8
ATOM      8  C   UNL     1      27.061  -0.500 -15.248  1.00  0.00     0.000 C 
BRANCH   8   9
ATOM      9  C   UNL     1      28.118  -1.513 -14.785  1.00  0.00     0.000 C 
BRANCH   9  10
ATOM     10  C   UNL     1      27.547  -2.562 -13.815  1.00  0.00     0.000 C 
BRANCH  10  11
ATOM     11  C   UNL     1      27.801  -2.207 -12.341  1.00  0.00     0.000 C 
BRANCH  11  12
ATOM     12  C   UNL     1      27.488  -3.368 -11.381  1.00  0.00     0.006 C 
BRANCH  12  13
ATOM     13  C   UNL     1      26.988  -4.613 -12.127  1.00  0.00     0.053 C 
BRANCH  13  14
ATOM     14  C   UNL     1      27.845  -5.810 -11.853  1.00  0.00     0.041 C 
ATOM     15  O   UNL     1      27.318  -6.942 -11.688  1.00  0.00    -0.550 OA
ATOM     16  O   UNL     1      29.228  -5.682 -11.802  1.00  0.00    -0.550 OA
ENDBRANCH  13  14
ENDBRANCH  12  13
ENDBRANCH  11  12
ENDBRANCH  10  11
ENDBRANCH   9  10
ENDBRANCH   8   9
ENDBRANCH   7   8
ENDBRANCH   6   7
ENDBRANCH   5   6
ENDBRANCH   4   5
ENDBRANCH   3   4
ENDBRANCH   2   3
ENDBRANCH   1   2
BRANCH   1  17
ATOM     17  C   UNL     1      25.209  -1.882  -8.491  1.00  0.00     0.000 C 
BRANCH  17  18
ATOM     18  C   UNL     1      26.422  -1.031  -8.910  1.00  0.00     0.000 C 
BRANCH  18  19
ATOM     19  C   UNL     1      27.102  -0.287  -7.741  1.00  0.00     0.000 C 
BRANCH  19  20
ATOM     20  C   UNL     1      28.188  -1.134  -7.055  1.00  0.00     0.000 C 
BRANCH  20  21
ATOM     21  C   UNL     1      28.925  -2.064  -8.037  1.00  0.00     0.000 C 
BRANCH  21  22
ATOM     22  C   UNL     1      28.632  -3.569  -7.853  1.00  0.00    -0.000 C 
BRANCH  22  23
ATOM     23  C   UNL     1      27.754  -3.920  -6.635  1.00  0.00    -0.000 C 
BRANCH  23  24
ATOM     24  C   UNL     1      26.737  -5.054  -6.873  1.00  0.00    -0.000 C 
BRANCH  24  25
ATOM     25  C   UNL     1      26.441  -5.364  -8.355  1.00  0.00    -0.000 C 
BRANCH  25  26
ATOM     26  C   UNL     1      25.207  -6.255  -8.596  1.00  0.00    -0.000 C 
BRANCH  26  27
ATOM     27  C   UNL     1      24.459  -5.896  -9.889  1.00  0.00    -0.000 C 
BRANCH  27  28
ATOM     28  C   UNL     1      23.017  -5.462  -9.582  1.00  0.00    -0.000 C 
BRANCH  28  29
ATOM     29  C   UNL     1      22.012  -6.616  -9.724  1.00  0.00    -0.003 C 
ATOM     30  C   UNL     1      22.590  -7.814 -10.476  1.00  0.00     0.004 C 
ENDBRANCH  28  29
ENDBRANCH  27  28
ENDBRANCH  26  27
ENDBRANCH  25  26
ENDBRANCH  24  25
ENDBRANCH  23  24
ENDBRANCH  22  23
ENDBRANCH  21  22
ENDBRANCH  20  21
ENDBRANCH  19  20
ENDBRANCH  18  19
ENDBRANCH  17  18
ENDBRANCH   1  17
TORSDOF 26
ENDMDL
MODEL 4
REMARK VINA RESULT:    -3.828      2.773      6.292
REMARK INTER + INTRA:         -14.445
REMARK INTER:                  -9.038
REMARK INTRA:                  -5.407
REMARK UNBOUND:                -4.798
REMARK SMILES CCCCCCCCCCCCCCCCCCCCCCCCCCCC(=O)[O-]
REMARK SMILES IDX 15 1 16 2 17 3 18 4 19 5 20 6 21 7 22 8 23 9 24 10 25 11
REMARK SMILES IDX 26 12 27 13 28 14 29 15 30 16 14 17 13 18 12 19 11 20 10 21
REMARK SMILES IDX 9 22 8 23 7 24 6 25 5 26 4 27 3 28 2 29 1 30
REMARK H PARENT
REMARK Flexibility Score: inf
ROOT
ATOM      1  C   UNL     1      27.128  -0.352  -7.556  1.00  0.00     0.000 C 
ENDROOT
BRANCH   1   2
ATOM      2  C   UNL     1      28.560  -0.850  -7.296  1.00  0.00     0.000 C 
BRANCH   2   3
ATOM      3  C   UNL     1      28.652  -2.000  -6.272  1.00  0.00     0.000 C 
BRANCH   3   4
ATOM      4  C   UNL     1      28.534  -3.388  -6.926  1.00  0.00     0.000 C 
BRANCH   4   5
ATOM      5  C   UNL     1      29.289  -3.477  -8.265  1.00  0.00     0.000 C 
BRANCH   5   6
ATOM      6  C   UNL     1      28.447  -3.983  -9.455  1.00  0.00     0.000 C 
BRANCH   6   7
ATOM      7  C   UNL     1      29.230  -4.048 -10.783  1.00  0.00     0.000 C 
BRANCH   7   8
ATOM      8  C   UNL     1      28.308  -3.948 -12.015  1.00  0.00     0.000 C 
BRANCH   8   9
ATOM      9  C   UNL     1      26.933  -3.353 -11.676  1.00  0.00     0.000 C 
BRANCH   9  10
ATOM     10  C   UNL     1      26.752  -1.930 -12.232  1.00  0.00     0.000 C 
BRANCH  10  11
ATOM     11  C   UNL     1      25.288  -1.461 -12.196  1.00  0.00     0.000 C 
BRANCH  11  12
ATOM     12  C   UNL     1      25.149   0.071 -12.168  1.00  0.00     0.006 C 
BRANCH  12  13
ATOM     13  C   UNL     1      24.355   0.599 -13.371  1.00  0.00     0.053 C 
BRANCH  13  14
ATOM     14  C   UNL     1      25.142   0.512 -14.642  1.00  0.00     0.041 C 
ATOM     15  O   UNL     1      25.936   1.436 -14.959  1.00  0.00    -0.550 OA
ATOM     16  O   UNL     1      25.017  -0.601 -15.465  1.00  0.00    -0.550 OA
ENDBRANCH  13  14
ENDBRANCH  12  13
ENDBRANCH  11  12
ENDBRANCH  10  11
ENDBRANCH   9  10
ENDBRANCH   8   9
ENDBRANCH   7   8
ENDBRANCH   6   7
ENDBRANCH   5   6
ENDBRANCH   4   5
ENDBRANCH   3   4
ENDBRANCH   2   3
ENDBRANCH   1   2
BRANCH   1  17
ATOM     17  C   UNL     1      26.498  -0.954  -8.822  1.00  0.00     0.000 C 
BRANCH  17  18
ATOM     18  C   UNL     1      25.068  -1.476  -8.593  1.00  0.00     0.000 C 
BRANCH  18  19
ATOM     19  C   UNL     1      25.001  -2.805  -7.812  1.00  0.00     0.000 C 
BRANCH  19  20
ATOM     20  C   UNL     1      24.988  -4.034  -8.738  1.00  0.00     0.000 C 
BRANCH  20  21
ATOM     21  C   UNL     1      23.734  -4.094  -9.628  1.00  0.00     0.000 C 
BRANCH  21  22
ATOM     22  C   UNL     1      23.114  -5.499  -9.787  1.00  0.00    -0.000 C 
BRANCH  22  23
ATOM     23  C   UNL     1      23.993  -6.662  -9.283  1.00  0.00    -0.000 C 
BRANCH  23  24
ATOM     24  C   UNL     1      24.639  -7.516 -10.392  1.00  0.00    -0.000 C 
BRANCH  24  25
ATOM     25  C   UNL     1      25.761  -6.815 -11.185  1.00  0.00    -0.000 C 
BRANCH  25  26
ATOM     26  C   UNL     1      27.181  -7.343 -10.902  1.00  0.00    -0.000 C 
BRANCH  26  27
ATOM     27  C   UNL     1      27.298  -8.029  -9.533  1.00  0.00    -0.000 C 
BRANCH  27  28
ATOM     28  C   UNL     1      28.591  -7.606  -8.818  1.00  0.00    -0.000 C 
BRANCH  28  29
ATOM     29  C   UNL     1      28.328  -7.029  -7.418  1.00  0.00    -0.003 C 
ATOM     30  C   UNL     1      26.841  -6.821  -7.134  1.00  0.00     0.004 C 
ENDBRANCH  28  29
ENDBRANCH  27  28
ENDBRANCH  26  27
ENDBRANCH  25  26
ENDBRANCH  24  25
ENDBRANCH  23  24
ENDBRANCH  22  23
ENDBRANCH  21  22
ENDBRANCH  20  21
ENDBRANCH  19  20
ENDBRANCH  18  19
ENDBRANCH  17  18
ENDBRANCH   1  17
TORSDOF 26
ENDMDL
MODEL 5
REMARK VINA RESULT:    -3.778      2.300      5.060
REMARK INTER + INTRA:         -14.319
REMARK INTER:                  -9.209
REMARK INTRA:                  -5.110
REMARK UNBOUND:                -4.798
REMARK SMILES CCCCCCCCCCCCCCCCCCCCCCCCCCCC(=O)[O-]
REMARK SMILES IDX 15 1 16 2 17 3 18 4 19 5 20 6 21 7 22 8 23 9 24 10 25 11
REMARK SMILES IDX 26 12 27 13 28 14 29 15 30 16 14 17 13 18 12 19 11 20 10 21
REMARK SMILES IDX 9 22 8 23 7 24 6 25 5 26 4 27 3 28 2 29 1 30
REMARK H PARENT
REMARK Flexibility Score: inf
ROOT
ATOM      1  C   UNL     1      25.305  -0.466 -10.448  1.00  0.00     0.000 C 
ENDROOT
BRANCH   1   2
ATOM      2  C   UNL     1      24.272  -1.107 -11.390  1.00  0.00     0.000 C 
BRANCH   2   3
ATOM      3  C   UNL     1      24.147  -0.409 -12.759  1.00  0.00     0.000 C 
BRANCH   3   4
ATOM      4  C   UNL     1      24.900   0.933 -12.813  1.00  0.00     0.000 C 
BRANCH   4   5
ATOM      5  C   UNL     1      25.396   1.276 -14.229  1.00  0.00     0.000 C 
BRANCH   5   6
ATOM      6  C   UNL     1      25.091   0.209 -15.302  1.00  0.00     0.000 C 
BRANCH   6   7
ATOM      7  C   UNL     1      26.355  -0.417 -15.928  1.00  0.00     0.000 C 
BRANCH   7   8
ATOM      8  C   UNL     1      26.678  -1.805 -15.338  1.00  0.00     0.000 C 
BRANCH   8   9
ATOM      9  C   UNL     1      27.871  -1.773 -14.371  1.00  0.00     0.000 C 
BRANCH   9  10
ATOM     10  C   UNL     1      27.455  -2.022 -12.911  1.00  0.00     0.000 C 
BRANCH  10  11
ATOM     11  C   UNL     1      28.587  -2.631 -12.068  1.00  0.00     0.000 C 
BRANCH  11  12
ATOM     12  C   UNL     1      28.136  -3.859 -11.256  1.00  0.00     0.006 C 
BRANCH  12  13
ATOM     13  C   UNL     1      26.755  -4.364 -11.695  1.00  0.00     0.053 C 
BRANCH  13  14
ATOM     14  C   UNL     1      26.822  -5.749 -12.264  1.00  0.00     0.041 C 
ATOM     15  O   UNL     1      25.893  -6.176 -12.999  1.00  0.00    -0.550 OA
ATOM     16  O   UNL     1      27.920  -6.558 -12.001  1.00  0.00    -0.550 OA
ENDBRANCH  13  14
ENDBRANCH  12  13
ENDBRANCH  11  12
ENDBRANCH  10  11
ENDBRANCH   9  10
ENDBRANCH   8   9
ENDBRANCH   7   8
ENDBRANCH   6   7
ENDBRANCH   5   6
ENDBRANCH   4   5
ENDBRANCH   3   4
ENDBRANCH   2   3
ENDBRANCH   1   2
BRANCH   1  17
ATOM     17  C   UNL     1      25.241  -1.014  -9.014  1.00  0.00     0.000 C 
BRANCH  17  18
ATOM     18  C   UNL     1      25.639  -2.498  -8.918  1.00  0.00     0.000 C 
BRANCH  18  19
ATOM     19  C   UNL     1      24.520  -3.415  -8.380  1.00  0.00     0.000 C 
BRANCH  19  20
ATOM     20  C   UNL     1      23.821  -4.208  -9.498  1.00  0.00     0.000 C 
BRANCH  20  21
ATOM     21  C   UNL     1      23.560  -5.676  -9.112  1.00  0.00     0.000 C 
BRANCH  21  22
ATOM     22  C   UNL     1      24.748  -6.633  -9.348  1.00  0.00    -0.000 C 
BRANCH  22  23
ATOM     23  C   UNL     1      25.572  -6.975  -8.090  1.00  0.00    -0.000 C 
BRANCH  23  24
ATOM     24  C   UNL     1      27.101  -6.893  -8.273  1.00  0.00    -0.000 C 
BRANCH  24  25
ATOM     25  C   UNL     1      27.696  -5.474  -8.167  1.00  0.00    -0.000 C 
BRANCH  25  26
ATOM     26  C   UNL     1      27.515  -4.797  -6.795  1.00  0.00    -0.000 C 
BRANCH  26  27
ATOM     27  C   UNL     1      28.649  -3.815  -6.463  1.00  0.00    -0.000 C 
BRANCH  27  28
ATOM     28  C   UNL     1      29.236  -3.204  -7.745  1.00  0.00    -0.000 C 
BRANCH  28  29
ATOM     29  C   UNL     1      29.391  -1.678  -7.653  1.00  0.00    -0.003 C 
ATOM     30  C   UNL     1      28.306  -1.024  -6.799  1.00  0.00     0.004 C 
ENDBRANCH  28  29
ENDBRANCH  27  28
ENDBRANCH  26  27
ENDBRANCH  25  26
ENDBRANCH  24  25
ENDBRANCH  23  24
ENDBRANCH  22  23
ENDBRANCH  21  22
ENDBRANCH  20  21
ENDBRANCH  19  20
ENDBRANCH  18  19
ENDBRANCH  17  18
ENDBRANCH   1  17
TORSDOF 26
ENDMDL
MODEL 6
REMARK VINA RESULT:    -3.744      1.142      6.451
REMARK INTER + INTRA:         -14.232
REMARK INTER:                  -9.093
REMARK INTRA:                  -5.138
REMARK UNBOUND:                -4.798
REMARK SMILES CCCCCCCCCCCCCCCCCCCCCCCCCCCC(=O)[O-]
REMARK SMILES IDX 15 1 16 2 17 3 18 4 19 5 20 6 21 7 22 8 23 9 24 10 25 11
REMARK SMILES IDX 26 12 27 13 28 14 29 15 30 16 14 17 13 18 12 19 11 20 10 21
REMARK SMILES IDX 9 22 8 23 7 24 6 25 5 26 4 27 3 28 2 29 1 30
REMARK H PARENT
REMARK Flexibility Score: inf
ROOT
ATOM      1  C   UNL     1      25.276  -0.518  -9.395  1.00  0.00     0.000 C 
ENDROOT
BRANCH   1   2
ATOM      2  C   UNL     1      26.366  -1.108  -8.484  1.00  0.00     0.000 C 
BRANCH   2   3
ATOM      3  C   UNL     1      26.107  -2.565  -8.051  1.00  0.00     0.000 C 
BRANCH   3   4
ATOM      4  C   UNL     1      24.638  -2.987  -8.233  1.00  0.00     0.000 C 
BRANCH   4   5
ATOM      5  C   UNL     1      24.458  -4.042  -9.339  1.00  0.00     0.000 C 
BRANCH   5   6
ATOM      6  C   UNL     1      23.388  -5.115  -9.047  1.00  0.00     0.000 C 
BRANCH   6   7
ATOM      7  C   UNL     1      23.754  -6.515  -9.583  1.00  0.00     0.000 C 
BRANCH   7   8
ATOM      8  C   UNL     1      25.271  -6.784  -9.536  1.00  0.00     0.000 C 
BRANCH   8   9
ATOM      9  C   UNL     1      25.647  -7.871  -8.518  1.00  0.00     0.000 C 
BRANCH   9  10
ATOM     10  C   UNL     1      26.361  -7.301  -7.281  1.00  0.00     0.000 C 
BRANCH  10  11
ATOM     11  C   UNL     1      27.048  -5.954  -7.560  1.00  0.00     0.000 C 
BRANCH  11  12
ATOM     12  C   UNL     1      28.576  -6.010  -7.378  1.00  0.00     0.006 C 
BRANCH  12  13
ATOM     13  C   UNL     1      29.074  -4.962  -6.373  1.00  0.00     0.053 C 
BRANCH  13  14
ATOM     14  C   UNL     1      29.383  -3.655  -7.036  1.00  0.00     0.041 C 
ATOM     15  O   UNL     1      29.229  -2.575  -6.407  1.00  0.00    -0.550 OA
ATOM     16  O   UNL     1      29.865  -3.631  -8.339  1.00  0.00    -0.550 OA
ENDBRANCH  13  14
ENDBRANCH  12  13
ENDBRANCH  11  12
ENDBRANCH  10  11
ENDBRANCH   9  10
ENDBRANCH   8   9
ENDBRANCH   7   8
ENDBRANCH   6   7
ENDBRANCH   5   6
ENDBRANCH   4   5
ENDBRANCH   3   4
ENDBRANCH   2   3
ENDBRANCH   1   2
BRANCH   1  17
ATOM     17  C   UNL     1      25.630  -0.590 -10.888  1.00  0.00     0.000 C 
BRANCH  17  18
ATOM     18  C   UNL     1      24.507  -1.204 -11.745  1.00  0.00     0.000 C 
BRANCH  18  19
ATOM     19  C   UNL     1      23.874  -0.219 -12.750  1.00  0.00     0.000 C 
BRANCH  19  20
ATOM     20  C   UNL     1      24.819   0.940 -13.114  1.00  0.00     0.000 C 
BRANCH  20  21
ATOM     21  C   UNL     1      25.454   0.773 -14.507  1.00  0.00     0.000 C 
BRANCH  21  22
ATOM     22  C   UNL     1      25.018  -0.493 -15.275  1.00  0.00    -0.000 C 
BRANCH  22  23
ATOM     23  C   UNL     1      26.116  -1.562 -15.452  1.00  0.00    -0.000 C 
BRANCH  23  24
ATOM     24  C   UNL     1      27.442  -1.257 -14.728  1.00  0.00    -0.000 C 
BRANCH  24  25
ATOM     25  C   UNL     1      27.708  -2.105 -13.468  1.00  0.00    -0.000 C 
BRANCH  25  26
ATOM     26  C   UNL     1      27.275  -3.579 -13.576  1.00  0.00    -0.000 C 
BRANCH  26  27
ATOM     27  C   UNL     1      26.613  -4.101 -12.292  1.00  0.00    -0.000 C 
BRANCH  27  28
ATOM     28  C   UNL     1      27.615  -4.110 -11.126  1.00  0.00    -0.000 C 
BRANCH  28  29
ATOM     29  C   UNL     1      28.376  -5.440 -11.015  1.00  0.00    -0.003 C 
ATOM     30  C   UNL     1      29.836  -5.324 -11.450  1.00  0.00     0.004 C 
ENDBRANCH  28  29
ENDBRANCH  27  28
ENDBRANCH  26  27
ENDBRANCH  25  26
ENDBRANCH  24  25
ENDBRANCH  23  24
ENDBRANCH  22  23
ENDBRANCH  21  22
ENDBRANCH  20  21
ENDBRANCH  19  20
ENDBRANCH  18  19
ENDBRANCH  17  18
ENDBRANCH   1  17
TORSDOF 26
ENDMDL
MODEL 7
REMARK VINA RESULT:    -3.730      2.774      5.848
REMARK INTER + INTRA:         -14.198
REMARK INTER:                  -8.854
REMARK INTRA:                  -5.343
REMARK UNBOUND:                -4.798
REMARK SMILES CCCCCCCCCCCCCCCCCCCCCCCCCCCC(=O)[O-]
REMARK SMILES IDX 15 1 16 2 17 3 18 4 19 5 20 6 21 7 22 8 23 9 24 10 25 11
REMARK SMILES IDX 26 12 27 13 28 14 29 15 30 16 14 17 13 18 12 19 11 20 10 21
REMARK SMILES IDX 9 22 8 23 7 24 6 25 5 26 4 27 3 28 2 29 1 30
REMARK H PARENT
REMARK Flexibility Score: inf
ROOT
ATOM      1  C   UNL     1      24.680  -1.691  -8.912  1.00  0.00     0.000 C 
ENDROOT
BRANCH   1   2
ATOM      2  C   UNL     1      25.626  -0.590  -9.421  1.00  0.00     0.000 C 
BRANCH   2   3
ATOM      3  C   UNL     1      25.604  -0.396 -10.951  1.00  0.00     0.000 C 
BRANCH   3   4
ATOM      4  C   UNL     1      24.412  -1.102 -11.622  1.00  0.00     0.000 C 
BRANCH   4   5
ATOM      5  C   UNL     1      23.934  -0.375 -12.892  1.00  0.00     0.000 C 
BRANCH   5   6
ATOM      6  C   UNL     1      24.644   0.964 -13.182  1.00  0.00     0.000 C 
BRANCH   6   7
ATOM      7  C   UNL     1      25.229   1.058 -14.607  1.00  0.00     0.000 C 
BRANCH   7   8
ATOM      8  C   UNL     1      25.283  -0.312 -15.312  1.00  0.00     0.000 C 
BRANCH   8   9
ATOM      9  C   UNL     1      26.718  -0.833 -15.481  1.00  0.00     0.000 C 
BRANCH   9  10
ATOM     10  C   UNL     1      27.206  -1.627 -14.258  1.00  0.00     0.000 C 
BRANCH  10  11
ATOM     11  C   UNL     1      28.029  -2.867 -14.645  1.00  0.00     0.000 C 
BRANCH  11  12
ATOM     12  C   UNL     1      27.154  -4.084 -14.993  1.00  0.00     0.006 C 
BRANCH  12  13
ATOM     13  C   UNL     1      27.903  -5.408 -14.791  1.00  0.00     0.053 C 
BRANCH  13  14
ATOM     14  C   UNL     1      27.029  -6.456 -14.173  1.00  0.00     0.041 C 
ATOM     15  O   UNL     1      27.502  -7.253 -13.321  1.00  0.00    -0.550 OA
ATOM     16  O   UNL     1      25.685  -6.537 -14.520  1.00  0.00    -0.550 OA
ENDBRANCH  13  14
ENDBRANCH  12  13
ENDBRANCH  11  12
ENDBRANCH  10  11
ENDBRANCH   9  10
ENDBRANCH   8   9
ENDBRANCH   7   8
ENDBRANCH   6   7
ENDBRANCH   5   6
ENDBRANCH   4   5
ENDBRANCH   3   4
ENDBRANCH   2   3
ENDBRANCH   1   2
BRANCH   1  17
ATOM     17  C   UNL     1      25.411  -2.828  -8.182  1.00  0.00     0.000 C 
BRANCH  17  18
ATOM     18  C   UNL     1      24.490  -4.012  -7.836  1.00  0.00     0.000 C 
BRANCH  18  19
ATOM     19  C   UNL     1      24.997  -5.375  -8.351  1.00  0.00     0.000 C 
BRANCH  19  20
ATOM     20  C   UNL     1      24.336  -5.787  -9.678  1.00  0.00     0.000 C 
BRANCH  20  21
ATOM     21  C   UNL     1      25.330  -5.816 -10.854  1.00  0.00     0.000 C 
BRANCH  21  22
ATOM     22  C   UNL     1      25.627  -4.442 -11.490  1.00  0.00    -0.000 C 
BRANCH  22  23
ATOM     23  C   UNL     1      27.062  -3.918 -11.277  1.00  0.00    -0.000 C 
BRANCH  23  24
ATOM     24  C   UNL     1      28.010  -4.898 -10.557  1.00  0.00    -0.000 C 
BRANCH  24  25
ATOM     25  C   UNL     1      28.649  -4.355  -9.262  1.00  0.00    -0.000 C 
BRANCH  25  26
ATOM     26  C   UNL     1      28.449  -5.243  -8.019  1.00  0.00    -0.000 C 
BRANCH  26  27
ATOM     27  C   UNL     1      28.612  -4.469  -6.703  1.00  0.00    -0.000 C 
BRANCH  27  28
ATOM     28  C   UNL     1      29.341  -3.137  -6.939  1.00  0.00    -0.000 C 
BRANCH  28  29
ATOM     29  C   UNL     1      28.663  -1.959  -6.223  1.00  0.00    -0.003 C 
ATOM     30  C   UNL     1      28.434  -0.760  -7.142  1.00  0.00     0.004 C 
ENDBRANCH  28  29
ENDBRANCH  27  28
ENDBRANCH  26  27
ENDBRANCH  25  26
ENDBRANCH  24  25
ENDBRANCH  23  24
ENDBRANCH  22  23
ENDBRANCH  21  22
ENDBRANCH  20  21
ENDBRANCH  19  20
ENDBRANCH  18  19
ENDBRANCH  17  18
ENDBRANCH   1  17
TORSDOF 26
ENDMDL
MODEL 8
REMARK VINA RESULT:    -3.696      2.789      6.944
REMARK INTER + INTRA:         -14.111
REMARK INTER:                  -8.805
REMARK INTRA:                  -5.306
REMARK UNBOUND:                -4.798
REMARK SMILES CCCCCCCCCCCCCCCCCCCCCCCCCCCC(=O)[O-]
REMARK SMILES IDX 15 1 16 2 17 3 18 4 19 5 20 6 21 7 22 8 23 9 24 10 25 11
REMARK SMILES IDX 26 12 27 13 28 14 29 15 30 16 14 17 13 18 12 19 11 20 10 21
REMARK SMILES IDX 9 22 8 23 7 24 6 25 5 26 4 27 3 28 2 29 1 30
REMARK H PARENT
REMARK Flexibility Score: inf
ROOT
ATOM      1  C   UNL     1      25.019  -1.715  -8.280  1.00  0.00     0.000 C 
ENDROOT
BRANCH   1   2
ATOM      2  C   UNL     1      26.352  -1.187  -8.837  1.00  0.00     0.000 C 
BRANCH   2   3
ATOM      3  C   UNL     1      27.119  -0.264  -7.869  1.00  0.00     0.000 C 
BRANCH   3   4
ATOM      4  C   UNL     1      27.897  -1.045  -6.794  1.00  0.00     0.000 C 
BRANCH   4   5
ATOM      5  C   UNL     1      29.408  -1.100  -7.081  1.00  0.00     0.000 C 
BRANCH   5   6
ATOM      6  C   UNL     1      29.990  -2.520  -7.239  1.00  0.00     0.000 C 
BRANCH   6   7
ATOM      7  C   UNL     1      29.203  -3.404  -8.230  1.00  0.00     0.000 C 
BRANCH   7   8
ATOM      8  C   UNL     1      28.867  -4.789  -7.643  1.00  0.00     0.000 C 
BRANCH   8   9
ATOM      9  C   UNL     1      27.622  -4.763  -6.744  1.00  0.00     0.000 C 
BRANCH   9  10
ATOM     10  C   UNL     1      26.612  -5.868  -7.099  1.00  0.00     0.000 C 
BRANCH  10  11
ATOM     11  C   UNL     1      27.187  -6.906  -8.076  1.00  0.00     0.000 C 
BRANCH  11  12
ATOM     12  C   UNL     1      26.121  -7.873  -8.620  1.00  0.00     0.006 C 
BRANCH  12  13
ATOM     13  C   UNL     1      24.788  -7.164  -8.897  1.00  0.00     0.053 C 
BRANCH  13  14
ATOM     14  C   UNL     1      24.089  -7.737 -10.092  1.00  0.00     0.041 C 
ATOM     15  O   UNL     1      24.751  -8.102 -11.098  1.00  0.00    -0.550 OA
ATOM     16  O   UNL     1      22.707  -7.889 -10.085  1.00  0.00    -0.550 OA
ENDBRANCH  13  14
ENDBRANCH  12  13
ENDBRANCH  11  12
ENDBRANCH  10  11
ENDBRANCH   9  10
ENDBRANCH   8   9
ENDBRANCH   7   8
ENDBRANCH   6   7
ENDBRANCH   5   6
ENDBRANCH   4   5
ENDBRANCH   3   4
ENDBRANCH   2   3
ENDBRANCH   1   2
BRANCH   1  17
ATOM     17  C   UNL     1      24.818  -3.220  -8.515  1.00  0.00     0.000 C 
BRANCH  17  18
ATOM     18  C   UNL     1      24.077  -3.532  -9.828  1.00  0.00     0.000 C 
BRANCH  18  19
ATOM     19  C   UNL     1      24.942  -4.252 -10.882  1.00  0.00     0.000 C 
BRANCH  19  20
ATOM     20  C   UNL     1      26.433  -4.281 -10.501  1.00  0.00     0.000 C 
BRANCH  20  21
ATOM     21  C   UNL     1      27.264  -5.193 -11.422  1.00  0.00     0.000 C 
BRANCH  21  22
ATOM     22  C   UNL     1      26.597  -5.544 -12.769  1.00  0.00    -0.000 C 
BRANCH  22  23
ATOM     23  C   UNL     1      27.088  -4.720 -13.976  1.00  0.00    -0.000 C 
BRANCH  23  24
ATOM     24  C   UNL     1      28.381  -3.916 -13.731  1.00  0.00    -0.000 C 
BRANCH  24  25
ATOM     25  C   UNL     1      28.186  -2.391 -13.602  1.00  0.00    -0.000 C 
BRANCH  25  26
ATOM     26  C   UNL     1      26.740  -1.903 -13.809  1.00  0.00    -0.000 C 
BRANCH  26  27
ATOM     27  C   UNL     1      26.136  -1.280 -12.541  1.00  0.00    -0.000 C 
BRANCH  27  28
ATOM     28  C   UNL     1      24.638  -0.999 -12.731  1.00  0.00    -0.000 C 
BRANCH  28  29
ATOM     29  C   UNL     1      24.304   0.499 -12.642  1.00  0.00    -0.003 C 
ATOM     30  C   UNL     1      24.811   1.291 -13.846  1.00  0.00     0.004 C 
ENDBRANCH  28  29
ENDBRANCH  27  28
ENDBRANCH  26  27
ENDBRANCH  25  26
ENDBRANCH  24  25
ENDBRANCH  23  24
ENDBRANCH  22  23
ENDBRANCH  21  22
ENDBRANCH  20  21
ENDBRANCH  19  20
ENDBRANCH  18  19
ENDBRANCH  17  18
ENDBRANCH   1  17
TORSDOF 26
ENDMDL
MODEL 9
REMARK VINA RESULT:    -3.683      2.577      6.624
REMARK INTER + INTRA:         -14.078
REMARK INTER:                  -8.281
REMARK INTRA:                  -5.797
REMARK UNBOUND:                -4.798
REMARK SMILES CCCCCCCCCCCCCCCCCCCCCCCCCCCC(=O)[O-]
REMARK SMILES IDX 15 1 16 2 17 3 18 4 19 5 20 6 21 7 22 8 23 9 24 10 25 11
REMARK SMILES IDX 26 12 27 13 28 14 29 15 30 16 14 17 13 18 12 19 11 20 10 21
REMARK SMILES IDX 9 22 8 23 7 24 6 25 5 26 4 27 3 28 2 29 1 30
REMARK H PARENT
REMARK Flexibility Score: inf
ROOT
ATOM      1  C   UNL     1      27.104  -0.891  -7.370  1.00  0.00     0.000 C 
ENDROOT
BRANCH   1   2
ATOM      2  C   UNL     1      28.622  -0.754  -7.576  1.00  0.00     0.000 C 
BRANCH   2   3
ATOM      3  C   UNL     1      29.450  -1.892  -6.945  1.00  0.00     0.000 C 
BRANCH   3   4
ATOM      4  C   UNL     1      28.576  -3.057  -6.446  1.00  0.00     0.000 C 
BRANCH   4   5
ATOM      5  C   UNL     1      29.154  -4.433  -6.824  1.00  0.00     0.000 C 
BRANCH   5   6
ATOM      6  C   UNL     1      28.161  -5.387  -7.520  1.00  0.00     0.000 C 
BRANCH   6   7
ATOM      7  C   UNL     1      28.221  -5.326  -9.061  1.00  0.00     0.000 C 
BRANCH   7   8
ATOM      8  C   UNL     1      29.516  -4.665  -9.573  1.00  0.00     0.000 C 
BRANCH   8   9
ATOM      9  C   UNL     1      29.246  -3.532 -10.574  1.00  0.00     0.000 C 
BRANCH   9  10
ATOM     10  C   UNL     1      27.762  -3.131 -10.627  1.00  0.00     0.000 C 
BRANCH  10  11
ATOM     11  C   UNL     1      27.452  -2.149 -11.768  1.00  0.00     0.000 C 
BRANCH  11  12
ATOM     12  C   UNL     1      25.987  -2.215 -12.237  1.00  0.00     0.006 C 
BRANCH  12  13
ATOM     13  C   UNL     1      25.674  -1.152 -13.298  1.00  0.00     0.053 C 
BRANCH  13  14
ATOM     14  C   UNL     1      24.526  -0.278 -12.892  1.00  0.00     0.041 C 
ATOM     15  O   UNL     1      23.731  -0.657 -11.992  1.00  0.00    -0.550 OA
ATOM     16  O   UNL     1      24.349   0.964 -13.489  1.00  0.00    -0.550 OA
ENDBRANCH  13  14
ENDBRANCH  12  13
ENDBRANCH  11  12
ENDBRANCH  10  11
ENDBRANCH   9  10
ENDBRANCH   8   9
ENDBRANCH   7   8
ENDBRANCH   6   7
ENDBRANCH   5   6
ENDBRANCH   4   5
ENDBRANCH   3   4
ENDBRANCH   2   3
ENDBRANCH   1   2
BRANCH   1  17
ATOM     17  C   UNL     1      26.286  -0.499  -8.610  1.00  0.00     0.000 C 
BRANCH  17  18
ATOM     18  C   UNL     1      25.089  -1.434  -8.863  1.00  0.00     0.000 C 
BRANCH  18  19
ATOM     19  C   UNL     1      24.953  -2.574  -7.832  1.00  0.00     0.000 C 
BRANCH  19  20
ATOM     20  C   UNL     1      24.921  -3.964  -8.492  1.00  0.00     0.000 C 
BRANCH  20  21
ATOM     21  C   UNL     1      23.793  -4.102  -9.532  1.00  0.00     0.000 C 
BRANCH  21  22
ATOM     22  C   UNL     1      23.211  -5.525  -9.677  1.00  0.00    -0.000 C 
BRANCH  22  23
ATOM     23  C   UNL     1      24.206  -6.670  -9.403  1.00  0.00    -0.000 C 
BRANCH  23  24
ATOM     24  C   UNL     1      24.555  -7.534 -10.632  1.00  0.00    -0.000 C 
BRANCH  24  25
ATOM     25  C   UNL     1      25.957  -7.287 -11.226  1.00  0.00    -0.000 C 
BRANCH  25  26
ATOM     26  C   UNL     1      26.086  -6.005 -12.071  1.00  0.00    -0.000 C 
BRANCH  26  27
ATOM     27  C   UNL     1      26.293  -6.296 -13.564  1.00  0.00    -0.000 C 
BRANCH  27  28
ATOM     28  C   UNL     1      26.968  -5.106 -14.264  1.00  0.00    -0.000 C 
BRANCH  28  29
ATOM     29  C   UNL     1      28.447  -4.957 -13.877  1.00  0.00    -0.003 C 
ATOM     30  C   UNL     1      29.205  -3.998 -14.793  1.00  0.00     0.004 C 
ENDBRANCH  28  29
ENDBRANCH  27  28
ENDBRANCH  26  27
ENDBRANCH  25  26
ENDBRANCH  24  25
ENDBRANCH  23  24
ENDBRANCH  22  23
ENDBRANCH  21  22
ENDBRANCH  20  21
ENDBRANCH  19  20
ENDBRANCH  18  19
ENDBRANCH  17  18
ENDBRANCH   1  17
TORSDOF 26
ENDMDL
