MODEL 1
REMARK VINA RESULT:    -6.507      0.000      0.000
REMARK INTER + INTRA:          -7.922
REMARK INTER:                  -7.648
REMARK INTRA:                  -0.275
REMARK UNBOUND:                -0.275
REMARK SMILES O=c1cc(-c2ccc(O)c(O)c2)oc2cc(O)cc(O)c12
REMARK SMILES IDX 4 1 3 2 2 3 1 4 21 5 19 6 18 7 16 8 15 9 14 10 13 11 5 12
REMARK SMILES IDX 6 13 7 14 8 15 12 16 10 17 9 18 11 20 20 22 17 24
REMARK H PARENT 9 19 11 21 20 23 17 25
REMARK Flexibility Score: inf
ROOT
ATOM      1  C   UNL     1      -6.693 -23.702  35.923  1.00  0.00     0.138 A 
ATOM      2  C   UNL     1      -5.301 -23.699  36.085  1.00  0.00     0.100 A 
ATOM      3  C   UNL     1      -4.626 -22.488  36.243  1.00  0.00     0.197 A 
ATOM      4  O   UNL     1      -3.385 -22.523  36.442  1.00  0.00    -0.289 OA
ATOM      5  C   UNL     1      -5.346 -21.271  36.201  1.00  0.00     0.107 A 
ATOM      6  C   UNL     1      -4.761 -19.973  36.316  1.00  0.00     0.134 A 
ATOM      7  C   UNL     1      -5.589 -18.845  36.360  1.00  0.00     0.093 A 
ATOM      8  C   UNL     1      -6.972 -18.959  36.234  1.00  0.00     0.123 A 
ATOM      9  C   UNL     1      -7.552 -20.217  36.070  1.00  0.00     0.094 A 
ATOM     10  C   UNL     1      -6.757 -21.366  36.058  1.00  0.00     0.146 A 
ATOM     11  O   UNL     1      -7.350 -22.546  35.918  1.00  0.00    -0.456 OA
ENDROOT
BRANCH   1  12
ATOM     12  C   UNL     1      -7.460 -24.961  35.747  1.00  0.00     0.021 A 
ATOM     13  C   UNL     1      -8.597 -25.193  36.540  1.00  0.00     0.016 A 
ATOM     14  C   UNL     1      -9.333 -26.372  36.400  1.00  0.00     0.051 A 
ATOM     15  C   UNL     1      -8.939 -27.346  35.474  1.00  0.00     0.157 A 
ATOM     16  C   UNL     1      -7.061 -25.951  34.827  1.00  0.00     0.062 A 
ATOM     17  C   UNL     1      -7.795 -27.134  34.686  1.00  0.00     0.158 A 
BRANCH  15  18
ATOM     18  O   UNL     1      -9.676 -28.521  35.336  1.00  0.00    -0.504 OA
ATOM     19  H   UNL     1     -10.456 -28.586  34.692  1.00  0.00     0.293 HD
ENDBRANCH  15  18
BRANCH  17  20
ATOM     20  O   UNL     1      -7.370 -28.089  33.764  1.00  0.00    -0.504 OA
ATOM     21  H   UNL     1      -6.529 -27.970  33.213  1.00  0.00     0.293 HD
ENDBRANCH  17  20
ENDBRANCH   1  12
BRANCH   6  22
ATOM     22  O   UNL     1      -3.384 -19.736  36.369  1.00  0.00    -0.507 OA
ATOM     23  H   UNL     1      -2.951 -18.923  36.780  1.00  0.00     0.293 HD
ENDBRANCH   6  22
BRANCH   8  24
ATOM     24  O   UNL     1      -7.763 -17.812  36.265  1.00  0.00    -0.508 OA
ATOM     25  H   UNL     1      -8.235 -17.470  35.436  1.00  0.00     0.293 HD
ENDBRANCH   8  24
TORSDOF 5
ENDMDL
MODEL 2
REMARK VINA RESULT:    -6.252      1.993      3.360
REMARK INTER + INTRA:          -7.623
REMARK INTER:                  -7.326
REMARK INTRA:                  -0.297
REMARK UNBOUND:                -0.275
REMARK SMILES O=c1cc(-c2ccc(O)c(O)c2)oc2cc(O)cc(O)c12
REMARK SMILES IDX 4 1 3 2 2 3 1 4 21 5 19 6 18 7 16 8 15 9 14 10 13 11 5 12
REMARK SMILES IDX 6 13 7 14 8 15 12 16 10 17 9 18 11 20 20 22 17 24
REMARK H PARENT 9 19 11 21 20 23 17 25
REMARK Flexibility Score: inf
ROOT
ATOM      1  C   UNL     1      -6.739 -22.208  35.021  1.00  0.00     0.138 A 
ATOM      2  C   UNL     1      -7.479 -21.271  35.754  1.00  0.00     0.100 A 
ATOM      3  C   UNL     1      -7.104 -19.926  35.733  1.00  0.00     0.197 A 
ATOM      4  O   UNL     1      -7.822 -19.102  36.356  1.00  0.00    -0.289 OA
ATOM      5  C   UNL     1      -5.960 -19.526  35.002  1.00  0.00     0.107 A 
ATOM      6  C   UNL     1      -5.463 -18.189  34.936  1.00  0.00     0.134 A 
ATOM      7  C   UNL     1      -4.379 -17.898  34.098  1.00  0.00     0.093 A 
ATOM      8  C   UNL     1      -3.738 -18.900  33.373  1.00  0.00     0.123 A 
ATOM      9  C   UNL     1      -4.182 -20.219  33.469  1.00  0.00     0.094 A 
ATOM     10  C   UNL     1      -5.283 -20.537  34.268  1.00  0.00     0.146 A 
ATOM     11  O   UNL     1      -5.687 -21.802  34.317  1.00  0.00    -0.456 OA
ENDROOT
BRANCH   1  12
ATOM     12  C   UNL     1      -7.090 -23.651  35.011  1.00  0.00     0.021 A 
ATOM     13  C   UNL     1      -6.338 -24.540  34.223  1.00  0.00     0.016 A 
ATOM     14  C   UNL     1      -6.652 -25.900  34.190  1.00  0.00     0.051 A 
ATOM     15  C   UNL     1      -7.730 -26.396  34.934  1.00  0.00     0.157 A 
ATOM     16  C   UNL     1      -8.182 -24.154  35.746  1.00  0.00     0.062 A 
ATOM     17  C   UNL     1      -8.500 -25.516  35.713  1.00  0.00     0.158 A 
BRANCH  15  18
ATOM     18  O   UNL     1      -8.040 -27.754  34.899  1.00  0.00    -0.504 OA
ATOM     19  H   UNL     1      -7.789 -28.336  34.108  1.00  0.00     0.293 HD
ENDBRANCH  15  18
BRANCH  17  20
ATOM     20  O   UNL     1      -9.587 -25.977  36.456  1.00  0.00    -0.504 OA
ATOM     21  H   UNL     1     -10.501 -26.113  36.044  1.00  0.00     0.293 HD
ENDBRANCH  17  20
ENDBRANCH   1  12
BRANCH   6  22
ATOM     22  O   UNL     1      -5.978 -17.123  35.679  1.00  0.00    -0.507 OA
ATOM     23  H   UNL     1      -6.739 -17.190  36.338  1.00  0.00     0.293 HD
ENDBRANCH   6  22
BRANCH   8  24
ATOM     24  O   UNL     1      -2.651 -18.575  32.563  1.00  0.00    -0.508 OA
ATOM     25  H   UNL     1      -2.307 -19.215  31.856  1.00  0.00     0.293 HD
ENDBRANCH   8  24
TORSDOF 5
ENDMDL
MODEL 3
REMARK VINA RESULT:    -6.082      2.544      7.722
REMARK INTER + INTRA:          -7.424
REMARK INTER:                  -7.152
REMARK INTRA:                  -0.272
REMARK UNBOUND:                -0.275
REMARK SMILES O=c1cc(-c2ccc(O)c(O)c2)oc2cc(O)cc(O)c12
REMARK SMILES IDX 4 1 3 2 2 3 1 4 21 5 19 6 18 7 16 8 15 9 14 10 13 11 5 12
REMARK SMILES IDX 6 13 7 14 8 15 12 16 10 17 9 18 11 20 20 22 17 24
REMARK H PARENT 9 19 11 21 20 23 17 25
REMARK Flexibility Score: inf
ROOT
ATOM      1  C   UNL     1      -4.962 -20.693  34.973  1.00  0.00     0.138 A 
ATOM      2  C   UNL     1      -6.311 -20.318  35.010  1.00  0.00     0.100 A 
ATOM      3  C   UNL     1      -7.296 -21.295  35.163  1.00  0.00     0.197 A 
ATOM      4  O   UNL     1      -8.494 -20.921  35.248  1.00  0.00    -0.289 OA
ATOM      5  C   UNL     1      -6.927 -22.659  35.242  1.00  0.00     0.107 A 
ATOM      6  C   UNL     1      -7.846 -23.746  35.364  1.00  0.00     0.134 A 
ATOM      7  C   UNL     1      -7.356 -25.047  35.534  1.00  0.00     0.093 A 
ATOM      8  C   UNL     1      -5.987 -25.309  35.528  1.00  0.00     0.123 A 
ATOM      9  C   UNL     1      -5.081 -24.262  35.358  1.00  0.00     0.094 A 
ATOM     10  C   UNL     1      -5.536 -22.949  35.222  1.00  0.00     0.146 A 
ATOM     11  O   UNL     1      -4.639 -21.978  35.081  1.00  0.00    -0.456 OA
ENDROOT
BRANCH   1  12
ATOM     12  C   UNL     1      -3.874 -19.695  34.808  1.00  0.00     0.021 A 
ATOM     13  C   UNL     1      -2.822 -19.661  35.740  1.00  0.00     0.016 A 
ATOM     14  C   UNL     1      -1.790 -18.728  35.613  1.00  0.00     0.051 A 
ATOM     15  C   UNL     1      -1.797 -17.805  34.560  1.00  0.00     0.157 A 
ATOM     16  C   UNL     1      -3.882 -18.755  33.760  1.00  0.00     0.062 A 
ATOM     17  C   UNL     1      -2.851 -17.817  33.631  1.00  0.00     0.158 A 
BRANCH  15  18
ATOM     18  O   UNL     1      -0.766 -16.876  34.435  1.00  0.00    -0.504 OA
ATOM     19  H   UNL     1       0.027 -17.042  33.826  1.00  0.00     0.293 HD
ENDBRANCH  15  18
BRANCH  17  20
ATOM     20  O   UNL     1      -2.893 -16.903  32.579  1.00  0.00    -0.504 OA
ATOM     21  H   UNL     1      -2.112 -16.771  31.949  1.00  0.00     0.293 HD
ENDBRANCH  17  20
ENDBRANCH   1  12
BRANCH   6  22
ATOM     22  O   UNL     1      -9.236 -23.608  35.305  1.00  0.00    -0.507 OA
ATOM     23  H   UNL     1      -9.887 -24.364  35.161  1.00  0.00     0.293 HD
ENDBRANCH   6  22
BRANCH   8  24
ATOM     24  O   UNL     1      -5.537 -26.619  35.683  1.00  0.00    -0.508 OA
ATOM     25  H   UNL     1      -5.335 -27.005  36.598  1.00  0.00     0.293 HD
ENDBRANCH   8  24
TORSDOF 5
ENDMDL
MODEL 4
REMARK VINA RESULT:    -5.997      1.745      2.794
REMARK INTER + INTRA:          -7.323
REMARK INTER:                  -7.057
REMARK INTRA:                  -0.266
REMARK UNBOUND:                -0.275
REMARK SMILES O=c1cc(-c2ccc(O)c(O)c2)oc2cc(O)cc(O)c12
REMARK SMILES IDX 4 1 3 2 2 3 1 4 21 5 19 6 18 7 16 8 15 9 14 10 13 11 5 12
REMARK SMILES IDX 6 13 7 14 8 15 12 16 10 17 9 18 11 20 20 22 17 24
REMARK H PARENT 9 19 11 21 20 23 17 25
REMARK Flexibility Score: inf
ROOT
ATOM      1  C   UNL     1      -6.622 -23.604  35.012  1.00  0.00     0.138 A 
ATOM      2  C   UNL     1      -7.083 -22.567  34.191  1.00  0.00     0.100 A 
ATOM      3  C   UNL     1      -6.360 -21.376  34.110  1.00  0.00     0.197 A 
ATOM      4  O   UNL     1      -6.770 -20.486  33.321  1.00  0.00    -0.289 OA
ATOM      5  C   UNL     1      -5.188 -21.210  34.885  1.00  0.00     0.107 A 
ATOM      6  C   UNL     1      -4.388 -20.027  34.911  1.00  0.00     0.134 A 
ATOM      7  C   UNL     1      -3.195 -20.018  35.643  1.00  0.00     0.093 A 
ATOM      8  C   UNL     1      -2.801 -21.123  36.396  1.00  0.00     0.123 A 
ATOM      9  C   UNL     1      -3.600 -22.266  36.419  1.00  0.00     0.094 A 
ATOM     10  C   UNL     1      -4.778 -22.321  35.672  1.00  0.00     0.146 A 
ATOM     11  O   UNL     1      -5.501 -23.435  35.707  1.00  0.00    -0.456 OA
ENDROOT
BRANCH   1  12
ATOM     12  C   UNL     1      -7.354 -24.890  35.139  1.00  0.00     0.021 A 
ATOM     13  C   UNL     1      -8.192 -25.101  36.248  1.00  0.00     0.016 A 
ATOM     14  C   UNL     1      -8.886 -26.305  36.395  1.00  0.00     0.051 A 
ATOM     15  C   UNL     1      -8.746 -27.322  35.443  1.00  0.00     0.157 A 
ATOM     16  C   UNL     1      -7.207 -25.923  34.193  1.00  0.00     0.062 A 
ATOM     17  C   UNL     1      -7.899 -27.131  34.338  1.00  0.00     0.158 A 
BRANCH  15  18
ATOM     18  O   UNL     1      -9.440 -28.521  35.592  1.00  0.00    -0.504 OA
ATOM     19  H   UNL     1     -10.389 -28.545  35.948  1.00  0.00     0.293 HD
ENDBRANCH  15  18
BRANCH  17  20
ATOM     20  O   UNL     1      -7.730 -28.129  33.380  1.00  0.00    -0.504 OA
ATOM     21  H   UNL     1      -7.981 -29.094  33.557  1.00  0.00     0.293 HD
ENDBRANCH  17  20
ENDBRANCH   1  12
BRANCH   6  22
ATOM     22  O   UNL     1      -4.727 -18.838  34.259  1.00  0.00    -0.507 OA
ATOM     23  H   UNL     1      -5.517 -18.719  33.643  1.00  0.00     0.293 HD
ENDBRANCH   6  22
BRANCH   8  24
ATOM     24  O   UNL     1      -1.615 -21.071  37.125  1.00  0.00    -0.508 OA
ATOM     25  H   UNL     1      -0.740 -21.407  36.739  1.00  0.00     0.293 HD
ENDBRANCH   8  24
TORSDOF 5
ENDMDL
MODEL 5
REMARK VINA RESULT:    -5.994      0.923      1.605
REMARK INTER + INTRA:          -7.320
REMARK INTER:                  -7.026
REMARK INTRA:                  -0.294
REMARK UNBOUND:                -0.275
REMARK SMILES O=c1cc(-c2ccc(O)c(O)c2)oc2cc(O)cc(O)c12
REMARK SMILES IDX 4 1 3 2 2 3 1 4 21 5 19 6 18 7 16 8 15 9 14 10 13 11 5 12
REMARK SMILES IDX 6 13 7 14 8 15 12 16 10 17 9 18 11 20 20 22 17 24
REMARK H PARENT 9 19 11 21 20 23 17 25
REMARK Flexibility Score: inf
ROOT
ATOM      1  C   UNL     1      -6.257 -23.129  35.964  1.00  0.00     0.138 A 
ATOM      2  C   UNL     1      -4.874 -23.046  36.174  1.00  0.00     0.100 A 
ATOM      3  C   UNL     1      -4.278 -21.797  36.355  1.00  0.00     0.197 A 
ATOM      4  O   UNL     1      -3.044 -21.760  36.598  1.00  0.00    -0.289 OA
ATOM      5  C   UNL     1      -5.066 -20.624  36.287  1.00  0.00     0.107 A 
ATOM      6  C   UNL     1      -4.562 -19.294  36.422  1.00  0.00     0.134 A 
ATOM      7  C   UNL     1      -5.456 -18.217  36.436  1.00  0.00     0.093 A 
ATOM      8  C   UNL     1      -6.825 -18.412  36.262  1.00  0.00     0.123 A 
ATOM      9  C   UNL     1      -7.324 -19.702  36.079  1.00  0.00     0.094 A 
ATOM     10  C   UNL     1      -6.463 -20.801  36.095  1.00  0.00     0.146 A 
ATOM     11  O   UNL     1      -6.981 -22.015  35.935  1.00  0.00    -0.456 OA
ENDROOT
BRANCH   1  12
ATOM     12  C   UNL     1      -6.943 -24.431  35.762  1.00  0.00     0.021 A 
ATOM     13  C   UNL     1      -6.369 -25.389  34.907  1.00  0.00     0.016 A 
ATOM     14  C   UNL     1      -6.997 -26.619  34.694  1.00  0.00     0.051 A 
ATOM     15  C   UNL     1      -8.215 -26.908  35.321  1.00  0.00     0.157 A 
ATOM     16  C   UNL     1      -8.175 -24.724  36.378  1.00  0.00     0.062 A 
ATOM     17  C   UNL     1      -8.808 -25.954  36.164  1.00  0.00     0.158 A 
BRANCH  15  18
ATOM     18  O   UNL     1      -8.838 -28.136  35.107  1.00  0.00    -0.504 OA
ATOM     19  H   UNL     1      -8.628 -28.704  34.294  1.00  0.00     0.293 HD
ENDBRANCH  15  18
BRANCH  17  20
ATOM     20  O   UNL     1     -10.026 -26.208  36.793  1.00  0.00    -0.504 OA
ATOM     21  H   UNL     1     -10.614 -25.465  37.149  1.00  0.00     0.293 HD
ENDBRANCH  17  20
ENDBRANCH   1  12
BRANCH   6  22
ATOM     22  O   UNL     1      -3.204 -18.977  36.523  1.00  0.00    -0.507 OA
ATOM     23  H   UNL     1      -2.795 -18.094  36.261  1.00  0.00     0.293 HD
ENDBRANCH   6  22
BRANCH   8  24
ATOM     24  O   UNL     1      -7.682 -17.313  36.265  1.00  0.00    -0.508 OA
ATOM     25  H   UNL     1      -8.123 -16.982  35.415  1.00  0.00     0.293 HD
ENDBRANCH   8  24
TORSDOF 5
ENDMDL
MODEL 6
REMARK VINA RESULT:    -5.694      2.307      7.028
REMARK INTER + INTRA:          -6.968
REMARK INTER:                  -6.699
REMARK INTRA:                  -0.269
REMARK UNBOUND:                -0.275
REMARK SMILES O=c1cc(-c2ccc(O)c(O)c2)oc2cc(O)cc(O)c12
REMARK SMILES IDX 4 1 3 2 2 3 1 4 21 5 19 6 18 7 16 8 15 9 14 10 13 11 5 12
REMARK SMILES IDX 6 13 7 14 8 15 12 16 10 17 9 18 11 20 20 22 17 24
REMARK H PARENT 9 19 11 21 20 23 17 25
REMARK Flexibility Score: inf
ROOT
ATOM      1  C   UNL     1      -5.445 -22.127  34.614  1.00  0.00     0.138 A 
ATOM      2  C   UNL     1      -4.932 -23.153  33.808  1.00  0.00     0.100 A 
ATOM      3  C   UNL     1      -5.539 -24.409  33.819  1.00  0.00     0.197 A 
ATOM      4  O   UNL     1      -5.090 -25.291  33.043  1.00  0.00    -0.289 OA
ATOM      5  C   UNL     1      -6.644 -24.649  34.670  1.00  0.00     0.107 A 
ATOM      6  C   UNL     1      -7.323 -25.899  34.791  1.00  0.00     0.134 A 
ATOM      7  C   UNL     1      -8.468 -25.988  35.593  1.00  0.00     0.093 A 
ATOM      8  C   UNL     1      -8.924 -24.892  36.323  1.00  0.00     0.123 A 
ATOM      9  C   UNL     1      -8.239 -23.678  36.252  1.00  0.00     0.094 A 
ATOM     10  C   UNL     1      -7.115 -23.547  35.434  1.00  0.00     0.146 A 
ATOM     11  O   UNL     1      -6.503 -22.369  35.381  1.00  0.00    -0.456 OA
ENDROOT
BRANCH   1  12
ATOM     12  C   UNL     1      -4.835 -20.774  34.644  1.00  0.00     0.021 A 
ATOM     13  C   UNL     1      -4.391 -20.243  35.868  1.00  0.00     0.016 A 
ATOM     14  C   UNL     1      -3.821 -18.969  35.926  1.00  0.00     0.051 A 
ATOM     15  C   UNL     1      -3.695 -18.198  34.764  1.00  0.00     0.157 A 
ATOM     16  C   UNL     1      -4.717 -19.987  33.481  1.00  0.00     0.062 A 
ATOM     17  C   UNL     1      -4.149 -18.709  33.536  1.00  0.00     0.158 A 
BRANCH  15  18
ATOM     18  O   UNL     1      -3.124 -16.928  34.824  1.00  0.00    -0.504 OA
ATOM     19  H   UNL     1      -3.581 -16.120  34.416  1.00  0.00     0.293 HD
ENDBRANCH  15  18
BRANCH  17  20
ATOM     20  O   UNL     1      -4.048 -17.961  32.364  1.00  0.00    -0.504 OA
ATOM     21  H   UNL     1      -4.836 -17.821  31.744  1.00  0.00     0.293 HD
ENDBRANCH  17  20
ENDBRANCH   1  12
BRANCH   6  22
ATOM     22  O   UNL     1      -6.908 -27.080  34.168  1.00  0.00    -0.507 OA
ATOM     23  H   UNL     1      -6.420 -27.130  33.287  1.00  0.00     0.293 HD
ENDBRANCH   6  22
BRANCH   8  24
ATOM     24  O   UNL     1     -10.057 -25.022  37.124  1.00  0.00    -0.508 OA
ATOM     25  H   UNL     1      -9.985 -25.202  38.119  1.00  0.00     0.293 HD
ENDBRANCH   8  24
TORSDOF 5
ENDMDL
MODEL 7
REMARK VINA RESULT:    -5.409      2.234      3.697
REMARK INTER + INTRA:          -6.633
REMARK INTER:                  -6.365
REMARK INTRA:                  -0.268
REMARK UNBOUND:                -0.275
REMARK SMILES O=c1cc(-c2ccc(O)c(O)c2)oc2cc(O)cc(O)c12
REMARK SMILES IDX 4 1 3 2 2 3 1 4 21 5 19 6 18 7 16 8 15 9 14 10 13 11 5 12
REMARK SMILES IDX 6 13 7 14 8 15 12 16 10 17 9 18 11 20 20 22 17 24
REMARK H PARENT 9 19 11 21 20 23 17 25
REMARK Flexibility Score: inf
ROOT
ATOM      1  C   UNL     1      -5.831 -21.731  34.693  1.00  0.00     0.138 A 
ATOM      2  C   UNL     1      -6.710 -20.839  35.322  1.00  0.00     0.100 A 
ATOM      3  C   UNL     1      -6.283 -19.544  35.621  1.00  0.00     0.197 A 
ATOM      4  O   UNL     1      -7.113 -18.751  36.134  1.00  0.00    -0.289 OA
ATOM      5  C   UNL     1      -4.956 -19.155  35.321  1.00  0.00     0.107 A 
ATOM      6  C   UNL     1      -4.398 -17.872  35.611  1.00  0.00     0.134 A 
ATOM      7  C   UNL     1      -3.102 -17.570  35.177  1.00  0.00     0.093 A 
ATOM      8  C   UNL     1      -2.322 -18.519  34.517  1.00  0.00     0.123 A 
ATOM      9  C   UNL     1      -2.838 -19.791  34.273  1.00  0.00     0.094 A 
ATOM     10  C   UNL     1      -4.140 -20.113  34.662  1.00  0.00     0.146 A 
ATOM     11  O   UNL     1      -4.600 -21.331  34.394  1.00  0.00    -0.456 OA
ENDROOT
BRANCH   1  12
ATOM     12  C   UNL     1      -6.232 -23.121  34.356  1.00  0.00     0.021 A 
ATOM     13  C   UNL     1      -6.391 -24.063  35.388  1.00  0.00     0.016 A 
ATOM     14  C   UNL     1      -6.760 -25.379  35.097  1.00  0.00     0.051 A 
ATOM     15  C   UNL     1      -6.965 -25.780  33.772  1.00  0.00     0.157 A 
ATOM     16  C   UNL     1      -6.426 -23.535  33.024  1.00  0.00     0.062 A 
ATOM     17  C   UNL     1      -6.794 -24.853  32.730  1.00  0.00     0.158 A 
BRANCH  15  18
ATOM     18  O   UNL     1      -7.334 -27.093  33.485  1.00  0.00    -0.504 OA
ATOM     19  H   UNL     1      -6.890 -27.619  32.742  1.00  0.00     0.293 HD
ENDBRANCH  15  18
BRANCH  17  20
ATOM     20  O   UNL     1      -6.979 -25.224  31.399  1.00  0.00    -0.504 OA
ATOM     21  H   UNL     1      -7.599 -24.718  30.779  1.00  0.00     0.293 HD
ENDBRANCH  17  20
ENDBRANCH   1  12
BRANCH   6  22
ATOM     22  O   UNL     1      -5.060 -16.875  36.335  1.00  0.00    -0.507 OA
ATOM     23  H   UNL     1      -4.696 -16.419  37.157  1.00  0.00     0.293 HD
ENDBRANCH   6  22
BRANCH   8  24
ATOM     24  O   UNL     1      -1.030 -18.187  34.114  1.00  0.00    -0.508 OA
ATOM     25  H   UNL     1      -0.541 -18.724  33.407  1.00  0.00     0.293 HD
ENDBRANCH   8  24
TORSDOF 5
ENDMDL
MODEL 8
REMARK VINA RESULT:    -5.295      2.847      7.365
REMARK INTER + INTRA:          -6.498
REMARK INTER:                  -6.186
REMARK INTRA:                  -0.312
REMARK UNBOUND:                -0.275
REMARK SMILES O=c1cc(-c2ccc(O)c(O)c2)oc2cc(O)cc(O)c12
REMARK SMILES IDX 4 1 3 2 2 3 1 4 21 5 19 6 18 7 16 8 15 9 14 10 13 11 5 12
REMARK SMILES IDX 6 13 7 14 8 15 12 16 10 17 9 18 11 20 20 22 17 24
REMARK H PARENT 9 19 11 21 20 23 17 25
REMARK Flexibility Score: inf
ROOT
ATOM      1  C   UNL     1      -4.165 -20.816  35.297  1.00  0.00     0.138 A 
ATOM      2  C   UNL     1      -4.015 -21.975  36.070  1.00  0.00     0.100 A 
ATOM      3  C   UNL     1      -5.071 -22.882  36.167  1.00  0.00     0.197 A 
ATOM      4  O   UNL     1      -4.885 -23.940  36.821  1.00  0.00    -0.289 OA
ATOM      5  C   UNL     1      -6.296 -22.607  35.515  1.00  0.00     0.107 A 
ATOM      6  C   UNL     1      -7.454 -23.442  35.570  1.00  0.00     0.134 A 
ATOM      7  C   UNL     1      -8.577 -23.115  34.801  1.00  0.00     0.093 A 
ATOM      8  C   UNL     1      -8.609 -21.956  34.027  1.00  0.00     0.123 A 
ATOM      9  C   UNL     1      -7.504 -21.106  34.005  1.00  0.00     0.094 A 
ATOM     10  C   UNL     1      -6.354 -21.422  34.732  1.00  0.00     0.146 A 
ATOM     11  O   UNL     1      -5.315 -20.596  34.669  1.00  0.00    -0.456 OA
ENDROOT
BRANCH   1  12
ATOM     12  C   UNL     1      -3.076 -19.815  35.163  1.00  0.00     0.021 A 
ATOM     13  C   UNL     1      -2.051 -19.777  36.126  1.00  0.00     0.016 A 
ATOM     14  C   UNL     1      -1.019 -18.841  36.028  1.00  0.00     0.051 A 
ATOM     15  C   UNL     1      -0.998 -17.919  34.974  1.00  0.00     0.157 A 
ATOM     16  C   UNL     1      -3.056 -18.876  34.114  1.00  0.00     0.062 A 
ATOM     17  C   UNL     1      -2.024 -17.935  34.014  1.00  0.00     0.158 A 
BRANCH  15  18
ATOM     18  O   UNL     1       0.034 -16.987  34.878  1.00  0.00    -0.504 OA
ATOM     19  H   UNL     1      -0.136 -16.036  34.571  1.00  0.00     0.293 HD
ENDBRANCH  15  18
BRANCH  17  20
ATOM     20  O   UNL     1      -2.037 -17.023  32.960  1.00  0.00    -0.504 OA
ATOM     21  H   UNL     1      -1.880 -17.306  32.001  1.00  0.00     0.293 HD
ENDBRANCH  17  20
ENDBRANCH   1  12
BRANCH   6  22
ATOM     22  O   UNL     1      -7.560 -24.583  36.372  1.00  0.00    -0.507 OA
ATOM     23  H   UNL     1      -6.792 -25.030  36.847  1.00  0.00     0.293 HD
ENDBRANCH   6  22
BRANCH   8  24
ATOM     24  O   UNL     1      -9.752 -21.654  33.288  1.00  0.00    -0.508 OA
ATOM     25  H   UNL     1     -10.541 -21.173  33.705  1.00  0.00     0.293 HD
ENDBRANCH   8  24
TORSDOF 5
ENDMDL
