MODEL 1
REMARK VINA RESULT:    -0.325      0.000      0.000
REMARK INTER + INTRA:          -0.679
REMARK INTER:                  -0.382
REMARK INTRA:                  -0.297
REMARK UNBOUND:                -0.297
REMARK SMILES O=c1cc(-c2ccc(O)c(O)c2)oc2cc(O)cc(O)c12
REMARK SMILES IDX 4 1 3 2 2 3 1 4 21 5 19 6 18 7 16 8 15 9 14 10 13 11 5 12
REMARK SMILES IDX 6 13 7 14 8 15 12 16 10 17 9 18 11 20 20 22 17 24
REMARK H PARENT 9 19 11 21 20 23 17 25
REMARK Flexibility Score: inf
ROOT
ATOM      1  C   UNL     1      25.779  26.354  47.112  1.00  0.00     0.138 A 
ATOM      2  C   UNL     1      25.401  27.703  47.088  1.00  0.00     0.100 A 
ATOM      3  C   UNL     1      24.047  28.040  47.044  1.00  0.00     0.197 A 
ATOM      4  O   UNL     1      23.741  29.258  46.967  1.00  0.00    -0.289 OA
ATOM      5  C   UNL     1      23.067  27.019  47.061  1.00  0.00     0.107 A 
ATOM      6  C   UNL     1      21.657  27.242  47.054  1.00  0.00     0.134 A 
ATOM      7  C   UNL     1      20.785  26.150  46.972  1.00  0.00     0.093 A 
ATOM      8  C   UNL     1      21.270  24.840  46.957  1.00  0.00     0.123 A 
ATOM      9  C   UNL     1      22.641  24.609  47.014  1.00  0.00     0.094 A 
ATOM     10  C   UNL     1      23.539  25.679  47.061  1.00  0.00     0.146 A 
ATOM     11  O   UNL     1      24.841  25.414  47.096  1.00  0.00    -0.456 OA
ENDROOT
BRANCH   1  12
ATOM     12  C   UNL     1      27.204  25.940  47.162  1.00  0.00     0.021 A 
ATOM     13  C   UNL     1      27.522  24.576  47.287  1.00  0.00     0.016 A 
ATOM     14  C   UNL     1      28.855  24.158  47.330  1.00  0.00     0.051 A 
ATOM     15  C   UNL     1      29.891  25.090  47.238  1.00  0.00     0.157 A 
ATOM     16  C   UNL     1      28.253  26.874  47.056  1.00  0.00     0.062 A 
ATOM     17  C   UNL     1      29.591  26.455  47.097  1.00  0.00     0.158 A 
BRANCH  15  18
ATOM     18  O   UNL     1      31.211  24.643  47.285  1.00  0.00    -0.504 OA
ATOM     19  H   UNL     1      31.460  23.677  47.108  1.00  0.00     0.293 HD
ENDBRANCH  15  18
BRANCH  17  20
ATOM     20  O   UNL     1      30.622  27.388  46.992  1.00  0.00    -0.504 OA
ATOM     21  H   UNL     1      30.829  27.854  46.116  1.00  0.00     0.293 HD
ENDBRANCH  17  20
ENDBRANCH   1  12
BRANCH   6  22
ATOM     22  O   UNL     1      21.064  28.506  47.147  1.00  0.00    -0.507 OA
ATOM     23  H   UNL     1      21.557  29.367  47.323  1.00  0.00     0.293 HD
ENDBRANCH   6  22
BRANCH   8  24
ATOM     24  O   UNL     1      20.394  23.759  46.892  1.00  0.00    -0.508 OA
ATOM     25  H   UNL     1      20.729  22.802  46.901  1.00  0.00     0.293 HD
ENDBRANCH   8  24
TORSDOF 5
ENDMDL
MODEL 2
REMARK VINA RESULT:    -0.293      1.860      2.805
REMARK INTER + INTRA:          -0.642
REMARK INTER:                  -0.330
REMARK INTRA:                  -0.311
REMARK UNBOUND:                -0.297
REMARK SMILES O=c1cc(-c2ccc(O)c(O)c2)oc2cc(O)cc(O)c12
REMARK SMILES IDX 4 1 3 2 2 3 1 4 21 5 19 6 18 7 16 8 15 9 14 10 13 11 5 12
REMARK SMILES IDX 6 13 7 14 8 15 12 16 10 17 9 18 11 20 20 22 17 24
REMARK H PARENT 9 19 11 21 20 23 17 25
REMARK Flexibility Score: inf
ROOT
ATOM      1  C   UNL     1      24.428  28.554  47.311  1.00  0.00     0.138 A 
ATOM      2  C   UNL     1      23.664  29.721  47.183  1.00  0.00     0.100 A 
ATOM      3  C   UNL     1      22.279  29.628  47.045  1.00  0.00     0.197 A 
ATOM      4  O   UNL     1      21.626  30.690  46.877  1.00  0.00    -0.289 OA
ATOM      5  C   UNL     1      21.652  28.358  47.073  1.00  0.00     0.107 A 
ATOM      6  C   UNL     1      20.244  28.142  46.975  1.00  0.00     0.134 A 
ATOM      7  C   UNL     1      19.749  26.833  46.914  1.00  0.00     0.093 A 
ATOM      8  C   UNL     1      20.606  25.733  47.006  1.00  0.00     0.123 A 
ATOM      9  C   UNL     1      21.976  25.933  47.151  1.00  0.00     0.094 A 
ATOM     10  C   UNL     1      22.505  27.227  47.180  1.00  0.00     0.146 A 
ATOM     11  O   UNL     1      23.820  27.372  47.302  1.00  0.00    -0.456 OA
ENDROOT
BRANCH   1  12
ATOM     12  C   UNL     1      25.904  28.595  47.464  1.00  0.00     0.021 A 
ATOM     13  C   UNL     1      26.517  29.766  47.942  1.00  0.00     0.016 A 
ATOM     14  C   UNL     1      27.903  29.829  48.101  1.00  0.00     0.051 A 
ATOM     15  C   UNL     1      28.701  28.724  47.796  1.00  0.00     0.157 A 
ATOM     16  C   UNL     1      26.713  27.478  47.169  1.00  0.00     0.062 A 
ATOM     17  C   UNL     1      28.104  27.541  47.330  1.00  0.00     0.158 A 
BRANCH  15  18
ATOM     18  O   UNL     1      30.083  28.817  47.963  1.00  0.00    -0.504 OA
ATOM     19  H   UNL     1      30.598  28.174  48.552  1.00  0.00     0.293 HD
ENDBRANCH  15  18
BRANCH  17  20
ATOM     20  O   UNL     1      28.894  26.430  47.036  1.00  0.00    -0.504 OA
ATOM     21  H   UNL     1      28.722  25.528  47.463  1.00  0.00     0.293 HD
ENDBRANCH  17  20
ENDBRANCH   1  12
BRANCH   6  22
ATOM     22  O   UNL     1      19.293  29.168  46.958  1.00  0.00    -0.507 OA
ATOM     23  H   UNL     1      19.463  30.110  46.643  1.00  0.00     0.293 HD
ENDBRANCH   6  22
BRANCH   8  24
ATOM     24  O   UNL     1      20.103  24.436  46.960  1.00  0.00    -0.508 OA
ATOM     25  H   UNL     1      19.162  24.242  46.636  1.00  0.00     0.293 HD
ENDBRANCH   8  24
TORSDOF 5
ENDMDL
MODEL 3
REMARK VINA RESULT:    -0.266      1.450      1.760
REMARK INTER + INTRA:          -0.609
REMARK INTER:                  -0.318
REMARK INTRA:                  -0.291
REMARK UNBOUND:                -0.297
REMARK SMILES O=c1cc(-c2ccc(O)c(O)c2)oc2cc(O)cc(O)c12
REMARK SMILES IDX 4 1 3 2 2 3 1 4 21 5 19 6 18 7 16 8 15 9 14 10 13 11 5 12
REMARK SMILES IDX 6 13 7 14 8 15 12 16 10 17 9 18 11 20 20 22 17 24
REMARK H PARENT 9 19 11 21 20 23 17 25
REMARK Flexibility Score: inf
ROOT
ATOM      1  C   UNL     1      25.219  27.319  47.423  1.00  0.00     0.138 A 
ATOM      2  C   UNL     1      24.351  28.415  47.326  1.00  0.00     0.100 A 
ATOM      3  C   UNL     1      22.981  28.199  47.170  1.00  0.00     0.197 A 
ATOM      4  O   UNL     1      22.235  29.202  47.031  1.00  0.00    -0.289 OA
ATOM      5  C   UNL     1      22.475  26.878  47.149  1.00  0.00     0.107 A 
ATOM      6  C   UNL     1      21.094  26.535  47.029  1.00  0.00     0.134 A 
ATOM      7  C   UNL     1      20.723  25.189  46.919  1.00  0.00     0.093 A 
ATOM      8  C   UNL     1      21.677  24.171  46.983  1.00  0.00     0.123 A 
ATOM      9  C   UNL     1      23.021  24.491  47.150  1.00  0.00     0.094 A 
ATOM     10  C   UNL     1      23.427  25.827  47.227  1.00  0.00     0.146 A 
ATOM     11  O   UNL     1      24.723  26.088  47.369  1.00  0.00    -0.456 OA
ENDROOT
BRANCH   1  12
ATOM     12  C   UNL     1      26.684  27.491  47.593  1.00  0.00     0.021 A 
ATOM     13  C   UNL     1      27.440  26.450  48.160  1.00  0.00     0.016 A 
ATOM     14  C   UNL     1      28.821  26.584  48.325  1.00  0.00     0.051 A 
ATOM     15  C   UNL     1      29.472  27.750  47.918  1.00  0.00     0.157 A 
ATOM     16  C   UNL     1      27.348  28.661  47.173  1.00  0.00     0.062 A 
ATOM     17  C   UNL     1      28.734  28.794  47.337  1.00  0.00     0.158 A 
BRANCH  15  18
ATOM     18  O   UNL     1      30.852  27.855  48.097  1.00  0.00    -0.504 OA
ATOM     19  H   UNL     1      31.504  27.248  47.615  1.00  0.00     0.293 HD
ENDBRANCH  15  18
BRANCH  17  20
ATOM     20  O   UNL     1      29.381  29.956  46.917  1.00  0.00    -0.504 OA
ATOM     21  H   UNL     1      29.023  30.876  47.149  1.00  0.00     0.293 HD
ENDBRANCH  17  20
ENDBRANCH   1  12
BRANCH   6  22
ATOM     22  O   UNL     1      20.052  27.469  47.035  1.00  0.00    -0.507 OA
ATOM     23  H   UNL     1      19.087  27.259  47.235  1.00  0.00     0.293 HD
ENDBRANCH   6  22
BRANCH   8  24
ATOM     24  O   UNL     1      21.296  22.835  46.889  1.00  0.00    -0.508 OA
ATOM     25  H   UNL     1      20.922  22.332  47.686  1.00  0.00     0.293 HD
ENDBRANCH   8  24
TORSDOF 5
ENDMDL
MODEL 4
REMARK VINA RESULT:    -0.259      1.202      1.856
REMARK INTER + INTRA:          -0.601
REMARK INTER:                  -0.285
REMARK INTRA:                  -0.316
REMARK UNBOUND:                -0.297
REMARK SMILES O=c1cc(-c2ccc(O)c(O)c2)oc2cc(O)cc(O)c12
REMARK SMILES IDX 4 1 3 2 2 3 1 4 21 5 19 6 18 7 16 8 15 9 14 10 13 11 5 12
REMARK SMILES IDX 6 13 7 14 8 15 12 16 10 17 9 18 11 20 20 22 17 24
REMARK H PARENT 9 19 11 21 20 23 17 25
REMARK Flexibility Score: inf
ROOT
ATOM      1  C   UNL     1      25.587  26.246  47.577  1.00  0.00     0.138 A 
ATOM      2  C   UNL     1      24.811  27.399  47.395  1.00  0.00     0.100 A 
ATOM      3  C   UNL     1      23.438  27.280  47.179  1.00  0.00     0.197 A 
ATOM      4  O   UNL     1      22.779  28.329  46.963  1.00  0.00    -0.289 OA
ATOM      5  C   UNL     1      22.833  26.000  47.182  1.00  0.00     0.107 A 
ATOM      6  C   UNL     1      21.437  25.758  47.006  1.00  0.00     0.134 A 
ATOM      7  C   UNL     1      20.968  24.440  46.929  1.00  0.00     0.093 A 
ATOM      8  C   UNL     1      21.837  23.357  47.081  1.00  0.00     0.123 A 
ATOM      9  C   UNL     1      23.193  23.582  47.303  1.00  0.00     0.094 A 
ATOM     10  C   UNL     1      23.697  24.885  47.349  1.00  0.00     0.146 A 
ATOM     11  O   UNL     1      25.000  25.054  47.545  1.00  0.00    -0.456 OA
ENDROOT
BRANCH   1  12
ATOM     12  C   UNL     1      27.051  26.314  47.814  1.00  0.00     0.021 A 
ATOM     13  C   UNL     1      27.647  27.555  48.101  1.00  0.00     0.016 A 
ATOM     14  C   UNL     1      29.021  27.646  48.334  1.00  0.00     0.051 A 
ATOM     15  C   UNL     1      29.823  26.502  48.294  1.00  0.00     0.157 A 
ATOM     16  C   UNL     1      27.862  25.162  47.787  1.00  0.00     0.062 A 
ATOM     17  C   UNL     1      29.241  25.253  48.023  1.00  0.00     0.158 A 
BRANCH  15  18
ATOM     18  O   UNL     1      31.192  26.625  48.530  1.00  0.00    -0.504 OA
ATOM     19  H   UNL     1      31.644  27.526  48.620  1.00  0.00     0.293 HD
ENDBRANCH  15  18
BRANCH  17  20
ATOM     20  O   UNL     1      30.034  24.106  47.994  1.00  0.00    -0.504 OA
ATOM     21  H   UNL     1      30.696  23.937  47.246  1.00  0.00     0.293 HD
ENDBRANCH  17  20
ENDBRANCH   1  12
BRANCH   6  22
ATOM     22  O   UNL     1      20.471  26.767  46.925  1.00  0.00    -0.507 OA
ATOM     23  H   UNL     1      20.587  27.642  46.439  1.00  0.00     0.293 HD
ENDBRANCH   6  22
BRANCH   8  24
ATOM     24  O   UNL     1      21.359  22.050  47.019  1.00  0.00    -0.508 OA
ATOM     25  H   UNL     1      20.989  21.581  47.838  1.00  0.00     0.293 HD
ENDBRANCH   8  24
TORSDOF 5
ENDMDL
MODEL 5
REMARK VINA RESULT:    -0.246      3.051      5.403
REMARK INTER + INTRA:          -0.586
REMARK INTER:                  -0.289
REMARK INTRA:                  -0.297
REMARK UNBOUND:                -0.297
REMARK SMILES O=c1cc(-c2ccc(O)c(O)c2)oc2cc(O)cc(O)c12
REMARK SMILES IDX 4 1 3 2 2 3 1 4 21 5 19 6 18 7 16 8 15 9 14 10 13 11 5 12
REMARK SMILES IDX 6 13 7 14 8 15 12 16 10 17 9 18 11 20 20 22 17 24
REMARK H PARENT 9 19 11 21 20 23 17 25
REMARK Flexibility Score: inf
ROOT
ATOM      1  C   UNL     1      25.008  28.944  47.260  1.00  0.00     0.138 A 
ATOM      2  C   UNL     1      23.625  28.752  47.139  1.00  0.00     0.100 A 
ATOM      3  C   UNL     1      23.113  27.457  47.049  1.00  0.00     0.197 A 
ATOM      4  O   UNL     1      21.874  27.319  46.886  1.00  0.00    -0.289 OA
ATOM      5  C   UNL     1      23.989  26.347  47.118  1.00  0.00     0.107 A 
ATOM      6  C   UNL     1      23.579  24.980  47.071  1.00  0.00     0.134 A 
ATOM      7  C   UNL     1      24.547  23.969  47.047  1.00  0.00     0.093 A 
ATOM      8  C   UNL     1      25.909  24.272  47.127  1.00  0.00     0.123 A 
ATOM      9  C   UNL     1      26.318  25.599  47.224  1.00  0.00     0.094 A 
ATOM     10  C   UNL     1      25.377  26.634  47.214  1.00  0.00     0.146 A 
ATOM     11  O   UNL     1      25.813  27.887  47.290  1.00  0.00    -0.456 OA
ENDROOT
BRANCH   1  12
ATOM     12  C   UNL     1      25.606  30.299  47.362  1.00  0.00     0.021 A 
ATOM     13  C   UNL     1      27.005  30.435  47.390  1.00  0.00     0.016 A 
ATOM     14  C   UNL     1      27.594  31.699  47.479  1.00  0.00     0.051 A 
ATOM     15  C   UNL     1      26.800  32.847  47.531  1.00  0.00     0.157 A 
ATOM     16  C   UNL     1      24.810  31.461  47.402  1.00  0.00     0.062 A 
ATOM     17  C   UNL     1      25.402  32.730  47.489  1.00  0.00     0.158 A 
BRANCH  15  18
ATOM     18  O   UNL     1      27.417  34.095  47.620  1.00  0.00    -0.504 OA
ATOM     19  H   UNL     1      28.415  34.213  47.492  1.00  0.00     0.293 HD
ENDBRANCH  15  18
BRANCH  17  20
ATOM     20  O   UNL     1      24.604  33.873  47.528  1.00  0.00    -0.504 OA
ATOM     21  H   UNL     1      24.582  34.478  48.341  1.00  0.00     0.293 HD
ENDBRANCH  17  20
ENDBRANCH   1  12
BRANCH   6  22
ATOM     22  O   UNL     1      22.244  24.563  47.069  1.00  0.00    -0.507 OA
ATOM     23  H   UNL     1      21.454  25.147  47.294  1.00  0.00     0.293 HD
ENDBRANCH   6  22
BRANCH   8  24
ATOM     24  O   UNL     1      26.864  23.258  47.119  1.00  0.00    -0.508 OA
ATOM     25  H   UNL     1      27.065  22.712  47.949  1.00  0.00     0.293 HD
ENDBRANCH   8  24
TORSDOF 5
ENDMDL
MODEL 6
REMARK VINA RESULT:    -0.228      2.923      4.977
REMARK INTER + INTRA:          -0.564
REMARK INTER:                  -0.254
REMARK INTRA:                  -0.310
REMARK UNBOUND:                -0.297
REMARK SMILES O=c1cc(-c2ccc(O)c(O)c2)oc2cc(O)cc(O)c12
REMARK SMILES IDX 4 1 3 2 2 3 1 4 21 5 19 6 18 7 16 8 15 9 14 10 13 11 5 12
REMARK SMILES IDX 6 13 7 14 8 15 12 16 10 17 9 18 11 20 20 22 17 24
REMARK H PARENT 9 19 11 21 20 23 17 25
REMARK Flexibility Score: inf
ROOT
ATOM      1  C   UNL     1      24.801  28.675  47.843  1.00  0.00     0.138 A 
ATOM      2  C   UNL     1      25.482  27.455  47.943  1.00  0.00     0.100 A 
ATOM      3  C   UNL     1      24.781  26.258  47.792  1.00  0.00     0.197 A 
ATOM      4  O   UNL     1      25.410  25.179  47.942  1.00  0.00    -0.289 OA
ATOM      5  C   UNL     1      23.396  26.286  47.502  1.00  0.00     0.107 A 
ATOM      6  C   UNL     1      22.583  25.131  47.293  1.00  0.00     0.134 A 
ATOM      7  C   UNL     1      21.202  25.281  47.112  1.00  0.00     0.093 A 
ATOM      8  C   UNL     1      20.614  26.548  47.073  1.00  0.00     0.123 A 
ATOM      9  C   UNL     1      21.405  27.683  47.225  1.00  0.00     0.094 A 
ATOM     10  C   UNL     1      22.780  27.565  47.444  1.00  0.00     0.146 A 
ATOM     11  O   UNL     1      23.495  28.675  47.602  1.00  0.00    -0.456 OA
ENDROOT
BRANCH   1  12
ATOM     12  C   UNL     1      25.498  29.977  47.993  1.00  0.00     0.021 A 
ATOM     13  C   UNL     1      26.719  30.031  48.688  1.00  0.00     0.016 A 
ATOM     14  C   UNL     1      27.399  31.243  48.838  1.00  0.00     0.051 A 
ATOM     15  C   UNL     1      26.880  32.418  48.290  1.00  0.00     0.157 A 
ATOM     16  C   UNL     1      24.985  31.163  47.431  1.00  0.00     0.062 A 
ATOM     17  C   UNL     1      25.669  32.379  47.580  1.00  0.00     0.158 A 
BRANCH  15  18
ATOM     18  O   UNL     1      27.580  33.612  48.457  1.00  0.00    -0.504 OA
ATOM     19  H   UNL     1      28.162  33.786  49.268  1.00  0.00     0.293 HD
ENDBRANCH  15  18
BRANCH  17  20
ATOM     20  O   UNL     1      25.151  33.547  47.019  1.00  0.00    -0.504 OA
ATOM     21  H   UNL     1      24.921  34.352  47.588  1.00  0.00     0.293 HD
ENDBRANCH  17  20
ENDBRANCH   1  12
BRANCH   6  22
ATOM     22  O   UNL     1      23.079  23.825  47.233  1.00  0.00    -0.507 OA
ATOM     23  H   UNL     1      23.380  23.282  48.027  1.00  0.00     0.293 HD
ENDBRANCH   6  22
BRANCH   8  24
ATOM     24  O   UNL     1      19.243  26.688  46.875  1.00  0.00    -0.508 OA
ATOM     25  H   UNL     1      18.688  25.949  46.457  1.00  0.00     0.293 HD
ENDBRANCH   8  24
TORSDOF 5
ENDMDL
MODEL 7
REMARK VINA RESULT:    -0.217      4.122      7.918
REMARK INTER + INTRA:          -0.552
REMARK INTER:                  -0.234
REMARK INTRA:                  -0.318
REMARK UNBOUND:                -0.297
REMARK SMILES O=c1cc(-c2ccc(O)c(O)c2)oc2cc(O)cc(O)c12
REMARK SMILES IDX 4 1 3 2 2 3 1 4 21 5 19 6 18 7 16 8 15 9 14 10 13 11 5 12
REMARK SMILES IDX 6 13 7 14 8 15 12 16 10 17 9 18 11 20 20 22 17 24
REMARK H PARENT 9 19 11 21 20 23 17 25
REMARK Flexibility Score: inf
ROOT
ATOM      1  C   UNL     1      26.323  30.469  46.987  1.00  0.00     0.138 A 
ATOM      2  C   UNL     1      25.998  31.829  47.067  1.00  0.00     0.100 A 
ATOM      3  C   UNL     1      27.016  32.783  47.081  1.00  0.00     0.197 A 
ATOM      4  O   UNL     1      26.695  33.992  47.210  1.00  0.00    -0.289 OA
ATOM      5  C   UNL     1      28.367  32.372  46.977  1.00  0.00     0.107 A 
ATOM      6  C   UNL     1      29.488  33.256  46.947  1.00  0.00     0.134 A 
ATOM      7  C   UNL     1      30.785  32.727  46.942  1.00  0.00     0.093 A 
ATOM      8  C   UNL     1      31.000  31.347  46.907  1.00  0.00     0.123 A 
ATOM      9  C   UNL     1      29.914  30.477  46.885  1.00  0.00     0.094 A 
ATOM     10  C   UNL     1      28.607  30.973  46.926  1.00  0.00     0.146 A 
ATOM     11  O   UNL     1      27.600  30.106  46.922  1.00  0.00    -0.456 OA
ENDROOT
BRANCH   1  12
ATOM     12  C   UNL     1      25.280  29.412  46.965  1.00  0.00     0.021 A 
ATOM     13  C   UNL     1      23.924  29.782  46.943  1.00  0.00     0.016 A 
ATOM     14  C   UNL     1      22.922  28.808  46.916  1.00  0.00     0.051 A 
ATOM     15  C   UNL     1      23.255  27.451  46.901  1.00  0.00     0.157 A 
ATOM     16  C   UNL     1      25.611  28.043  46.937  1.00  0.00     0.062 A 
ATOM     17  C   UNL     1      24.605  27.065  46.908  1.00  0.00     0.158 A 
BRANCH  15  18
ATOM     18  O   UNL     1      22.234  26.502  46.875  1.00  0.00    -0.504 OA
ATOM     19  H   UNL     1      21.410  26.613  46.297  1.00  0.00     0.293 HD
ENDBRANCH  15  18
BRANCH  17  20
ATOM     20  O   UNL     1      24.945  25.713  46.880  1.00  0.00    -0.504 OA
ATOM     21  H   UNL     1      24.261  24.990  47.071  1.00  0.00     0.293 HD
ENDBRANCH  17  20
ENDBRANCH   1  12
BRANCH   6  22
ATOM     22  O   UNL     1      29.385  34.650  46.899  1.00  0.00    -0.507 OA
ATOM     23  H   UNL     1      30.163  35.290  46.933  1.00  0.00     0.293 HD
ENDBRANCH   6  22
BRANCH   8  24
ATOM     24  O   UNL     1      32.294  30.831  46.885  1.00  0.00    -0.508 OA
ATOM     25  H   UNL     1      33.064  31.346  46.474  1.00  0.00     0.293 HD
ENDBRANCH   8  24
TORSDOF 5
ENDMDL
MODEL 8
REMARK VINA RESULT:    -0.214      2.765      6.082
REMARK INTER + INTRA:          -0.548
REMARK INTER:                  -0.231
REMARK INTRA:                  -0.317
REMARK UNBOUND:                -0.297
REMARK SMILES O=c1cc(-c2ccc(O)c(O)c2)oc2cc(O)cc(O)c12
REMARK SMILES IDX 4 1 3 2 2 3 1 4 21 5 19 6 18 7 16 8 15 9 14 10 13 11 5 12
REMARK SMILES IDX 6 13 7 14 8 15 12 16 10 17 9 18 11 20 20 22 17 24
REMARK H PARENT 9 19 11 21 20 23 17 25
REMARK Flexibility Score: inf
ROOT
ATOM      1  C   UNL     1      24.174  28.646  47.707  1.00  0.00     0.138 A 
ATOM      2  C   UNL     1      25.410  28.087  47.353  1.00  0.00     0.100 A 
ATOM      3  C   UNL     1      25.534  26.702  47.241  1.00  0.00     0.197 A 
ATOM      4  O   UNL     1      26.669  26.228  46.975  1.00  0.00    -0.289 OA
ATOM      5  C   UNL     1      24.405  25.874  47.450  1.00  0.00     0.107 A 
ATOM      6  C   UNL     1      24.404  24.452  47.330  1.00  0.00     0.134 A 
ATOM      7  C   UNL     1      23.248  23.732  47.658  1.00  0.00     0.093 A 
ATOM      8  C   UNL     1      22.077  24.387  48.046  1.00  0.00     0.123 A 
ATOM      9  C   UNL     1      22.052  25.777  48.117  1.00  0.00     0.094 A 
ATOM     10  C   UNL     1      23.200  26.522  47.830  1.00  0.00     0.146 A 
ATOM     11  O   UNL     1      23.137  27.846  47.929  1.00  0.00    -0.456 OA
ENDROOT
BRANCH   1  12
ATOM     12  C   UNL     1      23.985  30.112  47.838  1.00  0.00     0.021 A 
ATOM     13  C   UNL     1      25.006  30.981  47.414  1.00  0.00     0.016 A 
ATOM     14  C   UNL     1      24.850  32.365  47.520  1.00  0.00     0.051 A 
ATOM     15  C   UNL     1      23.673  32.907  48.040  1.00  0.00     0.157 A 
ATOM     16  C   UNL     1      22.794  30.664  48.350  1.00  0.00     0.062 A 
ATOM     17  C   UNL     1      22.637  32.054  48.454  1.00  0.00     0.158 A 
BRANCH  15  18
ATOM     18  O   UNL     1      23.547  34.293  48.134  1.00  0.00    -0.504 OA
ATOM     19  H   UNL     1      24.298  34.880  48.475  1.00  0.00     0.293 HD
ENDBRANCH  15  18
BRANCH  17  20
ATOM     20  O   UNL     1      21.454  32.589  48.963  1.00  0.00    -0.504 OA
ATOM     21  H   UNL     1      20.557  32.147  48.797  1.00  0.00     0.293 HD
ENDBRANCH  17  20
ENDBRANCH   1  12
BRANCH   6  22
ATOM     22  O   UNL     1      25.494  23.703  46.875  1.00  0.00    -0.507 OA
ATOM     23  H   UNL     1      26.405  24.077  46.659  1.00  0.00     0.293 HD
ENDBRANCH   6  22
BRANCH   8  24
ATOM     24  O   UNL     1      20.928  23.663  48.355  1.00  0.00    -0.508 OA
ATOM     25  H   UNL     1      20.114  24.108  48.765  1.00  0.00     0.293 HD
ENDBRANCH   8  24
TORSDOF 5
ENDMDL
MODEL 9
REMARK VINA RESULT:    -0.186      1.931      2.871
REMARK INTER + INTRA:          -0.515
REMARK INTER:                  -0.197
REMARK INTRA:                  -0.318
REMARK UNBOUND:                -0.297
REMARK SMILES O=c1cc(-c2ccc(O)c(O)c2)oc2cc(O)cc(O)c12
REMARK SMILES IDX 4 1 3 2 2 3 1 4 21 5 19 6 18 7 16 8 15 9 14 10 13 11 5 12
REMARK SMILES IDX 6 13 7 14 8 15 12 16 10 17 9 18 11 20 20 22 17 24
REMARK H PARENT 9 19 11 21 20 23 17 25
REMARK Flexibility Score: inf
ROOT
ATOM      1  C   UNL     1      26.899  28.184  47.474  1.00  0.00     0.138 A 
ATOM      2  C   UNL     1      25.950  29.201  47.300  1.00  0.00     0.100 A 
ATOM      3  C   UNL     1      24.610  28.868  47.098  1.00  0.00     0.197 A 
ATOM      4  O   UNL     1      23.792  29.800  46.890  1.00  0.00    -0.289 OA
ATOM      5  C   UNL     1      24.213  27.509  47.108  1.00  0.00     0.107 A 
ATOM      6  C   UNL     1      22.871  27.051  46.947  1.00  0.00     0.134 A 
ATOM      7  C   UNL     1      22.614  25.676  46.875  1.00  0.00     0.093 A 
ATOM      8  C   UNL     1      23.643  24.742  47.017  1.00  0.00     0.123 A 
ATOM      9  C   UNL     1      24.949  25.177  47.224  1.00  0.00     0.094 A 
ATOM     10  C   UNL     1      25.243  26.543  47.266  1.00  0.00     0.146 A 
ATOM     11  O   UNL     1      26.506  26.915  47.448  1.00  0.00    -0.456 OA
ENDROOT
BRANCH   1  12
ATOM     12  C   UNL     1      28.336  28.481  47.695  1.00  0.00     0.021 A 
ATOM     13  C   UNL     1      28.764  29.819  47.748  1.00  0.00     0.016 A 
ATOM     14  C   UNL     1      30.111  30.127  47.961  1.00  0.00     0.051 A 
ATOM     15  C   UNL     1      31.050  29.108  48.134  1.00  0.00     0.157 A 
ATOM     16  C   UNL     1      29.286  27.457  47.883  1.00  0.00     0.062 A 
ATOM     17  C   UNL     1      30.637  27.766  48.098  1.00  0.00     0.158 A 
BRANCH  15  18
ATOM     18  O   UNL     1      32.387  29.445  48.343  1.00  0.00    -0.504 OA
ATOM     19  H   UNL     1      32.871  30.117  47.760  1.00  0.00     0.293 HD
ENDBRANCH  15  18
BRANCH  17  20
ATOM     20  O   UNL     1      31.568  26.744  48.283  1.00  0.00    -0.504 OA
ATOM     21  H   UNL     1      32.406  26.681  47.717  1.00  0.00     0.293 HD
ENDBRANCH  17  20
ENDBRANCH   1  12
BRANCH   6  22
ATOM     22  O   UNL     1      21.758  27.896  46.876  1.00  0.00    -0.507 OA
ATOM     23  H   UNL     1      21.188  28.172  47.660  1.00  0.00     0.293 HD
ENDBRANCH   6  22
BRANCH   8  24
ATOM     24  O   UNL     1      23.375  23.377  46.960  1.00  0.00    -0.508 OA
ATOM     25  H   UNL     1      22.915  22.959  46.159  1.00  0.00     0.293 HD
ENDBRANCH   8  24
TORSDOF 5
ENDMDL
