MODEL 1
REMARK VINA RESULT:    -7.569      0.000      0.000
REMARK INTER + INTRA:          -9.312
REMARK INTER:                  -9.118
REMARK INTRA:                  -0.194
REMARK UNBOUND:                -0.194
REMARK SMILES O=c1c(O)c(-c2ccc(O)c(O)c2)oc2cc(O)cc(O)c12
REMARK SMILES IDX 5 1 3 2 2 3 1 4 22 5 20 6 19 7 17 8 16 9 15 10 14 11 6 12
REMARK SMILES IDX 7 13 8 14 9 15 13 16 11 17 10 18 12 20 4 22 21 24 18 26
REMARK H PARENT 10 19 12 21 4 23 21 25 18 27
REMARK Flexibility Score: inf
ROOT
ATOM      1  C   UNL     1      63.649  43.024 -37.468  1.00  0.00     0.180 A 
ATOM      2  C   UNL     1      64.615  43.534 -38.356  1.00  0.00     0.208 A 
ATOM      3  C   UNL     1      65.974  43.426 -38.018  1.00  0.00     0.238 A 
ATOM      4  O   UNL     1      66.847  43.888 -38.801  1.00  0.00    -0.285 OA
ATOM      5  C   UNL     1      66.343  42.793 -36.814  1.00  0.00     0.111 A 
ATOM      6  C   UNL     1      67.688  42.639 -36.400  1.00  0.00     0.134 A 
ATOM      7  C   UNL     1      67.975  41.989 -35.190  1.00  0.00     0.093 A 
ATOM      8  C   UNL     1      66.946  41.491 -34.388  1.00  0.00     0.123 A 
ATOM      9  C   UNL     1      65.615  41.641 -34.790  1.00  0.00     0.094 A 
ATOM     10  C   UNL     1      65.308  42.287 -35.992  1.00  0.00     0.146 A 
ATOM     11  O   UNL     1      64.036  42.420 -36.347  1.00  0.00    -0.452 OA
ENDROOT
BRANCH   1  12
ATOM     12  C   UNL     1      62.198  43.118 -37.746  1.00  0.00     0.025 A 
ATOM     13  C   UNL     1      61.445  41.941 -37.889  1.00  0.00     0.016 A 
ATOM     14  C   UNL     1      60.070  42.006 -38.130  1.00  0.00     0.051 A 
ATOM     15  C   UNL     1      59.426  43.247 -38.215  1.00  0.00     0.157 A 
ATOM     16  C   UNL     1      61.543  44.362 -37.811  1.00  0.00     0.062 A 
ATOM     17  C   UNL     1      60.163  44.426 -38.051  1.00  0.00     0.158 A 
BRANCH  15  18
ATOM     18  O   UNL     1      58.056  43.316 -38.458  1.00  0.00    -0.504 OA
ATOM     19  H   UNL     1      57.442  43.874 -37.876  1.00  0.00     0.293 HD
ENDBRANCH  15  18
BRANCH  17  20
ATOM     20  O   UNL     1      59.517  45.660 -38.122  1.00  0.00    -0.504 OA
ATOM     21  H   UNL     1      58.681  45.789 -38.680  1.00  0.00     0.293 HD
ENDBRANCH  17  20
ENDBRANCH   1  12
BRANCH   2  22
ATOM     22  O   UNL     1      64.225  44.112 -39.568  1.00  0.00    -0.502 OA
ATOM     23  H   UNL     1      63.295  43.995 -39.949  1.00  0.00     0.293 HD
ENDBRANCH   2  22
BRANCH   6  24
ATOM     24  O   UNL     1      68.739  43.124 -37.180  1.00  0.00    -0.507 OA
ATOM     25  H   UNL     1      69.305  43.910 -36.882  1.00  0.00     0.293 HD
ENDBRANCH   6  24
BRANCH   8  26
ATOM     26  O   UNL     1      67.257  40.849 -33.191  1.00  0.00    -0.508 OA
ATOM     27  H   UNL     1      68.211  40.610 -32.951  1.00  0.00     0.293 HD
ENDBRANCH   8  26
TORSDOF 6
ENDMDL
MODEL 2
REMARK VINA RESULT:    -7.450      2.085      7.291
REMARK INTER + INTRA:          -9.168
REMARK INTER:                  -8.856
REMARK INTRA:                  -0.312
REMARK UNBOUND:                -0.194
REMARK SMILES O=c1c(O)c(-c2ccc(O)c(O)c2)oc2cc(O)cc(O)c12
REMARK SMILES IDX 5 1 3 2 2 3 1 4 22 5 20 6 19 7 17 8 16 9 15 10 14 11 6 12
REMARK SMILES IDX 7 13 8 14 9 15 13 16 11 17 10 18 12 20 4 22 21 24 18 26
REMARK H PARENT 10 19 12 21 4 23 21 25 18 27
REMARK Flexibility Score: inf
ROOT
ATOM      1  C   UNL     1      62.938  42.011 -36.374  1.00  0.00     0.180 A 
ATOM      2  C   UNL     1      62.569  40.698 -36.025  1.00  0.00     0.208 A 
ATOM      3  C   UNL     1      61.289  40.236 -36.373  1.00  0.00     0.238 A 
ATOM      4  O   UNL     1      60.945  39.066 -36.057  1.00  0.00    -0.285 OA
ATOM      5  C   UNL     1      60.412  41.084 -37.079  1.00  0.00     0.111 A 
ATOM      6  C   UNL     1      59.108  40.696 -37.471  1.00  0.00     0.134 A 
ATOM      7  C   UNL     1      58.298  41.595 -38.180  1.00  0.00     0.093 A 
ATOM      8  C   UNL     1      58.764  42.871 -38.504  1.00  0.00     0.123 A 
ATOM      9  C   UNL     1      60.050  43.261 -38.119  1.00  0.00     0.094 A 
ATOM     10  C   UNL     1      60.873  42.380 -37.411  1.00  0.00     0.146 A 
ATOM     11  O   UNL     1      62.089  42.777 -37.053  1.00  0.00    -0.452 OA
ENDROOT
BRANCH   1  12
ATOM     12  C   UNL     1      64.262  42.575 -36.025  1.00  0.00     0.025 A 
ATOM     13  C   UNL     1      64.470  43.105 -34.742  1.00  0.00     0.016 A 
ATOM     14  C   UNL     1      65.717  43.624 -34.384  1.00  0.00     0.051 A 
ATOM     15  C   UNL     1      66.778  43.606 -35.298  1.00  0.00     0.157 A 
ATOM     16  C   UNL     1      65.336  42.540 -36.934  1.00  0.00     0.062 A 
ATOM     17  C   UNL     1      66.588  43.060 -36.574  1.00  0.00     0.158 A 
BRANCH  15  18
ATOM     18  O   UNL     1      68.022  44.125 -34.946  1.00  0.00    -0.504 OA
ATOM     19  H   UNL     1      68.840  43.532 -34.868  1.00  0.00     0.293 HD
ENDBRANCH  15  18
BRANCH  17  20
ATOM     20  O   UNL     1      67.649  43.031 -37.477  1.00  0.00    -0.504 OA
ATOM     21  H   UNL     1      68.289  43.811 -37.569  1.00  0.00     0.293 HD
ENDBRANCH  17  20
ENDBRANCH   1  12
BRANCH   2  22
ATOM     22  O   UNL     1      63.476  39.860 -35.369  1.00  0.00    -0.502 OA
ATOM     23  H   UNL     1      63.336  38.860 -35.297  1.00  0.00     0.293 HD
ENDBRANCH   2  22
BRANCH   6  24
ATOM     24  O   UNL     1      58.614  39.427 -37.164  1.00  0.00    -0.507 OA
ATOM     25  H   UNL     1      57.731  39.095 -37.535  1.00  0.00     0.293 HD
ENDBRANCH   6  24
BRANCH   8  26
ATOM     26  O   UNL     1      57.939  43.745 -39.210  1.00  0.00    -0.508 OA
ATOM     27  H   UNL     1      56.939  43.597 -39.271  1.00  0.00     0.293 HD
ENDBRANCH   8  26
TORSDOF 6
ENDMDL
MODEL 3
REMARK VINA RESULT:    -7.257      1.269      2.836
REMARK INTER + INTRA:          -8.936
REMARK INTER:                  -8.637
REMARK INTRA:                  -0.299
REMARK UNBOUND:                -0.194
REMARK SMILES O=c1c(O)c(-c2ccc(O)c(O)c2)oc2cc(O)cc(O)c12
REMARK SMILES IDX 5 1 3 2 2 3 1 4 22 5 20 6 19 7 17 8 16 9 15 10 14 11 6 12
REMARK SMILES IDX 7 13 8 14 9 15 13 16 11 17 10 18 12 20 4 22 21 24 18 26
REMARK H PARENT 10 19 12 21 4 23 21 25 18 27
REMARK Flexibility Score: inf
ROOT
ATOM      1  C   UNL     1      63.512  42.613 -37.101  1.00  0.00     0.180 A 
ATOM      2  C   UNL     1      63.851  42.329 -35.764  1.00  0.00     0.208 A 
ATOM      3  C   UNL     1      65.203  42.155 -35.428  1.00  0.00     0.238 A 
ATOM      4  O   UNL     1      65.517  41.891 -34.236  1.00  0.00    -0.285 OA
ATOM      5  C   UNL     1      66.190  42.287 -36.425  1.00  0.00     0.111 A 
ATOM      6  C   UNL     1      67.574  42.130 -36.169  1.00  0.00     0.134 A 
ATOM      7  C   UNL     1      68.497  42.286 -37.215  1.00  0.00     0.093 A 
ATOM      8  C   UNL     1      68.065  42.594 -38.507  1.00  0.00     0.123 A 
ATOM      9  C   UNL     1      66.700  42.749 -38.765  1.00  0.00     0.094 A 
ATOM     10  C   UNL     1      65.764  42.597 -37.738  1.00  0.00     0.146 A 
ATOM     11  O   UNL     1      64.473  42.744 -38.012  1.00  0.00    -0.452 OA
ENDROOT
BRANCH   1  12
ATOM     12  C   UNL     1      62.108  42.792 -37.537  1.00  0.00     0.025 A 
ATOM     13  C   UNL     1      61.309  41.661 -37.768  1.00  0.00     0.016 A 
ATOM     14  C   UNL     1      59.975  41.806 -38.160  1.00  0.00     0.051 A 
ATOM     15  C   UNL     1      59.418  43.082 -38.310  1.00  0.00     0.157 A 
ATOM     16  C   UNL     1      61.539  44.072 -37.667  1.00  0.00     0.062 A 
ATOM     17  C   UNL     1      60.199  44.217 -38.059  1.00  0.00     0.158 A 
BRANCH  15  18
ATOM     18  O   UNL     1      58.089  43.231 -38.702  1.00  0.00    -0.504 OA
ATOM     19  H   UNL     1      57.835  43.770 -39.521  1.00  0.00     0.293 HD
ENDBRANCH  15  18
BRANCH  17  20
ATOM     20  O   UNL     1      59.638  45.486 -38.194  1.00  0.00    -0.504 OA
ATOM     21  H   UNL     1      60.191  46.326 -38.069  1.00  0.00     0.293 HD
ENDBRANCH  17  20
ENDBRANCH   1  12
BRANCH   2  22
ATOM     22  O   UNL     1      62.856  42.254 -34.785  1.00  0.00    -0.502 OA
ATOM     23  H   UNL     1      63.007  42.565 -33.833  1.00  0.00     0.293 HD
ENDBRANCH   2  22
BRANCH   6  24
ATOM     24  O   UNL     1      68.038  41.823 -34.889  1.00  0.00    -0.507 OA
ATOM     25  H   UNL     1      68.033  40.874 -34.534  1.00  0.00     0.293 HD
ENDBRANCH   6  24
BRANCH   8  26
ATOM     26  O   UNL     1      69.002  42.744 -39.527  1.00  0.00    -0.508 OA
ATOM     27  H   UNL     1      69.880  42.240 -39.518  1.00  0.00     0.293 HD
ENDBRANCH   8  26
TORSDOF 6
ENDMDL
MODEL 4
REMARK VINA RESULT:    -7.244     10.509     12.593
REMARK INTER + INTRA:          -8.920
REMARK INTER:                  -9.280
REMARK INTRA:                   0.360
REMARK UNBOUND:                -0.194
REMARK SMILES O=c1c(O)c(-c2ccc(O)c(O)c2)oc2cc(O)cc(O)c12
REMARK SMILES IDX 5 1 3 2 2 3 1 4 22 5 20 6 19 7 17 8 16 9 15 10 14 11 6 12
REMARK SMILES IDX 7 13 8 14 9 15 13 16 11 17 10 18 12 20 4 22 21 24 18 26
REMARK H PARENT 10 19 12 21 4 23 21 25 18 27
REMARK Flexibility Score: inf
ROOT
ATOM      1  C   UNL     1      68.932  34.987 -43.201  1.00  0.00     0.180 A 
ATOM      2  C   UNL     1      69.137  35.561 -41.932  1.00  0.00     0.208 A 
ATOM      3  C   UNL     1      68.759  36.896 -41.721  1.00  0.00     0.238 A 
ATOM      4  O   UNL     1      68.947  37.424 -40.592  1.00  0.00    -0.285 OA
ATOM      5  C   UNL     1      68.166  37.626 -42.772  1.00  0.00     0.111 A 
ATOM      6  C   UNL     1      67.754  38.974 -42.641  1.00  0.00     0.134 A 
ATOM      7  C   UNL     1      67.163  39.630 -43.732  1.00  0.00     0.093 A 
ATOM      8  C   UNL     1      66.978  38.967 -44.947  1.00  0.00     0.123 A 
ATOM      9  C   UNL     1      67.384  37.635 -45.082  1.00  0.00     0.094 A 
ATOM     10  C   UNL     1      67.976  36.965 -44.007  1.00  0.00     0.146 A 
ATOM     11  O   UNL     1      68.357  35.702 -44.165  1.00  0.00    -0.452 OA
ENDROOT
BRANCH   1  12
ATOM     12  C   UNL     1      69.322  33.591 -43.506  1.00  0.00     0.025 A 
ATOM     13  C   UNL     1      69.351  32.642 -42.473  1.00  0.00     0.016 A 
ATOM     14  C   UNL     1      69.696  31.314 -42.742  1.00  0.00     0.051 A 
ATOM     15  C   UNL     1      70.000  30.914 -44.049  1.00  0.00     0.157 A 
ATOM     16  C   UNL     1      69.607  33.181 -44.822  1.00  0.00     0.062 A 
ATOM     17  C   UNL     1      69.951  31.848 -45.092  1.00  0.00     0.158 A 
BRANCH  15  18
ATOM     18  O   UNL     1      70.346  29.593 -44.321  1.00  0.00    -0.504 OA
ATOM     19  H   UNL     1      69.710  28.966 -44.801  1.00  0.00     0.293 HD
ENDBRANCH  15  18
BRANCH  17  20
ATOM     20  O   UNL     1      70.239  31.445 -46.395  1.00  0.00    -0.504 OA
ATOM     21  H   UNL     1      70.813  30.631 -46.583  1.00  0.00     0.293 HD
ENDBRANCH  17  20
ENDBRANCH   1  12
BRANCH   2  22
ATOM     22  O   UNL     1      69.680  34.800 -40.893  1.00  0.00    -0.502 OA
ATOM     23  H   UNL     1      70.219  33.960 -41.060  1.00  0.00     0.293 HD
ENDBRANCH   2  22
BRANCH   6  24
ATOM     24  O   UNL     1      67.924  39.665 -41.440  1.00  0.00    -0.507 OA
ATOM     25  H   UNL     1      68.845  39.875 -41.073  1.00  0.00     0.293 HD
ENDBRANCH   6  24
BRANCH   8  26
ATOM     26  O   UNL     1      66.388  39.640 -46.014  1.00  0.00    -0.508 OA
ATOM     27  H   UNL     1      65.685  40.354 -45.867  1.00  0.00     0.293 HD
ENDBRANCH   8  26
TORSDOF 6
ENDMDL
MODEL 5
REMARK VINA RESULT:    -7.238     13.854     15.107
REMARK INTER + INTRA:          -8.913
REMARK INTER:                  -8.983
REMARK INTRA:                   0.070
REMARK UNBOUND:                -0.194
REMARK SMILES O=c1c(O)c(-c2ccc(O)c(O)c2)oc2cc(O)cc(O)c12
REMARK SMILES IDX 5 1 3 2 2 3 1 4 22 5 20 6 19 7 17 8 16 9 15 10 14 11 6 12
REMARK SMILES IDX 7 13 8 14 9 15 13 16 11 17 10 18 12 20 4 22 21 24 18 26
REMARK H PARENT 10 19 12 21 4 23 21 25 18 27
REMARK Flexibility Score: inf
ROOT
ATOM      1  C   UNL     1      69.343  32.172 -45.614  1.00  0.00     0.180 A 
ATOM      2  C   UNL     1      69.983  31.310 -44.703  1.00  0.00     0.208 A 
ATOM      3  C   UNL     1      70.272  31.780 -43.412  1.00  0.00     0.238 A 
ATOM      4  O   UNL     1      70.853  31.020 -42.591  1.00  0.00    -0.285 OA
ATOM      5  C   UNL     1      69.900  33.090 -43.048  1.00  0.00     0.111 A 
ATOM      6  C   UNL     1      70.151  33.639 -41.768  1.00  0.00     0.134 A 
ATOM      7  C   UNL     1      69.742  34.950 -41.479  1.00  0.00     0.093 A 
ATOM      8  C   UNL     1      69.088  35.720 -42.444  1.00  0.00     0.123 A 
ATOM      9  C   UNL     1      68.839  35.184 -43.711  1.00  0.00     0.094 A 
ATOM     10  C   UNL     1      69.240  33.880 -44.018  1.00  0.00     0.146 A 
ATOM     11  O   UNL     1      68.995  33.397 -45.231  1.00  0.00    -0.452 OA
ENDROOT
BRANCH   1  12
ATOM     12  C   UNL     1      69.023  31.756 -46.999  1.00  0.00     0.025 A 
ATOM     13  C   UNL     1      67.794  32.131 -47.565  1.00  0.00     0.016 A 
ATOM     14  C   UNL     1      67.479  31.768 -48.877  1.00  0.00     0.051 A 
ATOM     15  C   UNL     1      68.395  31.038 -49.647  1.00  0.00     0.157 A 
ATOM     16  C   UNL     1      69.948  31.042 -47.782  1.00  0.00     0.062 A 
ATOM     17  C   UNL     1      69.633  30.679 -49.100  1.00  0.00     0.158 A 
BRANCH  15  18
ATOM     18  O   UNL     1      68.084  30.672 -50.954  1.00  0.00    -0.504 OA
ATOM     19  H   UNL     1      67.565  29.827 -51.159  1.00  0.00     0.293 HD
ENDBRANCH  15  18
BRANCH  17  20
ATOM     20  O   UNL     1      70.548  29.965 -49.872  1.00  0.00    -0.504 OA
ATOM     21  H   UNL     1      70.454  28.967 -50.019  1.00  0.00     0.293 HD
ENDBRANCH  17  20
ENDBRANCH   1  12
BRANCH   2  22
ATOM     22  O   UNL     1      70.296  29.999 -45.072  1.00  0.00    -0.502 OA
ATOM     23  H   UNL     1      71.036  29.471 -44.626  1.00  0.00     0.293 HD
ENDBRANCH   2  22
BRANCH   6  24
ATOM     24  O   UNL     1      70.801  32.894 -40.782  1.00  0.00    -0.507 OA
ATOM     25  H   UNL     1      71.236  33.336 -39.980  1.00  0.00     0.293 HD
ENDBRANCH   6  24
BRANCH   8  26
ATOM     26  O   UNL     1      68.691  37.018 -42.132  1.00  0.00    -0.508 OA
ATOM     27  H   UNL     1      68.482  37.295 -41.181  1.00  0.00     0.293 HD
ENDBRANCH   8  26
TORSDOF 6
ENDMDL
MODEL 6
REMARK VINA RESULT:    -7.107      2.913      5.413
REMARK INTER + INTRA:          -8.755
REMARK INTER:                  -8.478
REMARK INTRA:                  -0.277
REMARK UNBOUND:                -0.194
REMARK SMILES O=c1c(O)c(-c2ccc(O)c(O)c2)oc2cc(O)cc(O)c12
REMARK SMILES IDX 5 1 3 2 2 3 1 4 22 5 20 6 19 7 17 8 16 9 15 10 14 11 6 12
REMARK SMILES IDX 7 13 8 14 9 15 13 16 11 17 10 18 12 20 4 22 21 24 18 26
REMARK H PARENT 10 19 12 21 4 23 21 25 18 27
REMARK Flexibility Score: inf
ROOT
ATOM      1  C   UNL     1      59.801  41.604 -38.499  1.00  0.00     0.180 A 
ATOM      2  C   UNL     1      59.363  42.931 -38.333  1.00  0.00     0.208 A 
ATOM      3  C   UNL     1      60.304  43.923 -38.014  1.00  0.00     0.238 A 
ATOM      4  O   UNL     1      59.922  45.113 -37.854  1.00  0.00    -0.285 OA
ATOM      5  C   UNL     1      61.664  43.576 -37.886  1.00  0.00     0.111 A 
ATOM      6  C   UNL     1      62.676  44.514 -37.569  1.00  0.00     0.134 A 
ATOM      7  C   UNL     1      64.011  44.091 -37.467  1.00  0.00     0.093 A 
ATOM      8  C   UNL     1      64.352  42.753 -37.675  1.00  0.00     0.123 A 
ATOM      9  C   UNL     1      63.357  41.821 -37.987  1.00  0.00     0.094 A 
ATOM     10  C   UNL     1      62.021  42.222 -38.092  1.00  0.00     0.146 A 
ATOM     11  O   UNL     1      61.095  41.316 -38.384  1.00  0.00    -0.452 OA
ENDROOT
BRANCH   1  12
ATOM     12  C   UNL     1      58.867  40.500 -38.818  1.00  0.00     0.025 A 
ATOM     13  C   UNL     1      58.882  39.933 -40.102  1.00  0.00     0.016 A 
ATOM     14  C   UNL     1      58.023  38.876 -40.419  1.00  0.00     0.051 A 
ATOM     15  C   UNL     1      57.150  38.362 -39.452  1.00  0.00     0.157 A 
ATOM     16  C   UNL     1      58.003  39.967 -37.843  1.00  0.00     0.062 A 
ATOM     17  C   UNL     1      57.143  38.905 -38.161  1.00  0.00     0.158 A 
BRANCH  15  18
ATOM     18  O   UNL     1      56.291  37.311 -39.764  1.00  0.00    -0.504 OA
ATOM     19  H   UNL     1      55.766  36.824 -39.047  1.00  0.00     0.293 HD
ENDBRANCH  15  18
BRANCH  17  20
ATOM     20  O   UNL     1      56.283  38.382 -37.196  1.00  0.00    -0.504 OA
ATOM     21  H   UNL     1      56.635  37.919 -36.367  1.00  0.00     0.293 HD
ENDBRANCH  17  20
ENDBRANCH   1  12
BRANCH   2  22
ATOM     22  O   UNL     1      58.016  43.258 -38.516  1.00  0.00    -0.502 OA
ATOM     23  H   UNL     1      57.722  44.101 -38.994  1.00  0.00     0.293 HD
ENDBRANCH   2  22
BRANCH   6  24
ATOM     24  O   UNL     1      62.368  45.858 -37.357  1.00  0.00    -0.507 OA
ATOM     25  H   UNL     1      61.432  46.158 -37.111  1.00  0.00     0.293 HD
ENDBRANCH   6  24
BRANCH   8  26
ATOM     26  O   UNL     1      65.684  42.359 -37.570  1.00  0.00    -0.508 OA
ATOM     27  H   UNL     1      66.217  42.516 -36.723  1.00  0.00     0.293 HD
ENDBRANCH   8  26
TORSDOF 6
ENDMDL
MODEL 7
REMARK VINA RESULT:    -7.058      3.026      7.168
REMARK INTER + INTRA:          -8.696
REMARK INTER:                  -8.389
REMARK INTRA:                  -0.308
REMARK UNBOUND:                -0.194
REMARK SMILES O=c1c(O)c(-c2ccc(O)c(O)c2)oc2cc(O)cc(O)c12
REMARK SMILES IDX 5 1 3 2 2 3 1 4 22 5 20 6 19 7 17 8 16 9 15 10 14 11 6 12
REMARK SMILES IDX 7 13 8 14 9 15 13 16 11 17 10 18 12 20 4 22 21 24 18 26
REMARK H PARENT 10 19 12 21 4 23 21 25 18 27
REMARK Flexibility Score: inf
ROOT
ATOM      1  C   UNL     1      61.573  42.094 -37.845  1.00  0.00     0.180 A 
ATOM      2  C   UNL     1      61.560  41.370 -36.638  1.00  0.00     0.208 A 
ATOM      3  C   UNL     1      60.665  40.298 -36.497  1.00  0.00     0.238 A 
ATOM      4  O   UNL     1      60.638  39.649 -35.417  1.00  0.00    -0.285 OA
ATOM      5  C   UNL     1      59.814  39.957 -37.568  1.00  0.00     0.111 A 
ATOM      6  C   UNL     1      58.885  38.890 -37.510  1.00  0.00     0.134 A 
ATOM      7  C   UNL     1      58.079  38.607 -38.623  1.00  0.00     0.093 A 
ATOM      8  C   UNL     1      58.182  39.368 -39.789  1.00  0.00     0.123 A 
ATOM      9  C   UNL     1      59.097  40.424 -39.853  1.00  0.00     0.094 A 
ATOM     10  C   UNL     1      59.909  40.722 -38.754  1.00  0.00     0.146 A 
ATOM     11  O   UNL     1      60.765  41.734 -38.839  1.00  0.00    -0.452 OA
ENDROOT
BRANCH   1  12
ATOM     12  C   UNL     1      62.475  43.248 -38.062  1.00  0.00     0.025 A 
ATOM     13  C   UNL     1      62.004  44.547 -37.816  1.00  0.00     0.016 A 
ATOM     14  C   UNL     1      62.845  45.650 -37.994  1.00  0.00     0.051 A 
ATOM     15  C   UNL     1      64.171  45.467 -38.404  1.00  0.00     0.157 A 
ATOM     16  C   UNL     1      63.814  43.067 -38.453  1.00  0.00     0.062 A 
ATOM     17  C   UNL     1      64.658  44.174 -38.630  1.00  0.00     0.158 A 
BRANCH  15  18
ATOM     18  O   UNL     1      65.012  46.564 -38.585  1.00  0.00    -0.504 OA
ATOM     19  H   UNL     1      66.017  46.456 -38.653  1.00  0.00     0.293 HD
ENDBRANCH  15  18
BRANCH  17  20
ATOM     20  O   UNL     1      65.983  43.994 -39.024  1.00  0.00    -0.504 OA
ATOM     21  H   UNL     1      66.235  43.878 -39.999  1.00  0.00     0.293 HD
ENDBRANCH  17  20
ENDBRANCH   1  12
BRANCH   2  22
ATOM     22  O   UNL     1      62.449  41.697 -35.610  1.00  0.00    -0.502 OA
ATOM     23  H   UNL     1      62.155  42.182 -34.771  1.00  0.00     0.293 HD
ENDBRANCH   2  22
BRANCH   6  24
ATOM     24  O   UNL     1      58.759  38.110 -36.359  1.00  0.00    -0.507 OA
ATOM     25  H   UNL     1      59.550  37.620 -35.958  1.00  0.00     0.293 HD
ENDBRANCH   6  24
BRANCH   8  26
ATOM     26  O   UNL     1      57.371  39.066 -40.881  1.00  0.00    -0.508 OA
ATOM     27  H   UNL     1      56.849  38.199 -40.929  1.00  0.00     0.293 HD
ENDBRANCH   8  26
TORSDOF 6
ENDMDL
MODEL 8
REMARK VINA RESULT:    -7.022     11.903     13.681
REMARK INTER + INTRA:          -8.652
REMARK INTER:                  -8.796
REMARK INTRA:                   0.144
REMARK UNBOUND:                -0.194
REMARK SMILES O=c1c(O)c(-c2ccc(O)c(O)c2)oc2cc(O)cc(O)c12
REMARK SMILES IDX 5 1 3 2 2 3 1 4 22 5 20 6 19 7 17 8 16 9 15 10 14 11 6 12
REMARK SMILES IDX 7 13 8 14 9 15 13 16 11 17 10 18 12 20 4 22 21 24 18 26
REMARK H PARENT 10 19 12 21 4 23 21 25 18 27
REMARK Flexibility Score: inf
ROOT
ATOM      1  C   UNL     1      69.192  34.032 -44.513  1.00  0.00     0.180 A 
ATOM      2  C   UNL     1      69.294  33.997 -43.109  1.00  0.00     0.208 A 
ATOM      3  C   UNL     1      68.922  35.133 -42.373  1.00  0.00     0.238 A 
ATOM      4  O   UNL     1      69.019  35.116 -41.116  1.00  0.00    -0.285 OA
ATOM      5  C   UNL     1      68.436  36.271 -43.047  1.00  0.00     0.111 A 
ATOM      6  C   UNL     1      68.037  37.454 -42.380  1.00  0.00     0.134 A 
ATOM      7  C   UNL     1      67.554  38.543 -43.122  1.00  0.00     0.093 A 
ATOM      8  C   UNL     1      67.465  38.473 -44.514  1.00  0.00     0.123 A 
ATOM      9  C   UNL     1      67.859  37.307 -45.179  1.00  0.00     0.094 A 
ATOM     10  C   UNL     1      68.343  36.212 -44.457  1.00  0.00     0.146 A 
ATOM     11  O   UNL     1      68.715  35.119 -45.114  1.00  0.00    -0.452 OA
ENDROOT
BRANCH   1  12
ATOM     12  C   UNL     1      69.583  32.882 -45.360  1.00  0.00     0.025 A 
ATOM     13  C   UNL     1      70.746  32.160 -45.049  1.00  0.00     0.016 A 
ATOM     14  C   UNL     1      71.123  31.058 -45.822  1.00  0.00     0.051 A 
ATOM     15  C   UNL     1      70.334  30.653 -46.906  1.00  0.00     0.157 A 
ATOM     16  C   UNL     1      68.782  32.458 -46.437  1.00  0.00     0.062 A 
ATOM     17  C   UNL     1      69.159  31.352 -47.211  1.00  0.00     0.158 A 
BRANCH  15  18
ATOM     18  O   UNL     1      70.707  29.557 -47.680  1.00  0.00    -0.504 OA
ATOM     19  H   UNL     1      71.564  29.047 -47.499  1.00  0.00     0.293 HD
ENDBRANCH  15  18
BRANCH  17  20
ATOM     20  O   UNL     1      68.368  30.938 -48.282  1.00  0.00    -0.504 OA
ATOM     21  H   UNL     1      68.601  31.180 -49.238  1.00  0.00     0.293 HD
ENDBRANCH  17  20
ENDBRANCH   1  12
BRANCH   2  22
ATOM     22  O   UNL     1      69.731  32.838 -42.462  1.00  0.00    -0.502 OA
ATOM     23  H   UNL     1      70.475  32.258 -42.831  1.00  0.00     0.293 HD
ENDBRANCH   2  22
BRANCH   6  24
ATOM     24  O   UNL     1      68.113  37.556 -40.990  1.00  0.00    -0.507 OA
ATOM     25  H   UNL     1      68.148  38.454 -40.522  1.00  0.00     0.293 HD
ENDBRANCH   6  24
BRANCH   8  26
ATOM     26  O   UNL     1      66.982  39.567 -45.227  1.00  0.00    -0.508 OA
ATOM     27  H   UNL     1      67.426  40.476 -45.169  1.00  0.00     0.293 HD
ENDBRANCH   8  26
TORSDOF 6
ENDMDL
MODEL 9
REMARK VINA RESULT:    -5.209     11.120     12.284
REMARK INTER + INTRA:          -6.468
REMARK INTER:                  -6.681
REMARK INTRA:                   0.213
REMARK UNBOUND:                -0.194
REMARK SMILES O=c1c(O)c(-c2ccc(O)c(O)c2)oc2cc(O)cc(O)c12
REMARK SMILES IDX 5 1 3 2 2 3 1 4 22 5 20 6 19 7 17 8 16 9 15 10 14 11 6 12
REMARK SMILES IDX 7 13 8 14 9 15 13 16 11 17 10 18 12 20 4 22 21 24 18 26
REMARK H PARENT 10 19 12 21 4 23 21 25 18 27
REMARK Flexibility Score: inf
ROOT
ATOM      1  C   UNL     1      68.914  35.131 -43.632  1.00  0.00     0.180 A 
ATOM      2  C   UNL     1      69.220  35.049 -42.261  1.00  0.00     0.208 A 
ATOM      3  C   UNL     1      69.841  33.889 -41.771  1.00  0.00     0.238 A 
ATOM      4  O   UNL     1      70.111  33.801 -40.543  1.00  0.00    -0.285 OA
ATOM      5  C   UNL     1      70.162  32.843 -42.660  1.00  0.00     0.111 A 
ATOM      6  C   UNL     1      70.791  31.643 -42.249  1.00  0.00     0.134 A 
ATOM      7  C   UNL     1      71.086  30.652 -43.198  1.00  0.00     0.093 A 
ATOM      8  C   UNL     1      70.766  30.836 -44.544  1.00  0.00     0.123 A 
ATOM      9  C   UNL     1      70.144  32.019 -44.956  1.00  0.00     0.094 A 
ATOM     10  C   UNL     1      69.840  33.018 -44.026  1.00  0.00     0.146 A 
ATOM     11  O   UNL     1      69.245  34.130 -44.444  1.00  0.00    -0.452 OA
ENDROOT
BRANCH   1  12
ATOM     12  C   UNL     1      68.243  36.313 -44.220  1.00  0.00     0.025 A 
ATOM     13  C   UNL     1      68.495  36.655 -45.558  1.00  0.00     0.016 A 
ATOM     14  C   UNL     1      67.857  37.755 -46.139  1.00  0.00     0.051 A 
ATOM     15  C   UNL     1      66.945  38.516 -45.396  1.00  0.00     0.157 A 
ATOM     16  C   UNL     1      67.310  37.067 -43.484  1.00  0.00     0.062 A 
ATOM     17  C   UNL     1      66.668  38.169 -44.068  1.00  0.00     0.158 A 
BRANCH  15  18
ATOM     18  O   UNL     1      66.308  39.613 -45.972  1.00  0.00    -0.504 OA
ATOM     19  H   UNL     1      65.303  39.728 -45.924  1.00  0.00     0.293 HD
ENDBRANCH  15  18
BRANCH  17  20
ATOM     20  O   UNL     1      65.750  38.920 -43.335  1.00  0.00    -0.504 OA
ATOM     21  H   UNL     1      65.236  38.519 -42.560  1.00  0.00     0.293 HD
ENDBRANCH  17  20
ENDBRANCH   1  12
BRANCH   2  22
ATOM     22  O   UNL     1      68.937  36.121 -41.409  1.00  0.00    -0.502 OA
ATOM     23  H   UNL     1      67.991  36.409 -41.196  1.00  0.00     0.293 HD
ENDBRANCH   2  22
BRANCH   6  24
ATOM     24  O   UNL     1      71.125  31.429 -40.911  1.00  0.00    -0.507 OA
ATOM     25  H   UNL     1      71.022  30.520 -40.475  1.00  0.00     0.293 HD
ENDBRANCH   6  24
BRANCH   8  26
ATOM     26  O   UNL     1      71.071  29.837 -45.466  1.00  0.00    -0.508 OA
ATOM     27  H   UNL     1      71.745  29.111 -45.257  1.00  0.00     0.293 HD
ENDBRANCH   8  26
TORSDOF 6
ENDMDL
