MODEL 1
REMARK VINA RESULT:    -7.908      0.000      0.000
REMARK INTER + INTRA:          -9.807
REMARK INTER:                  -9.526
REMARK INTRA:                  -0.281
REMARK UNBOUND:                -0.281
REMARK SMILES O=c1c(O)c(-c2ccc(O)c(O)c2)oc2cc(O)cc(O)c12
REMARK SMILES IDX 5 1 3 2 2 3 1 4 22 5 20 6 19 7 17 8 16 9 15 10 14 11 6 12
REMARK SMILES IDX 7 13 8 14 9 15 13 16 11 17 10 18 12 20 4 22 21 24 18 26
REMARK H PARENT 10 19 12 21 4 23 21 25 18 27
REMARK Flexibility Score: inf
ROOT
ATOM      1  C   UNL     1     -26.526  11.766  54.454  1.00  0.00     0.180 A 
ATOM      2  C   UNL     1     -26.389  11.258  53.150  1.00  0.00     0.208 A 
ATOM      3  C   UNL     1     -26.563  12.126  52.060  1.00  0.00     0.238 A 
ATOM      4  O   UNL     1     -26.386  11.677  50.897  1.00  0.00    -0.285 OA
ATOM      5  C   UNL     1     -26.889  13.484  52.286  1.00  0.00     0.111 A 
ATOM      6  C   UNL     1     -27.128  14.442  51.255  1.00  0.00     0.134 A 
ATOM      7  C   UNL     1     -27.313  15.789  51.593  1.00  0.00     0.093 A 
ATOM      8  C   UNL     1     -27.335  16.200  52.925  1.00  0.00     0.123 A 
ATOM      9  C   UNL     1     -27.162  15.262  53.943  1.00  0.00     0.094 A 
ATOM     10  C   UNL     1     -26.938  13.918  53.636  1.00  0.00     0.146 A 
ATOM     11  O   UNL     1     -26.767  13.059  54.633  1.00  0.00    -0.452 OA
ENDROOT
BRANCH   1  12
ATOM     12  C   UNL     1     -26.382  10.909  55.653  1.00  0.00     0.025 A 
ATOM     13  C   UNL     1     -27.505  10.467  56.376  1.00  0.00     0.016 A 
ATOM     14  C   UNL     1     -27.343   9.679  57.519  1.00  0.00     0.051 A 
ATOM     15  C   UNL     1     -26.060   9.332  57.962  1.00  0.00     0.157 A 
ATOM     16  C   UNL     1     -25.098  10.575  56.114  1.00  0.00     0.062 A 
ATOM     17  C   UNL     1     -24.936   9.783  57.260  1.00  0.00     0.158 A 
BRANCH  15  18
ATOM     18  O   UNL     1     -25.896   8.545  59.100  1.00  0.00    -0.504 OA
ATOM     19  H   UNL     1     -26.320   7.628  59.175  1.00  0.00     0.293 HD
ENDBRANCH  15  18
BRANCH  17  20
ATOM     20  O   UNL     1     -23.660   9.443  57.707  1.00  0.00    -0.504 OA
ATOM     21  H   UNL     1     -23.512   8.685  58.363  1.00  0.00     0.293 HD
ENDBRANCH  17  20
ENDBRANCH   1  12
BRANCH   2  22
ATOM     22  O   UNL     1     -26.046   9.919  52.950  1.00  0.00    -0.502 OA
ATOM     23  H   UNL     1     -25.964   9.509  52.027  1.00  0.00     0.293 HD
ENDBRANCH   2  22
BRANCH   6  24
ATOM     24  O   UNL     1     -27.219  14.122  49.897  1.00  0.00    -0.507 OA
ATOM     25  H   UNL     1     -26.891  14.708  49.144  1.00  0.00     0.293 HD
ENDBRANCH   6  24
BRANCH   8  26
ATOM     26  O   UNL     1     -27.538  17.546  53.225  1.00  0.00    -0.508 OA
ATOM     27  H   UNL     1     -27.430  18.267  52.522  1.00  0.00     0.293 HD
ENDBRANCH   8  26
TORSDOF 6
ENDMDL
MODEL 2
REMARK VINA RESULT:    -7.816      2.392      3.483
REMARK INTER + INTRA:          -9.696
REMARK INTER:                  -9.376
REMARK INTRA:                  -0.320
REMARK UNBOUND:                -0.281
REMARK SMILES O=c1c(O)c(-c2ccc(O)c(O)c2)oc2cc(O)cc(O)c12
REMARK SMILES IDX 5 1 3 2 2 3 1 4 22 5 20 6 19 7 17 8 16 9 15 10 14 11 6 12
REMARK SMILES IDX 7 13 8 14 9 15 13 16 11 17 10 18 12 20 4 22 21 24 18 26
REMARK H PARENT 10 19 12 21 4 23 21 25 18 27
REMARK Flexibility Score: inf
ROOT
ATOM      1  C   UNL     1     -26.640  13.703  55.038  1.00  0.00     0.180 A 
ATOM      2  C   UNL     1     -26.163  15.025  55.003  1.00  0.00     0.208 A 
ATOM      3  C   UNL     1     -26.889  15.993  54.290  1.00  0.00     0.238 A 
ATOM      4  O   UNL     1     -26.485  17.185  54.308  1.00  0.00    -0.285 OA
ATOM      5  C   UNL     1     -28.073  15.624  53.609  1.00  0.00     0.111 A 
ATOM      6  C   UNL     1     -28.866  16.514  52.823  1.00  0.00     0.134 A 
ATOM      7  C   UNL     1     -30.088  16.072  52.302  1.00  0.00     0.093 A 
ATOM      8  C   UNL     1     -30.514  14.756  52.481  1.00  0.00     0.123 A 
ATOM      9  C   UNL     1     -29.718  13.862  53.196  1.00  0.00     0.094 A 
ATOM     10  C   UNL     1     -28.511  14.283  53.760  1.00  0.00     0.146 A 
ATOM     11  O   UNL     1     -27.789  13.403  54.444  1.00  0.00    -0.452 OA
ENDROOT
BRANCH   1  12
ATOM     12  C   UNL     1     -25.918  12.622  55.747  1.00  0.00     0.025 A 
ATOM     13  C   UNL     1     -26.208  12.304  57.086  1.00  0.00     0.016 A 
ATOM     14  C   UNL     1     -25.496  11.296  57.743  1.00  0.00     0.051 A 
ATOM     15  C   UNL     1     -24.479  10.601  57.077  1.00  0.00     0.157 A 
ATOM     16  C   UNL     1     -24.882  11.936  55.091  1.00  0.00     0.062 A 
ATOM     17  C   UNL     1     -24.170  10.923  55.750  1.00  0.00     0.158 A 
BRANCH  15  18
ATOM     18  O   UNL     1     -23.769   9.594  57.728  1.00  0.00    -0.504 OA
ATOM     19  H   UNL     1     -22.997   9.115  57.279  1.00  0.00     0.293 HD
ENDBRANCH  15  18
BRANCH  17  20
ATOM     20  O   UNL     1     -23.152  10.235  55.091  1.00  0.00    -0.504 OA
ATOM     21  H   UNL     1     -23.215  10.010  54.105  1.00  0.00     0.293 HD
ENDBRANCH  17  20
ENDBRANCH   1  12
BRANCH   2  22
ATOM     22  O   UNL     1     -25.003  15.372  55.700  1.00  0.00    -0.502 OA
ATOM     23  H   UNL     1     -25.025  15.864  56.586  1.00  0.00     0.293 HD
ENDBRANCH   2  22
BRANCH   6  24
ATOM     24  O   UNL     1     -28.488  17.822  52.506  1.00  0.00    -0.507 OA
ATOM     25  H   UNL     1     -28.677  18.630  53.079  1.00  0.00     0.293 HD
ENDBRANCH   6  24
BRANCH   8  26
ATOM     26  O   UNL     1     -31.728  14.347  51.934  1.00  0.00    -0.508 OA
ATOM     27  H   UNL     1     -32.319  13.669  52.402  1.00  0.00     0.293 HD
ENDBRANCH   8  26
TORSDOF 6
ENDMDL
MODEL 3
REMARK VINA RESULT:    -7.794      2.091      7.014
REMARK INTER + INTRA:          -9.670
REMARK INTER:                  -9.386
REMARK INTRA:                  -0.284
REMARK UNBOUND:                -0.281
REMARK SMILES O=c1c(O)c(-c2ccc(O)c(O)c2)oc2cc(O)cc(O)c12
REMARK SMILES IDX 5 1 3 2 2 3 1 4 22 5 20 6 19 7 17 8 16 9 15 10 14 11 6 12
REMARK SMILES IDX 7 13 8 14 9 15 13 16 11 17 10 18 12 20 4 22 21 24 18 26
REMARK H PARENT 10 19 12 21 4 23 21 25 18 27
REMARK Flexibility Score: inf
ROOT
ATOM      1  C   UNL     1     -26.139  13.165  55.205  1.00  0.00     0.180 A 
ATOM      2  C   UNL     1     -24.787  12.778  55.199  1.00  0.00     0.208 A 
ATOM      3  C   UNL     1     -24.405  11.626  55.903  1.00  0.00     0.238 A 
ATOM      4  O   UNL     1     -23.203  11.255  55.849  1.00  0.00    -0.285 OA
ATOM      5  C   UNL     1     -25.375  10.883  56.618  1.00  0.00     0.111 A 
ATOM      6  C   UNL     1     -25.092   9.723  57.400  1.00  0.00     0.134 A 
ATOM      7  C   UNL     1     -26.149   8.992  57.958  1.00  0.00     0.093 A 
ATOM      8  C   UNL     1     -27.470   9.416  57.819  1.00  0.00     0.123 A 
ATOM      9  C   UNL     1     -27.752  10.582  57.108  1.00  0.00     0.094 A 
ATOM     10  C   UNL     1     -26.723  11.313  56.508  1.00  0.00     0.146 A 
ATOM     11  O   UNL     1     -27.035  12.410  55.831  1.00  0.00    -0.452 OA
ENDROOT
BRANCH   1  12
ATOM     12  C   UNL     1     -26.615  14.381  54.506  1.00  0.00     0.025 A 
ATOM     13  C   UNL     1     -26.800  14.398  53.112  1.00  0.00     0.016 A 
ATOM     14  C   UNL     1     -27.227  15.564  52.471  1.00  0.00     0.051 A 
ATOM     15  C   UNL     1     -27.462  16.731  53.210  1.00  0.00     0.157 A 
ATOM     16  C   UNL     1     -26.832  15.559  55.239  1.00  0.00     0.062 A 
ATOM     17  C   UNL     1     -27.262  16.729  54.596  1.00  0.00     0.158 A 
BRANCH  15  18
ATOM     18  O   UNL     1     -27.890  17.894  52.575  1.00  0.00    -0.504 OA
ATOM     19  H   UNL     1     -28.381  17.865  51.688  1.00  0.00     0.293 HD
ENDBRANCH  15  18
BRANCH  17  20
ATOM     20  O   UNL     1     -27.489  17.893  55.328  1.00  0.00    -0.504 OA
ATOM     21  H   UNL     1     -27.657  18.782  54.873  1.00  0.00     0.293 HD
ENDBRANCH  17  20
ENDBRANCH   1  12
BRANCH   2  22
ATOM     22  O   UNL     1     -23.850  13.513  54.468  1.00  0.00    -0.502 OA
ATOM     23  H   UNL     1     -23.218  13.083  53.802  1.00  0.00     0.293 HD
ENDBRANCH   2  22
BRANCH   6  24
ATOM     24  O   UNL     1     -23.801   9.264  57.678  1.00  0.00    -0.507 OA
ATOM     25  H   UNL     1     -23.211   8.775  57.023  1.00  0.00     0.293 HD
ENDBRANCH   6  24
BRANCH   8  26
ATOM     26  O   UNL     1     -28.495   8.673  58.401  1.00  0.00    -0.508 OA
ATOM     27  H   UNL     1     -28.589   8.599  59.407  1.00  0.00     0.293 HD
ENDBRANCH   8  26
TORSDOF 6
ENDMDL
MODEL 4
REMARK VINA RESULT:    -7.775      2.623      7.579
REMARK INTER + INTRA:          -9.646
REMARK INTER:                  -9.445
REMARK INTRA:                  -0.201
REMARK UNBOUND:                -0.281
REMARK SMILES O=c1c(O)c(-c2ccc(O)c(O)c2)oc2cc(O)cc(O)c12
REMARK SMILES IDX 5 1 3 2 2 3 1 4 22 5 20 6 19 7 17 8 16 9 15 10 14 11 6 12
REMARK SMILES IDX 7 13 8 14 9 15 13 16 11 17 10 18 12 20 4 22 21 24 18 26
REMARK H PARENT 10 19 12 21 4 23 21 25 18 27
REMARK Flexibility Score: inf
ROOT
ATOM      1  C   UNL     1     -27.800  14.199  55.783  1.00  0.00     0.180 A 
ATOM      2  C   UNL     1     -27.943  14.688  57.093  1.00  0.00     0.208 A 
ATOM      3  C   UNL     1     -27.352  13.981  58.152  1.00  0.00     0.238 A 
ATOM      4  O   UNL     1     -27.437  14.453  59.316  1.00  0.00    -0.285 OA
ATOM      5  C   UNL     1     -26.639  12.786  57.891  1.00  0.00     0.111 A 
ATOM      6  C   UNL     1     -26.035  11.968  58.892  1.00  0.00     0.134 A 
ATOM      7  C   UNL     1     -25.243  10.878  58.508  1.00  0.00     0.093 A 
ATOM      8  C   UNL     1     -25.089  10.538  57.164  1.00  0.00     0.123 A 
ATOM      9  C   UNL     1     -25.725  11.296  56.180  1.00  0.00     0.094 A 
ATOM     10  C   UNL     1     -26.491  12.411  56.530  1.00  0.00     0.146 A 
ATOM     11  O   UNL     1     -27.070  13.111  55.564  1.00  0.00    -0.452 OA
ENDROOT
BRANCH   1  12
ATOM     12  C   UNL     1     -28.415  14.875  54.618  1.00  0.00     0.025 A 
ATOM     13  C   UNL     1     -29.464  14.278  53.896  1.00  0.00     0.016 A 
ATOM     14  C   UNL     1     -30.013  14.923  52.784  1.00  0.00     0.051 A 
ATOM     15  C   UNL     1     -29.515  16.165  52.371  1.00  0.00     0.157 A 
ATOM     16  C   UNL     1     -27.905  16.110  54.186  1.00  0.00     0.062 A 
ATOM     17  C   UNL     1     -28.457  16.758  53.072  1.00  0.00     0.158 A 
BRANCH  15  18
ATOM     18  O   UNL     1     -30.061  16.812  51.265  1.00  0.00    -0.504 OA
ATOM     19  H   UNL     1     -29.737  16.618  50.324  1.00  0.00     0.293 HD
ENDBRANCH  15  18
BRANCH  17  20
ATOM     20  O   UNL     1     -27.958  17.991  52.654  1.00  0.00    -0.504 OA
ATOM     21  H   UNL     1     -28.432  18.858  52.876  1.00  0.00     0.293 HD
ENDBRANCH  17  20
ENDBRANCH   1  12
BRANCH   2  22
ATOM     22  O   UNL     1     -28.632  15.881  57.327  1.00  0.00    -0.502 OA
ATOM     23  H   UNL     1     -29.230  16.310  56.631  1.00  0.00     0.293 HD
ENDBRANCH   2  22
BRANCH   6  24
ATOM     24  O   UNL     1     -26.201  12.165  60.266  1.00  0.00    -0.507 OA
ATOM     25  H   UNL     1     -25.716  11.647  60.984  1.00  0.00     0.293 HD
ENDBRANCH   6  24
BRANCH   8  26
ATOM     26  O   UNL     1     -24.308   9.438  56.819  1.00  0.00    -0.508 OA
ATOM     27  H   UNL     1     -23.352   9.343  57.145  1.00  0.00     0.293 HD
ENDBRANCH   8  26
TORSDOF 6
ENDMDL
MODEL 5
REMARK VINA RESULT:    -7.703      5.162      6.155
REMARK INTER + INTRA:          -9.560
REMARK INTER:                  -9.232
REMARK INTRA:                  -0.328
REMARK UNBOUND:                -0.281
REMARK SMILES O=c1c(O)c(-c2ccc(O)c(O)c2)oc2cc(O)cc(O)c12
REMARK SMILES IDX 5 1 3 2 2 3 1 4 22 5 20 6 19 7 17 8 16 9 15 10 14 11 6 12
REMARK SMILES IDX 7 13 8 14 9 15 13 16 11 17 10 18 12 20 4 22 21 24 18 26
REMARK H PARENT 10 19 12 21 4 23 21 25 18 27
REMARK Flexibility Score: inf
ROOT
ATOM      1  C   UNL     1     -31.465  11.826  54.789  1.00  0.00     0.180 A 
ATOM      2  C   UNL     1     -30.230  12.007  55.437  1.00  0.00     0.208 A 
ATOM      3  C   UNL     1     -29.398  13.063  55.032  1.00  0.00     0.238 A 
ATOM      4  O   UNL     1     -28.318  13.252  55.652  1.00  0.00    -0.285 OA
ATOM      5  C   UNL     1     -29.802  13.914  53.976  1.00  0.00     0.111 A 
ATOM      6  C   UNL     1     -29.019  14.989  53.458  1.00  0.00     0.134 A 
ATOM      7  C   UNL     1     -29.574  15.848  52.500  1.00  0.00     0.093 A 
ATOM      8  C   UNL     1     -30.855  15.631  51.994  1.00  0.00     0.123 A 
ATOM      9  C   UNL     1     -31.606  14.547  52.450  1.00  0.00     0.094 A 
ATOM     10  C   UNL     1     -31.094  13.694  53.432  1.00  0.00     0.146 A 
ATOM     11  O   UNL     1     -31.845  12.682  53.847  1.00  0.00    -0.452 OA
ENDROOT
BRANCH   1  12
ATOM     12  C   UNL     1     -32.387  10.722  55.142  1.00  0.00     0.025 A 
ATOM     13  C   UNL     1     -32.241   9.440  54.581  1.00  0.00     0.016 A 
ATOM     14  C   UNL     1     -33.137   8.420  54.911  1.00  0.00     0.051 A 
ATOM     15  C   UNL     1     -34.196   8.666  55.793  1.00  0.00     0.157 A 
ATOM     16  C   UNL     1     -33.463  10.970  56.010  1.00  0.00     0.062 A 
ATOM     17  C   UNL     1     -34.361   9.944  56.341  1.00  0.00     0.158 A 
BRANCH  15  18
ATOM     18  O   UNL     1     -35.090   7.651  56.125  1.00  0.00    -0.504 OA
ATOM     19  H   UNL     1     -35.772   7.766  56.866  1.00  0.00     0.293 HD
ENDBRANCH  15  18
BRANCH  17  20
ATOM     20  O   UNL     1     -35.421  10.190  57.213  1.00  0.00    -0.504 OA
ATOM     21  H   UNL     1     -36.305   9.704  57.124  1.00  0.00     0.293 HD
ENDBRANCH  17  20
ENDBRANCH   1  12
BRANCH   2  22
ATOM     22  O   UNL     1     -29.861  11.169  56.491  1.00  0.00    -0.502 OA
ATOM     23  H   UNL     1     -29.114  11.400  57.136  1.00  0.00     0.293 HD
ENDBRANCH   2  22
BRANCH   6  24
ATOM     24  O   UNL     1     -27.694  15.239  53.827  1.00  0.00    -0.507 OA
ATOM     25  H   UNL     1     -27.003  15.668  53.232  1.00  0.00     0.293 HD
ENDBRANCH   6  24
BRANCH   8  26
ATOM     26  O   UNL     1     -31.368  16.495  51.030  1.00  0.00    -0.508 OA
ATOM     27  H   UNL     1     -30.796  17.217  50.608  1.00  0.00     0.293 HD
ENDBRANCH   8  26
TORSDOF 6
ENDMDL
MODEL 6
REMARK VINA RESULT:    -7.587      2.879      7.026
REMARK INTER + INTRA:          -9.420
REMARK INTER:                  -9.301
REMARK INTRA:                  -0.119
REMARK UNBOUND:                -0.281
REMARK SMILES O=c1c(O)c(-c2ccc(O)c(O)c2)oc2cc(O)cc(O)c12
REMARK SMILES IDX 5 1 3 2 2 3 1 4 22 5 20 6 19 7 17 8 16 9 15 10 14 11 6 12
REMARK SMILES IDX 7 13 8 14 9 15 13 16 11 17 10 18 12 20 4 22 21 24 18 26
REMARK H PARENT 10 19 12 21 4 23 21 25 18 27
REMARK Flexibility Score: inf
ROOT
ATOM      1  C   UNL     1     -27.823  13.710  55.468  1.00  0.00     0.180 A 
ATOM      2  C   UNL     1     -27.319  12.422  55.215  1.00  0.00     0.208 A 
ATOM      3  C   UNL     1     -26.713  11.709  56.262  1.00  0.00     0.238 A 
ATOM      4  O   UNL     1     -26.313  10.536  56.042  1.00  0.00    -0.285 OA
ATOM      5  C   UNL     1     -26.604  12.299  57.544  1.00  0.00     0.111 A 
ATOM      6  C   UNL     1     -25.974  11.684  58.667  1.00  0.00     0.134 A 
ATOM      7  C   UNL     1     -26.040  12.304  59.922  1.00  0.00     0.093 A 
ATOM      8  C   UNL     1     -26.655  13.545  60.080  1.00  0.00     0.123 A 
ATOM      9  C   UNL     1     -27.222  14.183  58.976  1.00  0.00     0.094 A 
ATOM     10  C   UNL     1     -27.204  13.573  57.719  1.00  0.00     0.146 A 
ATOM     11  O   UNL     1     -27.765  14.208  56.698  1.00  0.00    -0.452 OA
ENDROOT
BRANCH   1  12
ATOM     12  C   UNL     1     -28.453  14.532  54.410  1.00  0.00     0.025 A 
ATOM     13  C   UNL     1     -29.612  14.100  53.740  1.00  0.00     0.016 A 
ATOM     14  C   UNL     1     -30.175  14.882  52.728  1.00  0.00     0.051 A 
ATOM     15  C   UNL     1     -29.584  16.098  52.363  1.00  0.00     0.157 A 
ATOM     16  C   UNL     1     -27.853  15.742  54.026  1.00  0.00     0.062 A 
ATOM     17  C   UNL     1     -28.419  16.527  53.011  1.00  0.00     0.158 A 
BRANCH  15  18
ATOM     18  O   UNL     1     -30.144  16.881  51.356  1.00  0.00    -0.504 OA
ATOM     19  H   UNL     1     -31.142  16.887  51.182  1.00  0.00     0.293 HD
ENDBRANCH  15  18
BRANCH  17  20
ATOM     20  O   UNL     1     -27.828  17.734  52.641  1.00  0.00    -0.504 OA
ATOM     21  H   UNL     1     -28.251  18.343  51.950  1.00  0.00     0.293 HD
ENDBRANCH  17  20
ENDBRANCH   1  12
BRANCH   2  22
ATOM     22  O   UNL     1     -27.457  11.850  53.947  1.00  0.00    -0.502 OA
ATOM     23  H   UNL     1     -28.125  11.115  53.750  1.00  0.00     0.293 HD
ENDBRANCH   2  22
BRANCH   6  24
ATOM     24  O   UNL     1     -25.253  10.488  58.600  1.00  0.00    -0.507 OA
ATOM     25  H   UNL     1     -25.664   9.574  58.492  1.00  0.00     0.293 HD
ENDBRANCH   6  24
BRANCH   8  26
ATOM     26  O   UNL     1     -26.687  14.140  61.339  1.00  0.00    -0.508 OA
ATOM     27  H   UNL     1     -27.124  13.682  62.130  1.00  0.00     0.293 HD
ENDBRANCH   8  26
TORSDOF 6
ENDMDL
MODEL 7
REMARK VINA RESULT:    -7.556      4.879      7.577
REMARK INTER + INTRA:          -9.383
REMARK INTER:                  -9.062
REMARK INTRA:                  -0.321
REMARK UNBOUND:                -0.281
REMARK SMILES O=c1c(O)c(-c2ccc(O)c(O)c2)oc2cc(O)cc(O)c12
REMARK SMILES IDX 5 1 3 2 2 3 1 4 22 5 20 6 19 7 17 8 16 9 15 10 14 11 6 12
REMARK SMILES IDX 7 13 8 14 9 15 13 16 11 17 10 18 12 20 4 22 21 24 18 26
REMARK H PARENT 10 19 12 21 4 23 21 25 18 27
REMARK Flexibility Score: inf
ROOT
ATOM      1  C   UNL     1     -30.849   9.963  55.611  1.00  0.00     0.180 A 
ATOM      2  C   UNL     1     -30.158  10.957  54.897  1.00  0.00     0.208 A 
ATOM      3  C   UNL     1     -28.812  11.209  55.209  1.00  0.00     0.238 A 
ATOM      4  O   UNL     1     -28.184  12.062  54.529  1.00  0.00    -0.285 OA
ATOM      5  C   UNL     1     -28.179  10.475  56.240  1.00  0.00     0.111 A 
ATOM      6  C   UNL     1     -26.831  10.675  56.667  1.00  0.00     0.134 A 
ATOM      7  C   UNL     1     -26.268   9.803  57.607  1.00  0.00     0.093 A 
ATOM      8  C   UNL     1     -27.022   8.781  58.184  1.00  0.00     0.123 A 
ATOM      9  C   UNL     1     -28.358   8.615  57.819  1.00  0.00     0.094 A 
ATOM     10  C   UNL     1     -28.937   9.446  56.856  1.00  0.00     0.146 A 
ATOM     11  O   UNL     1     -30.208   9.247  56.528  1.00  0.00    -0.452 OA
ENDROOT
BRANCH   1  12
ATOM     12  C   UNL     1     -32.275   9.657  55.358  1.00  0.00     0.025 A 
ATOM     13  C   UNL     1     -33.297  10.245  56.125  1.00  0.00     0.016 A 
ATOM     14  C   UNL     1     -34.635   9.923  55.884  1.00  0.00     0.051 A 
ATOM     15  C   UNL     1     -34.971   9.002  54.884  1.00  0.00     0.157 A 
ATOM     16  C   UNL     1     -32.617   8.718  54.371  1.00  0.00     0.062 A 
ATOM     17  C   UNL     1     -33.960   8.396  54.128  1.00  0.00     0.158 A 
BRANCH  15  18
ATOM     18  O   UNL     1     -36.304   8.680  54.639  1.00  0.00    -0.504 OA
ATOM     19  H   UNL     1     -36.851   9.178  53.947  1.00  0.00     0.293 HD
ENDBRANCH  15  18
BRANCH  17  20
ATOM     20  O   UNL     1     -34.296   7.473  53.139  1.00  0.00    -0.504 OA
ATOM     21  H   UNL     1     -33.775   6.613  53.017  1.00  0.00     0.293 HD
ENDBRANCH  17  20
ENDBRANCH   1  12
BRANCH   2  22
ATOM     22  O   UNL     1     -30.796  11.655  53.868  1.00  0.00    -0.502 OA
ATOM     23  H   UNL     1     -30.368  11.799  52.961  1.00  0.00     0.293 HD
ENDBRANCH   2  22
BRANCH   6  24
ATOM     24  O   UNL     1     -26.019  11.722  56.222  1.00  0.00    -0.507 OA
ATOM     25  H   UNL     1     -25.343  12.207  56.791  1.00  0.00     0.293 HD
ENDBRANCH   6  24
BRANCH   8  26
ATOM     26  O   UNL     1     -26.433   7.943  59.128  1.00  0.00    -0.508 OA
ATOM     27  H   UNL     1     -26.415   8.184  60.112  1.00  0.00     0.293 HD
ENDBRANCH   8  26
TORSDOF 6
ENDMDL
MODEL 8
REMARK VINA RESULT:    -7.498      1.218      2.978
REMARK INTER + INTRA:          -9.313
REMARK INTER:                  -9.007
REMARK INTRA:                  -0.306
REMARK UNBOUND:                -0.281
REMARK SMILES O=c1c(O)c(-c2ccc(O)c(O)c2)oc2cc(O)cc(O)c12
REMARK SMILES IDX 5 1 3 2 2 3 1 4 22 5 20 6 19 7 17 8 16 9 15 10 14 11 6 12
REMARK SMILES IDX 7 13 8 14 9 15 13 16 11 17 10 18 12 20 4 22 21 24 18 26
REMARK H PARENT 10 19 12 21 4 23 21 25 18 27
REMARK Flexibility Score: inf
ROOT
ATOM      1  C   UNL     1     -26.821  12.830  55.384  1.00  0.00     0.180 A 
ATOM      2  C   UNL     1     -27.099  14.086  55.953  1.00  0.00     0.208 A 
ATOM      3  C   UNL     1     -27.305  15.187  55.107  1.00  0.00     0.238 A 
ATOM      4  O   UNL     1     -27.606  16.296  55.621  1.00  0.00    -0.285 OA
ATOM      5  C   UNL     1     -27.215  15.023  53.704  1.00  0.00     0.111 A 
ATOM      6  C   UNL     1     -27.366  16.078  52.754  1.00  0.00     0.134 A 
ATOM      7  C   UNL     1     -27.389  15.777  51.386  1.00  0.00     0.093 A 
ATOM      8  C   UNL     1     -27.199  14.473  50.933  1.00  0.00     0.123 A 
ATOM      9  C   UNL     1     -26.991  13.443  51.850  1.00  0.00     0.094 A 
ATOM     10  C   UNL     1     -27.000  13.706  53.223  1.00  0.00     0.146 A 
ATOM     11  O   UNL     1     -26.810  12.696  54.063  1.00  0.00    -0.452 OA
ENDROOT
BRANCH   1  12
ATOM     12  C   UNL     1     -26.568  11.628  56.211  1.00  0.00     0.025 A 
ATOM     13  C   UNL     1     -27.627  10.866  56.737  1.00  0.00     0.016 A 
ATOM     14  C   UNL     1     -27.364   9.749  57.535  1.00  0.00     0.051 A 
ATOM     15  C   UNL     1     -26.044   9.385  57.828  1.00  0.00     0.157 A 
ATOM     16  C   UNL     1     -25.247  11.271  56.525  1.00  0.00     0.062 A 
ATOM     17  C   UNL     1     -24.984  10.149  57.325  1.00  0.00     0.158 A 
BRANCH  15  18
ATOM     18  O   UNL     1     -25.778   8.271  58.621  1.00  0.00    -0.504 OA
ATOM     19  H   UNL     1     -26.375   7.452  58.602  1.00  0.00     0.293 HD
ENDBRANCH  15  18
BRANCH  17  20
ATOM     20  O   UNL     1     -23.670   9.789  57.624  1.00  0.00    -0.504 OA
ATOM     21  H   UNL     1     -23.320   8.857  57.440  1.00  0.00     0.293 HD
ENDBRANCH  17  20
ENDBRANCH   1  12
BRANCH   2  22
ATOM     22  O   UNL     1     -27.203  14.221  57.340  1.00  0.00    -0.502 OA
ATOM     23  H   UNL     1     -28.036  13.954  57.852  1.00  0.00     0.293 HD
ENDBRANCH   2  22
BRANCH   6  24
ATOM     24  O   UNL     1     -27.470  17.429  53.098  1.00  0.00    -0.507 OA
ATOM     25  H   UNL     1     -27.671  17.773  54.025  1.00  0.00     0.293 HD
ENDBRANCH   6  24
BRANCH   8  26
ATOM     26  O   UNL     1     -27.211  14.213  49.564  1.00  0.00    -0.508 OA
ATOM     27  H   UNL     1     -27.666  14.840  48.910  1.00  0.00     0.293 HD
ENDBRANCH   8  26
TORSDOF 6
ENDMDL
MODEL 9
REMARK VINA RESULT:    -7.456      1.616      7.060
REMARK INTER + INTRA:          -9.263
REMARK INTER:                  -8.988
REMARK INTRA:                  -0.274
REMARK UNBOUND:                -0.281
REMARK SMILES O=c1c(O)c(-c2ccc(O)c(O)c2)oc2cc(O)cc(O)c12
REMARK SMILES IDX 5 1 3 2 2 3 1 4 22 5 20 6 19 7 17 8 16 9 15 10 14 11 6 12
REMARK SMILES IDX 7 13 8 14 9 15 13 16 11 17 10 18 12 20 4 22 21 24 18 26
REMARK H PARENT 10 19 12 21 4 23 21 25 18 27
REMARK Flexibility Score: inf
ROOT
ATOM      1  C   UNL     1     -27.510  12.293  53.986  1.00  0.00     0.180 A 
ATOM      2  C   UNL     1     -28.742  11.913  54.545  1.00  0.00     0.208 A 
ATOM      3  C   UNL     1     -28.751  11.057  55.658  1.00  0.00     0.238 A 
ATOM      4  O   UNL     1     -29.855  10.765  56.186  1.00  0.00    -0.285 OA
ATOM      5  C   UNL     1     -27.529  10.580  56.189  1.00  0.00     0.111 A 
ATOM      6  C   UNL     1     -27.421   9.677  57.289  1.00  0.00     0.134 A 
ATOM      7  C   UNL     1     -26.158   9.375  57.813  1.00  0.00     0.093 A 
ATOM      8  C   UNL     1     -24.997   9.889  57.237  1.00  0.00     0.123 A 
ATOM      9  C   UNL     1     -25.088  10.725  56.123  1.00  0.00     0.094 A 
ATOM     10  C   UNL     1     -26.336  11.074  55.600  1.00  0.00     0.146 A 
ATOM     11  O   UNL     1     -26.379  11.881  54.548  1.00  0.00    -0.452 OA
ENDROOT
BRANCH   1  12
ATOM     12  C   UNL     1     -27.420  13.172  52.798  1.00  0.00     0.025 A 
ATOM     13  C   UNL     1     -27.105  12.654  51.528  1.00  0.00     0.016 A 
ATOM     14  C   UNL     1     -27.001  13.506  50.425  1.00  0.00     0.051 A 
ATOM     15  C   UNL     1     -27.199  14.885  50.575  1.00  0.00     0.157 A 
ATOM     16  C   UNL     1     -27.596  14.557  52.946  1.00  0.00     0.062 A 
ATOM     17  C   UNL     1     -27.494  15.411  51.838  1.00  0.00     0.158 A 
BRANCH  15  18
ATOM     18  O   UNL     1     -27.099  15.736  49.477  1.00  0.00    -0.504 OA
ATOM     19  H   UNL     1     -26.418  15.577  48.743  1.00  0.00     0.293 HD
ENDBRANCH  15  18
BRANCH  17  20
ATOM     20  O   UNL     1     -27.682  16.784  51.988  1.00  0.00    -0.504 OA
ATOM     21  H   UNL     1     -27.369  17.276  52.816  1.00  0.00     0.293 HD
ENDBRANCH  17  20
ENDBRANCH   1  12
BRANCH   2  22
ATOM     22  O   UNL     1     -29.936  12.413  54.019  1.00  0.00    -0.502 OA
ATOM     23  H   UNL     1     -30.310  13.318  54.279  1.00  0.00     0.293 HD
ENDBRANCH   2  22
BRANCH   6  24
ATOM     24  O   UNL     1     -28.512   9.035  57.881  1.00  0.00    -0.507 OA
ATOM     25  H   UNL     1     -28.594   8.037  58.006  1.00  0.00     0.293 HD
ENDBRANCH   6  24
BRANCH   8  26
ATOM     26  O   UNL     1     -23.756   9.554  57.774  1.00  0.00    -0.508 OA
ATOM     27  H   UNL     1     -23.223   8.766  57.425  1.00  0.00     0.293 HD
ENDBRANCH   8  26
TORSDOF 6
ENDMDL
