MODEL 1
REMARK VINA RESULT:    -4.799      0.000      0.000
REMARK INTER + INTRA:         -13.331
REMARK INTER:                 -10.972
REMARK INTRA:                  -2.359
REMARK UNBOUND:                -2.359
REMARK SMILES CCCCCCCCCCCCCCCCCCCCCCCC(=O)[O-]
REMARK SMILES IDX 13 1 14 2 15 3 16 4 17 5 18 6 19 7 20 8 21 9 22 10 23 11
REMARK SMILES IDX 24 12 25 13 26 14 12 15 11 16 10 17 9 18 8 19 7 20 6 21 5 22
REMARK SMILES IDX 4 23 3 24 2 25 1 26
REMARK H PARENT
REMARK Flexibility Score: inf
ROOT
ATOM      1  C   UNL     1       0.068  45.271  10.146  1.00  0.00     0.000 C 
ENDROOT
BRANCH   1   2
ATOM      2  C   UNL     1       0.865  44.490   9.091  1.00  0.00     0.000 C 
BRANCH   2   3
ATOM      3  C   UNL     1       0.402  44.778   7.648  1.00  0.00     0.000 C 
BRANCH   3   4
ATOM      4  C   UNL     1      -0.796  45.738   7.520  1.00  0.00     0.000 C 
BRANCH   4   5
ATOM      5  C   UNL     1      -0.391  47.159   7.100  1.00  0.00     0.000 C 
BRANCH   5   6
ATOM      6  C   UNL     1      -0.270  48.127   8.290  1.00  0.00     0.000 C 
BRANCH   6   7
ATOM      7  C   UNL     1       1.099  48.833   8.382  1.00  0.00     0.000 C 
BRANCH   7   8
ATOM      8  C   UNL     1       2.249  47.931   7.911  1.00  0.00     0.000 C 
BRANCH   8   9
ATOM      9  C   UNL     1       2.907  47.212   9.096  1.00  0.00     0.000 C 
BRANCH   9  10
ATOM     10  C   UNL     1       4.358  46.795   8.801  1.00  0.00     0.006 C 
BRANCH  10  11
ATOM     11  C   UNL     1       5.316  47.178   9.938  1.00  0.00     0.053 C 
BRANCH  11  12
ATOM     12  C   UNL     1       6.527  47.885   9.410  1.00  0.00     0.041 C 
ATOM     13  O   UNL     1       7.666  47.351   9.500  1.00  0.00    -0.550 OA
ATOM     14  O   UNL     1       6.393  49.114   8.769  1.00  0.00    -0.550 OA
ENDBRANCH  11  12
ENDBRANCH  10  11
ENDBRANCH   9  10
ENDBRANCH   8   9
ENDBRANCH   7   8
ENDBRANCH   6   7
ENDBRANCH   5   6
ENDBRANCH   4   5
ENDBRANCH   3   4
ENDBRANCH   2   3
ENDBRANCH   1   2
BRANCH   1  15
ATOM     15  C   UNL     1       0.267  44.672  11.543  1.00  0.00     0.000 C 
BRANCH  15  16
ATOM     16  C   UNL     1       1.525  43.789  11.588  1.00  0.00     0.000 C 
BRANCH  16  17
ATOM     17  C   UNL     1       2.776  44.550  12.059  1.00  0.00     0.000 C 
BRANCH  17  18
ATOM     18  C   UNL     1       4.115  43.933  11.616  1.00  0.00    -0.000 C 
BRANCH  18  19
ATOM     19  C   UNL     1       3.952  42.513  11.045  1.00  0.00    -0.000 C 
BRANCH  19  20
ATOM     20  C   UNL     1       4.257  41.419  12.081  1.00  0.00    -0.000 C 
BRANCH  20  21
ATOM     21  C   UNL     1       3.044  40.509  12.354  1.00  0.00    -0.000 C 
BRANCH  21  22
ATOM     22  C   UNL     1       3.444  39.130  12.913  1.00  0.00    -0.000 C 
BRANCH  22  23
ATOM     23  C   UNL     1       2.946  37.927  12.091  1.00  0.00    -0.000 C 
BRANCH  23  24
ATOM     24  C   UNL     1       1.551  37.442  12.526  1.00  0.00    -0.000 C 
BRANCH  24  25
ATOM     25  C   UNL     1       1.121  36.154  11.805  1.00  0.00    -0.003 C 
ATOM     26  C   UNL     1      -0.385  35.902  11.890  1.00  0.00     0.004 C 
ENDBRANCH  24  25
ENDBRANCH  23  24
ENDBRANCH  22  23
ENDBRANCH  21  22
ENDBRANCH  20  21
ENDBRANCH  19  20
ENDBRANCH  18  19
ENDBRANCH  17  18
ENDBRANCH  16  17
ENDBRANCH  15  16
ENDBRANCH   1  15
TORSDOF 22
ENDMDL
MODEL 2
REMARK VINA RESULT:    -4.685      3.217      8.318
REMARK INTER + INTRA:         -13.070
REMARK INTER:                 -10.372
REMARK INTRA:                  -2.698
REMARK UNBOUND:                -2.359
REMARK SMILES CCCCCCCCCCCCCCCCCCCCCCCC(=O)[O-]
REMARK SMILES IDX 13 1 14 2 15 3 16 4 17 5 18 6 19 7 20 8 21 9 22 10 23 11
REMARK SMILES IDX 24 12 25 13 26 14 12 15 11 16 10 17 9 18 8 19 7 20 6 21 5 22
REMARK SMILES IDX 4 23 3 24 2 25 1 26
REMARK H PARENT
REMARK Flexibility Score: inf
ROOT
ATOM      1  C   UNL     1       1.173  44.842   9.561  1.00  0.00     0.000 C 
ENDROOT
BRANCH   1   2
ATOM      2  C   UNL     1       1.361  43.684   8.571  1.00  0.00     0.000 C 
BRANCH   2   3
ATOM      3  C   UNL     1       2.591  42.810   8.889  1.00  0.00     0.000 C 
BRANCH   3   4
ATOM      4  C   UNL     1       3.875  43.585   9.242  1.00  0.00     0.000 C 
BRANCH   4   5
ATOM      5  C   UNL     1       4.447  43.212  10.619  1.00  0.00     0.000 C 
BRANCH   5   6
ATOM      6  C   UNL     1       4.212  44.299  11.682  1.00  0.00     0.000 C 
BRANCH   6   7
ATOM      7  C   UNL     1       3.279  43.859  12.829  1.00  0.00     0.000 C 
BRANCH   7   8
ATOM      8  C   UNL     1       1.821  43.711  12.365  1.00  0.00     0.000 C 
BRANCH   8   9
ATOM      9  C   UNL     1       1.305  42.288  12.616  1.00  0.00     0.000 C 
BRANCH   9  10
ATOM     10  C   UNL     1       2.352  41.213  12.275  1.00  0.00     0.006 C 
BRANCH  10  11
ATOM     11  C   UNL     1       2.119  39.908  13.049  1.00  0.00     0.053 C 
BRANCH  11  12
ATOM     12  C   UNL     1       3.196  38.907  12.759  1.00  0.00     0.041 C 
ATOM     13  O   UNL     1       2.915  37.816  12.193  1.00  0.00    -0.550 OA
ATOM     14  O   UNL     1       4.523  39.201  13.065  1.00  0.00    -0.550 OA
ENDBRANCH  11  12
ENDBRANCH  10  11
ENDBRANCH   9  10
ENDBRANCH   8   9
ENDBRANCH   7   8
ENDBRANCH   6   7
ENDBRANCH   5   6
ENDBRANCH   4   5
ENDBRANCH   3   4
ENDBRANCH   2   3
ENDBRANCH   1   2
BRANCH   1  15
ATOM     15  C   UNL     1      -0.110  45.625   9.258  1.00  0.00     0.000 C 
BRANCH  15  16
ATOM     16  C   UNL     1      -0.333  45.747   7.741  1.00  0.00     0.000 C 
BRANCH  16  17
ATOM     17  C   UNL     1      -0.319  47.204   7.248  1.00  0.00     0.000 C 
BRANCH  17  18
ATOM     18  C   UNL     1      -0.175  48.263   8.356  1.00  0.00    -0.000 C 
BRANCH  18  19
ATOM     19  C   UNL     1       1.284  48.455   8.805  1.00  0.00    -0.000 C 
BRANCH  19  20
ATOM     20  C   UNL     1       2.273  48.447   7.627  1.00  0.00    -0.000 C 
BRANCH  20  21
ATOM     21  C   UNL     1       3.549  47.640   7.933  1.00  0.00    -0.000 C 
BRANCH  21  22
ATOM     22  C   UNL     1       3.663  47.241   9.417  1.00  0.00    -0.000 C 
BRANCH  22  23
ATOM     23  C   UNL     1       5.092  46.926   9.896  1.00  0.00    -0.000 C 
BRANCH  23  24
ATOM     24  C   UNL     1       6.175  47.576   9.017  1.00  0.00    -0.000 C 
BRANCH  24  25
ATOM     25  C   UNL     1       6.716  48.885   9.616  1.00  0.00    -0.003 C 
ATOM     26  C   UNL     1       6.452  50.098   8.725  1.00  0.00     0.004 C 
ENDBRANCH  24  25
ENDBRANCH  23  24
ENDBRANCH  22  23
ENDBRANCH  21  22
ENDBRANCH  20  21
ENDBRANCH  19  20
ENDBRANCH  18  19
ENDBRANCH  17  18
ENDBRANCH  16  17
ENDBRANCH  15  16
ENDBRANCH   1  15
TORSDOF 22
ENDMDL
MODEL 3
REMARK VINA RESULT:    -4.659      1.706      2.370
REMARK INTER + INTRA:         -13.011
REMARK INTER:                 -10.385
REMARK INTRA:                  -2.625
REMARK UNBOUND:                -2.359
REMARK SMILES CCCCCCCCCCCCCCCCCCCCCCCC(=O)[O-]
REMARK SMILES IDX 13 1 14 2 15 3 16 4 17 5 18 6 19 7 20 8 21 9 22 10 23 11
REMARK SMILES IDX 24 12 25 13 26 14 12 15 11 16 10 17 9 18 8 19 7 20 6 21 5 22
REMARK SMILES IDX 4 23 3 24 2 25 1 26
REMARK H PARENT
REMARK Flexibility Score: inf
ROOT
ATOM      1  C   UNL     1       0.757  44.793   9.857  1.00  0.00     0.000 C 
ENDROOT
BRANCH   1   2
ATOM      2  C   UNL     1       0.991  44.214   8.454  1.00  0.00     0.000 C 
BRANCH   2   3
ATOM      3  C   UNL     1       0.154  44.913   7.364  1.00  0.00     0.000 C 
BRANCH   3   4
ATOM      4  C   UNL     1      -0.929  45.879   7.883  1.00  0.00     0.000 C 
BRANCH   4   5
ATOM      5  C   UNL     1      -0.971  47.209   7.114  1.00  0.00     0.000 C 
BRANCH   5   6
ATOM      6  C   UNL     1      -0.815  48.436   8.028  1.00  0.00     0.000 C 
BRANCH   6   7
ATOM      7  C   UNL     1       0.555  48.517   8.735  1.00  0.00     0.000 C 
BRANCH   7   8
ATOM      8  C   UNL     1       1.707  48.732   7.742  1.00  0.00     0.000 C 
BRANCH   8   9
ATOM      9  C   UNL     1       2.760  47.622   7.870  1.00  0.00     0.000 C 
BRANCH   9  10
ATOM     10  C   UNL     1       4.196  48.172   7.883  1.00  0.00     0.006 C 
BRANCH  10  11
ATOM     11  C   UNL     1       5.020  47.619   9.054  1.00  0.00     0.053 C 
BRANCH  11  12
ATOM     12  C   UNL     1       6.361  48.284   9.134  1.00  0.00     0.041 C 
ATOM     13  O   UNL     1       6.476  49.516   8.895  1.00  0.00    -0.550 OA
ATOM     14  O   UNL     1       7.480  47.552   9.528  1.00  0.00    -0.550 OA
ENDBRANCH  11  12
ENDBRANCH  10  11
ENDBRANCH   9  10
ENDBRANCH   8   9
ENDBRANCH   7   8
ENDBRANCH   6   7
ENDBRANCH   5   6
ENDBRANCH   4   5
ENDBRANCH   3   4
ENDBRANCH   2   3
ENDBRANCH   1   2
BRANCH   1  15
ATOM     15  C   UNL     1       2.006  45.519  10.371  1.00  0.00     0.000 C 
BRANCH  15  16
ATOM     16  C   UNL     1       3.263  44.656  10.172  1.00  0.00     0.000 C 
BRANCH  16  17
ATOM     17  C   UNL     1       4.288  44.819  11.307  1.00  0.00     0.000 C 
BRANCH  17  18
ATOM     18  C   UNL     1       4.170  43.784  12.441  1.00  0.00    -0.000 C 
BRANCH  18  19
ATOM     19  C   UNL     1       3.691  42.410  11.941  1.00  0.00    -0.000 C 
BRANCH  19  20
ATOM     20  C   UNL     1       4.676  41.279  12.279  1.00  0.00    -0.000 C 
BRANCH  20  21
ATOM     21  C   UNL     1       3.992  40.091  12.982  1.00  0.00    -0.000 C 
BRANCH  21  22
ATOM     22  C   UNL     1       2.540  39.874  12.513  1.00  0.00    -0.000 C 
BRANCH  22  23
ATOM     23  C   UNL     1       1.488  39.881  13.637  1.00  0.00    -0.000 C 
BRANCH  23  24
ATOM     24  C   UNL     1       0.583  41.126  13.602  1.00  0.00    -0.000 C 
BRANCH  24  25
ATOM     25  C   UNL     1      -0.565  41.054  14.622  1.00  0.00    -0.003 C 
ATOM     26  C   UNL     1      -0.137  41.478  16.027  1.00  0.00     0.004 C 
ENDBRANCH  24  25
ENDBRANCH  23  24
ENDBRANCH  22  23
ENDBRANCH  21  22
ENDBRANCH  20  21
ENDBRANCH  19  20
ENDBRANCH  18  19
ENDBRANCH  17  18
ENDBRANCH  16  17
ENDBRANCH  15  16
ENDBRANCH   1  15
TORSDOF 22
ENDMDL
MODEL 4
REMARK VINA RESULT:    -4.628      3.463      8.699
REMARK INTER + INTRA:         -12.940
REMARK INTER:                 -10.474
REMARK INTRA:                  -2.466
REMARK UNBOUND:                -2.359
REMARK SMILES CCCCCCCCCCCCCCCCCCCCCCCC(=O)[O-]
REMARK SMILES IDX 13 1 14 2 15 3 16 4 17 5 18 6 19 7 20 8 21 9 22 10 23 11
REMARK SMILES IDX 24 12 25 13 26 14 12 15 11 16 10 17 9 18 8 19 7 20 6 21 5 22
REMARK SMILES IDX 4 23 3 24 2 25 1 26
REMARK H PARENT
REMARK Flexibility Score: inf
ROOT
ATOM      1  C   UNL     1       0.360  45.038   7.875  1.00  0.00     0.000 C 
ENDROOT
BRANCH   1   2
ATOM      2  C   UNL     1       0.675  45.205   9.368  1.00  0.00     0.000 C 
BRANCH   2   3
ATOM      3  C   UNL     1       1.473  44.022   9.954  1.00  0.00     0.000 C 
BRANCH   3   4
ATOM      4  C   UNL     1       1.145  43.666  11.416  1.00  0.00     0.000 C 
BRANCH   4   5
ATOM      5  C   UNL     1       2.332  43.877  12.370  1.00  0.00     0.000 C 
BRANCH   5   6
ATOM      6  C   UNL     1       3.686  43.922  11.643  1.00  0.00     0.000 C 
BRANCH   6   7
ATOM      7  C   UNL     1       4.274  42.529  11.334  1.00  0.00     0.000 C 
BRANCH   7   8
ATOM      8  C   UNL     1       3.607  41.421  12.163  1.00  0.00     0.000 C 
BRANCH   8   9
ATOM      9  C   UNL     1       4.653  40.456  12.737  1.00  0.00     0.000 C 
BRANCH   9  10
ATOM     10  C   UNL     1       4.026  39.156  13.268  1.00  0.00     0.006 C 
BRANCH  10  11
ATOM     11  C   UNL     1       3.595  38.212  12.136  1.00  0.00     0.053 C 
BRANCH  11  12
ATOM     12  C   UNL     1       2.172  37.774  12.308  1.00  0.00     0.041 C 
ATOM     13  O   UNL     1       1.789  36.664  11.851  1.00  0.00    -0.550 OA
ATOM     14  O   UNL     1       1.279  38.570  13.022  1.00  0.00    -0.550 OA
ENDBRANCH  11  12
ENDBRANCH  10  11
ENDBRANCH   9  10
ENDBRANCH   8   9
ENDBRANCH   7   8
ENDBRANCH   6   7
ENDBRANCH   5   6
ENDBRANCH   4   5
ENDBRANCH   3   4
ENDBRANCH   2   3
ENDBRANCH   1   2
BRANCH   1  15
ATOM     15  C   UNL     1      -0.677  46.068   7.411  1.00  0.00     0.000 C 
BRANCH  15  16
ATOM     16  C   UNL     1      -1.001  47.066   8.535  1.00  0.00     0.000 C 
BRANCH  16  17
ATOM     17  C   UNL     1      -0.495  48.488   8.239  1.00  0.00     0.000 C 
BRANCH  17  18
ATOM     18  C   UNL     1       0.958  48.762   8.667  1.00  0.00    -0.000 C 
BRANCH  18  19
ATOM     19  C   UNL     1       1.924  48.832   7.471  1.00  0.00    -0.000 C 
BRANCH  19  20
ATOM     20  C   UNL     1       3.214  48.028   7.703  1.00  0.00    -0.000 C 
BRANCH  20  21
ATOM     21  C   UNL     1       3.237  47.329   9.075  1.00  0.00    -0.000 C 
BRANCH  21  22
ATOM     22  C   UNL     1       4.309  46.227   9.167  1.00  0.00    -0.000 C 
BRANCH  22  23
ATOM     23  C   UNL     1       5.568  46.612   9.966  1.00  0.00    -0.000 C 
BRANCH  23  24
ATOM     24  C   UNL     1       6.524  47.523   9.175  1.00  0.00    -0.000 C 
BRANCH  24  25
ATOM     25  C   UNL     1       6.608  48.942   9.760  1.00  0.00    -0.003 C 
ATOM     26  C   UNL     1       6.531  50.030   8.688  1.00  0.00     0.004 C 
ENDBRANCH  24  25
ENDBRANCH  23  24
ENDBRANCH  22  23
ENDBRANCH  21  22
ENDBRANCH  20  21
ENDBRANCH  19  20
ENDBRANCH  18  19
ENDBRANCH  17  18
ENDBRANCH  16  17
ENDBRANCH  15  16
ENDBRANCH   1  15
TORSDOF 22
ENDMDL
MODEL 5
REMARK VINA RESULT:    -4.540      1.596      2.925
REMARK INTER + INTRA:         -12.738
REMARK INTER:                  -9.986
REMARK INTRA:                  -2.752
REMARK UNBOUND:                -2.359
REMARK SMILES CCCCCCCCCCCCCCCCCCCCCCCC(=O)[O-]
REMARK SMILES IDX 13 1 14 2 15 3 16 4 17 5 18 6 19 7 20 8 21 9 22 10 23 11
REMARK SMILES IDX 24 12 25 13 26 14 12 15 11 16 10 17 9 18 8 19 7 20 6 21 5 22
REMARK SMILES IDX 4 23 3 24 2 25 1 26
REMARK H PARENT
REMARK Flexibility Score: inf
ROOT
ATOM      1  C   UNL     1       3.597  43.822   9.313  1.00  0.00     0.000 C 
ENDROOT
BRANCH   1   2
ATOM      2  C   UNL     1       2.268  43.227   8.827  1.00  0.00     0.000 C 
BRANCH   2   3
ATOM      3  C   UNL     1       1.104  44.238   8.862  1.00  0.00     0.000 C 
BRANCH   3   4
ATOM      4  C   UNL     1       0.393  44.470   7.515  1.00  0.00     0.000 C 
BRANCH   4   5
ATOM      5  C   UNL     1      -0.380  45.797   7.460  1.00  0.00     0.000 C 
BRANCH   5   6
ATOM      6  C   UNL     1      -0.144  46.681   8.697  1.00  0.00     0.000 C 
BRANCH   6   7
ATOM      7  C   UNL     1       0.191  48.149   8.359  1.00  0.00     0.000 C 
BRANCH   7   8
ATOM      8  C   UNL     1       1.633  48.312   7.853  1.00  0.00     0.000 C 
BRANCH   8   9
ATOM      9  C   UNL     1       2.616  47.520   8.726  1.00  0.00     0.000 C 
BRANCH   9  10
ATOM     10  C   UNL     1       4.072  47.665   8.252  1.00  0.00     0.006 C 
BRANCH  10  11
ATOM     11  C   UNL     1       5.078  47.186   9.308  1.00  0.00     0.053 C 
BRANCH  11  12
ATOM     12  C   UNL     1       6.353  47.971   9.238  1.00  0.00     0.041 C 
ATOM     13  O   UNL     1       6.339  49.175   8.864  1.00  0.00    -0.550 OA
ATOM     14  O   UNL     1       7.553  47.389   9.639  1.00  0.00    -0.550 OA
ENDBRANCH  11  12
ENDBRANCH  10  11
ENDBRANCH   9  10
ENDBRANCH   8   9
ENDBRANCH   7   8
ENDBRANCH   6   7
ENDBRANCH   5   6
ENDBRANCH   4   5
ENDBRANCH   3   4
ENDBRANCH   2   3
ENDBRANCH   1   2
BRANCH   1  15
ATOM     15  C   UNL     1       4.127  43.064  10.536  1.00  0.00     0.000 C 
BRANCH  15  16
ATOM     16  C   UNL     1       4.106  43.958  11.787  1.00  0.00     0.000 C 
BRANCH  16  17
ATOM     17  C   UNL     1       2.687  44.188  12.336  1.00  0.00     0.000 C 
BRANCH  17  18
ATOM     18  C   UNL     1       1.742  42.979  12.216  1.00  0.00    -0.000 C 
BRANCH  18  19
ATOM     19  C   UNL     1       0.293  43.319  12.608  1.00  0.00    -0.000 C 
BRANCH  19  20
ATOM     20  C   UNL     1      -0.492  42.092  13.101  1.00  0.00    -0.000 C 
BRANCH  20  21
ATOM     21  C   UNL     1      -0.178  41.739  14.567  1.00  0.00    -0.000 C 
BRANCH  21  22
ATOM     22  C   UNL     1       0.490  40.359  14.720  1.00  0.00    -0.000 C 
BRANCH  22  23
ATOM     23  C   UNL     1       0.765  39.620  13.397  1.00  0.00    -0.000 C 
BRANCH  23  24
ATOM     24  C   UNL     1       2.225  39.152  13.264  1.00  0.00    -0.000 C 
BRANCH  24  25
ATOM     25  C   UNL     1       3.078  40.107  12.412  1.00  0.00    -0.003 C 
ATOM     26  C   UNL     1       4.535  40.170  12.871  1.00  0.00     0.004 C 
ENDBRANCH  24  25
ENDBRANCH  23  24
ENDBRANCH  22  23
ENDBRANCH  21  22
ENDBRANCH  20  21
ENDBRANCH  19  20
ENDBRANCH  18  19
ENDBRANCH  17  18
ENDBRANCH  16  17
ENDBRANCH  15  16
ENDBRANCH   1  15
TORSDOF 22
ENDMDL
MODEL 6
REMARK VINA RESULT:    -4.469      3.304      8.614
REMARK INTER + INTRA:         -12.576
REMARK INTER:                 -10.127
REMARK INTRA:                  -2.449
REMARK UNBOUND:                -2.359
REMARK SMILES CCCCCCCCCCCCCCCCCCCCCCCC(=O)[O-]
REMARK SMILES IDX 13 1 14 2 15 3 16 4 17 5 18 6 19 7 20 8 21 9 22 10 23 11
REMARK SMILES IDX 24 12 25 13 26 14 12 15 11 16 10 17 9 18 8 19 7 20 6 21 5 22
REMARK SMILES IDX 4 23 3 24 2 25 1 26
REMARK H PARENT
REMARK Flexibility Score: inf
ROOT
ATOM      1  C   UNL     1       2.194  43.230   8.791  1.00  0.00     0.000 C 
ENDROOT
BRANCH   1   2
ATOM      2  C   UNL     1       3.653  43.497   9.190  1.00  0.00     0.000 C 
BRANCH   2   3
ATOM      3  C   UNL     1       3.980  43.043  10.627  1.00  0.00     0.000 C 
BRANCH   3   4
ATOM      4  C   UNL     1       3.798  44.119  11.715  1.00  0.00     0.000 C 
BRANCH   4   5
ATOM      5  C   UNL     1       2.516  43.934  12.541  1.00  0.00     0.000 C 
BRANCH   5   6
ATOM      6  C   UNL     1       1.739  42.660  12.166  1.00  0.00     0.000 C 
BRANCH   6   7
ATOM      7  C   UNL     1       0.380  42.525  12.884  1.00  0.00     0.000 C 
BRANCH   7   8
ATOM      8  C   UNL     1       0.441  41.534  14.057  1.00  0.00     0.000 C 
BRANCH   8   9
ATOM      9  C   UNL     1      -0.310  40.238  13.723  1.00  0.00     0.000 C 
BRANCH   9  10
ATOM     10  C   UNL     1       0.635  39.105  13.287  1.00  0.00     0.006 C 
BRANCH  10  11
ATOM     11  C   UNL     1       2.110  39.527  13.335  1.00  0.00     0.053 C 
BRANCH  11  12
ATOM     12  C   UNL     1       2.988  38.505  12.681  1.00  0.00     0.041 C 
ATOM     13  O   UNL     1       4.240  38.649  12.678  1.00  0.00    -0.550 OA
ATOM     14  O   UNL     1       2.426  37.360  12.119  1.00  0.00    -0.550 OA
ENDBRANCH  11  12
ENDBRANCH  10  11
ENDBRANCH   9  10
ENDBRANCH   8   9
ENDBRANCH   7   8
ENDBRANCH   6   7
ENDBRANCH   5   6
ENDBRANCH   4   5
ENDBRANCH   3   4
ENDBRANCH   2   3
ENDBRANCH   1   2
BRANCH   1  15
ATOM     15  C   UNL     1       1.339  44.493   8.948  1.00  0.00     0.000 C 
BRANCH  15  16
ATOM     16  C   UNL     1       0.359  44.642   7.773  1.00  0.00     0.000 C 
BRANCH  16  17
ATOM     17  C   UNL     1      -0.772  45.645   8.058  1.00  0.00     0.000 C 
BRANCH  17  18
ATOM     18  C   UNL     1      -0.574  47.039   7.436  1.00  0.00    -0.000 C 
BRANCH  18  19
ATOM     19  C   UNL     1      -0.278  48.120   8.490  1.00  0.00    -0.000 C 
BRANCH  19  20
ATOM     20  C   UNL     1       1.208  48.173   8.884  1.00  0.00    -0.000 C 
BRANCH  20  21
ATOM     21  C   UNL     1       2.145  48.116   7.664  1.00  0.00    -0.000 C 
BRANCH  21  22
ATOM     22  C   UNL     1       3.610  47.829   8.048  1.00  0.00    -0.000 C 
BRANCH  22  23
ATOM     23  C   UNL     1       3.799  47.117   9.400  1.00  0.00    -0.000 C 
BRANCH  23  24
ATOM     24  C   UNL     1       5.258  46.700   9.659  1.00  0.00    -0.000 C 
BRANCH  24  25
ATOM     25  C   UNL     1       6.267  47.771   9.212  1.00  0.00    -0.003 C 
ATOM     26  C   UNL     1       7.704  47.435   9.613  1.00  0.00     0.004 C 
ENDBRANCH  24  25
ENDBRANCH  23  24
ENDBRANCH  22  23
ENDBRANCH  21  22
ENDBRANCH  20  21
ENDBRANCH  19  20
ENDBRANCH  18  19
ENDBRANCH  17  18
ENDBRANCH  16  17
ENDBRANCH  15  16
ENDBRANCH   1  15
TORSDOF 22
ENDMDL
MODEL 7
REMARK VINA RESULT:    -4.426      3.162      7.636
REMARK INTER + INTRA:         -12.477
REMARK INTER:                  -9.736
REMARK INTRA:                  -2.741
REMARK UNBOUND:                -2.359
REMARK SMILES CCCCCCCCCCCCCCCCCCCCCCCC(=O)[O-]
REMARK SMILES IDX 13 1 14 2 15 3 16 4 17 5 18 6 19 7 20 8 21 9 22 10 23 11
REMARK SMILES IDX 24 12 25 13 26 14 12 15 11 16 10 17 9 18 8 19 7 20 6 21 5 22
REMARK SMILES IDX 4 23 3 24 2 25 1 26
REMARK H PARENT
REMARK Flexibility Score: inf
ROOT
ATOM      1  C   UNL     1       3.962  43.262   9.943  1.00  0.00     0.000 C 
ENDROOT
BRANCH   1   2
ATOM      2  C   UNL     1       2.670  42.498   9.621  1.00  0.00     0.000 C 
BRANCH   2   3
ATOM      3  C   UNL     1       1.498  43.426   9.240  1.00  0.00     0.000 C 
BRANCH   3   4
ATOM      4  C   UNL     1       1.408  44.737  10.043  1.00  0.00     0.000 C 
BRANCH   4   5
ATOM      5  C   UNL     1       0.295  44.723  11.102  1.00  0.00     0.000 C 
BRANCH   5   6
ATOM      6  C   UNL     1       0.446  43.578  12.118  1.00  0.00     0.000 C 
BRANCH   6   7
ATOM      7  C   UNL     1      -0.858  43.230  12.865  1.00  0.00     0.000 C 
BRANCH   7   8
ATOM      8  C   UNL     1      -0.912  41.752  13.280  1.00  0.00     0.000 C 
BRANCH   8   9
ATOM      9  C   UNL     1       0.304  41.376  14.139  1.00  0.00     0.000 C 
BRANCH   9  10
ATOM     10  C   UNL     1       1.077  40.174  13.570  1.00  0.00     0.006 C 
BRANCH  10  11
ATOM     11  C   UNL     1       2.357  40.600  12.837  1.00  0.00     0.053 C 
BRANCH  11  12
ATOM     12  C   UNL     1       3.352  39.481  12.791  1.00  0.00     0.041 C 
ATOM     13  O   UNL     1       2.964  38.289  12.652  1.00  0.00    -0.550 OA
ATOM     14  O   UNL     1       4.717  39.757  12.845  1.00  0.00    -0.550 OA
ENDBRANCH  11  12
ENDBRANCH  10  11
ENDBRANCH   9  10
ENDBRANCH   8   9
ENDBRANCH   7   8
ENDBRANCH   6   7
ENDBRANCH   5   6
ENDBRANCH   4   5
ENDBRANCH   3   4
ENDBRANCH   2   3
ENDBRANCH   1   2
BRANCH   1  15
ATOM     15  C   UNL     1       4.238  43.270  11.452  1.00  0.00     0.000 C 
BRANCH  15  16
ATOM     16  C   UNL     1       4.546  44.693  11.945  1.00  0.00     0.000 C 
BRANCH  16  17
ATOM     17  C   UNL     1       3.878  45.783  11.090  1.00  0.00     0.000 C 
BRANCH  17  18
ATOM     18  C   UNL     1       4.851  46.653  10.272  1.00  0.00    -0.000 C 
BRANCH  18  19
ATOM     19  C   UNL     1       4.542  46.629   8.765  1.00  0.00    -0.000 C 
BRANCH  19  20
ATOM     20  C   UNL     1       3.894  47.934   8.271  1.00  0.00    -0.000 C 
BRANCH  20  21
ATOM     21  C   UNL     1       2.416  47.748   7.881  1.00  0.00    -0.000 C 
BRANCH  21  22
ATOM     22  C   UNL     1       1.447  48.079   9.032  1.00  0.00    -0.000 C 
BRANCH  22  23
ATOM     23  C   UNL     1      -0.040  47.827   8.721  1.00  0.00    -0.000 C 
BRANCH  23  24
ATOM     24  C   UNL     1      -0.265  47.219   7.325  1.00  0.00    -0.000 C 
BRANCH  24  25
ATOM     25  C   UNL     1      -1.083  45.918   7.371  1.00  0.00    -0.003 C 
ATOM     26  C   UNL     1      -0.425  44.777   6.595  1.00  0.00     0.004 C 
ENDBRANCH  24  25
ENDBRANCH  23  24
ENDBRANCH  22  23
ENDBRANCH  21  22
ENDBRANCH  20  21
ENDBRANCH  19  20
ENDBRANCH  18  19
ENDBRANCH  17  18
ENDBRANCH  16  17
ENDBRANCH  15  16
ENDBRANCH   1  15
TORSDOF 22
ENDMDL
MODEL 8
REMARK VINA RESULT:    -4.270      2.789      4.843
REMARK INTER + INTRA:         -12.122
REMARK INTER:                  -9.820
REMARK INTRA:                  -2.301
REMARK UNBOUND:                -2.359
REMARK SMILES CCCCCCCCCCCCCCCCCCCCCCCC(=O)[O-]
REMARK SMILES IDX 13 1 14 2 15 3 16 4 17 5 18 6 19 7 20 8 21 9 22 10 23 11
REMARK SMILES IDX 24 12 25 13 26 14 12 15 11 16 10 17 9 18 8 19 7 20 6 21 5 22
REMARK SMILES IDX 4 23 3 24 2 25 1 26
REMARK H PARENT
REMARK Flexibility Score: inf
ROOT
ATOM      1  C   UNL     1       4.519  43.435  11.476  1.00  0.00     0.000 C 
ENDROOT
BRANCH   1   2
ATOM      2  C   UNL     1       4.423  44.914  11.878  1.00  0.00     0.000 C 
BRANCH   2   3
ATOM      3  C   UNL     1       4.140  45.847  10.684  1.00  0.00     0.000 C 
BRANCH   3   4
ATOM      4  C   UNL     1       5.386  46.477  10.031  1.00  0.00     0.000 C 
BRANCH   4   5
ATOM      5  C   UNL     1       5.044  47.563   8.999  1.00  0.00     0.000 C 
BRANCH   5   6
ATOM      6  C   UNL     1       3.622  47.424   8.430  1.00  0.00     0.000 C 
BRANCH   6   7
ATOM      7  C   UNL     1       3.225  48.557   7.461  1.00  0.00     0.000 C 
BRANCH   7   8
ATOM      8  C   UNL     1       1.737  48.924   7.577  1.00  0.00     0.000 C 
BRANCH   8   9
ATOM      9  C   UNL     1       1.108  48.286   8.823  1.00  0.00     0.000 C 
BRANCH   9  10
ATOM     10  C   UNL     1      -0.273  47.672   8.536  1.00  0.00     0.006 C 
BRANCH  10  11
ATOM     11  C   UNL     1      -0.227  46.138   8.480  1.00  0.00     0.053 C 
BRANCH  11  12
ATOM     12  C   UNL     1      -0.472  45.639   7.089  1.00  0.00     0.041 C 
ATOM     13  O   UNL     1      -0.136  44.468   6.764  1.00  0.00    -0.550 OA
ATOM     14  O   UNL     1      -1.123  46.450   6.161  1.00  0.00    -0.550 OA
ENDBRANCH  11  12
ENDBRANCH  10  11
ENDBRANCH   9  10
ENDBRANCH   8   9
ENDBRANCH   7   8
ENDBRANCH   6   7
ENDBRANCH   5   6
ENDBRANCH   4   5
ENDBRANCH   3   4
ENDBRANCH   2   3
ENDBRANCH   1   2
BRANCH   1  15
ATOM     15  C   UNL     1       4.027  43.219  10.040  1.00  0.00     0.000 C 
BRANCH  15  16
ATOM     16  C   UNL     1       2.623  42.591  10.029  1.00  0.00     0.000 C 
BRANCH  16  17
ATOM     17  C   UNL     1       1.497  43.640  10.029  1.00  0.00     0.000 C 
BRANCH  17  18
ATOM     18  C   UNL     1       0.886  43.935  11.411  1.00  0.00    -0.000 C 
BRANCH  18  19
ATOM     19  C   UNL     1       1.289  42.895  12.471  1.00  0.00    -0.000 C 
BRANCH  19  20
ATOM     20  C   UNL     1       0.075  42.263  13.173  1.00  0.00    -0.000 C 
BRANCH  20  21
ATOM     21  C   UNL     1       0.478  41.162  14.171  1.00  0.00    -0.000 C 
BRANCH  21  22
ATOM     22  C   UNL     1       0.158  39.744  13.658  1.00  0.00    -0.000 C 
BRANCH  22  23
ATOM     23  C   UNL     1       1.376  38.941  13.167  1.00  0.00    -0.000 C 
BRANCH  23  24
ATOM     24  C   UNL     1       2.545  39.838  12.722  1.00  0.00    -0.000 C 
BRANCH  24  25
ATOM     25  C   UNL     1       3.913  39.288  13.157  1.00  0.00    -0.003 C 
ATOM     26  C   UNL     1       5.052  40.279  12.921  1.00  0.00     0.004 C 
ENDBRANCH  24  25
ENDBRANCH  23  24
ENDBRANCH  22  23
ENDBRANCH  21  22
ENDBRANCH  20  21
ENDBRANCH  19  20
ENDBRANCH  18  19
ENDBRANCH  17  18
ENDBRANCH  16  17
ENDBRANCH  15  16
ENDBRANCH   1  15
TORSDOF 22
ENDMDL
MODEL 9
REMARK VINA RESULT:    -4.238      1.412      3.440
REMARK INTER + INTRA:         -12.048
REMARK INTER:                  -9.482
REMARK INTRA:                  -2.566
REMARK UNBOUND:                -2.359
REMARK SMILES CCCCCCCCCCCCCCCCCCCCCCCC(=O)[O-]
REMARK SMILES IDX 13 1 14 2 15 3 16 4 17 5 18 6 19 7 20 8 21 9 22 10 23 11
REMARK SMILES IDX 24 12 25 13 26 14 12 15 11 16 10 17 9 18 8 19 7 20 6 21 5 22
REMARK SMILES IDX 4 23 3 24 2 25 1 26
REMARK H PARENT
REMARK Flexibility Score: inf
ROOT
ATOM      1  C   UNL     1       1.196  44.710  11.021  1.00  0.00     0.000 C 
ENDROOT
BRANCH   1   2
ATOM      2  C   UNL     1       1.176  44.217   9.566  1.00  0.00     0.000 C 
BRANCH   2   3
ATOM      3  C   UNL     1       0.268  45.066   8.653  1.00  0.00     0.000 C 
BRANCH   3   4
ATOM      4  C   UNL     1      -0.409  46.271   9.334  1.00  0.00     0.000 C 
BRANCH   4   5
ATOM      5  C   UNL     1      -0.079  47.611   8.657  1.00  0.00     0.000 C 
BRANCH   5   6
ATOM      6  C   UNL     1       0.994  47.483   7.562  1.00  0.00     0.000 C 
BRANCH   6   7
ATOM      7  C   UNL     1       2.065  48.593   7.605  1.00  0.00     0.000 C 
BRANCH   7   8
ATOM      8  C   UNL     1       3.471  48.031   7.862  1.00  0.00     0.000 C 
BRANCH   8   9
ATOM      9  C   UNL     1       3.411  46.777   8.745  1.00  0.00     0.000 C 
BRANCH   9  10
ATOM     10  C   UNL     1       4.794  46.365   9.278  1.00  0.00     0.006 C 
BRANCH  10  11
ATOM     11  C   UNL     1       5.450  47.474  10.113  1.00  0.00     0.053 C 
BRANCH  11  12
ATOM     12  C   UNL     1       6.674  48.010   9.435  1.00  0.00     0.041 C 
ATOM     13  O   UNL     1       6.637  49.122   8.841  1.00  0.00    -0.550 OA
ATOM     14  O   UNL     1       7.874  47.307   9.505  1.00  0.00    -0.550 OA
ENDBRANCH  11  12
ENDBRANCH  10  11
ENDBRANCH   9  10
ENDBRANCH   8   9
ENDBRANCH   7   8
ENDBRANCH   6   7
ENDBRANCH   5   6
ENDBRANCH   4   5
ENDBRANCH   3   4
ENDBRANCH   2   3
ENDBRANCH   1   2
BRANCH   1  15
ATOM     15  C   UNL     1       0.063  44.075  11.835  1.00  0.00     0.000 C 
BRANCH  15  16
ATOM     16  C   UNL     1       0.570  42.858  12.625  1.00  0.00     0.000 C 
BRANCH  16  17
ATOM     17  C   UNL     1      -0.539  42.164  13.434  1.00  0.00     0.000 C 
BRANCH  17  18
ATOM     18  C   UNL     1      -0.164  40.779  13.993  1.00  0.00    -0.000 C 
BRANCH  18  19
ATOM     19  C   UNL     1       1.327  40.448  13.803  1.00  0.00    -0.000 C 
BRANCH  19  20
ATOM     20  C   UNL     1       1.552  39.058  13.185  1.00  0.00    -0.000 C 
BRANCH  20  21
ATOM     21  C   UNL     1       2.942  38.916  12.540  1.00  0.00    -0.000 C 
BRANCH  21  22
ATOM     22  C   UNL     1       4.006  39.807  13.209  1.00  0.00    -0.000 C 
BRANCH  22  23
ATOM     23  C   UNL     1       4.683  40.825  12.273  1.00  0.00    -0.000 C 
BRANCH  23  24
ATOM     24  C   UNL     1       3.691  41.834  11.668  1.00  0.00    -0.000 C 
BRANCH  24  25
ATOM     25  C   UNL     1       4.368  43.146  11.238  1.00  0.00    -0.003 C 
ATOM     26  C   UNL     1       4.412  44.185  12.358  1.00  0.00     0.004 C 
ENDBRANCH  24  25
ENDBRANCH  23  24
ENDBRANCH  22  23
ENDBRANCH  21  22
ENDBRANCH  20  21
ENDBRANCH  19  20
ENDBRANCH  18  19
ENDBRANCH  17  18
ENDBRANCH  16  17
ENDBRANCH  15  16
ENDBRANCH   1  15
TORSDOF 22
ENDMDL
