MODEL 1
REMARK VINA RESULT:    -4.318      0.000      0.000
REMARK INTER + INTRA:         -12.363
REMARK INTER:                  -9.367
REMARK INTRA:                  -2.996
REMARK UNBOUND:                -2.996
REMARK SMILES CCCCCCCCCCCCCCCCCCCCCC(=O)[O-]
REMARK SMILES IDX 12 1 11 2 10 3 9 4 8 5 7 6 6 7 5 8 4 9 3 10 2 11 1 12 13 13
REMARK SMILES IDX 14 14 15 15 16 16 17 17 18 18 19 19 20 20 21 21 22 22 23 23
REMARK SMILES IDX 24 24
REMARK H PARENT
REMARK Flexibility Score: inf
ROOT
ATOM      1  C   UNL     1      16.858  41.530  19.814  1.00  0.00     0.000 C 
ENDROOT
BRANCH   1   2
ATOM      2  C   UNL     1      17.453  42.782  19.145  1.00  0.00     0.000 C 
BRANCH   2   3
ATOM      3  C   UNL     1      16.387  43.842  18.822  1.00  0.00     0.000 C 
BRANCH   3   4
ATOM      4  C   UNL     1      15.224  43.833  19.826  1.00  0.00    -0.000 C 
BRANCH   4   5
ATOM      5  C   UNL     1      15.139  45.168  20.576  1.00  0.00    -0.000 C 
BRANCH   5   6
ATOM      6  C   UNL     1      13.723  45.761  20.486  1.00  0.00    -0.000 C 
BRANCH   6   7
ATOM      7  C   UNL     1      12.654  44.695  20.209  1.00  0.00    -0.000 C 
BRANCH   7   8
ATOM      8  C   UNL     1      11.775  45.038  18.993  1.00  0.00    -0.000 C 
BRANCH   8   9
ATOM      9  C   UNL     1      12.250  46.302  18.260  1.00  0.00    -0.000 C 
BRANCH   9  10
ATOM     10  C   UNL     1      12.855  45.992  16.880  1.00  0.00    -0.000 C 
BRANCH  10  11
ATOM     11  C   UNL     1      13.886  47.042  16.439  1.00  0.00    -0.003 C 
ATOM     12  C   UNL     1      15.105  47.093  17.359  1.00  0.00     0.004 C 
ENDBRANCH  10  11
ENDBRANCH   9  10
ENDBRANCH   8   9
ENDBRANCH   7   8
ENDBRANCH   6   7
ENDBRANCH   5   6
ENDBRANCH   4   5
ENDBRANCH   3   4
ENDBRANCH   2   3
ENDBRANCH   1   2
BRANCH   1  13
ATOM     13  C   UNL     1      17.771  40.963  20.913  1.00  0.00     0.000 C 
BRANCH  13  14
ATOM     14  C   UNL     1      19.152  41.642  20.941  1.00  0.00     0.000 C 
BRANCH  14  15
ATOM     15  C   UNL     1      19.449  42.341  22.280  1.00  0.00     0.000 C 
BRANCH  15  16
ATOM     16  C   UNL     1      20.218  43.671  22.167  1.00  0.00     0.000 C 
BRANCH  16  17
ATOM     17  C   UNL     1      20.718  43.955  20.740  1.00  0.00     0.000 C 
BRANCH  17  18
ATOM     18  C   UNL     1      20.079  45.211  20.119  1.00  0.00     0.000 C 
BRANCH  18  19
ATOM     19  C   UNL     1      18.796  45.712  20.815  1.00  0.00     0.000 C 
BRANCH  19  20
ATOM     20  C   UNL     1      18.541  47.226  20.702  1.00  0.00     0.006 C 
BRANCH  20  21
ATOM     21  C   UNL     1      19.794  48.011  20.291  1.00  0.00     0.053 C 
BRANCH  21  22
ATOM     22  C   UNL     1      19.424  49.398  19.869  1.00  0.00     0.041 C 
ATOM     23  O   UNL     1      19.454  49.721  18.653  1.00  0.00    -0.550 OA
ATOM     24  O   UNL     1      19.095  50.350  20.826  1.00  0.00    -0.550 OA
ENDBRANCH  21  22
ENDBRANCH  20  21
ENDBRANCH  19  20
ENDBRANCH  18  19
ENDBRANCH  17  18
ENDBRANCH  16  17
ENDBRANCH  15  16
ENDBRANCH  14  15
ENDBRANCH  13  14
ENDBRANCH   1  13
TORSDOF 20
ENDMDL
MODEL 2
REMARK VINA RESULT:    -4.232      1.632      3.367
REMARK INTER + INTRA:         -12.175
REMARK INTER:                  -9.976
REMARK INTRA:                  -2.199
REMARK UNBOUND:                -2.996
REMARK SMILES CCCCCCCCCCCCCCCCCCCCCC(=O)[O-]
REMARK SMILES IDX 12 1 11 2 10 3 9 4 8 5 7 6 6 7 5 8 4 9 3 10 2 11 1 12 13 13
REMARK SMILES IDX 14 14 15 15 16 16 17 17 18 18 19 19 20 20 21 21 22 22 23 23
REMARK SMILES IDX 24 24
REMARK H PARENT
REMARK Flexibility Score: inf
ROOT
ATOM      1  C   UNL     1      14.938  44.495  19.772  1.00  0.00     0.000 C 
ENDROOT
BRANCH   1   2
ATOM      2  C   UNL     1      14.884  45.032  18.331  1.00  0.00     0.000 C 
BRANCH   2   3
ATOM      3  C   UNL     1      13.813  44.333  17.479  1.00  0.00     0.000 C 
BRANCH   3   4
ATOM      4  C   UNL     1      13.045  45.311  16.577  1.00  0.00    -0.000 C 
BRANCH   4   5
ATOM      5  C   UNL     1      13.206  46.754  17.073  1.00  0.00    -0.000 C 
BRANCH   5   6
ATOM      6  C   UNL     1      11.895  47.276  17.681  1.00  0.00    -0.000 C 
BRANCH   6   7
ATOM      7  C   UNL     1      11.627  46.708  19.083  1.00  0.00    -0.000 C 
BRANCH   7   8
ATOM      8  C   UNL     1      10.125  46.580  19.393  1.00  0.00    -0.000 C 
BRANCH   8   9
ATOM      9  C   UNL     1       9.676  45.117  19.537  1.00  0.00    -0.000 C 
BRANCH   9  10
ATOM     10  C   UNL     1      10.844  44.172  19.871  1.00  0.00    -0.000 C 
BRANCH  10  11
ATOM     11  C   UNL     1      10.432  42.692  19.839  1.00  0.00    -0.003 C 
ATOM     12  C   UNL     1       9.248  42.390  20.756  1.00  0.00     0.004 C 
ENDBRANCH  10  11
ENDBRANCH   9  10
ENDBRANCH   8   9
ENDBRANCH   7   8
ENDBRANCH   6   7
ENDBRANCH   5   6
ENDBRANCH   4   5
ENDBRANCH   3   4
ENDBRANCH   2   3
ENDBRANCH   1   2
BRANCH   1  13
ATOM     13  C   UNL     1      15.792  43.223  19.893  1.00  0.00     0.000 C 
BRANCH  13  14
ATOM     14  C   UNL     1      17.080  43.296  19.053  1.00  0.00     0.000 C 
BRANCH  14  15
ATOM     15  C   UNL     1      18.321  42.798  19.816  1.00  0.00     0.000 C 
BRANCH  15  16
ATOM     16  C   UNL     1      18.791  43.708  20.965  1.00  0.00     0.000 C 
BRANCH  16  17
ATOM     17  C   UNL     1      20.124  44.415  20.663  1.00  0.00     0.000 C 
BRANCH  17  18
ATOM     18  C   UNL     1      19.974  45.940  20.519  1.00  0.00     0.000 C 
BRANCH  18  19
ATOM     19  C   UNL     1      18.524  46.468  20.548  1.00  0.00     0.000 C 
BRANCH  19  20
ATOM     20  C   UNL     1      18.380  47.963  20.885  1.00  0.00     0.006 C 
BRANCH  20  21
ATOM     21  C   UNL     1      19.732  48.662  21.076  1.00  0.00     0.053 C 
BRANCH  21  22
ATOM     22  C   UNL     1      20.033  49.542  19.903  1.00  0.00     0.041 C 
ATOM     23  O   UNL     1      19.256  49.570  18.915  1.00  0.00    -0.550 OA
ATOM     24  O   UNL     1      21.201  50.296  19.882  1.00  0.00    -0.550 OA
ENDBRANCH  21  22
ENDBRANCH  20  21
ENDBRANCH  19  20
ENDBRANCH  18  19
ENDBRANCH  17  18
ENDBRANCH  16  17
ENDBRANCH  15  16
ENDBRANCH  14  15
ENDBRANCH  13  14
ENDBRANCH   1  13
TORSDOF 20
ENDMDL
MODEL 3
REMARK VINA RESULT:    -4.139      1.324      2.488
REMARK INTER + INTRA:         -11.974
REMARK INTER:                  -9.585
REMARK INTRA:                  -2.389
REMARK UNBOUND:                -2.996
REMARK SMILES CCCCCCCCCCCCCCCCCCCCCC(=O)[O-]
REMARK SMILES IDX 12 1 11 2 10 3 9 4 8 5 7 6 6 7 5 8 4 9 3 10 2 11 1 12 13 13
REMARK SMILES IDX 14 14 15 15 16 16 17 17 18 18 19 19 20 20 21 21 22 22 23 23
REMARK SMILES IDX 24 24
REMARK H PARENT
REMARK Flexibility Score: inf
ROOT
ATOM      1  C   UNL     1      18.674  40.835  20.412  1.00  0.00     0.000 C 
ENDROOT
BRANCH   1   2
ATOM      2  C   UNL     1      17.501  41.129  19.461  1.00  0.00     0.000 C 
BRANCH   2   3
ATOM      3  C   UNL     1      17.201  42.632  19.340  1.00  0.00     0.000 C 
BRANCH   3   4
ATOM      4  C   UNL     1      16.252  43.134  20.439  1.00  0.00    -0.000 C 
BRANCH   4   5
ATOM      5  C   UNL     1      15.156  44.030  19.848  1.00  0.00    -0.000 C 
BRANCH   5   6
ATOM      6  C   UNL     1      15.643  44.723  18.566  1.00  0.00    -0.000 C 
BRANCH   6   7
ATOM      7  C   UNL     1      14.918  46.051  18.301  1.00  0.00    -0.000 C 
BRANCH   7   8
ATOM      8  C   UNL     1      13.641  46.208  19.146  1.00  0.00    -0.000 C 
BRANCH   8   9
ATOM      9  C   UNL     1      12.363  45.927  18.340  1.00  0.00    -0.000 C 
BRANCH   9  10
ATOM     10  C   UNL     1      11.377  45.018  19.094  1.00  0.00    -0.000 C 
BRANCH  10  11
ATOM     11  C   UNL     1      10.142  45.778  19.600  1.00  0.00    -0.003 C 
ATOM     12  C   UNL     1      10.086  47.218  19.090  1.00  0.00     0.004 C 
ENDBRANCH  10  11
ENDBRANCH   9  10
ENDBRANCH   8   9
ENDBRANCH   7   8
ENDBRANCH   6   7
ENDBRANCH   5   6
ENDBRANCH   4   5
ENDBRANCH   3   4
ENDBRANCH   2   3
ENDBRANCH   1   2
BRANCH   1  13
ATOM     13  C   UNL     1      19.886  41.744  20.147  1.00  0.00     0.000 C 
BRANCH  13  14
ATOM     14  C   UNL     1      20.522  42.270  21.446  1.00  0.00     0.000 C 
BRANCH  14  15
ATOM     15  C   UNL     1      19.855  43.558  21.961  1.00  0.00     0.000 C 
BRANCH  15  16
ATOM     16  C   UNL     1      20.392  44.864  21.345  1.00  0.00     0.000 C 
BRANCH  16  17
ATOM     17  C   UNL     1      19.464  45.441  20.263  1.00  0.00     0.000 C 
BRANCH  17  18
ATOM     18  C   UNL     1      18.213  46.123  20.846  1.00  0.00     0.000 C 
BRANCH  18  19
ATOM     19  C   UNL     1      18.166  47.658  20.696  1.00  0.00     0.000 C 
BRANCH  19  20
ATOM     20  C   UNL     1      19.350  48.277  19.931  1.00  0.00     0.006 C 
BRANCH  20  21
ATOM     21  C   UNL     1      19.362  49.809  19.992  1.00  0.00     0.053 C 
BRANCH  21  22
ATOM     22  C   UNL     1      19.367  50.275  21.414  1.00  0.00     0.041 C 
ATOM     23  O   UNL     1      20.377  50.084  22.140  1.00  0.00    -0.550 OA
ATOM     24  O   UNL     1      18.236  50.876  21.952  1.00  0.00    -0.550 OA
ENDBRANCH  21  22
ENDBRANCH  20  21
ENDBRANCH  19  20
ENDBRANCH  18  19
ENDBRANCH  17  18
ENDBRANCH  16  17
ENDBRANCH  15  16
ENDBRANCH  14  15
ENDBRANCH  13  14
ENDBRANCH   1  13
TORSDOF 20
ENDMDL
MODEL 4
REMARK VINA RESULT:    -4.026      3.097      6.543
REMARK INTER + INTRA:         -11.728
REMARK INTER:                  -9.210
REMARK INTRA:                  -2.518
REMARK UNBOUND:                -2.996
REMARK SMILES CCCCCCCCCCCCCCCCCCCCCC(=O)[O-]
REMARK SMILES IDX 12 1 11 2 10 3 9 4 8 5 7 6 6 7 5 8 4 9 3 10 2 11 1 12 13 13
REMARK SMILES IDX 14 14 15 15 16 16 17 17 18 18 19 19 20 20 21 21 22 22 23 23
REMARK SMILES IDX 24 24
REMARK H PARENT
REMARK Flexibility Score: inf
ROOT
ATOM      1  C   UNL     1      17.738  41.692  21.589  1.00  0.00     0.000 C 
ENDROOT
BRANCH   1   2
ATOM      2  C   UNL     1      18.992  40.891  21.981  1.00  0.00     0.000 C 
BRANCH   2   3
ATOM      3  C   UNL     1      20.203  41.793  22.271  1.00  0.00     0.000 C 
BRANCH   3   4
ATOM      4  C   UNL     1      20.726  42.502  21.012  1.00  0.00    -0.000 C 
BRANCH   4   5
ATOM      5  C   UNL     1      20.914  44.002  21.267  1.00  0.00    -0.000 C 
BRANCH   5   6
ATOM      6  C   UNL     1      20.046  44.836  20.311  1.00  0.00    -0.000 C 
BRANCH   6   7
ATOM      7  C   UNL     1      18.798  45.411  20.998  1.00  0.00    -0.000 C 
BRANCH   7   8
ATOM      8  C   UNL     1      18.348  46.749  20.386  1.00  0.00    -0.000 C 
BRANCH   8   9
ATOM      9  C   UNL     1      17.458  47.563  21.339  1.00  0.00    -0.000 C 
BRANCH   9  10
ATOM     10  C   UNL     1      18.117  48.881  21.780  1.00  0.00    -0.000 C 
BRANCH  10  11
ATOM     11  C   UNL     1      19.644  48.862  21.611  1.00  0.00    -0.003 C 
ATOM     12  C   UNL     1      20.163  50.053  20.806  1.00  0.00     0.004 C 
ENDBRANCH  10  11
ENDBRANCH   9  10
ENDBRANCH   8   9
ENDBRANCH   7   8
ENDBRANCH   6   7
ENDBRANCH   5   6
ENDBRANCH   4   5
ENDBRANCH   3   4
ENDBRANCH   2   3
ENDBRANCH   1   2
BRANCH   1  13
ATOM     13  C   UNL     1      17.394  41.551  20.097  1.00  0.00     0.000 C 
BRANCH  13  14
ATOM     14  C   UNL     1      16.791  42.838  19.507  1.00  0.00     0.000 C 
BRANCH  14  15
ATOM     15  C   UNL     1      15.685  43.441  20.391  1.00  0.00     0.000 C 
BRANCH  15  16
ATOM     16  C   UNL     1      15.203  44.842  19.972  1.00  0.00     0.000 C 
BRANCH  16  17
ATOM     17  C   UNL     1      15.522  45.171  18.503  1.00  0.00     0.000 C 
BRANCH  17  18
ATOM     18  C   UNL     1      14.748  46.394  17.980  1.00  0.00     0.000 C 
BRANCH  18  19
ATOM     19  C   UNL     1      13.524  46.074  17.097  1.00  0.00     0.000 C 
BRANCH  19  20
ATOM     20  C   UNL     1      12.205  46.729  17.545  1.00  0.00     0.006 C 
BRANCH  20  21
ATOM     21  C   UNL     1      11.930  46.547  19.043  1.00  0.00     0.053 C 
BRANCH  21  22
ATOM     22  C   UNL     1      10.480  46.770  19.337  1.00  0.00     0.041 C 
ATOM     23  O   UNL     1       9.698  45.791  19.447  1.00  0.00    -0.550 OA
ATOM     24  O   UNL     1       9.983  48.063  19.441  1.00  0.00    -0.550 OA
ENDBRANCH  21  22
ENDBRANCH  20  21
ENDBRANCH  19  20
ENDBRANCH  18  19
ENDBRANCH  17  18
ENDBRANCH  16  17
ENDBRANCH  15  16
ENDBRANCH  14  15
ENDBRANCH  13  14
ENDBRANCH   1  13
TORSDOF 20
ENDMDL
MODEL 5
REMARK VINA RESULT:    -3.984      2.721      6.028
REMARK INTER + INTRA:         -11.638
REMARK INTER:                  -8.768
REMARK INTRA:                  -2.870
REMARK UNBOUND:                -2.996
REMARK SMILES CCCCCCCCCCCCCCCCCCCCCC(=O)[O-]
REMARK SMILES IDX 12 1 11 2 10 3 9 4 8 5 7 6 6 7 5 8 4 9 3 10 2 11 1 12 13 13
REMARK SMILES IDX 14 14 15 15 16 16 17 17 18 18 19 19 20 20 21 21 22 22 23 23
REMARK SMILES IDX 24 24
REMARK H PARENT
REMARK Flexibility Score: inf
ROOT
ATOM      1  C   UNL     1      19.557  40.263  22.638  1.00  0.00     0.000 C 
ENDROOT
BRANCH   1   2
ATOM      2  C   UNL     1      18.835  41.501  23.196  1.00  0.00     0.000 C 
BRANCH   2   3
ATOM      3  C   UNL     1      19.671  42.784  23.061  1.00  0.00     0.000 C 
BRANCH   3   4
ATOM      4  C   UNL     1      20.937  42.576  22.215  1.00  0.00    -0.000 C 
BRANCH   4   5
ATOM      5  C   UNL     1      20.928  43.492  20.984  1.00  0.00    -0.000 C 
BRANCH   5   6
ATOM      6  C   UNL     1      20.644  44.949  21.384  1.00  0.00    -0.000 C 
BRANCH   6   7
ATOM      7  C   UNL     1      20.055  45.773  20.230  1.00  0.00    -0.000 C 
BRANCH   7   8
ATOM      8  C   UNL     1      18.841  46.615  20.661  1.00  0.00    -0.000 C 
BRANCH   8   9
ATOM      9  C   UNL     1      18.994  48.100  20.298  1.00  0.00    -0.000 C 
BRANCH   9  10
ATOM     10  C   UNL     1      20.074  48.804  21.137  1.00  0.00    -0.000 C 
BRANCH  10  11
ATOM     11  C   UNL     1      19.483  49.829  22.119  1.00  0.00    -0.003 C 
ATOM     12  C   UNL     1      18.006  50.116  21.853  1.00  0.00     0.004 C 
ENDBRANCH  10  11
ENDBRANCH   9  10
ENDBRANCH   8   9
ENDBRANCH   7   8
ENDBRANCH   6   7
ENDBRANCH   5   6
ENDBRANCH   4   5
ENDBRANCH   3   4
ENDBRANCH   2   3
ENDBRANCH   1   2
BRANCH   1  13
ATOM     13  C   UNL     1      18.593  39.281  21.952  1.00  0.00     0.000 C 
BRANCH  13  14
ATOM     14  C   UNL     1      18.678  39.346  20.417  1.00  0.00     0.000 C 
BRANCH  14  15
ATOM     15  C   UNL     1      17.751  40.415  19.810  1.00  0.00     0.000 C 
BRANCH  15  16
ATOM     16  C   UNL     1      18.467  41.649  19.231  1.00  0.00     0.000 C 
BRANCH  16  17
ATOM     17  C   UNL     1      17.542  42.870  19.095  1.00  0.00     0.000 C 
BRANCH  17  18
ATOM     18  C   UNL     1      17.041  43.396  20.453  1.00  0.00     0.000 C 
BRANCH  18  19
ATOM     19  C   UNL     1      15.566  43.851  20.482  1.00  0.00     0.000 C 
BRANCH  19  20
ATOM     20  C   UNL     1      15.351  45.374  20.427  1.00  0.00     0.006 C 
BRANCH  20  21
ATOM     21  C   UNL     1      14.037  45.813  21.086  1.00  0.00     0.053 C 
BRANCH  21  22
ATOM     22  C   UNL     1      12.898  45.665  20.126  1.00  0.00     0.041 C 
ATOM     23  O   UNL     1      12.029  44.773  20.308  1.00  0.00    -0.550 OA
ATOM     24  O   UNL     1      12.825  46.479  19.004  1.00  0.00    -0.550 OA
ENDBRANCH  21  22
ENDBRANCH  20  21
ENDBRANCH  19  20
ENDBRANCH  18  19
ENDBRANCH  17  18
ENDBRANCH  16  17
ENDBRANCH  15  16
ENDBRANCH  14  15
ENDBRANCH  13  14
ENDBRANCH   1  13
TORSDOF 20
ENDMDL
MODEL 6
REMARK VINA RESULT:    -3.969      1.509      3.058
REMARK INTER + INTRA:         -11.605
REMARK INTER:                  -8.713
REMARK INTRA:                  -2.892
REMARK UNBOUND:                -2.996
REMARK SMILES CCCCCCCCCCCCCCCCCCCCCC(=O)[O-]
REMARK SMILES IDX 12 1 11 2 10 3 9 4 8 5 7 6 6 7 5 8 4 9 3 10 2 11 1 12 13 13
REMARK SMILES IDX 14 14 15 15 16 16 17 17 18 18 19 19 20 20 21 21 22 22 23 23
REMARK SMILES IDX 24 24
REMARK H PARENT
REMARK Flexibility Score: inf
ROOT
ATOM      1  C   UNL     1      18.268  41.254  22.620  1.00  0.00     0.000 C 
ENDROOT
BRANCH   1   2
ATOM      2  C   UNL     1      18.810  40.422  21.444  1.00  0.00     0.000 C 
BRANCH   2   3
ATOM      3  C   UNL     1      19.352  41.297  20.301  1.00  0.00     0.000 C 
BRANCH   3   4
ATOM      4  C   UNL     1      18.414  41.325  19.085  1.00  0.00    -0.000 C 
BRANCH   4   5
ATOM      5  C   UNL     1      17.534  42.582  19.102  1.00  0.00    -0.000 C 
BRANCH   5   6
ATOM      6  C   UNL     1      16.184  42.300  19.780  1.00  0.00    -0.000 C 
BRANCH   6   7
ATOM      7  C   UNL     1      15.618  43.531  20.504  1.00  0.00    -0.000 C 
BRANCH   7   8
ATOM      8  C   UNL     1      16.605  44.712  20.523  1.00  0.00    -0.000 C 
BRANCH   8   9
ATOM      9  C   UNL     1      16.000  45.994  19.928  1.00  0.00    -0.000 C 
BRANCH   9  10
ATOM     10  C   UNL     1      14.479  46.083  20.141  1.00  0.00    -0.000 C 
BRANCH  10  11
ATOM     11  C   UNL     1      13.710  46.270  18.824  1.00  0.00    -0.003 C 
ATOM     12  C   UNL     1      14.633  46.361  17.610  1.00  0.00     0.004 C 
ENDBRANCH  10  11
ENDBRANCH   9  10
ENDBRANCH   8   9
ENDBRANCH   7   8
ENDBRANCH   6   7
ENDBRANCH   5   6
ENDBRANCH   4   5
ENDBRANCH   3   4
ENDBRANCH   2   3
ENDBRANCH   1   2
BRANCH   1  13
ATOM     13  C   UNL     1      19.067  41.030  23.914  1.00  0.00     0.000 C 
BRANCH  13  14
ATOM     14  C   UNL     1      19.882  42.269  24.326  1.00  0.00     0.000 C 
BRANCH  14  15
ATOM     15  C   UNL     1      21.401  42.050  24.216  1.00  0.00     0.000 C 
BRANCH  15  16
ATOM     16  C   UNL     1      22.163  43.136  23.432  1.00  0.00     0.000 C 
BRANCH  16  17
ATOM     17  C   UNL     1      21.635  43.323  21.999  1.00  0.00     0.000 C 
BRANCH  17  18
ATOM     18  C   UNL     1      20.974  44.695  21.778  1.00  0.00     0.000 C 
BRANCH  18  19
ATOM     19  C   UNL     1      20.251  44.871  20.426  1.00  0.00     0.000 C 
BRANCH  19  20
ATOM     20  C   UNL     1      20.117  46.325  19.941  1.00  0.00     0.006 C 
BRANCH  20  21
ATOM     21  C   UNL     1      19.358  47.215  20.933  1.00  0.00     0.053 C 
BRANCH  21  22
ATOM     22  C   UNL     1      19.991  48.569  21.010  1.00  0.00     0.041 C 
ATOM     23  O   UNL     1      20.805  48.939  20.125  1.00  0.00    -0.550 OA
ATOM     24  O   UNL     1      19.720  49.403  22.087  1.00  0.00    -0.550 OA
ENDBRANCH  21  22
ENDBRANCH  20  21
ENDBRANCH  19  20
ENDBRANCH  18  19
ENDBRANCH  17  18
ENDBRANCH  16  17
ENDBRANCH  15  16
ENDBRANCH  14  15
ENDBRANCH  13  14
ENDBRANCH   1  13
TORSDOF 20
ENDMDL
MODEL 7
REMARK VINA RESULT:    -3.945      2.649      4.527
REMARK INTER + INTRA:         -11.553
REMARK INTER:                  -8.515
REMARK INTRA:                  -3.038
REMARK UNBOUND:                -2.996
REMARK SMILES CCCCCCCCCCCCCCCCCCCCCC(=O)[O-]
REMARK SMILES IDX 12 1 11 2 10 3 9 4 8 5 7 6 6 7 5 8 4 9 3 10 2 11 1 12 13 13
REMARK SMILES IDX 14 14 15 15 16 16 17 17 18 18 19 19 20 20 21 21 22 22 23 23
REMARK SMILES IDX 24 24
REMARK H PARENT
REMARK Flexibility Score: inf
ROOT
ATOM      1  C   UNL     1      19.383  46.222  20.610  1.00  0.00     0.000 C 
ENDROOT
BRANCH   1   2
ATOM      2  C   UNL     1      18.018  45.572  20.899  1.00  0.00     0.000 C 
BRANCH   2   3
ATOM      3  C   UNL     1      16.894  46.607  21.062  1.00  0.00     0.000 C 
BRANCH   3   4
ATOM      4  C   UNL     1      15.633  46.238  20.265  1.00  0.00    -0.000 C 
BRANCH   4   5
ATOM      5  C   UNL     1      15.983  45.336  19.075  1.00  0.00    -0.000 C 
BRANCH   5   6
ATOM      6  C   UNL     1      14.901  44.265  18.859  1.00  0.00    -0.000 C 
BRANCH   6   7
ATOM      7  C   UNL     1      14.031  44.046  20.106  1.00  0.00    -0.000 C 
BRANCH   7   8
ATOM      8  C   UNL     1      12.559  44.429  19.876  1.00  0.00    -0.000 C 
BRANCH   8   9
ATOM      9  C   UNL     1      12.290  44.900  18.438  1.00  0.00    -0.000 C 
BRANCH   9  10
ATOM     10  C   UNL     1      12.004  46.409  18.355  1.00  0.00    -0.000 C 
BRANCH  10  11
ATOM     11  C   UNL     1      12.782  47.094  17.221  1.00  0.00    -0.003 C 
ATOM     12  C   UNL     1      13.276  46.107  16.164  1.00  0.00     0.004 C 
ENDBRANCH  10  11
ENDBRANCH   9  10
ENDBRANCH   8   9
ENDBRANCH   7   8
ENDBRANCH   6   7
ENDBRANCH   5   6
ENDBRANCH   4   5
ENDBRANCH   3   4
ENDBRANCH   2   3
ENDBRANCH   1   2
BRANCH   1  13
ATOM     13  C   UNL     1      20.381  45.235  19.983  1.00  0.00     0.000 C 
BRANCH  13  14
ATOM     14  C   UNL     1      20.317  43.841  20.632  1.00  0.00     0.000 C 
BRANCH  14  15
ATOM     15  C   UNL     1      21.345  43.659  21.763  1.00  0.00     0.000 C 
BRANCH  15  16
ATOM     16  C   UNL     1      21.016  42.542  22.772  1.00  0.00     0.000 C 
BRANCH  16  17
ATOM     17  C   UNL     1      19.699  42.786  23.528  1.00  0.00     0.000 C 
BRANCH  17  18
ATOM     18  C   UNL     1      18.873  41.502  23.724  1.00  0.00     0.000 C 
BRANCH  18  19
ATOM     19  C   UNL     1      18.196  40.951  22.451  1.00  0.00     0.000 C 
BRANCH  19  20
ATOM     20  C   UNL     1      17.400  41.986  21.635  1.00  0.00     0.006 C 
BRANCH  20  21
ATOM     21  C   UNL     1      16.774  41.388  20.368  1.00  0.00     0.053 C 
BRANCH  21  22
ATOM     22  C   UNL     1      17.741  41.453  19.228  1.00  0.00     0.041 C 
ATOM     23  O   UNL     1      18.497  40.478  18.982  1.00  0.00    -0.550 OA
ATOM     24  O   UNL     1      17.843  42.612  18.468  1.00  0.00    -0.550 OA
ENDBRANCH  21  22
ENDBRANCH  20  21
ENDBRANCH  19  20
ENDBRANCH  18  19
ENDBRANCH  17  18
ENDBRANCH  16  17
ENDBRANCH  15  16
ENDBRANCH  14  15
ENDBRANCH  13  14
ENDBRANCH   1  13
TORSDOF 20
ENDMDL
MODEL 8
REMARK VINA RESULT:    -3.912      1.605      3.860
REMARK INTER + INTRA:         -11.480
REMARK INTER:                  -8.280
REMARK INTRA:                  -3.200
REMARK UNBOUND:                -2.996
REMARK SMILES CCCCCCCCCCCCCCCCCCCCCC(=O)[O-]
REMARK SMILES IDX 12 1 11 2 10 3 9 4 8 5 7 6 6 7 5 8 4 9 3 10 2 11 1 12 13 13
REMARK SMILES IDX 14 14 15 15 16 16 17 17 18 18 19 19 20 20 21 21 22 22 23 23
REMARK SMILES IDX 24 24
REMARK H PARENT
REMARK Flexibility Score: inf
ROOT
ATOM      1  C   UNL     1      18.887  39.724  23.144  1.00  0.00     0.000 C 
ENDROOT
BRANCH   1   2
ATOM      2  C   UNL     1      19.033  38.756  21.956  1.00  0.00     0.000 C 
BRANCH   2   3
ATOM      3  C   UNL     1      20.206  39.126  21.034  1.00  0.00     0.000 C 
BRANCH   3   4
ATOM      4  C   UNL     1      19.790  39.216  19.558  1.00  0.00    -0.000 C 
BRANCH   4   5
ATOM      5  C   UNL     1      19.455  40.663  19.171  1.00  0.00    -0.000 C 
BRANCH   5   6
ATOM      6  C   UNL     1      17.934  40.885  19.135  1.00  0.00    -0.000 C 
BRANCH   6   7
ATOM      7  C   UNL     1      17.554  42.371  19.216  1.00  0.00    -0.000 C 
BRANCH   7   8
ATOM      8  C   UNL     1      16.313  42.618  20.093  1.00  0.00    -0.000 C 
BRANCH   8   9
ATOM      9  C   UNL     1      15.294  43.553  19.422  1.00  0.00    -0.000 C 
BRANCH   9  10
ATOM     10  C   UNL     1      15.927  44.421  18.320  1.00  0.00    -0.000 C 
BRANCH  10  11
ATOM     11  C   UNL     1      15.435  45.876  18.362  1.00  0.00    -0.003 C 
ATOM     12  C   UNL     1      14.374  46.110  19.437  1.00  0.00     0.004 C 
ENDBRANCH  10  11
ENDBRANCH   9  10
ENDBRANCH   8   9
ENDBRANCH   7   8
ENDBRANCH   6   7
ENDBRANCH   5   6
ENDBRANCH   4   5
ENDBRANCH   3   4
ENDBRANCH   2   3
ENDBRANCH   1   2
BRANCH   1  13
ATOM     13  C   UNL     1      18.460  41.133  22.702  1.00  0.00     0.000 C 
BRANCH  13  14
ATOM     14  C   UNL     1      19.624  42.140  22.742  1.00  0.00     0.000 C 
BRANCH  14  15
ATOM     15  C   UNL     1      19.192  43.568  22.364  1.00  0.00     0.000 C 
BRANCH  15  16
ATOM     16  C   UNL     1      20.060  44.251  21.290  1.00  0.00     0.000 C 
BRANCH  16  17
ATOM     17  C   UNL     1      19.256  45.196  20.381  1.00  0.00     0.000 C 
BRANCH  17  18
ATOM     18  C   UNL     1      17.956  45.696  21.036  1.00  0.00     0.000 C 
BRANCH  18  19
ATOM     19  C   UNL     1      17.735  47.223  20.984  1.00  0.00     0.000 C 
BRANCH  19  20
ATOM     20  C   UNL     1      18.939  48.041  20.485  1.00  0.00     0.006 C 
BRANCH  20  21
ATOM     21  C   UNL     1      18.568  49.022  19.365  1.00  0.00     0.053 C 
BRANCH  21  22
ATOM     22  C   UNL     1      19.640  50.052  19.198  1.00  0.00     0.041 C 
ATOM     23  O   UNL     1      20.252  50.499  20.203  1.00  0.00    -0.550 OA
ATOM     24  O   UNL     1      19.930  50.555  17.936  1.00  0.00    -0.550 OA
ENDBRANCH  21  22
ENDBRANCH  20  21
ENDBRANCH  19  20
ENDBRANCH  18  19
ENDBRANCH  17  18
ENDBRANCH  16  17
ENDBRANCH  15  16
ENDBRANCH  14  15
ENDBRANCH  13  14
ENDBRANCH   1  13
TORSDOF 20
ENDMDL
