MODEL 1
REMARK VINA RESULT:    -4.553      0.000      0.000
REMARK INTER + INTRA:         -10.812
REMARK INTER:                  -8.812
REMARK INTRA:                  -2.001
REMARK UNBOUND:                -2.001
REMARK SMILES CCCCCCCCCCCCCCCCCC(=O)[O-]
REMARK SMILES IDX 10 1 11 2 12 3 13 4 14 5 15 6 16 7 17 8 18 9 19 10 20 11
REMARK SMILES IDX 9 12 8 13 7 14 6 15 5 16 4 17 3 18 2 19 1 20
REMARK H PARENT
REMARK Flexibility Score: inf
ROOT
ATOM      1  C   UNL     1      30.734   8.684  49.200  1.00  0.00     0.000 C 
ENDROOT
BRANCH   1   2
ATOM      2  C   UNL     1      29.664   7.596  49.391  1.00  0.00     0.000 C 
BRANCH   2   3
ATOM      3  C   UNL     1      29.599   6.611  48.211  1.00  0.00     0.000 C 
BRANCH   3   4
ATOM      4  C   UNL     1      30.364   5.307  48.494  1.00  0.00     0.000 C 
BRANCH   4   5
ATOM      5  C   UNL     1      31.851   5.406  48.111  1.00  0.00     0.000 C 
BRANCH   5   6
ATOM      6  C   UNL     1      32.090   6.269  46.858  1.00  0.00     0.000 C 
BRANCH   6   7
ATOM      7  C   UNL     1      33.514   6.839  46.721  1.00  0.00     0.006 C 
BRANCH   7   8
ATOM      8  C   UNL     1      34.309   6.197  45.577  1.00  0.00     0.053 C 
BRANCH   8   9
ATOM      9  C   UNL     1      35.035   4.982  46.061  1.00  0.00     0.041 C 
ATOM     10  O   UNL     1      35.342   4.062  45.257  1.00  0.00    -0.550 OA
ATOM     11  O   UNL     1      35.422   4.890  47.392  1.00  0.00    -0.550 OA
ENDBRANCH   8   9
ENDBRANCH   7   8
ENDBRANCH   6   7
ENDBRANCH   5   6
ENDBRANCH   4   5
ENDBRANCH   3   4
ENDBRANCH   2   3
ENDBRANCH   1   2
BRANCH   1  12
ATOM     12  C   UNL     1      31.958   8.479  50.106  1.00  0.00     0.000 C 
BRANCH  12  13
ATOM     13  C   UNL     1      33.193   9.185  49.530  1.00  0.00    -0.000 C 
BRANCH  13  14
ATOM     14  C   UNL     1      32.847  10.515  48.842  1.00  0.00    -0.000 C 
BRANCH  14  15
ATOM     15  C   UNL     1      34.050  11.474  48.768  1.00  0.00    -0.000 C 
BRANCH  15  16
ATOM     16  C   UNL     1      35.179  10.940  47.874  1.00  0.00    -0.000 C 
BRANCH  16  17
ATOM     17  C   UNL     1      34.662  10.372  46.543  1.00  0.00    -0.000 C 
BRANCH  17  18
ATOM     18  C   UNL     1      34.960  11.334  45.382  1.00  0.00    -0.000 C 
BRANCH  18  19
ATOM     19  C   UNL     1      34.385  10.839  44.045  1.00  0.00    -0.003 C 
ATOM     20  C   UNL     1      34.706   9.369  43.772  1.00  0.00     0.004 C 
ENDBRANCH  18  19
ENDBRANCH  17  18
ENDBRANCH  16  17
ENDBRANCH  15  16
ENDBRANCH  14  15
ENDBRANCH  13  14
ENDBRANCH  12  13
ENDBRANCH   1  12
TORSDOF 16
ENDMDL
MODEL 2
REMARK VINA RESULT:    -4.379      1.326      3.169
REMARK INTER + INTRA:         -10.476
REMARK INTER:                  -8.598
REMARK INTRA:                  -1.878
REMARK UNBOUND:                -2.001
REMARK SMILES CCCCCCCCCCCCCCCCCC(=O)[O-]
REMARK SMILES IDX 10 1 11 2 12 3 13 4 14 5 15 6 16 7 17 8 18 9 19 10 20 11
REMARK SMILES IDX 9 12 8 13 7 14 6 15 5 16 4 17 3 18 2 19 1 20
REMARK H PARENT
REMARK Flexibility Score: inf
ROOT
ATOM      1  C   UNL     1      34.183   9.796  48.745  1.00  0.00     0.000 C 
ENDROOT
BRANCH   1   2
ATOM      2  C   UNL     1      32.931   9.876  47.857  1.00  0.00     0.000 C 
BRANCH   2   3
ATOM      3  C   UNL     1      31.628   9.952  48.671  1.00  0.00     0.000 C 
BRANCH   3   4
ATOM      4  C   UNL     1      31.330   8.644  49.424  1.00  0.00     0.000 C 
BRANCH   4   5
ATOM      5  C   UNL     1      30.119   7.896  48.839  1.00  0.00     0.000 C 
BRANCH   5   6
ATOM      6  C   UNL     1      30.475   6.485  48.334  1.00  0.00     0.000 C 
BRANCH   6   7
ATOM      7  C   UNL     1      31.786   6.391  47.531  1.00  0.00     0.006 C 
BRANCH   7   8
ATOM      8  C   UNL     1      32.581   5.113  47.830  1.00  0.00     0.053 C 
BRANCH   8   9
ATOM      9  C   UNL     1      33.991   5.449  48.201  1.00  0.00     0.041 C 
ATOM     10  O   UNL     1      34.231   6.397  48.996  1.00  0.00    -0.550 OA
ATOM     11  O   UNL     1      35.039   4.681  47.710  1.00  0.00    -0.550 OA
ENDBRANCH   8   9
ENDBRANCH   7   8
ENDBRANCH   6   7
ENDBRANCH   5   6
ENDBRANCH   4   5
ENDBRANCH   3   4
ENDBRANCH   2   3
ENDBRANCH   1   2
BRANCH   1  12
ATOM     12  C   UNL     1      34.824  11.169  48.995  1.00  0.00     0.000 C 
BRANCH  12  13
ATOM     13  C   UNL     1      35.999  11.411  48.038  1.00  0.00    -0.000 C 
BRANCH  13  14
ATOM     14  C   UNL     1      36.039  12.851  47.504  1.00  0.00    -0.000 C 
BRANCH  14  15
ATOM     15  C   UNL     1      35.689  12.937  46.006  1.00  0.00    -0.000 C 
BRANCH  15  16
ATOM     16  C   UNL     1      35.301  11.576  45.409  1.00  0.00    -0.000 C 
BRANCH  16  17
ATOM     17  C   UNL     1      34.380  11.706  44.187  1.00  0.00    -0.000 C 
BRANCH  17  18
ATOM     18  C   UNL     1      33.940  10.324  43.679  1.00  0.00    -0.000 C 
BRANCH  18  19
ATOM     19  C   UNL     1      34.887   9.201  44.133  1.00  0.00    -0.003 C 
ATOM     20  C   UNL     1      34.144   7.917  44.505  1.00  0.00     0.004 C 
ENDBRANCH  18  19
ENDBRANCH  17  18
ENDBRANCH  16  17
ENDBRANCH  15  16
ENDBRANCH  14  15
ENDBRANCH  13  14
ENDBRANCH  12  13
ENDBRANCH   1  12
TORSDOF 16
ENDMDL
MODEL 3
REMARK VINA RESULT:    -4.267      1.666      2.245
REMARK INTER + INTRA:         -10.259
REMARK INTER:                  -8.348
REMARK INTRA:                  -1.911
REMARK UNBOUND:                -2.001
REMARK SMILES CCCCCCCCCCCCCCCCCC(=O)[O-]
REMARK SMILES IDX 10 1 11 2 12 3 13 4 14 5 15 6 16 7 17 8 18 9 19 10 20 11
REMARK SMILES IDX 9 12 8 13 7 14 6 15 5 16 4 17 3 18 2 19 1 20
REMARK H PARENT
REMARK Flexibility Score: inf
ROOT
ATOM      1  C   UNL     1      31.937   9.240  48.671  1.00  0.00     0.000 C 
ENDROOT
BRANCH   1   2
ATOM      2  C   UNL     1      30.616   8.767  49.299  1.00  0.00     0.000 C 
BRANCH   2   3
ATOM      3  C   UNL     1      30.617   7.262  49.622  1.00  0.00     0.000 C 
BRANCH   3   4
ATOM      4  C   UNL     1      30.162   6.406  48.427  1.00  0.00     0.000 C 
BRANCH   4   5
ATOM      5  C   UNL     1      31.285   6.196  47.396  1.00  0.00     0.000 C 
BRANCH   5   6
ATOM      6  C   UNL     1      32.464   5.378  47.954  1.00  0.00     0.000 C 
BRANCH   6   7
ATOM      7  C   UNL     1      33.845   6.045  47.813  1.00  0.00     0.006 C 
BRANCH   7   8
ATOM      8  C   UNL     1      35.007   5.064  48.014  1.00  0.00     0.053 C 
BRANCH   8   9
ATOM      9  C   UNL     1      35.696   5.329  49.315  1.00  0.00     0.041 C 
ATOM     10  O   UNL     1      35.553   6.438  49.896  1.00  0.00    -0.550 OA
ATOM     11  O   UNL     1      36.453   4.331  49.915  1.00  0.00    -0.550 OA
ENDBRANCH   8   9
ENDBRANCH   7   8
ENDBRANCH   6   7
ENDBRANCH   5   6
ENDBRANCH   4   5
ENDBRANCH   3   4
ENDBRANCH   2   3
ENDBRANCH   1   2
BRANCH   1  12
ATOM     12  C   UNL     1      33.079   9.342  49.694  1.00  0.00     0.000 C 
BRANCH  12  13
ATOM     13  C   UNL     1      34.390   9.765  49.016  1.00  0.00    -0.000 C 
BRANCH  13  14
ATOM     14  C   UNL     1      34.200  10.119  47.532  1.00  0.00    -0.000 C 
BRANCH  14  15
ATOM     15  C   UNL     1      35.072  11.309  47.091  1.00  0.00    -0.000 C 
BRANCH  15  16
ATOM     16  C   UNL     1      35.590  11.163  45.653  1.00  0.00    -0.000 C 
BRANCH  16  17
ATOM     17  C   UNL     1      34.551  11.585  44.603  1.00  0.00    -0.000 C 
BRANCH  17  18
ATOM     18  C   UNL     1      34.121  10.387  43.742  1.00  0.00    -0.000 C 
BRANCH  18  19
ATOM     19  C   UNL     1      35.003   9.149  43.973  1.00  0.00    -0.003 C 
ATOM     20  C   UNL     1      34.197   7.918  44.389  1.00  0.00     0.004 C 
ENDBRANCH  18  19
ENDBRANCH  17  18
ENDBRANCH  16  17
ENDBRANCH  15  16
ENDBRANCH  14  15
ENDBRANCH  13  14
ENDBRANCH  12  13
ENDBRANCH   1  12
TORSDOF 16
ENDMDL
MODEL 4
REMARK VINA RESULT:    -4.186      1.447      2.179
REMARK INTER + INTRA:         -10.102
REMARK INTER:                  -7.769
REMARK INTRA:                  -2.333
REMARK UNBOUND:                -2.001
REMARK SMILES CCCCCCCCCCCCCCCCCC(=O)[O-]
REMARK SMILES IDX 10 1 11 2 12 3 13 4 14 5 15 6 16 7 17 8 18 9 19 10 20 11
REMARK SMILES IDX 9 12 8 13 7 14 6 15 5 16 4 17 3 18 2 19 1 20
REMARK H PARENT
REMARK Flexibility Score: inf
ROOT
ATOM      1  C   UNL     1      31.900   9.690  48.294  1.00  0.00     0.000 C 
ENDROOT
BRANCH   1   2
ATOM      2  C   UNL     1      31.781   9.271  49.768  1.00  0.00     0.000 C 
BRANCH   2   3
ATOM      3  C   UNL     1      30.996   7.960  49.952  1.00  0.00     0.000 C 
BRANCH   3   4
ATOM      4  C   UNL     1      30.088   7.648  48.750  1.00  0.00     0.000 C 
BRANCH   4   5
ATOM      5  C   UNL     1      30.563   6.412  47.964  1.00  0.00     0.000 C 
BRANCH   5   6
ATOM      6  C   UNL     1      31.858   5.803  48.533  1.00  0.00     0.000 C 
BRANCH   6   7
ATOM      7  C   UNL     1      33.060   5.813  47.571  1.00  0.00     0.006 C 
BRANCH   7   8
ATOM      8  C   UNL     1      32.832   6.696  46.337  1.00  0.00     0.053 C 
BRANCH   8   9
ATOM      9  C   UNL     1      34.012   6.629  45.420  1.00  0.00     0.041 C 
ATOM     10  O   UNL     1      34.757   5.612  45.417  1.00  0.00    -0.550 OA
ATOM     11  O   UNL     1      34.258   7.665  44.529  1.00  0.00    -0.550 OA
ENDBRANCH   8   9
ENDBRANCH   7   8
ENDBRANCH   6   7
ENDBRANCH   5   6
ENDBRANCH   4   5
ENDBRANCH   3   4
ENDBRANCH   2   3
ENDBRANCH   1   2
BRANCH   1  12
ATOM     12  C   UNL     1      33.357   9.891  47.849  1.00  0.00     0.000 C 
BRANCH  12  13
ATOM     13  C   UNL     1      34.334   9.396  48.924  1.00  0.00    -0.000 C 
BRANCH  13  14
ATOM     14  C   UNL     1      35.369  10.462  49.318  1.00  0.00    -0.000 C 
BRANCH  14  15
ATOM     15  C   UNL     1      34.775  11.883  49.343  1.00  0.00    -0.000 C 
BRANCH  15  16
ATOM     16  C   UNL     1      35.512  12.850  48.404  1.00  0.00    -0.000 C 
BRANCH  16  17
ATOM     17  C   UNL     1      36.356  12.121  47.347  1.00  0.00    -0.000 C 
BRANCH  17  18
ATOM     18  C   UNL     1      35.761  12.309  45.943  1.00  0.00    -0.000 C 
BRANCH  18  19
ATOM     19  C   UNL     1      35.201  11.001  45.361  1.00  0.00    -0.003 C 
ATOM     20  C   UNL     1      34.358  11.226  44.106  1.00  0.00     0.004 C 
ENDBRANCH  18  19
ENDBRANCH  17  18
ENDBRANCH  16  17
ENDBRANCH  15  16
ENDBRANCH  14  15
ENDBRANCH  13  14
ENDBRANCH  12  13
ENDBRANCH   1  12
TORSDOF 16
ENDMDL
MODEL 5
REMARK VINA RESULT:    -4.102     17.946     19.964
REMARK INTER + INTRA:          -9.940
REMARK INTER:                  -7.566
REMARK INTRA:                  -2.374
REMARK UNBOUND:                -2.001
REMARK SMILES CCCCCCCCCCCCCCCCCC(=O)[O-]
REMARK SMILES IDX 10 1 11 2 12 3 13 4 14 5 15 6 16 7 17 8 18 9 19 10 20 11
REMARK SMILES IDX 9 12 8 13 7 14 6 15 5 16 4 17 3 18 2 19 1 20
REMARK H PARENT
REMARK Flexibility Score: inf
ROOT
ATOM      1  C   UNL     1      20.607  14.306  34.737  1.00  0.00     0.000 C 
ENDROOT
BRANCH   1   2
ATOM      2  C   UNL     1      20.918  14.732  33.293  1.00  0.00     0.000 C 
BRANCH   2   3
ATOM      3  C   UNL     1      19.885  14.204  32.282  1.00  0.00     0.000 C 
BRANCH   3   4
ATOM      4  C   UNL     1      20.506  13.233  31.264  1.00  0.00     0.000 C 
BRANCH   4   5
ATOM      5  C   UNL     1      22.042  13.194  31.354  1.00  0.00     0.000 C 
BRANCH   5   6
ATOM      6  C   UNL     1      22.729  13.905  30.173  1.00  0.00     0.000 C 
BRANCH   6   7
ATOM      7  C   UNL     1      23.497  15.187  30.542  1.00  0.00     0.006 C 
BRANCH   7   8
ATOM      8  C   UNL     1      22.614  16.442  30.517  1.00  0.00     0.053 C 
BRANCH   8   9
ATOM      9  C   UNL     1      23.385  17.634  30.988  1.00  0.00     0.041 C 
ATOM     10  O   UNL     1      24.643  17.645  30.920  1.00  0.00    -0.550 OA
ATOM     11  O   UNL     1      22.711  18.756  31.454  1.00  0.00    -0.550 OA
ENDBRANCH   8   9
ENDBRANCH   7   8
ENDBRANCH   6   7
ENDBRANCH   5   6
ENDBRANCH   4   5
ENDBRANCH   3   4
ENDBRANCH   2   3
ENDBRANCH   1   2
BRANCH   1  12
ATOM     12  C   UNL     1      19.217  13.669  34.883  1.00  0.00     0.000 C 
BRANCH  12  13
ATOM     13  C   UNL     1      19.086  12.933  36.224  1.00  0.00    -0.000 C 
BRANCH  13  14
ATOM     14  C   UNL     1      19.463  11.446  36.121  1.00  0.00    -0.000 C 
BRANCH  14  15
ATOM     15  C   UNL     1      18.893  10.777  34.856  1.00  0.00    -0.000 C 
BRANCH  15  16
ATOM     16  C   UNL     1      19.987  10.347  33.868  1.00  0.00    -0.000 C 
BRANCH  16  17
ATOM     17  C   UNL     1      21.316  10.014  34.565  1.00  0.00    -0.000 C 
BRANCH  17  18
ATOM     18  C   UNL     1      22.380  11.079  34.257  1.00  0.00    -0.000 C 
BRANCH  18  19
ATOM     19  C   UNL     1      23.181  11.490  35.503  1.00  0.00    -0.003 C 
ATOM     20  C   UNL     1      24.020  10.344  36.070  1.00  0.00     0.004 C 
ENDBRANCH  18  19
ENDBRANCH  17  18
ENDBRANCH  16  17
ENDBRANCH  15  16
ENDBRANCH  14  15
ENDBRANCH  13  14
ENDBRANCH  12  13
ENDBRANCH   1  12
TORSDOF 16
ENDMDL
MODEL 6
REMARK VINA RESULT:    -4.088      2.231      5.430
REMARK INTER + INTRA:          -9.912
REMARK INTER:                  -8.010
REMARK INTRA:                  -1.902
REMARK UNBOUND:                -2.001
REMARK SMILES CCCCCCCCCCCCCCCCCC(=O)[O-]
REMARK SMILES IDX 10 1 11 2 12 3 13 4 14 5 15 6 16 7 17 8 18 9 19 10 20 11
REMARK SMILES IDX 9 12 8 13 7 14 6 15 5 16 4 17 3 18 2 19 1 20
REMARK H PARENT
REMARK Flexibility Score: inf
ROOT
ATOM      1  C   UNL     1      31.303   9.254  49.073  1.00  0.00     0.000 C 
ENDROOT
BRANCH   1   2
ATOM      2  C   UNL     1      32.458   9.698  49.985  1.00  0.00     0.000 C 
BRANCH   2   3
ATOM      3  C   UNL     1      32.877  11.160  49.746  1.00  0.00     0.000 C 
BRANCH   3   4
ATOM      4  C   UNL     1      34.402  11.349  49.804  1.00  0.00     0.000 C 
BRANCH   4   5
ATOM      5  C   UNL     1      35.145  10.413  48.833  1.00  0.00     0.000 C 
BRANCH   5   6
ATOM      6  C   UNL     1      36.093  11.168  47.883  1.00  0.00     0.000 C 
BRANCH   6   7
ATOM      7  C   UNL     1      35.526  11.442  46.478  1.00  0.00     0.006 C 
BRANCH   7   8
ATOM      8  C   UNL     1      34.535  10.367  46.012  1.00  0.00     0.053 C 
BRANCH   8   9
ATOM      9  C   UNL     1      34.588  10.216  44.525  1.00  0.00     0.041 C 
ATOM     10  O   UNL     1      34.300  11.188  43.776  1.00  0.00    -0.550 OA
ATOM     11  O   UNL     1      35.010   9.017  43.964  1.00  0.00    -0.550 OA
ENDBRANCH   8   9
ENDBRANCH   7   8
ENDBRANCH   6   7
ENDBRANCH   5   6
ENDBRANCH   4   5
ENDBRANCH   3   4
ENDBRANCH   2   3
ENDBRANCH   1   2
BRANCH   1  12
ATOM     12  C   UNL     1      30.481   8.103  49.673  1.00  0.00     0.000 C 
BRANCH  12  13
ATOM     13  C   UNL     1      29.753   7.316  48.575  1.00  0.00    -0.000 C 
BRANCH  13  14
ATOM     14  C   UNL     1      30.095   5.817  48.597  1.00  0.00    -0.000 C 
BRANCH  14  15
ATOM     15  C   UNL     1      31.572   5.542  48.260  1.00  0.00    -0.000 C 
BRANCH  15  16
ATOM     16  C   UNL     1      32.037   6.273  46.992  1.00  0.00    -0.000 C 
BRANCH  16  17
ATOM     17  C   UNL     1      33.519   6.674  47.049  1.00  0.00    -0.000 C 
BRANCH  17  18
ATOM     18  C   UNL     1      34.160   6.225  48.371  1.00  0.00    -0.000 C 
BRANCH  18  19
ATOM     19  C   UNL     1      35.184   5.095  48.176  1.00  0.00    -0.003 C 
ATOM     20  C   UNL     1      35.374   4.718  46.707  1.00  0.00     0.004 C 
ENDBRANCH  18  19
ENDBRANCH  17  18
ENDBRANCH  16  17
ENDBRANCH  15  16
ENDBRANCH  14  15
ENDBRANCH  13  14
ENDBRANCH  12  13
ENDBRANCH   1  12
TORSDOF 16
ENDMDL
MODEL 7
REMARK VINA RESULT:    -4.064      3.682      6.066
REMARK INTER + INTRA:          -9.866
REMARK INTER:                  -7.869
REMARK INTRA:                  -1.997
REMARK UNBOUND:                -2.001
REMARK SMILES CCCCCCCCCCCCCCCCCC(=O)[O-]
REMARK SMILES IDX 10 1 11 2 12 3 13 4 14 5 15 6 16 7 17 8 18 9 19 10 20 11
REMARK SMILES IDX 9 12 8 13 7 14 6 15 5 16 4 17 3 18 2 19 1 20
REMARK H PARENT
REMARK Flexibility Score: inf
ROOT
ATOM      1  C   UNL     1      31.604   8.488  49.052  1.00  0.00     0.000 C 
ENDROOT
BRANCH   1   2
ATOM      2  C   UNL     1      31.602   9.935  48.532  1.00  0.00     0.000 C 
BRANCH   2   3
ATOM      3  C   UNL     1      32.809  10.748  49.032  1.00  0.00     0.000 C 
BRANCH   3   4
ATOM      4  C   UNL     1      34.086  10.455  48.227  1.00  0.00     0.000 C 
BRANCH   4   5
ATOM      5  C   UNL     1      35.044  11.660  48.189  1.00  0.00     0.000 C 
BRANCH   5   6
ATOM      6  C   UNL     1      36.388  11.335  47.511  1.00  0.00     0.000 C 
BRANCH   6   7
ATOM      7  C   UNL     1      36.916  12.422  46.557  1.00  0.00     0.006 C 
BRANCH   7   8
ATOM      8  C   UNL     1      35.837  13.430  46.142  1.00  0.00     0.053 C 
BRANCH   8   9
ATOM      9  C   UNL     1      36.241  14.817  46.530  1.00  0.00     0.041 C 
ATOM     10  O   UNL     1      35.405  15.760  46.482  1.00  0.00    -0.550 OA
ATOM     11  O   UNL     1      37.526  15.061  46.998  1.00  0.00    -0.550 OA
ENDBRANCH   8   9
ENDBRANCH   7   8
ENDBRANCH   6   7
ENDBRANCH   5   6
ENDBRANCH   4   5
ENDBRANCH   3   4
ENDBRANCH   2   3
ENDBRANCH   1   2
BRANCH   1  12
ATOM     12  C   UNL     1      30.613   7.585  48.302  1.00  0.00     0.000 C 
BRANCH  12  13
ATOM     13  C   UNL     1      31.317   6.341  47.742  1.00  0.00    -0.000 C 
BRANCH  13  14
ATOM     14  C   UNL     1      32.726   6.148  48.323  1.00  0.00    -0.000 C 
BRANCH  14  15
ATOM     15  C   UNL     1      33.815   6.108  47.235  1.00  0.00    -0.000 C 
BRANCH  15  16
ATOM     16  C   UNL     1      33.806   7.358  46.341  1.00  0.00    -0.000 C 
BRANCH  16  17
ATOM     17  C   UNL     1      33.771   7.015  44.844  1.00  0.00    -0.000 C 
BRANCH  17  18
ATOM     18  C   UNL     1      34.291   8.188  43.999  1.00  0.00    -0.000 C 
BRANCH  18  19
ATOM     19  C   UNL     1      34.586   9.438  44.844  1.00  0.00    -0.003 C 
ATOM     20  C   UNL     1      34.234  10.738  44.119  1.00  0.00     0.004 C 
ENDBRANCH  18  19
ENDBRANCH  17  18
ENDBRANCH  16  17
ENDBRANCH  15  16
ENDBRANCH  14  15
ENDBRANCH  13  14
ENDBRANCH  12  13
ENDBRANCH   1  12
TORSDOF 16
ENDMDL
MODEL 8
REMARK VINA RESULT:    -3.962     18.145     20.118
REMARK INTER + INTRA:          -9.668
REMARK INTER:                  -6.967
REMARK INTRA:                  -2.701
REMARK UNBOUND:                -2.001
REMARK SMILES CCCCCCCCCCCCCCCCCC(=O)[O-]
REMARK SMILES IDX 10 1 11 2 12 3 13 4 14 5 15 6 16 7 17 8 18 9 19 10 20 11
REMARK SMILES IDX 9 12 8 13 7 14 6 15 5 16 4 17 3 18 2 19 1 20
REMARK H PARENT
REMARK Flexibility Score: inf
ROOT
ATOM      1  C   UNL     1      21.497  12.763  35.866  1.00  0.00     0.000 C 
ENDROOT
BRANCH   1   2
ATOM      2  C   UNL     1      20.334  13.562  35.255  1.00  0.00     0.000 C 
BRANCH   2   3
ATOM      3  C   UNL     1      20.775  14.445  34.074  1.00  0.00     0.000 C 
BRANCH   3   4
ATOM      4  C   UNL     1      19.798  14.366  32.888  1.00  0.00     0.000 C 
BRANCH   4   5
ATOM      5  C   UNL     1      20.512  14.041  31.564  1.00  0.00     0.000 C 
BRANCH   5   6
ATOM      6  C   UNL     1      22.046  14.088  31.683  1.00  0.00     0.000 C 
BRANCH   6   7
ATOM      7  C   UNL     1      22.744  15.085  30.740  1.00  0.00     0.006 C 
BRANCH   7   8
ATOM      8  C   UNL     1      22.439  16.549  31.085  1.00  0.00     0.053 C 
BRANCH   8   9
ATOM      9  C   UNL     1      23.648  17.401  30.864  1.00  0.00     0.041 C 
ATOM     10  O   UNL     1      23.642  18.614  31.206  1.00  0.00    -0.550 OA
ATOM     11  O   UNL     1      24.803  16.842  30.332  1.00  0.00    -0.550 OA
ENDBRANCH   8   9
ENDBRANCH   7   8
ENDBRANCH   6   7
ENDBRANCH   5   6
ENDBRANCH   4   5
ENDBRANCH   3   4
ENDBRANCH   2   3
ENDBRANCH   1   2
BRANCH   1  12
ATOM     12  C   UNL     1      22.181  11.837  34.848  1.00  0.00     0.000 C 
BRANCH  12  13
ATOM     13  C   UNL     1      22.239  10.394  35.369  1.00  0.00    -0.000 C 
BRANCH  13  14
ATOM     14  C   UNL     1      20.926   9.953  36.036  1.00  0.00    -0.000 C 
BRANCH  14  15
ATOM     15  C   UNL     1      19.939   9.321  35.038  1.00  0.00    -0.000 C 
BRANCH  15  16
ATOM     16  C   UNL     1      18.875  10.314  34.547  1.00  0.00    -0.000 C 
BRANCH  16  17
ATOM     17  C   UNL     1      18.958  10.570  33.034  1.00  0.00    -0.000 C 
BRANCH  17  18
ATOM     18  C   UNL     1      19.986   9.638  32.374  1.00  0.00    -0.000 C 
BRANCH  18  19
ATOM     19  C   UNL     1      21.091  10.409  31.635  1.00  0.00    -0.003 C 
ATOM     20  C   UNL     1      20.779  10.613  30.152  1.00  0.00     0.004 C 
ENDBRANCH  18  19
ENDBRANCH  17  18
ENDBRANCH  16  17
ENDBRANCH  15  16
ENDBRANCH  14  15
ENDBRANCH  13  14
ENDBRANCH  12  13
ENDBRANCH   1  12
TORSDOF 16
ENDMDL
MODEL 9
REMARK VINA RESULT:    -3.956      4.240      7.663
REMARK INTER + INTRA:          -9.657
REMARK INTER:                  -8.284
REMARK INTRA:                  -1.373
REMARK UNBOUND:                -2.001
REMARK SMILES CCCCCCCCCCCCCCCCCC(=O)[O-]
REMARK SMILES IDX 10 1 11 2 12 3 13 4 14 5 15 6 16 7 17 8 18 9 19 10 20 11
REMARK SMILES IDX 9 12 8 13 7 14 6 15 5 16 4 17 3 18 2 19 1 20
REMARK H PARENT
REMARK Flexibility Score: inf
ROOT
ATOM      1  C   UNL     1      34.303   8.148  44.154  1.00  0.00     0.000 C 
ENDROOT
BRANCH   1   2
ATOM      2  C   UNL     1      34.297   9.403  45.042  1.00  0.00     0.000 C 
BRANCH   2   3
ATOM      3  C   UNL     1      34.366  10.707  44.228  1.00  0.00     0.000 C 
BRANCH   3   4
ATOM      4  C   UNL     1      34.999  11.861  45.023  1.00  0.00     0.000 C 
BRANCH   4   5
ATOM      5  C   UNL     1      35.599  11.390  46.360  1.00  0.00     0.000 C 
BRANCH   5   6
ATOM      6  C   UNL     1      36.888  12.143  46.736  1.00  0.00     0.000 C 
BRANCH   6   7
ATOM      7  C   UNL     1      36.782  13.679  46.697  1.00  0.00     0.006 C 
BRANCH   7   8
ATOM      8  C   UNL     1      37.855  14.331  45.816  1.00  0.00     0.053 C 
BRANCH   8   9
ATOM      9  C   UNL     1      37.626  15.806  45.719  1.00  0.00     0.041 C 
ATOM     10  O   UNL     1      38.540  16.614  46.035  1.00  0.00    -0.550 OA
ATOM     11  O   UNL     1      36.420  16.290  45.227  1.00  0.00    -0.550 OA
ENDBRANCH   8   9
ENDBRANCH   7   8
ENDBRANCH   6   7
ENDBRANCH   5   6
ENDBRANCH   4   5
ENDBRANCH   3   4
ENDBRANCH   2   3
ENDBRANCH   1   2
BRANCH   1  12
ATOM     12  C   UNL     1      33.892   6.879  44.916  1.00  0.00     0.000 C 
BRANCH  12  13
ATOM     13  C   UNL     1      33.755   7.159  46.419  1.00  0.00    -0.000 C 
BRANCH  13  14
ATOM     14  C   UNL     1      33.945   5.897  47.274  1.00  0.00    -0.000 C 
BRANCH  14  15
ATOM     15  C   UNL     1      32.616   5.352  47.830  1.00  0.00    -0.000 C 
BRANCH  15  16
ATOM     16  C   UNL     1      31.946   6.319  48.818  1.00  0.00    -0.000 C 
BRANCH  16  17
ATOM     17  C   UNL     1      30.666   6.952  48.250  1.00  0.00    -0.000 C 
BRANCH  17  18
ATOM     18  C   UNL     1      30.332   8.263  48.979  1.00  0.00    -0.000 C 
BRANCH  18  19
ATOM     19  C   UNL     1      31.588   9.065  49.356  1.00  0.00    -0.003 C 
ATOM     20  C   UNL     1      32.094   9.942  48.210  1.00  0.00     0.004 C 
ENDBRANCH  18  19
ENDBRANCH  17  18
ENDBRANCH  16  17
ENDBRANCH  15  16
ENDBRANCH  14  15
ENDBRANCH  13  14
ENDBRANCH  12  13
ENDBRANCH   1  12
TORSDOF 16
ENDMDL
