MODEL 1
REMARK VINA RESULT:    -4.103      0.000      0.000
REMARK INTER + INTRA:         -10.737
REMARK INTER:                  -8.900
REMARK INTRA:                  -1.836
REMARK UNBOUND:                -1.836
REMARK SMILES CCCCCCCCCCCCCCCCCCCCCC(=O)[O-]
REMARK SMILES IDX 12 1 11 2 10 3 9 4 8 5 7 6 6 7 5 8 4 9 3 10 2 11 1 12 13 13
REMARK SMILES IDX 14 14 15 15 16 16 17 17 18 18 19 19 20 20 21 21 22 22 23 23
REMARK SMILES IDX 24 24
REMARK H PARENT
REMARK Flexibility Score: inf
ROOT
ATOM      1  C   UNL     1      45.064  30.107   2.438  1.00  0.00     0.000 C 
ENDROOT
BRANCH   1   2
ATOM      2  C   UNL     1      43.707  29.668   1.859  1.00  0.00     0.000 C 
BRANCH   2   3
ATOM      3  C   UNL     1      43.119  28.449   2.592  1.00  0.00     0.000 C 
BRANCH   3   4
ATOM      4  C   UNL     1      43.774  27.127   2.165  1.00  0.00    -0.000 C 
BRANCH   4   5
ATOM      5  C   UNL     1      44.612  26.535   3.306  1.00  0.00    -0.000 C 
BRANCH   5   6
ATOM      6  C   UNL     1      46.106  26.807   3.091  1.00  0.00    -0.000 C 
BRANCH   6   7
ATOM      7  C   UNL     1      46.820  27.059   4.427  1.00  0.00    -0.000 C 
BRANCH   7   8
ATOM      8  C   UNL     1      46.086  26.424   5.618  1.00  0.00    -0.000 C 
BRANCH   8   9
ATOM      9  C   UNL     1      46.416  27.112   6.952  1.00  0.00    -0.000 C 
BRANCH   9  10
ATOM     10  C   UNL     1      46.395  28.640   6.798  1.00  0.00    -0.000 C 
BRANCH  10  11
ATOM     11  C   UNL     1      45.568  29.335   7.892  1.00  0.00    -0.003 C 
ATOM     12  C   UNL     1      45.240  28.410   9.065  1.00  0.00     0.004 C 
ENDBRANCH  10  11
ENDBRANCH   9  10
ENDBRANCH   8   9
ENDBRANCH   7   8
ENDBRANCH   6   7
ENDBRANCH   5   6
ENDBRANCH   4   5
ENDBRANCH   3   4
ENDBRANCH   2   3
ENDBRANCH   1   2
BRANCH   1  13
ATOM     13  C   UNL     1      46.203  30.049   1.403  1.00  0.00     0.000 C 
BRANCH  13  14
ATOM     14  C   UNL     1      45.745  29.957  -0.064  1.00  0.00     0.000 C 
BRANCH  14  15
ATOM     15  C   UNL     1      46.348  28.750  -0.804  1.00  0.00     0.000 C 
BRANCH  15  16
ATOM     16  C   UNL     1      46.036  28.763  -2.310  1.00  0.00     0.000 C 
BRANCH  16  17
ATOM     17  C   UNL     1      45.838  27.370  -2.941  1.00  0.00     0.000 C 
BRANCH  17  18
ATOM     18  C   UNL     1      46.454  27.192  -4.344  1.00  0.00     0.000 C 
BRANCH  18  19
ATOM     19  C   UNL     1      45.892  28.138  -5.422  1.00  0.00     0.000 C 
BRANCH  19  20
ATOM     20  C   UNL     1      44.836  27.462  -6.315  1.00  0.00     0.006 C 
BRANCH  20  21
ATOM     21  C   UNL     1      43.444  27.472  -5.672  1.00  0.00     0.053 C 
BRANCH  21  22
ATOM     22  C   UNL     1      42.737  28.774  -5.899  1.00  0.00     0.041 C 
ATOM     23  O   UNL     1      41.839  29.154  -5.101  1.00  0.00    -0.550 OA
ATOM     24  O   UNL     1      43.088  29.580  -6.975  1.00  0.00    -0.550 OA
ENDBRANCH  21  22
ENDBRANCH  20  21
ENDBRANCH  19  20
ENDBRANCH  18  19
ENDBRANCH  17  18
ENDBRANCH  16  17
ENDBRANCH  15  16
ENDBRANCH  14  15
ENDBRANCH  13  14
ENDBRANCH   1  13
TORSDOF 20
ENDMDL
MODEL 2
REMARK VINA RESULT:    -4.045      1.116      2.593
REMARK INTER + INTRA:         -10.611
REMARK INTER:                  -8.798
REMARK INTRA:                  -1.813
REMARK UNBOUND:                -1.836
REMARK SMILES CCCCCCCCCCCCCCCCCCCCCC(=O)[O-]
REMARK SMILES IDX 12 1 11 2 10 3 9 4 8 5 7 6 6 7 5 8 4 9 3 10 2 11 1 12 13 13
REMARK SMILES IDX 14 14 15 15 16 16 17 17 18 18 19 19 20 20 21 21 22 22 23 23
REMARK SMILES IDX 24 24
REMARK H PARENT
REMARK Flexibility Score: inf
ROOT
ATOM      1  C   UNL     1      43.982  27.559   2.313  1.00  0.00     0.000 C 
ENDROOT
BRANCH   1   2
ATOM      2  C   UNL     1      44.617  26.768   3.471  1.00  0.00     0.000 C 
BRANCH   2   3
ATOM      3  C   UNL     1      46.092  26.421   3.211  1.00  0.00     0.000 C 
BRANCH   3   4
ATOM      4  C   UNL     1      47.036  27.007   4.272  1.00  0.00    -0.000 C 
BRANCH   4   5
ATOM      5  C   UNL     1      46.370  27.022   5.653  1.00  0.00    -0.000 C 
BRANCH   5   6
ATOM      6  C   UNL     1      46.817  28.242   6.468  1.00  0.00    -0.000 C 
BRANCH   6   7
ATOM      7  C   UNL     1      45.661  29.235   6.657  1.00  0.00    -0.000 C 
BRANCH   7   8
ATOM      8  C   UNL     1      45.606  29.814   8.078  1.00  0.00    -0.000 C 
BRANCH   8   9
ATOM      9  C   UNL     1      46.433  28.997   9.084  1.00  0.00    -0.000 C 
BRANCH   9  10
ATOM     10  C   UNL     1      45.516  28.185  10.011  1.00  0.00    -0.000 C 
BRANCH  10  11
ATOM     11  C   UNL     1      45.212  26.781   9.462  1.00  0.00    -0.003 C 
ATOM     12  C   UNL     1      46.467  25.919   9.312  1.00  0.00     0.004 C 
ENDBRANCH  10  11
ENDBRANCH   9  10
ENDBRANCH   8   9
ENDBRANCH   7   8
ENDBRANCH   6   7
ENDBRANCH   5   6
ENDBRANCH   4   5
ENDBRANCH   3   4
ENDBRANCH   2   3
ENDBRANCH   1   2
BRANCH   1  13
ATOM     13  C   UNL     1      44.831  27.523   1.027  1.00  0.00     0.000 C 
BRANCH  13  14
ATOM     14  C   UNL     1      45.421  28.879   0.600  1.00  0.00     0.000 C 
BRANCH  14  15
ATOM     15  C   UNL     1      46.362  28.766  -0.612  1.00  0.00     0.000 C 
BRANCH  15  16
ATOM     16  C   UNL     1      46.028  29.782  -1.718  1.00  0.00     0.000 C 
BRANCH  16  17
ATOM     17  C   UNL     1      45.838  29.171  -3.121  1.00  0.00     0.000 C 
BRANCH  17  18
ATOM     18  C   UNL     1      45.789  27.630  -3.163  1.00  0.00     0.000 C 
BRANCH  18  19
ATOM     19  C   UNL     1      45.494  27.029  -4.549  1.00  0.00     0.000 C 
BRANCH  19  20
ATOM     20  C   UNL     1      44.786  28.021  -5.490  1.00  0.00     0.006 C 
BRANCH  20  21
ATOM     21  C   UNL     1      43.332  27.621  -5.764  1.00  0.00     0.053 C 
BRANCH  21  22
ATOM     22  C   UNL     1      42.392  28.770  -5.559  1.00  0.00     0.041 C 
ATOM     23  O   UNL     1      42.643  29.644  -4.686  1.00  0.00    -0.550 OA
ATOM     24  O   UNL     1      41.255  28.892  -6.348  1.00  0.00    -0.550 OA
ENDBRANCH  21  22
ENDBRANCH  20  21
ENDBRANCH  19  20
ENDBRANCH  18  19
ENDBRANCH  17  18
ENDBRANCH  16  17
ENDBRANCH  15  16
ENDBRANCH  14  15
ENDBRANCH  13  14
ENDBRANCH   1  13
TORSDOF 20
ENDMDL
MODEL 3
REMARK VINA RESULT:    -4.017      1.122      2.326
REMARK INTER + INTRA:         -10.550
REMARK INTER:                  -8.816
REMARK INTRA:                  -1.733
REMARK UNBOUND:                -1.836
REMARK SMILES CCCCCCCCCCCCCCCCCCCCCC(=O)[O-]
REMARK SMILES IDX 12 1 11 2 10 3 9 4 8 5 7 6 6 7 5 8 4 9 3 10 2 11 1 12 13 13
REMARK SMILES IDX 14 14 15 15 16 16 17 17 18 18 19 19 20 20 21 21 22 22 23 23
REMARK SMILES IDX 24 24
REMARK H PARENT
REMARK Flexibility Score: inf
ROOT
ATOM      1  C   UNL     1      43.099  28.348   2.662  1.00  0.00     0.000 C 
ENDROOT
BRANCH   1   2
ATOM      2  C   UNL     1      43.726  27.108   1.998  1.00  0.00     0.000 C 
BRANCH   2   3
ATOM      3  C   UNL     1      45.095  26.746   2.597  1.00  0.00     0.000 C 
BRANCH   3   4
ATOM      4  C   UNL     1      44.982  26.049   3.961  1.00  0.00    -0.000 C 
BRANCH   4   5
ATOM      5  C   UNL     1      45.979  26.642   4.966  1.00  0.00    -0.000 C 
BRANCH   5   6
ATOM      6  C   UNL     1      46.401  28.057   4.554  1.00  0.00    -0.000 C 
BRANCH   6   7
ATOM      7  C   UNL     1      46.272  29.037   5.730  1.00  0.00    -0.000 C 
BRANCH   7   8
ATOM      8  C   UNL     1      46.417  28.345   7.094  1.00  0.00    -0.000 C 
BRANCH   8   9
ATOM      9  C   UNL     1      45.472  28.927   8.157  1.00  0.00    -0.000 C 
BRANCH   9  10
ATOM     10  C   UNL     1      45.322  27.960   9.341  1.00  0.00    -0.000 C 
BRANCH  10  11
ATOM     11  C   UNL     1      45.838  26.548   9.021  1.00  0.00    -0.003 C 
ATOM     12  C   UNL     1      46.388  25.824  10.251  1.00  0.00     0.004 C 
ENDBRANCH  10  11
ENDBRANCH   9  10
ENDBRANCH   8   9
ENDBRANCH   7   8
ENDBRANCH   6   7
ENDBRANCH   5   6
ENDBRANCH   4   5
ENDBRANCH   3   4
ENDBRANCH   2   3
ENDBRANCH   1   2
BRANCH   1  13
ATOM     13  C   UNL     1      43.390  29.650   1.893  1.00  0.00     0.000 C 
BRANCH  13  14
ATOM     14  C   UNL     1      44.882  29.938   1.642  1.00  0.00     0.000 C 
BRANCH  14  15
ATOM     15  C   UNL     1      45.256  29.894   0.150  1.00  0.00     0.000 C 
BRANCH  15  16
ATOM     16  C   UNL     1      46.311  28.819  -0.164  1.00  0.00     0.000 C 
BRANCH  16  17
ATOM     17  C   UNL     1      46.601  28.618  -1.665  1.00  0.00     0.000 C 
BRANCH  17  18
ATOM     18  C   UNL     1      45.951  29.656  -2.603  1.00  0.00     0.000 C 
BRANCH  18  19
ATOM     19  C   UNL     1      45.785  29.195  -4.063  1.00  0.00     0.000 C 
BRANCH  19  20
ATOM     20  C   UNL     1      44.940  27.915  -4.191  1.00  0.00     0.006 C 
BRANCH  20  21
ATOM     21  C   UNL     1      44.233  27.823  -5.549  1.00  0.00     0.053 C 
BRANCH  21  22
ATOM     22  C   UNL     1      43.063  28.757  -5.630  1.00  0.00     0.041 C 
ATOM     23  O   UNL     1      43.239  29.967  -5.931  1.00  0.00    -0.550 OA
ATOM     24  O   UNL     1      41.776  28.285  -5.400  1.00  0.00    -0.550 OA
ENDBRANCH  21  22
ENDBRANCH  20  21
ENDBRANCH  19  20
ENDBRANCH  18  19
ENDBRANCH  17  18
ENDBRANCH  16  17
ENDBRANCH  15  16
ENDBRANCH  14  15
ENDBRANCH  13  14
ENDBRANCH   1  13
TORSDOF 20
ENDMDL
MODEL 4
REMARK VINA RESULT:    -3.960      4.712     10.822
REMARK INTER + INTRA:         -10.425
REMARK INTER:                  -8.785
REMARK INTRA:                  -1.640
REMARK UNBOUND:                -1.836
REMARK SMILES CCCCCCCCCCCCCCCCCCCCCC(=O)[O-]
REMARK SMILES IDX 12 1 11 2 10 3 9 4 8 5 7 6 6 7 5 8 4 9 3 10 2 11 1 12 13 13
REMARK SMILES IDX 14 14 15 15 16 16 17 17 18 18 19 19 20 20 21 21 22 22 23 23
REMARK SMILES IDX 24 24
REMARK H PARENT
REMARK Flexibility Score: inf
ROOT
ATOM      1  C   UNL     1      44.163  26.926   2.553  1.00  0.00     0.000 C 
ENDROOT
BRANCH   1   2
ATOM      2  C   UNL     1      44.162  28.465   2.526  1.00  0.00     0.000 C 
BRANCH   2   3
ATOM      3  C   UNL     1      45.579  29.056   2.436  1.00  0.00     0.000 C 
BRANCH   3   4
ATOM      4  C   UNL     1      45.948  29.500   1.012  1.00  0.00    -0.000 C 
BRANCH   4   5
ATOM      5  C   UNL     1      45.917  28.314   0.040  1.00  0.00    -0.000 C 
BRANCH   5   6
ATOM      6  C   UNL     1      46.798  28.583  -1.185  1.00  0.00    -0.000 C 
BRANCH   6   7
ATOM      7  C   UNL     1      45.997  28.429  -2.487  1.00  0.00    -0.000 C 
BRANCH   7   8
ATOM      8  C   UNL     1      46.592  27.368  -3.425  1.00  0.00    -0.000 C 
BRANCH   8   9
ATOM      9  C   UNL     1      45.769  27.185  -4.710  1.00  0.00    -0.000 C 
BRANCH   9  10
ATOM     10  C   UNL     1      45.552  28.532  -5.415  1.00  0.00    -0.000 C 
BRANCH  10  11
ATOM     11  C   UNL     1      44.162  28.644  -6.063  1.00  0.00    -0.003 C 
ATOM     12  C   UNL     1      43.196  27.557  -5.587  1.00  0.00     0.004 C 
ENDBRANCH  10  11
ENDBRANCH   9  10
ENDBRANCH   8   9
ENDBRANCH   7   8
ENDBRANCH   6   7
ENDBRANCH   5   6
ENDBRANCH   4   5
ENDBRANCH   3   4
ENDBRANCH   2   3
ENDBRANCH   1   2
BRANCH   1  13
ATOM     13  C   UNL     1      44.714  26.351   3.872  1.00  0.00     0.000 C 
BRANCH  13  14
ATOM     14  C   UNL     1      46.102  25.693   3.765  1.00  0.00     0.000 C 
BRANCH  14  15
ATOM     15  C   UNL     1      47.123  26.289   4.749  1.00  0.00     0.000 C 
BRANCH  15  16
ATOM     16  C   UNL     1      46.457  26.910   5.989  1.00  0.00     0.000 C 
BRANCH  16  17
ATOM     17  C   UNL     1      46.911  28.348   6.315  1.00  0.00     0.000 C 
BRANCH  17  18
ATOM     18  C   UNL     1      45.792  29.296   6.791  1.00  0.00     0.000 C 
BRANCH  18  19
ATOM     19  C   UNL     1      45.868  29.693   8.277  1.00  0.00     0.000 C 
BRANCH  19  20
ATOM     20  C   UNL     1      45.135  28.700   9.196  1.00  0.00     0.006 C 
BRANCH  20  21
ATOM     21  C   UNL     1      46.102  27.930  10.103  1.00  0.00     0.053 C 
BRANCH  21  22
ATOM     22  C   UNL     1      45.917  26.448   9.980  1.00  0.00     0.041 C 
ATOM     23  O   UNL     1      45.208  25.974   9.052  1.00  0.00    -0.550 OA
ATOM     24  O   UNL     1      46.549  25.589  10.871  1.00  0.00    -0.550 OA
ENDBRANCH  21  22
ENDBRANCH  20  21
ENDBRANCH  19  20
ENDBRANCH  18  19
ENDBRANCH  17  18
ENDBRANCH  16  17
ENDBRANCH  15  16
ENDBRANCH  14  15
ENDBRANCH  13  14
ENDBRANCH   1  13
TORSDOF 20
ENDMDL
MODEL 5
REMARK VINA RESULT:    -3.721      5.091     10.894
REMARK INTER + INTRA:          -9.908
REMARK INTER:                  -8.558
REMARK INTRA:                  -1.349
REMARK UNBOUND:                -1.836
REMARK SMILES CCCCCCCCCCCCCCCCCCCCCC(=O)[O-]
REMARK SMILES IDX 12 1 11 2 10 3 9 4 8 5 7 6 6 7 5 8 4 9 3 10 2 11 1 12 13 13
REMARK SMILES IDX 14 14 15 15 16 16 17 17 18 18 19 19 20 20 21 21 22 22 23 23
REMARK SMILES IDX 24 24
REMARK H PARENT
REMARK Flexibility Score: inf
ROOT
ATOM      1  C   UNL     1      45.364  29.110   1.477  1.00  0.00     0.000 C 
ENDROOT
BRANCH   1   2
ATOM      2  C   UNL     1      45.723  29.633   0.075  1.00  0.00     0.000 C 
BRANCH   2   3
ATOM      3  C   UNL     1      46.794  28.775  -0.620  1.00  0.00     0.000 C 
BRANCH   3   4
ATOM      4  C   UNL     1      47.075  29.227  -2.061  1.00  0.00    -0.000 C 
BRANCH   4   5
ATOM      5  C   UNL     1      45.903  28.877  -2.986  1.00  0.00    -0.000 C 
BRANCH   5   6
ATOM      6  C   UNL     1      45.678  27.362  -3.043  1.00  0.00    -0.000 C 
BRANCH   6   7
ATOM      7  C   UNL     1      45.494  26.884  -4.492  1.00  0.00    -0.000 C 
BRANCH   7   8
ATOM      8  C   UNL     1      46.245  27.762  -5.504  1.00  0.00    -0.000 C 
BRANCH   8   9
ATOM      9  C   UNL     1      45.368  28.883  -6.084  1.00  0.00    -0.000 C 
BRANCH   9  10
ATOM     10  C   UNL     1      44.310  28.308  -7.038  1.00  0.00    -0.000 C 
BRANCH  10  11
ATOM     11  C   UNL     1      42.944  28.998  -6.892  1.00  0.00    -0.003 C 
ATOM     12  C   UNL     1      42.238  28.643  -5.582  1.00  0.00     0.004 C 
ENDBRANCH  10  11
ENDBRANCH   9  10
ENDBRANCH   8   9
ENDBRANCH   7   8
ENDBRANCH   6   7
ENDBRANCH   5   6
ENDBRANCH   4   5
ENDBRANCH   3   4
ENDBRANCH   2   3
ENDBRANCH   1   2
BRANCH   1  13
ATOM     13  C   UNL     1      45.032  27.606   1.489  1.00  0.00     0.000 C 
BRANCH  13  14
ATOM     14  C   UNL     1      44.133  27.148   2.652  1.00  0.00     0.000 C 
BRANCH  14  15
ATOM     15  C   UNL     1      44.871  26.248   3.658  1.00  0.00     0.000 C 
BRANCH  15  16
ATOM     16  C   UNL     1      46.401  26.355   3.537  1.00  0.00     0.000 C 
BRANCH  16  17
ATOM     17  C   UNL     1      47.046  27.434   4.430  1.00  0.00     0.000 C 
BRANCH  17  18
ATOM     18  C   UNL     1      46.093  28.103   5.442  1.00  0.00     0.000 C 
BRANCH  18  19
ATOM     19  C   UNL     1      46.598  28.116   6.896  1.00  0.00     0.000 C 
BRANCH  19  20
ATOM     20  C   UNL     1      46.720  26.704   7.497  1.00  0.00     0.006 C 
BRANCH  20  21
ATOM     21  C   UNL     1      45.621  26.417   8.527  1.00  0.00     0.053 C 
BRANCH  21  22
ATOM     22  C   UNL     1      46.162  26.403   9.925  1.00  0.00     0.041 C 
ATOM     23  O   UNL     1      46.380  25.307  10.508  1.00  0.00    -0.550 OA
ATOM     24  O   UNL     1      46.452  27.598  10.574  1.00  0.00    -0.550 OA
ENDBRANCH  21  22
ENDBRANCH  20  21
ENDBRANCH  19  20
ENDBRANCH  18  19
ENDBRANCH  17  18
ENDBRANCH  16  17
ENDBRANCH  15  16
ENDBRANCH  14  15
ENDBRANCH  13  14
ENDBRANCH   1  13
TORSDOF 20
ENDMDL
MODEL 6
REMARK VINA RESULT:    -3.699      4.294     10.741
REMARK INTER + INTRA:          -9.860
REMARK INTER:                  -8.443
REMARK INTRA:                  -1.417
REMARK UNBOUND:                -1.836
REMARK SMILES CCCCCCCCCCCCCCCCCCCCCC(=O)[O-]
REMARK SMILES IDX 12 1 11 2 10 3 9 4 8 5 7 6 6 7 5 8 4 9 3 10 2 11 1 12 13 13
REMARK SMILES IDX 14 14 15 15 16 16 17 17 18 18 19 19 20 20 21 21 22 22 23 23
REMARK SMILES IDX 24 24
REMARK H PARENT
REMARK Flexibility Score: inf
ROOT
ATOM      1  C   UNL     1      43.945  27.138   1.987  1.00  0.00     0.000 C 
ENDROOT
BRANCH   1   2
ATOM      2  C   UNL     1      44.540  28.453   1.454  1.00  0.00     0.000 C 
BRANCH   2   3
ATOM      3  C   UNL     1      45.640  28.221   0.404  1.00  0.00     0.000 C 
BRANCH   3   4
ATOM      4  C   UNL     1      46.437  29.495   0.086  1.00  0.00    -0.000 C 
BRANCH   4   5
ATOM      5  C   UNL     1      46.729  29.602  -1.416  1.00  0.00    -0.000 C 
BRANCH   5   6
ATOM      6  C   UNL     1      46.054  28.463  -2.190  1.00  0.00    -0.000 C 
BRANCH   6   7
ATOM      7  C   UNL     1      47.087  27.637  -2.971  1.00  0.00    -0.000 C 
BRANCH   7   8
ATOM      8  C   UNL     1      46.744  27.521  -4.464  1.00  0.00    -0.000 C 
BRANCH   8   9
ATOM      9  C   UNL     1      45.302  27.046  -4.706  1.00  0.00    -0.000 C 
BRANCH   9  10
ATOM     10  C   UNL     1      44.734  27.664  -5.993  1.00  0.00    -0.000 C 
BRANCH  10  11
ATOM     11  C   UNL     1      43.708  28.774  -5.714  1.00  0.00    -0.003 C 
ATOM     12  C   UNL     1      42.299  28.232  -5.466  1.00  0.00     0.004 C 
ENDBRANCH  10  11
ENDBRANCH   9  10
ENDBRANCH   8   9
ENDBRANCH   7   8
ENDBRANCH   6   7
ENDBRANCH   5   6
ENDBRANCH   4   5
ENDBRANCH   3   4
ENDBRANCH   2   3
ENDBRANCH   1   2
BRANCH   1  13
ATOM     13  C   UNL     1      44.396  26.814   3.424  1.00  0.00     0.000 C 
BRANCH  13  14
ATOM     14  C   UNL     1      45.858  26.351   3.557  1.00  0.00     0.000 C 
BRANCH  14  15
ATOM     15  C   UNL     1      46.807  27.481   3.991  1.00  0.00     0.000 C 
BRANCH  15  16
ATOM     16  C   UNL     1      46.891  27.629   5.520  1.00  0.00     0.000 C 
BRANCH  16  17
ATOM     17  C   UNL     1      46.348  26.425   6.317  1.00  0.00     0.000 C 
BRANCH  17  18
ATOM     18  C   UNL     1      46.793  26.361   7.792  1.00  0.00     0.000 C 
BRANCH  18  19
ATOM     19  C   UNL     1      45.647  26.436   8.818  1.00  0.00     0.000 C 
BRANCH  19  20
ATOM     20  C   UNL     1      45.993  27.315  10.033  1.00  0.00     0.006 C 
BRANCH  20  21
ATOM     21  C   UNL     1      46.460  28.716   9.618  1.00  0.00     0.053 C 
BRANCH  21  22
ATOM     22  C   UNL     1      45.321  29.556   9.123  1.00  0.00     0.041 C 
ATOM     23  O   UNL     1      45.246  29.862   7.903  1.00  0.00    -0.550 OA
ATOM     24  O   UNL     1      44.330  29.977  10.001  1.00  0.00    -0.550 OA
ENDBRANCH  21  22
ENDBRANCH  20  21
ENDBRANCH  19  20
ENDBRANCH  18  19
ENDBRANCH  17  18
ENDBRANCH  16  17
ENDBRANCH  15  16
ENDBRANCH  14  15
ENDBRANCH  13  14
ENDBRANCH   1  13
TORSDOF 20
ENDMDL
MODEL 7
REMARK VINA RESULT:    -3.447      1.398      2.231
REMARK INTER + INTRA:          -9.314
REMARK INTER:                  -7.697
REMARK INTRA:                  -1.617
REMARK UNBOUND:                -1.836
REMARK SMILES CCCCCCCCCCCCCCCCCCCCCC(=O)[O-]
REMARK SMILES IDX 12 1 11 2 10 3 9 4 8 5 7 6 6 7 5 8 4 9 3 10 2 11 1 12 13 13
REMARK SMILES IDX 14 14 15 15 16 16 17 17 18 18 19 19 20 20 21 21 22 22 23 23
REMARK SMILES IDX 24 24
REMARK H PARENT
REMARK Flexibility Score: inf
ROOT
ATOM      1  C   UNL     1      44.246  27.821   2.275  1.00  0.00     0.000 C 
ENDROOT
BRANCH   1   2
ATOM      2  C   UNL     1      43.628  29.202   2.562  1.00  0.00     0.000 C 
BRANCH   2   3
ATOM      3  C   UNL     1      44.575  30.120   3.353  1.00  0.00     0.000 C 
BRANCH   3   4
ATOM      4  C   UNL     1      45.971  29.509   3.547  1.00  0.00    -0.000 C 
BRANCH   4   5
ATOM      5  C   UNL     1      46.667  30.106   4.776  1.00  0.00    -0.000 C 
BRANCH   5   6
ATOM      6  C   UNL     1      46.759  29.079   5.911  1.00  0.00    -0.000 C 
BRANCH   6   7
ATOM      7  C   UNL     1      46.468  27.661   5.397  1.00  0.00    -0.000 C 
BRANCH   7   8
ATOM      8  C   UNL     1      46.701  26.585   6.468  1.00  0.00    -0.000 C 
BRANCH   8   9
ATOM      9  C   UNL     1      46.927  27.180   7.867  1.00  0.00    -0.000 C 
BRANCH   9  10
ATOM     10  C   UNL     1      45.596  27.321   8.621  1.00  0.00    -0.000 C 
BRANCH  10  11
ATOM     11  C   UNL     1      45.623  26.643  10.001  1.00  0.00    -0.003 C 
ATOM     12  C   UNL     1      46.923  25.879  10.262  1.00  0.00     0.004 C 
ENDBRANCH  10  11
ENDBRANCH   9  10
ENDBRANCH   8   9
ENDBRANCH   7   8
ENDBRANCH   6   7
ENDBRANCH   5   6
ENDBRANCH   4   5
ENDBRANCH   3   4
ENDBRANCH   2   3
ENDBRANCH   1   2
BRANCH   1  13
ATOM     13  C   UNL     1      44.512  27.584   0.777  1.00  0.00     0.000 C 
BRANCH  13  14
ATOM     14  C   UNL     1      45.954  27.871   0.319  1.00  0.00     0.000 C 
BRANCH  14  15
ATOM     15  C   UNL     1      46.127  29.287  -0.258  1.00  0.00     0.000 C 
BRANCH  15  16
ATOM     16  C   UNL     1      45.993  29.322  -1.790  1.00  0.00     0.000 C 
BRANCH  16  17
ATOM     17  C   UNL     1      46.366  28.006  -2.501  1.00  0.00     0.000 C 
BRANCH  17  18
ATOM     18  C   UNL     1      46.162  28.006  -4.030  1.00  0.00     0.000 C 
BRANCH  18  19
ATOM     19  C   UNL     1      44.915  27.246  -4.517  1.00  0.00     0.000 C 
BRANCH  19  20
ATOM     20  C   UNL     1      44.469  27.675  -5.927  1.00  0.00     0.006 C 
BRANCH  20  21
ATOM     21  C   UNL     1      43.926  29.108  -5.950  1.00  0.00     0.053 C 
BRANCH  21  22
ATOM     22  C   UNL     1      42.571  29.198  -5.316  1.00  0.00     0.041 C 
ATOM     23  O   UNL     1      42.315  30.125  -4.501  1.00  0.00    -0.550 OA
ATOM     24  O   UNL     1      41.584  28.277  -5.644  1.00  0.00    -0.550 OA
ENDBRANCH  21  22
ENDBRANCH  20  21
ENDBRANCH  19  20
ENDBRANCH  18  19
ENDBRANCH  17  18
ENDBRANCH  16  17
ENDBRANCH  15  16
ENDBRANCH  14  15
ENDBRANCH  13  14
ENDBRANCH   1  13
TORSDOF 20
ENDMDL
MODEL 8
REMARK VINA RESULT:    -3.271      1.417      3.475
REMARK INTER + INTRA:          -8.931
REMARK INTER:                  -8.211
REMARK INTRA:                  -0.720
REMARK UNBOUND:                -1.836
REMARK SMILES CCCCCCCCCCCCCCCCCCCCCC(=O)[O-]
REMARK SMILES IDX 12 1 11 2 10 3 9 4 8 5 7 6 6 7 5 8 4 9 3 10 2 11 1 12 13 13
REMARK SMILES IDX 14 14 15 15 16 16 17 17 18 18 19 19 20 20 21 21 22 22 23 23
REMARK SMILES IDX 24 24
REMARK H PARENT
REMARK Flexibility Score: inf
ROOT
ATOM      1  C   UNL     1      44.848  26.362   3.520  1.00  0.00     0.000 C 
ENDROOT
BRANCH   1   2
ATOM      2  C   UNL     1      46.101  25.884   4.277  1.00  0.00     0.000 C 
BRANCH   2   3
ATOM      3  C   UNL     1      46.459  26.798   5.461  1.00  0.00     0.000 C 
BRANCH   3   4
ATOM      4  C   UNL     1      46.876  28.209   5.019  1.00  0.00    -0.000 C 
BRANCH   4   5
ATOM      5  C   UNL     1      46.379  29.266   6.013  1.00  0.00    -0.000 C 
BRANCH   5   6
ATOM      6  C   UNL     1      46.057  28.636   7.373  1.00  0.00    -0.000 C 
BRANCH   6   7
ATOM      7  C   UNL     1      45.234  29.595   8.246  1.00  0.00    -0.000 C 
BRANCH   7   8
ATOM      8  C   UNL     1      45.033  29.068   9.675  1.00  0.00    -0.000 C 
BRANCH   8   9
ATOM      9  C   UNL     1      46.280  29.249  10.555  1.00  0.00    -0.000 C 
BRANCH   9  10
ATOM     10  C   UNL     1      47.081  27.942  10.642  1.00  0.00    -0.000 C 
BRANCH  10  11
ATOM     11  C   UNL     1      46.198  26.694  10.477  1.00  0.00    -0.003 C 
ATOM     12  C   UNL     1      46.722  25.733   9.409  1.00  0.00     0.004 C 
ENDBRANCH  10  11
ENDBRANCH   9  10
ENDBRANCH   8   9
ENDBRANCH   7   8
ENDBRANCH   6   7
ENDBRANCH   5   6
ENDBRANCH   4   5
ENDBRANCH   3   4
ENDBRANCH   2   3
ENDBRANCH   1   2
BRANCH   1  13
ATOM     13  C   UNL     1      45.049  27.723   2.828  1.00  0.00     0.000 C 
BRANCH  13  14
ATOM     14  C   UNL     1      44.638  27.766   1.345  1.00  0.00     0.000 C 
BRANCH  14  15
ATOM     15  C   UNL     1      45.255  28.955   0.587  1.00  0.00     0.000 C 
BRANCH  15  16
ATOM     16  C   UNL     1      46.564  28.584  -0.131  1.00  0.00     0.000 C 
BRANCH  16  17
ATOM     17  C   UNL     1      46.939  29.508  -1.307  1.00  0.00     0.000 C 
BRANCH  17  18
ATOM     18  C   UNL     1      46.101  29.313  -2.587  1.00  0.00     0.000 C 
BRANCH  18  19
ATOM     19  C   UNL     1      46.631  28.236  -3.551  1.00  0.00     0.000 C 
BRANCH  19  20
ATOM     20  C   UNL     1      45.524  27.297  -4.061  1.00  0.00     0.006 C 
BRANCH  20  21
ATOM     21  C   UNL     1      45.391  27.335  -5.588  1.00  0.00     0.053 C 
BRANCH  21  22
ATOM     22  C   UNL     1      44.075  27.911  -6.016  1.00  0.00     0.041 C 
ATOM     23  O   UNL     1      42.998  27.398  -5.608  1.00  0.00    -0.550 OA
ATOM     24  O   UNL     1      44.036  29.028  -6.841  1.00  0.00    -0.550 OA
ENDBRANCH  21  22
ENDBRANCH  20  21
ENDBRANCH  19  20
ENDBRANCH  18  19
ENDBRANCH  17  18
ENDBRANCH  16  17
ENDBRANCH  15  16
ENDBRANCH  14  15
ENDBRANCH  13  14
ENDBRANCH   1  13
TORSDOF 20
ENDMDL
MODEL 9
REMARK VINA RESULT:    -3.105      1.481      2.223
REMARK INTER + INTRA:          -8.571
REMARK INTER:                  -7.360
REMARK INTRA:                  -1.210
REMARK UNBOUND:                -1.836
REMARK SMILES CCCCCCCCCCCCCCCCCCCCCC(=O)[O-]
REMARK SMILES IDX 12 1 11 2 10 3 9 4 8 5 7 6 6 7 5 8 4 9 3 10 2 11 1 12 13 13
REMARK SMILES IDX 14 14 15 15 16 16 17 17 18 18 19 19 20 20 21 21 22 22 23 23
REMARK SMILES IDX 24 24
REMARK H PARENT
REMARK Flexibility Score: inf
ROOT
ATOM      1  C   UNL     1      45.727  28.750   0.603  1.00  0.00     0.000 C 
ENDROOT
BRANCH   1   2
ATOM      2  C   UNL     1      45.764  30.053   1.420  1.00  0.00     0.000 C 
BRANCH   2   3
ATOM      3  C   UNL     1      46.976  30.125   2.364  1.00  0.00     0.000 C 
BRANCH   3   4
ATOM      4  C   UNL     1      46.671  29.574   3.766  1.00  0.00    -0.000 C 
BRANCH   4   5
ATOM      5  C   UNL     1      47.072  28.097   3.876  1.00  0.00    -0.000 C 
BRANCH   5   6
ATOM      6  C   UNL     1      45.843  27.209   4.099  1.00  0.00    -0.000 C 
BRANCH   6   7
ATOM      7  C   UNL     1      46.001  26.354   5.366  1.00  0.00    -0.000 C 
BRANCH   7   8
ATOM      8  C   UNL     1      46.528  27.162   6.561  1.00  0.00    -0.000 C 
BRANCH   8   9
ATOM      9  C   UNL     1      46.339  26.431   7.900  1.00  0.00    -0.000 C 
BRANCH   9  10
ATOM     10  C   UNL     1      45.567  27.309   8.896  1.00  0.00    -0.000 C 
BRANCH  10  11
ATOM     11  C   UNL     1      46.001  28.783   8.848  1.00  0.00    -0.003 C 
ATOM     12  C   UNL     1      44.838  29.751   9.071  1.00  0.00     0.004 C 
ENDBRANCH  10  11
ENDBRANCH   9  10
ENDBRANCH   8   9
ENDBRANCH   7   8
ENDBRANCH   6   7
ENDBRANCH   5   6
ENDBRANCH   4   5
ENDBRANCH   3   4
ENDBRANCH   2   3
ENDBRANCH   1   2
BRANCH   1  13
ATOM     13  C   UNL     1      46.702  28.764  -0.590  1.00  0.00     0.000 C 
BRANCH  13  14
ATOM     14  C   UNL     1      46.213  29.550  -1.820  1.00  0.00     0.000 C 
BRANCH  14  15
ATOM     15  C   UNL     1      46.505  28.828  -3.147  1.00  0.00     0.000 C 
BRANCH  15  16
ATOM     16  C   UNL     1      46.895  29.798  -4.275  1.00  0.00     0.000 C 
BRANCH  16  17
ATOM     17  C   UNL     1      46.151  29.572  -5.607  1.00  0.00     0.000 C 
BRANCH  17  18
ATOM     18  C   UNL     1      46.624  28.352  -6.423  1.00  0.00     0.000 C 
BRANCH  18  19
ATOM     19  C   UNL     1      45.500  27.402  -6.878  1.00  0.00     0.000 C 
BRANCH  19  20
ATOM     20  C   UNL     1      44.156  28.125  -7.080  1.00  0.00     0.006 C 
BRANCH  20  21
ATOM     21  C   UNL     1      43.148  27.789  -5.975  1.00  0.00     0.053 C 
BRANCH  21  22
ATOM     22  C   UNL     1      42.278  28.963  -5.642  1.00  0.00     0.041 C 
ATOM     23  O   UNL     1      42.576  29.717  -4.677  1.00  0.00    -0.550 OA
ATOM     24  O   UNL     1      41.155  29.242  -6.412  1.00  0.00    -0.550 OA
ENDBRANCH  21  22
ENDBRANCH  20  21
ENDBRANCH  19  20
ENDBRANCH  18  19
ENDBRANCH  17  18
ENDBRANCH  16  17
ENDBRANCH  15  16
ENDBRANCH  14  15
ENDBRANCH  13  14
ENDBRANCH   1  13
TORSDOF 20
ENDMDL
