MODEL 1
REMARK VINA RESULT:     3.669      0.000      0.000
REMARK INTER + INTRA:           6.970
REMARK INTER:                   7.959
REMARK INTRA:                  -0.989
REMARK UNBOUND:                -0.989
REMARK SMILES CCCCCCCCCCCCCCCCCCCCCC(=O)[O-]
REMARK SMILES IDX 12 1 11 2 10 3 9 4 8 5 7 6 6 7 5 8 4 9 3 10 2 11 1 12 13 13
REMARK SMILES IDX 14 14 15 15 16 16 17 17 18 18 19 19 20 20 21 21 22 22 23 23
REMARK SMILES IDX 24 24
REMARK H PARENT
REMARK Flexibility Score: inf
ROOT
ATOM      1  C   UNL     1       3.362   2.563  -1.137  1.00  0.00     0.000 C 
ENDROOT
BRANCH   1   2
ATOM      2  C   UNL     1       3.329   3.559   0.040  1.00  0.00     0.000 C 
BRANCH   2   3
ATOM      3  C   UNL     1       3.074   5.021  -0.379  1.00  0.00     0.000 C 
BRANCH   3   4
ATOM      4  C   UNL     1       1.595   5.284  -0.702  1.00  0.00    -0.000 C 
BRANCH   4   5
ATOM      5  C   UNL     1       0.679   4.389   0.143  1.00  0.00    -0.000 C 
BRANCH   5   6
ATOM      6  C   UNL     1      -0.413   3.746  -0.724  1.00  0.00    -0.000 C 
BRANCH   6   7
ATOM      7  C   UNL     1      -0.343   2.212  -0.728  1.00  0.00    -0.000 C 
BRANCH   7   8
ATOM      8  C   UNL     1      -1.220   1.581  -1.824  1.00  0.00    -0.000 C 
BRANCH   8   9
ATOM      9  C   UNL     1      -2.074   0.420  -1.282  1.00  0.00    -0.000 C 
BRANCH   9  10
ATOM     10  C   UNL     1      -2.217  -0.746  -2.285  1.00  0.00    -0.000 C 
BRANCH  10  11
ATOM     11  C   UNL     1      -2.932  -1.974  -1.697  1.00  0.00    -0.003 C 
ATOM     12  C   UNL     1      -3.757  -1.641  -0.454  1.00  0.00     0.004 C 
ENDBRANCH  10  11
ENDBRANCH   9  10
ENDBRANCH   8   9
ENDBRANCH   7   8
ENDBRANCH   6   7
ENDBRANCH   5   6
ENDBRANCH   4   5
ENDBRANCH   3   4
ENDBRANCH   2   3
ENDBRANCH   1   2
BRANCH   1  13
ATOM     13  C   UNL     1       2.830   1.149  -0.828  1.00  0.00     0.000 C 
BRANCH  13  14
ATOM     14  C   UNL     1       2.002   0.501  -1.958  1.00  0.00     0.000 C 
BRANCH  14  15
ATOM     15  C   UNL     1       1.296  -0.810  -1.558  1.00  0.00     0.000 C 
BRANCH  15  16
ATOM     16  C   UNL     1       0.651  -0.771  -0.157  1.00  0.00     0.000 C 
BRANCH  16  17
ATOM     17  C   UNL     1      -0.067  -2.088   0.187  1.00  0.00     0.000 C 
BRANCH  17  18
ATOM     18  C   UNL     1       0.141  -3.171  -0.886  1.00  0.00     0.000 C 
BRANCH  18  19
ATOM     19  C   UNL     1      -0.289  -4.583  -0.429  1.00  0.00     0.000 C 
BRANCH  19  20
ATOM     20  C   UNL     1      -1.790  -4.688  -0.099  1.00  0.00     0.006 C 
BRANCH  20  21
ATOM     21  C   UNL     1      -2.609  -5.425  -1.170  1.00  0.00     0.053 C 
BRANCH  21  22
ATOM     22  C   UNL     1      -3.689  -6.269  -0.563  1.00  0.00     0.041 C 
ATOM     23  O   UNL     1      -4.627  -5.733   0.082  1.00  0.00    -0.550 OA
ATOM     24  O   UNL     1      -3.661  -7.650  -0.714  1.00  0.00    -0.550 OA
ENDBRANCH  21  22
ENDBRANCH  20  21
ENDBRANCH  19  20
ENDBRANCH  18  19
ENDBRANCH  17  18
ENDBRANCH  16  17
ENDBRANCH  15  16
ENDBRANCH  14  15
ENDBRANCH  13  14
ENDBRANCH   1  13
TORSDOF 20
ENDMDL
MODEL 2
REMARK VINA RESULT:     3.863      0.899      4.116
REMARK INTER + INTRA:           7.391
REMARK INTER:                   8.650
REMARK INTRA:                  -1.259
REMARK UNBOUND:                -0.989
REMARK SMILES CCCCCCCCCCCCCCCCCCCCCC(=O)[O-]
REMARK SMILES IDX 12 1 11 2 10 3 9 4 8 5 7 6 6 7 5 8 4 9 3 10 2 11 1 12 13 13
REMARK SMILES IDX 14 14 15 15 16 16 17 17 18 18 19 19 20 20 21 21 22 22 23 23
REMARK SMILES IDX 24 24
REMARK H PARENT
REMARK Flexibility Score: inf
ROOT
ATOM      1  C   UNL     1       1.516  -1.402  -1.843  1.00  0.00     0.000 C 
ENDROOT
BRANCH   1   2
ATOM      2  C   UNL     1       1.279  -0.035  -2.515  1.00  0.00     0.000 C 
BRANCH   2   3
ATOM      3  C   UNL     1       2.170   1.099  -1.968  1.00  0.00     0.000 C 
BRANCH   3   4
ATOM      4  C   UNL     1       3.016   0.645  -0.768  1.00  0.00    -0.000 C 
BRANCH   4   5
ATOM      5  C   UNL     1       3.662   1.844  -0.063  1.00  0.00    -0.000 C 
BRANCH   5   6
ATOM      6  C   UNL     1       3.347   3.152  -0.805  1.00  0.00    -0.000 C 
BRANCH   6   7
ATOM      7  C   UNL     1       3.450   4.389   0.101  1.00  0.00    -0.000 C 
BRANCH   7   8
ATOM      8  C   UNL     1       2.699   5.605  -0.468  1.00  0.00    -0.000 C 
BRANCH   8   9
ATOM      9  C   UNL     1       1.292   5.231  -0.968  1.00  0.00    -0.000 C 
BRANCH   9  10
ATOM     10  C   UNL     1       0.446   4.497   0.097  1.00  0.00    -0.000 C 
BRANCH  10  11
ATOM     11  C   UNL     1      -0.060   3.121  -0.366  1.00  0.00    -0.003 C 
ATOM     12  C   UNL     1      -1.174   3.218  -1.408  1.00  0.00     0.004 C 
ENDBRANCH  10  11
ENDBRANCH   9  10
ENDBRANCH   8   9
ENDBRANCH   7   8
ENDBRANCH   6   7
ENDBRANCH   5   6
ENDBRANCH   4   5
ENDBRANCH   3   4
ENDBRANCH   2   3
ENDBRANCH   1   2
BRANCH   1  13
ATOM     13  C   UNL     1       0.382  -1.899  -0.923  1.00  0.00     0.000 C 
BRANCH  13  14
ATOM     14  C   UNL     1      -0.050  -0.905   0.176  1.00  0.00     0.000 C 
BRANCH  14  15
ATOM     15  C   UNL     1      -1.280  -0.050  -0.187  1.00  0.00     0.000 C 
BRANCH  15  16
ATOM     16  C   UNL     1      -1.671  -0.118  -1.677  1.00  0.00     0.000 C 
BRANCH  16  17
ATOM     17  C   UNL     1      -2.684  -1.241  -1.960  1.00  0.00     0.000 C 
BRANCH  17  18
ATOM     18  C   UNL     1      -3.533  -1.593  -0.726  1.00  0.00     0.000 C 
BRANCH  18  19
ATOM     19  C   UNL     1      -3.227  -2.993  -0.146  1.00  0.00     0.000 C 
BRANCH  19  20
ATOM     20  C   UNL     1      -2.525  -3.930  -1.147  1.00  0.00     0.006 C 
BRANCH  20  21
ATOM     21  C   UNL     1      -2.242  -5.332  -0.588  1.00  0.00     0.053 C 
BRANCH  21  22
ATOM     22  C   UNL     1      -3.466  -6.198  -0.609  1.00  0.00     0.041 C 
ATOM     23  O   UNL     1      -3.427  -7.340  -1.137  1.00  0.00    -0.550 OA
ATOM     24  O   UNL     1      -4.650  -5.743  -0.042  1.00  0.00    -0.550 OA
ENDBRANCH  21  22
ENDBRANCH  20  21
ENDBRANCH  19  20
ENDBRANCH  18  19
ENDBRANCH  17  18
ENDBRANCH  16  17
ENDBRANCH  15  16
ENDBRANCH  14  15
ENDBRANCH  13  14
ENDBRANCH   1  13
TORSDOF 20
ENDMDL
MODEL 3
REMARK VINA RESULT:     3.924      4.558      8.355
REMARK INTER + INTRA:           7.523
REMARK INTER:                   9.008
REMARK INTRA:                  -1.485
REMARK UNBOUND:                -0.989
REMARK SMILES CCCCCCCCCCCCCCCCCCCCCC(=O)[O-]
REMARK SMILES IDX 12 1 11 2 10 3 9 4 8 5 7 6 6 7 5 8 4 9 3 10 2 11 1 12 13 13
REMARK SMILES IDX 14 14 15 15 16 16 17 17 18 18 19 19 20 20 21 21 22 22 23 23
REMARK SMILES IDX 24 24
REMARK H PARENT
REMARK Flexibility Score: inf
ROOT
ATOM      1  C   UNL     1      -1.536   1.081  -1.565  1.00  0.00     0.000 C 
ENDROOT
BRANCH   1   2
ATOM      2  C   UNL     1      -1.486  -0.140  -2.503  1.00  0.00     0.000 C 
BRANCH   2   3
ATOM      3  C   UNL     1      -2.415  -1.297  -2.082  1.00  0.00     0.000 C 
BRANCH   3   4
ATOM      4  C   UNL     1      -3.082  -1.040  -0.722  1.00  0.00    -0.000 C 
BRANCH   4   5
ATOM      5  C   UNL     1      -3.753  -2.312  -0.188  1.00  0.00    -0.000 C 
BRANCH   5   6
ATOM      6  C   UNL     1      -3.441  -3.517  -1.087  1.00  0.00    -0.000 C 
BRANCH   6   7
ATOM      7  C   UNL     1      -3.632  -4.861  -0.368  1.00  0.00    -0.000 C 
BRANCH   7   8
ATOM      8  C   UNL     1      -2.565  -5.899  -0.757  1.00  0.00    -0.000 C 
BRANCH   8   9
ATOM      9  C   UNL     1      -1.188  -5.252  -0.987  1.00  0.00    -0.000 C 
BRANCH   9  10
ATOM     10  C   UNL     1      -0.652  -4.511   0.259  1.00  0.00    -0.000 C 
BRANCH  10  11
ATOM     11  C   UNL     1      -0.075  -3.121  -0.058  1.00  0.00    -0.003 C 
ATOM     12  C   UNL     1       0.582  -3.052  -1.435  1.00  0.00     0.004 C 
ENDBRANCH  10  11
ENDBRANCH   9  10
ENDBRANCH   8   9
ENDBRANCH   7   8
ENDBRANCH   6   7
ENDBRANCH   5   6
ENDBRANCH   4   5
ENDBRANCH   3   4
ENDBRANCH   2   3
ENDBRANCH   1   2
BRANCH   1  13
ATOM     13  C   UNL     1      -0.350   1.220  -0.588  1.00  0.00     0.000 C 
BRANCH  13  14
ATOM     14  C   UNL     1       0.760   0.160  -0.751  1.00  0.00     0.000 C 
BRANCH  14  15
ATOM     15  C   UNL     1       1.654   0.361  -1.991  1.00  0.00     0.000 C 
BRANCH  15  16
ATOM     16  C   UNL     1       2.639   1.541  -1.867  1.00  0.00     0.000 C 
BRANCH  16  17
ATOM     17  C   UNL     1       3.305   1.597  -0.480  1.00  0.00     0.000 C 
BRANCH  17  18
ATOM     18  C   UNL     1       3.061   2.936   0.237  1.00  0.00     0.000 C 
BRANCH  18  19
ATOM     19  C   UNL     1       1.602   3.436   0.131  1.00  0.00     0.000 C 
BRANCH  19  20
ATOM     20  C   UNL     1       1.492   4.921  -0.262  1.00  0.00     0.006 C 
BRANCH  20  21
ATOM     21  C   UNL     1       2.655   5.419  -1.133  1.00  0.00     0.053 C 
BRANCH  21  22
ATOM     22  C   UNL     1       3.532   6.384  -0.392  1.00  0.00     0.041 C 
ATOM     23  O   UNL     1       4.576   5.983   0.182  1.00  0.00    -0.550 OA
ATOM     24  O   UNL     1       3.194   7.732  -0.341  1.00  0.00    -0.550 OA
ENDBRANCH  21  22
ENDBRANCH  20  21
ENDBRANCH  19  20
ENDBRANCH  18  19
ENDBRANCH  17  18
ENDBRANCH  16  17
ENDBRANCH  15  16
ENDBRANCH  14  15
ENDBRANCH  13  14
ENDBRANCH   1  13
TORSDOF 20
ENDMDL
MODEL 4
REMARK VINA RESULT:     3.978      4.434      8.353
REMARK INTER + INTRA:           7.641
REMARK INTER:                   8.526
REMARK INTRA:                  -0.885
REMARK UNBOUND:                -0.989
REMARK SMILES CCCCCCCCCCCCCCCCCCCCCC(=O)[O-]
REMARK SMILES IDX 12 1 11 2 10 3 9 4 8 5 7 6 6 7 5 8 4 9 3 10 2 11 1 12 13 13
REMARK SMILES IDX 14 14 15 15 16 16 17 17 18 18 19 19 20 20 21 21 22 22 23 23
REMARK SMILES IDX 24 24
REMARK H PARENT
REMARK Flexibility Score: inf
ROOT
ATOM      1  C   UNL     1      -0.789  -4.855   0.015  1.00  0.00     0.000 C 
ENDROOT
BRANCH   1   2
ATOM      2  C   UNL     1      -1.850  -5.569  -0.845  1.00  0.00     0.000 C 
BRANCH   2   3
ATOM      3  C   UNL     1      -3.300  -5.136  -0.544  1.00  0.00     0.000 C 
BRANCH   3   4
ATOM      4  C   UNL     1      -3.387  -3.669  -0.098  1.00  0.00    -0.000 C 
BRANCH   4   5
ATOM      5  C   UNL     1      -3.477  -2.729  -1.307  1.00  0.00    -0.000 C 
BRANCH   5   6
ATOM      6  C   UNL     1      -2.907  -1.344  -0.968  1.00  0.00    -0.000 C 
BRANCH   6   7
ATOM      7  C   UNL     1      -2.110  -0.728  -2.128  1.00  0.00    -0.000 C 
BRANCH   7   8
ATOM      8  C   UNL     1      -1.481   0.628  -1.763  1.00  0.00    -0.000 C 
BRANCH   8   9
ATOM      9  C   UNL     1      -1.089   0.700  -0.276  1.00  0.00    -0.000 C 
BRANCH   9  10
ATOM     10  C   UNL     1      -0.149   1.883   0.046  1.00  0.00    -0.000 C 
BRANCH  10  11
ATOM     11  C   UNL     1      -0.474   3.157  -0.752  1.00  0.00    -0.003 C 
ATOM     12  C   UNL     1      -0.011   4.432  -0.049  1.00  0.00     0.004 C 
ENDBRANCH  10  11
ENDBRANCH   9  10
ENDBRANCH   8   9
ENDBRANCH   7   8
ENDBRANCH   6   7
ENDBRANCH   5   6
ENDBRANCH   4   5
ENDBRANCH   3   4
ENDBRANCH   2   3
ENDBRANCH   1   2
BRANCH   1  13
ATOM     13  C   UNL     1       0.320  -4.121  -0.767  1.00  0.00     0.000 C 
BRANCH  13  14
ATOM     14  C   UNL     1       0.229  -2.580  -0.740  1.00  0.00     0.000 C 
BRANCH  14  15
ATOM     15  C   UNL     1       1.232  -1.867  -1.667  1.00  0.00     0.000 C 
BRANCH  15  16
ATOM     16  C   UNL     1       1.582  -0.432  -1.225  1.00  0.00     0.000 C 
BRANCH  16  17
ATOM     17  C   UNL     1       1.906   0.481  -2.421  1.00  0.00     0.000 C 
BRANCH  17  18
ATOM     18  C   UNL     1       2.529   1.819  -1.988  1.00  0.00     0.000 C 
BRANCH  18  19
ATOM     19  C   UNL     1       3.306   1.736  -0.655  1.00  0.00     0.000 C 
BRANCH  19  20
ATOM     20  C   UNL     1       3.323   3.062   0.127  1.00  0.00     0.006 C 
BRANCH  20  21
ATOM     21  C   UNL     1       2.871   4.275  -0.701  1.00  0.00     0.053 C 
BRANCH  21  22
ATOM     22  C   UNL     1       3.580   5.529  -0.286  1.00  0.00     0.041 C 
ATOM     23  O   UNL     1       4.644   5.466   0.382  1.00  0.00    -0.550 OA
ATOM     24  O   UNL     1       3.064   6.770  -0.641  1.00  0.00    -0.550 OA
ENDBRANCH  21  22
ENDBRANCH  20  21
ENDBRANCH  19  20
ENDBRANCH  18  19
ENDBRANCH  17  18
ENDBRANCH  16  17
ENDBRANCH  15  16
ENDBRANCH  14  15
ENDBRANCH  13  14
ENDBRANCH   1  13
TORSDOF 20
ENDMDL
MODEL 5
REMARK VINA RESULT:     4.063      0.915      4.635
REMARK INTER + INTRA:           7.825
REMARK INTER:                   9.225
REMARK INTRA:                  -1.400
REMARK UNBOUND:                -0.989
REMARK SMILES CCCCCCCCCCCCCCCCCCCCCC(=O)[O-]
REMARK SMILES IDX 12 1 11 2 10 3 9 4 8 5 7 6 6 7 5 8 4 9 3 10 2 11 1 12 13 13
REMARK SMILES IDX 14 14 15 15 16 16 17 17 18 18 19 19 20 20 21 21 22 22 23 23
REMARK SMILES IDX 24 24
REMARK H PARENT
REMARK Flexibility Score: inf
ROOT
ATOM      1  C   UNL     1       0.387  -0.993   0.476  1.00  0.00     0.000 C 
ENDROOT
BRANCH   1   2
ATOM      2  C   UNL     1       0.327  -1.917  -0.756  1.00  0.00     0.000 C 
BRANCH   2   3
ATOM      3  C   UNL     1       1.235  -1.474  -1.921  1.00  0.00     0.000 C 
BRANCH   3   4
ATOM      4  C   UNL     1       2.247  -0.400  -1.492  1.00  0.00    -0.000 C 
BRANCH   4   5
ATOM      5  C   UNL     1       2.008   0.916  -2.243  1.00  0.00    -0.000 C 
BRANCH   5   6
ATOM      6  C   UNL     1       3.003   1.994  -1.792  1.00  0.00    -0.000 C 
BRANCH   6   7
ATOM      7  C   UNL     1       3.370   1.881  -0.304  1.00  0.00    -0.000 C 
BRANCH   7   8
ATOM      8  C   UNL     1       3.100   3.181   0.474  1.00  0.00    -0.000 C 
BRANCH   8   9
ATOM      9  C   UNL     1       3.384   4.431  -0.376  1.00  0.00    -0.000 C 
BRANCH   9  10
ATOM     10  C   UNL     1       2.134   5.315  -0.592  1.00  0.00    -0.000 C 
BRANCH  10  11
ATOM     11  C   UNL     1       0.849   4.506  -0.832  1.00  0.00    -0.003 C 
ATOM     12  C   UNL     1      -0.091   4.513   0.372  1.00  0.00     0.004 C 
ENDBRANCH  10  11
ENDBRANCH   9  10
ENDBRANCH   8   9
ENDBRANCH   7   8
ENDBRANCH   6   7
ENDBRANCH   5   6
ENDBRANCH   4   5
ENDBRANCH   3   4
ENDBRANCH   2   3
ENDBRANCH   1   2
BRANCH   1  13
ATOM     13  C   UNL     1      -0.657   0.143   0.509  1.00  0.00     0.000 C 
BRANCH  13  14
ATOM     14  C   UNL     1      -0.605   1.113  -0.690  1.00  0.00     0.000 C 
BRANCH  14  15
ATOM     15  C   UNL     1      -1.498   0.705  -1.878  1.00  0.00     0.000 C 
BRANCH  15  16
ATOM     16  C   UNL     1      -2.641  -0.259  -1.499  1.00  0.00     0.000 C 
BRANCH  16  17
ATOM     17  C   UNL     1      -2.462  -1.648  -2.138  1.00  0.00     0.000 C 
BRANCH  17  18
ATOM     18  C   UNL     1      -3.359  -2.715  -1.486  1.00  0.00     0.000 C 
BRANCH  18  19
ATOM     19  C   UNL     1      -2.893  -3.132  -0.072  1.00  0.00     0.000 C 
BRANCH  19  20
ATOM     20  C   UNL     1      -2.108  -4.458  -0.054  1.00  0.00     0.006 C 
BRANCH  20  21
ATOM     21  C   UNL     1      -2.575  -5.468  -1.113  1.00  0.00     0.053 C 
BRANCH  21  22
ATOM     22  C   UNL     1      -3.669  -6.353  -0.596  1.00  0.00     0.041 C 
ATOM     23  O   UNL     1      -4.672  -5.854  -0.024  1.00  0.00    -0.550 OA
ATOM     24  O   UNL     1      -3.581  -7.731  -0.750  1.00  0.00    -0.550 OA
ENDBRANCH  21  22
ENDBRANCH  20  21
ENDBRANCH  19  20
ENDBRANCH  18  19
ENDBRANCH  17  18
ENDBRANCH  16  17
ENDBRANCH  15  16
ENDBRANCH  14  15
ENDBRANCH  13  14
ENDBRANCH   1  13
TORSDOF 20
ENDMDL
MODEL 6
REMARK VINA RESULT:     4.086      4.510      8.736
REMARK INTER + INTRA:           7.874
REMARK INTER:                   8.070
REMARK INTRA:                  -0.196
REMARK UNBOUND:                -0.989
REMARK SMILES CCCCCCCCCCCCCCCCCCCCCC(=O)[O-]
REMARK SMILES IDX 12 1 11 2 10 3 9 4 8 5 7 6 6 7 5 8 4 9 3 10 2 11 1 12 13 13
REMARK SMILES IDX 14 14 15 15 16 16 17 17 18 18 19 19 20 20 21 21 22 22 23 23
REMARK SMILES IDX 24 24
REMARK H PARENT
REMARK Flexibility Score: inf
ROOT
ATOM      1  C   UNL     1      -3.979  -2.707  -0.479  1.00  0.00     0.000 C 
ENDROOT
BRANCH   1   2
ATOM      2  C   UNL     1      -3.145  -3.818   0.190  1.00  0.00     0.000 C 
BRANCH   2   3
ATOM      3  C   UNL     1      -2.757  -4.971  -0.758  1.00  0.00     0.000 C 
BRANCH   3   4
ATOM      4  C   UNL     1      -1.256  -4.976  -1.082  1.00  0.00    -0.000 C 
BRANCH   4   5
ATOM      5  C   UNL     1      -0.462  -4.186  -0.033  1.00  0.00    -0.000 C 
BRANCH   5   6
ATOM      6  C   UNL     1       0.131  -2.907  -0.643  1.00  0.00    -0.000 C 
BRANCH   6   7
ATOM      7  C   UNL     1       0.025  -1.696   0.296  1.00  0.00    -0.000 C 
BRANCH   7   8
ATOM      8  C   UNL     1       0.820  -0.480  -0.211  1.00  0.00    -0.000 C 
BRANCH   8   9
ATOM      9  C   UNL     1       1.506  -0.762  -1.560  1.00  0.00    -0.000 C 
BRANCH   9  10
ATOM     10  C   UNL     1       1.911   0.525  -2.314  1.00  0.00    -0.000 C 
BRANCH  10  11
ATOM     11  C   UNL     1       2.606   1.565  -1.420  1.00  0.00    -0.003 C 
ATOM     12  C   UNL     1       3.769   0.977  -0.622  1.00  0.00     0.004 C 
ENDBRANCH  10  11
ENDBRANCH   9  10
ENDBRANCH   8   9
ENDBRANCH   7   8
ENDBRANCH   6   7
ENDBRANCH   5   6
ENDBRANCH   4   5
ENDBRANCH   3   4
ENDBRANCH   2   3
ENDBRANCH   1   2
BRANCH   1  13
ATOM     13  C   UNL     1      -3.218  -1.404  -0.799  1.00  0.00     0.000 C 
BRANCH  13  14
ATOM     14  C   UNL     1      -2.443  -1.410  -2.135  1.00  0.00     0.000 C 
BRANCH  14  15
ATOM     15  C   UNL     1      -1.575  -0.159  -2.373  1.00  0.00     0.000 C 
BRANCH  15  16
ATOM     16  C   UNL     1      -1.959   1.046  -1.491  1.00  0.00     0.000 C 
BRANCH  16  17
ATOM     17  C   UNL     1      -0.742   1.642  -0.761  1.00  0.00     0.000 C 
BRANCH  17  18
ATOM     18  C   UNL     1      -0.610   3.159  -0.979  1.00  0.00     0.000 C 
BRANCH  18  19
ATOM     19  C   UNL     1       0.317   3.851   0.047  1.00  0.00     0.000 C 
BRANCH  19  20
ATOM     20  C   UNL     1       1.262   4.889  -0.587  1.00  0.00     0.006 C 
BRANCH  20  21
ATOM     21  C   UNL     1       2.752   4.572  -0.387  1.00  0.00     0.053 C 
BRANCH  21  22
ATOM     22  C   UNL     1       3.576   5.819  -0.266  1.00  0.00     0.041 C 
ATOM     23  O   UNL     1       3.138   6.915  -0.702  1.00  0.00    -0.550 OA
ATOM     24  O   UNL     1       4.829   5.769   0.334  1.00  0.00    -0.550 OA
ENDBRANCH  21  22
ENDBRANCH  20  21
ENDBRANCH  19  20
ENDBRANCH  18  19
ENDBRANCH  17  18
ENDBRANCH  16  17
ENDBRANCH  15  16
ENDBRANCH  14  15
ENDBRANCH  13  14
ENDBRANCH   1  13
TORSDOF 20
ENDMDL
MODEL 7
REMARK VINA RESULT:     4.090      0.938      4.810
REMARK INTER + INTRA:           7.884
REMARK INTER:                   8.714
REMARK INTRA:                  -0.830
REMARK UNBOUND:                -0.989
REMARK SMILES CCCCCCCCCCCCCCCCCCCCCC(=O)[O-]
REMARK SMILES IDX 12 1 11 2 10 3 9 4 8 5 7 6 6 7 5 8 4 9 3 10 2 11 1 12 13 13
REMARK SMILES IDX 14 14 15 15 16 16 17 17 18 18 19 19 20 20 21 21 22 22 23 23
REMARK SMILES IDX 24 24
REMARK H PARENT
REMARK Flexibility Score: inf
ROOT
ATOM      1  C   UNL     1      -0.595   1.020  -0.864  1.00  0.00     0.000 C 
ENDROOT
BRANCH   1   2
ATOM      2  C   UNL     1       0.306  -0.117  -0.344  1.00  0.00     0.000 C 
BRANCH   2   3
ATOM      3  C   UNL     1       1.567  -0.362  -1.198  1.00  0.00     0.000 C 
BRANCH   3   4
ATOM      4  C   UNL     1       1.726   0.683  -2.312  1.00  0.00    -0.000 C 
BRANCH   4   5
ATOM      5  C   UNL     1       2.753   1.754  -1.922  1.00  0.00    -0.000 C 
BRANCH   5   6
ATOM      6  C   UNL     1       3.100   1.664  -0.429  1.00  0.00    -0.000 C 
BRANCH   6   7
ATOM      7  C   UNL     1       2.845   2.979   0.323  1.00  0.00    -0.000 C 
BRANCH   7   8
ATOM      8  C   UNL     1       1.353   3.352   0.377  1.00  0.00    -0.000 C 
BRANCH   8   9
ATOM      9  C   UNL     1       1.062   4.675  -0.353  1.00  0.00    -0.000 C 
BRANCH   9  10
ATOM     10  C   UNL     1       2.289   5.230  -1.112  1.00  0.00    -0.000 C 
BRANCH  10  11
ATOM     11  C   UNL     1       3.020   6.352  -0.354  1.00  0.00    -0.003 C 
ATOM     12  C   UNL     1       4.446   5.971   0.039  1.00  0.00     0.004 C 
ENDBRANCH  10  11
ENDBRANCH   9  10
ENDBRANCH   8   9
ENDBRANCH   7   8
ENDBRANCH   6   7
ENDBRANCH   5   6
ENDBRANCH   4   5
ENDBRANCH   3   4
ENDBRANCH   2   3
ENDBRANCH   1   2
BRANCH   1  13
ATOM     13  C   UNL     1      -1.912   0.574  -1.533  1.00  0.00     0.000 C 
BRANCH  13  14
ATOM     14  C   UNL     1      -1.789  -0.649  -2.468  1.00  0.00     0.000 C 
BRANCH  14  15
ATOM     15  C   UNL     1      -2.766  -1.796  -2.145  1.00  0.00     0.000 C 
BRANCH  15  16
ATOM     16  C   UNL     1      -3.181  -1.867  -0.662  1.00  0.00     0.000 C 
BRANCH  16  17
ATOM     17  C   UNL     1      -2.244  -2.771   0.159  1.00  0.00     0.000 C 
BRANCH  17  18
ATOM     18  C   UNL     1      -0.812  -2.802  -0.404  1.00  0.00     0.000 C 
BRANCH  18  19
ATOM     19  C   UNL     1      -0.253  -4.231  -0.590  1.00  0.00     0.000 C 
BRANCH  19  20
ATOM     20  C   UNL     1      -1.235  -5.333  -0.151  1.00  0.00     0.006 C 
BRANCH  20  21
ATOM     21  C   UNL     1      -2.305  -5.664  -1.203  1.00  0.00     0.053 C 
BRANCH  21  22
ATOM     22  C   UNL     1      -3.622  -6.001  -0.572  1.00  0.00     0.041 C 
ATOM     23  O   UNL     1      -4.266  -5.124   0.061  1.00  0.00    -0.550 OA
ATOM     24  O   UNL     1      -4.141  -7.285  -0.687  1.00  0.00    -0.550 OA
ENDBRANCH  21  22
ENDBRANCH  20  21
ENDBRANCH  19  20
ENDBRANCH  18  19
ENDBRANCH  17  18
ENDBRANCH  16  17
ENDBRANCH  15  16
ENDBRANCH  14  15
ENDBRANCH  13  14
ENDBRANCH   1  13
TORSDOF 20
ENDMDL
MODEL 8
REMARK VINA RESULT:     4.159      0.678      3.097
REMARK INTER + INTRA:           8.032
REMARK INTER:                   8.609
REMARK INTRA:                  -0.577
REMARK UNBOUND:                -0.989
REMARK SMILES CCCCCCCCCCCCCCCCCCCCCC(=O)[O-]
REMARK SMILES IDX 12 1 11 2 10 3 9 4 8 5 7 6 6 7 5 8 4 9 3 10 2 11 1 12 13 13
REMARK SMILES IDX 14 14 15 15 16 16 17 17 18 18 19 19 20 20 21 21 22 22 23 23
REMARK SMILES IDX 24 24
REMARK H PARENT
REMARK Flexibility Score: inf
ROOT
ATOM      1  C   UNL     1       0.500   4.351  -0.071  1.00  0.00     0.000 C 
ENDROOT
BRANCH   1   2
ATOM      2  C   UNL     1       1.772   4.897  -0.749  1.00  0.00     0.000 C 
BRANCH   2   3
ATOM      3  C   UNL     1       3.048   4.088  -0.439  1.00  0.00     0.000 C 
BRANCH   3   4
ATOM      4  C   UNL     1       2.757   2.853   0.426  1.00  0.00    -0.000 C 
BRANCH   4   5
ATOM      5  C   UNL     1       3.206   1.567  -0.278  1.00  0.00    -0.000 C 
BRANCH   5   6
ATOM      6  C   UNL     1       2.950   1.651  -1.790  1.00  0.00    -0.000 C 
BRANCH   6   7
ATOM      7  C   UNL     1       1.720   0.844  -2.232  1.00  0.00    -0.000 C 
BRANCH   7   8
ATOM      8  C   UNL     1       1.611  -0.512  -1.512  1.00  0.00    -0.000 C 
BRANCH   8   9
ATOM      9  C   UNL     1       0.668  -0.446  -0.297  1.00  0.00    -0.000 C 
BRANCH   9  10
ATOM     10  C   UNL     1       0.191  -1.837   0.176  1.00  0.00    -0.000 C 
BRANCH  10  11
ATOM     11  C   UNL     1       0.256  -2.912  -0.922  1.00  0.00    -0.003 C 
ATOM     12  C   UNL     1      -0.112  -4.304  -0.412  1.00  0.00     0.004 C 
ENDBRANCH  10  11
ENDBRANCH   9  10
ENDBRANCH   8   9
ENDBRANCH   7   8
ENDBRANCH   6   7
ENDBRANCH   5   6
ENDBRANCH   4   5
ENDBRANCH   3   4
ENDBRANCH   2   3
ENDBRANCH   1   2
BRANCH   1  13
ATOM     13  C   UNL     1      -0.510   3.660  -1.009  1.00  0.00     0.000 C 
BRANCH  13  14
ATOM     14  C   UNL     1      -0.736   2.158  -0.734  1.00  0.00     0.000 C 
BRANCH  14  15
ATOM     15  C   UNL     1      -1.466   1.406  -1.864  1.00  0.00     0.000 C 
BRANCH  15  16
ATOM     16  C   UNL     1      -2.308   0.210  -1.378  1.00  0.00     0.000 C 
BRANCH  16  17
ATOM     17  C   UNL     1      -2.150  -1.020  -2.290  1.00  0.00     0.000 C 
BRANCH  17  18
ATOM     18  C   UNL     1      -3.045  -2.194  -1.857  1.00  0.00     0.000 C 
BRANCH  18  19
ATOM     19  C   UNL     1      -3.331  -2.224  -0.338  1.00  0.00     0.000 C 
BRANCH  19  20
ATOM     20  C   UNL     1      -3.415  -3.649   0.240  1.00  0.00     0.006 C 
BRANCH  20  21
ATOM     21  C   UNL     1      -2.927  -4.739  -0.727  1.00  0.00     0.053 C 
BRANCH  21  22
ATOM     22  C   UNL     1      -3.680  -6.022  -0.546  1.00  0.00     0.041 C 
ATOM     23  O   UNL     1      -4.801  -6.026   0.025  1.00  0.00    -0.550 OA
ATOM     24  O   UNL     1      -3.144  -7.216  -1.015  1.00  0.00    -0.550 OA
ENDBRANCH  21  22
ENDBRANCH  20  21
ENDBRANCH  19  20
ENDBRANCH  18  19
ENDBRANCH  17  18
ENDBRANCH  16  17
ENDBRANCH  15  16
ENDBRANCH  14  15
ENDBRANCH  13  14
ENDBRANCH   1  13
TORSDOF 20
ENDMDL
MODEL 9
REMARK VINA RESULT:     4.161      4.198      7.580
REMARK INTER + INTRA:           8.037
REMARK INTER:                   8.045
REMARK INTRA:                  -0.008
REMARK UNBOUND:                -0.989
REMARK SMILES CCCCCCCCCCCCCCCCCCCCCC(=O)[O-]
REMARK SMILES IDX 12 1 11 2 10 3 9 4 8 5 7 6 6 7 5 8 4 9 3 10 2 11 1 12 13 13
REMARK SMILES IDX 14 14 15 15 16 16 17 17 18 18 19 19 20 20 21 21 22 22 23 23
REMARK SMILES IDX 24 24
REMARK H PARENT
REMARK Flexibility Score: inf
ROOT
ATOM      1  C   UNL     1       0.352  -0.946   0.395  1.00  0.00     0.000 C 
ENDROOT
BRANCH   1   2
ATOM      2  C   UNL     1      -0.464   0.362   0.376  1.00  0.00     0.000 C 
BRANCH   2   3
ATOM      3  C   UNL     1      -0.785   0.884  -1.040  1.00  0.00     0.000 C 
BRANCH   3   4
ATOM      4  C   UNL     1      -2.163   0.416  -1.532  1.00  0.00    -0.000 C 
BRANCH   4   5
ATOM      5  C   UNL     1      -2.032  -0.782  -2.482  1.00  0.00    -0.000 C 
BRANCH   5   6
ATOM      6  C   UNL     1      -2.997  -1.908  -2.083  1.00  0.00    -0.000 C 
BRANCH   6   7
ATOM      7  C   UNL     1      -3.352  -1.885  -0.588  1.00  0.00    -0.000 C 
BRANCH   7   8
ATOM      8  C   UNL     1      -3.200  -3.263   0.080  1.00  0.00    -0.000 C 
BRANCH   8   9
ATOM      9  C   UNL     1      -1.871  -3.942  -0.297  1.00  0.00    -0.000 C 
BRANCH   9  10
ATOM     10  C   UNL     1      -2.058  -5.367  -0.865  1.00  0.00    -0.000 C 
BRANCH  10  11
ATOM     11  C   UNL     1      -3.476  -5.926  -0.658  1.00  0.00    -0.003 C 
ATOM     12  C   UNL     1      -3.543  -7.444  -0.817  1.00  0.00     0.004 C 
ENDBRANCH  10  11
ENDBRANCH   9  10
ENDBRANCH   8   9
ENDBRANCH   7   8
ENDBRANCH   6   7
ENDBRANCH   5   6
ENDBRANCH   4   5
ENDBRANCH   3   4
ENDBRANCH   2   3
ENDBRANCH   1   2
BRANCH   1  13
ATOM     13  C   UNL     1       0.360  -1.745  -0.924  1.00  0.00     0.000 C 
BRANCH  13  14
ATOM     14  C   UNL     1       1.526  -1.418  -1.880  1.00  0.00     0.000 C 
BRANCH  14  15
ATOM     15  C   UNL     1       1.872   0.082  -1.972  1.00  0.00     0.000 C 
BRANCH  15  16
ATOM     16  C   UNL     1       3.154   0.476  -1.210  1.00  0.00     0.000 C 
BRANCH  16  17
ATOM     17  C   UNL     1       2.997   1.812  -0.463  1.00  0.00     0.000 C 
BRANCH  17  18
ATOM     18  C   UNL     1       2.105   2.810  -1.222  1.00  0.00     0.000 C 
BRANCH  18  19
ATOM     19  C   UNL     1       0.946   3.375  -0.369  1.00  0.00     0.000 C 
BRANCH  19  20
ATOM     20  C   UNL     1       1.084   4.879  -0.070  1.00  0.00     0.006 C 
BRANCH  20  21
ATOM     21  C   UNL     1       2.235   5.558  -0.828  1.00  0.00     0.053 C 
BRANCH  21  22
ATOM     22  C   UNL     1       3.516   5.516  -0.050  1.00  0.00     0.041 C 
ATOM     23  O   UNL     1       4.406   6.383  -0.245  1.00  0.00    -0.550 OA
ATOM     24  O   UNL     1       3.724   4.518   0.895  1.00  0.00    -0.550 OA
ENDBRANCH  21  22
ENDBRANCH  20  21
ENDBRANCH  19  20
ENDBRANCH  18  19
ENDBRANCH  17  18
ENDBRANCH  16  17
ENDBRANCH  15  16
ENDBRANCH  14  15
ENDBRANCH  13  14
ENDBRANCH   1  13
TORSDOF 20
ENDMDL
