MODEL 1
REMARK VINA RESULT:    -7.705      0.000      0.000
REMARK INTER + INTRA:          -9.537
REMARK INTER:                  -9.282
REMARK INTRA:                  -0.256
REMARK UNBOUND:                -0.256
REMARK SMILES O=c1c(O)c(-c2ccc(O)c(O)c2)oc2cc(O)cc(O)c12
REMARK SMILES IDX 5 1 3 2 2 3 1 4 22 5 20 6 19 7 17 8 16 9 15 10 14 11 6 12
REMARK SMILES IDX 7 13 8 14 9 15 13 16 11 17 10 18 12 20 4 22 21 24 18 26
REMARK H PARENT 10 19 12 21 4 23 21 25 18 27
REMARK Flexibility Score: inf
ROOT
ATOM      1  C   UNL     1      12.096  -4.508  14.997  1.00  0.00     0.180 A 
ATOM      2  C   UNL     1      11.956  -5.296  13.841  1.00  0.00     0.208 A 
ATOM      3  C   UNL     1      10.761  -5.222  13.108  1.00  0.00     0.238 A 
ATOM      4  O   UNL     1      10.620  -5.969  12.105  1.00  0.00    -0.285 OA
ATOM      5  C   UNL     1       9.728  -4.350  13.529  1.00  0.00     0.111 A 
ATOM      6  C   UNL     1       8.492  -4.165  12.840  1.00  0.00     0.134 A 
ATOM      7  C   UNL     1       7.490  -3.375  13.418  1.00  0.00     0.093 A 
ATOM      8  C   UNL     1       7.705  -2.712  14.629  1.00  0.00     0.123 A 
ATOM      9  C   UNL     1       8.931  -2.838  15.279  1.00  0.00     0.094 A 
ATOM     10  C   UNL     1       9.936  -3.648  14.745  1.00  0.00     0.146 A 
ATOM     11  O   UNL     1      11.085  -3.749  15.403  1.00  0.00    -0.452 OA
ENDROOT
BRANCH   1  12
ATOM     12  C   UNL     1      13.335  -4.513  15.808  1.00  0.00     0.025 A 
ATOM     13  C   UNL     1      13.658  -5.596  16.646  1.00  0.00     0.016 A 
ATOM     14  C   UNL     1      14.845  -5.588  17.383  1.00  0.00     0.051 A 
ATOM     15  C   UNL     1      15.730  -4.508  17.286  1.00  0.00     0.157 A 
ATOM     16  C   UNL     1      14.238  -3.442  15.699  1.00  0.00     0.062 A 
ATOM     17  C   UNL     1      15.428  -3.433  16.439  1.00  0.00     0.158 A 
BRANCH  15  18
ATOM     18  O   UNL     1      16.914  -4.496  18.021  1.00  0.00    -0.504 OA
ATOM     19  H   UNL     1      17.800  -4.753  17.603  1.00  0.00     0.293 HD
ENDBRANCH  15  18
BRANCH  17  20
ATOM     20  O   UNL     1      16.314  -2.362  16.339  1.00  0.00    -0.504 OA
ATOM     21  H   UNL     1      16.110  -1.464  16.760  1.00  0.00     0.293 HD
ENDBRANCH  17  20
ENDBRANCH   1  12
BRANCH   2  22
ATOM     22  O   UNL     1      12.979  -6.166  13.455  1.00  0.00    -0.502 OA
ATOM     23  H   UNL     1      12.903  -6.769  12.645  1.00  0.00     0.293 HD
ENDBRANCH   2  22
BRANCH   6  24
ATOM     24  O   UNL     1       8.211  -4.707  11.583  1.00  0.00    -0.507 OA
ATOM     25  H   UNL     1       7.287  -4.799  11.190  1.00  0.00     0.293 HD
ENDBRANCH   6  24
BRANCH   8  26
ATOM     26  O   UNL     1       6.709  -1.915  15.190  1.00  0.00    -0.508 OA
ATOM     27  H   UNL     1       6.912  -0.990  15.551  1.00  0.00     0.293 HD
ENDBRANCH   8  26
TORSDOF 6
ENDMDL
MODEL 2
REMARK VINA RESULT:    -7.672      3.412      4.685
REMARK INTER + INTRA:          -9.498
REMARK INTER:                  -9.172
REMARK INTRA:                  -0.326
REMARK UNBOUND:                -0.256
REMARK SMILES O=c1c(O)c(-c2ccc(O)c(O)c2)oc2cc(O)cc(O)c12
REMARK SMILES IDX 5 1 3 2 2 3 1 4 22 5 20 6 19 7 17 8 16 9 15 10 14 11 6 12
REMARK SMILES IDX 7 13 8 14 9 15 13 16 11 17 10 18 12 20 4 22 21 24 18 26
REMARK H PARENT 10 19 12 21 4 23 21 25 18 27
REMARK Flexibility Score: inf
ROOT
ATOM      1  C   UNL     1      11.766  -4.291  13.832  1.00  0.00     0.180 A 
ATOM      2  C   UNL     1      11.587  -4.964  12.611  1.00  0.00     0.208 A 
ATOM      3  C   UNL     1      11.868  -4.288  11.413  1.00  0.00     0.238 A 
ATOM      4  O   UNL     1      11.654  -4.877  10.322  1.00  0.00    -0.285 OA
ATOM      5  C   UNL     1      12.340  -2.953  11.451  1.00  0.00     0.111 A 
ATOM      6  C   UNL     1      12.694  -2.186  10.302  1.00  0.00     0.134 A 
ATOM      7  C   UNL     1      13.024  -0.833  10.450  1.00  0.00     0.093 A 
ATOM      8  C   UNL     1      13.076  -0.238  11.713  1.00  0.00     0.123 A 
ATOM      9  C   UNL     1      12.790  -0.995  12.847  1.00  0.00     0.094 A 
ATOM     10  C   UNL     1      12.422  -2.337  12.727  1.00  0.00     0.146 A 
ATOM     11  O   UNL     1      12.147  -3.019  13.833  1.00  0.00    -0.452 OA
ENDROOT
BRANCH   1  12
ATOM     12  C   UNL     1      11.515  -4.946  15.137  1.00  0.00     0.025 A 
ATOM     13  C   UNL     1      12.493  -5.745  15.756  1.00  0.00     0.016 A 
ATOM     14  C   UNL     1      12.242  -6.332  16.998  1.00  0.00     0.051 A 
ATOM     15  C   UNL     1      11.019  -6.121  17.645  1.00  0.00     0.157 A 
ATOM     16  C   UNL     1      10.297  -4.721  15.801  1.00  0.00     0.062 A 
ATOM     17  C   UNL     1      10.045  -5.311  17.047  1.00  0.00     0.158 A 
BRANCH  15  18
ATOM     18  O   UNL     1      10.764  -6.707  18.884  1.00  0.00    -0.504 OA
ATOM     19  H   UNL     1       9.986  -6.410  19.461  1.00  0.00     0.293 HD
ENDBRANCH  15  18
BRANCH  17  20
ATOM     20  O   UNL     1       8.830  -5.097  17.697  1.00  0.00    -0.504 OA
ATOM     21  H   UNL     1       7.968  -5.502  17.354  1.00  0.00     0.293 HD
ENDBRANCH  17  20
ENDBRANCH   1  12
BRANCH   2  22
ATOM     22  O   UNL     1      11.100  -6.273  12.595  1.00  0.00    -0.502 OA
ATOM     23  H   UNL     1      10.793  -6.730  11.744  1.00  0.00     0.293 HD
ENDBRANCH   2  22
BRANCH   6  24
ATOM     24  O   UNL     1      12.764  -2.707   9.007  1.00  0.00    -0.507 OA
ATOM     25  H   UNL     1      12.680  -2.163   8.163  1.00  0.00     0.293 HD
ENDBRANCH   6  24
BRANCH   8  26
ATOM     26  O   UNL     1      13.421   1.105  11.853  1.00  0.00    -0.508 OA
ATOM     27  H   UNL     1      13.168   1.633  12.680  1.00  0.00     0.293 HD
ENDBRANCH   8  26
TORSDOF 6
ENDMDL
MODEL 3
REMARK VINA RESULT:    -7.539      2.999      3.991
REMARK INTER + INTRA:          -9.337
REMARK INTER:                  -9.110
REMARK INTRA:                  -0.227
REMARK UNBOUND:                -0.256
REMARK SMILES O=c1c(O)c(-c2ccc(O)c(O)c2)oc2cc(O)cc(O)c12
REMARK SMILES IDX 5 1 3 2 2 3 1 4 22 5 20 6 19 7 17 8 16 9 15 10 14 11 6 12
REMARK SMILES IDX 7 13 8 14 9 15 13 16 11 17 10 18 12 20 4 22 21 24 18 26
REMARK H PARENT 10 19 12 21 4 23 21 25 18 27
REMARK Flexibility Score: inf
ROOT
ATOM      1  C   UNL     1      12.619  -3.331  13.658  1.00  0.00     0.180 A 
ATOM      2  C   UNL     1      11.915  -4.541  13.534  1.00  0.00     0.208 A 
ATOM      3  C   UNL     1      11.465  -4.941  12.265  1.00  0.00     0.238 A 
ATOM      4  O   UNL     1      10.790  -5.998  12.169  1.00  0.00    -0.285 OA
ATOM      5  C   UNL     1      11.739  -4.134  11.134  1.00  0.00     0.111 A 
ATOM      6  C   UNL     1      11.367  -4.461   9.796  1.00  0.00     0.134 A 
ATOM      7  C   UNL     1      11.574  -3.527   8.773  1.00  0.00     0.093 A 
ATOM      8  C   UNL     1      12.200  -2.305   9.030  1.00  0.00     0.123 A 
ATOM      9  C   UNL     1      12.621  -2.001  10.323  1.00  0.00     0.094 A 
ATOM     10  C   UNL     1      12.395  -2.898  11.370  1.00  0.00     0.146 A 
ATOM     11  O   UNL     1      12.804  -2.565  12.589  1.00  0.00    -0.452 OA
ENDROOT
BRANCH   1  12
ATOM     12  C   UNL     1      13.146  -2.856  14.958  1.00  0.00     0.025 A 
ATOM     13  C   UNL     1      12.289  -2.389  15.969  1.00  0.00     0.016 A 
ATOM     14  C   UNL     1      12.807  -1.968  17.196  1.00  0.00     0.051 A 
ATOM     15  C   UNL     1      14.186  -2.019  17.435  1.00  0.00     0.157 A 
ATOM     16  C   UNL     1      14.526  -2.924  15.211  1.00  0.00     0.062 A 
ATOM     17  C   UNL     1      15.048  -2.501  16.441  1.00  0.00     0.158 A 
BRANCH  15  18
ATOM     18  O   UNL     1      14.708  -1.598  18.658  1.00  0.00    -0.504 OA
ATOM     19  H   UNL     1      14.264  -0.865  19.199  1.00  0.00     0.293 HD
ENDBRANCH  15  18
BRANCH  17  20
ATOM     20  O   UNL     1      16.419  -2.557  16.684  1.00  0.00    -0.504 OA
ATOM     21  H   UNL     1      17.038  -1.806  16.405  1.00  0.00     0.293 HD
ENDBRANCH  17  20
ENDBRANCH   1  12
BRANCH   2  22
ATOM     22  O   UNL     1      11.637  -5.312  14.666  1.00  0.00    -0.502 OA
ATOM     23  H   UNL     1      11.352  -4.902  15.547  1.00  0.00     0.293 HD
ENDBRANCH   2  22
BRANCH   6  24
ATOM     24  O   UNL     1      10.820  -5.690   9.417  1.00  0.00    -0.507 OA
ATOM     25  H   UNL     1      10.852  -6.070   8.483  1.00  0.00     0.293 HD
ENDBRANCH   6  24
BRANCH   8  26
ATOM     26  O   UNL     1      12.416  -1.387   8.005  1.00  0.00    -0.508 OA
ATOM     27  H   UNL     1      13.213  -0.761   8.014  1.00  0.00     0.293 HD
ENDBRANCH   8  26
TORSDOF 6
ENDMDL
MODEL 4
REMARK VINA RESULT:    -7.466      8.465     13.111
REMARK INTER + INTRA:          -9.249
REMARK INTER:                  -9.082
REMARK INTRA:                  -0.167
REMARK UNBOUND:                -0.256
REMARK SMILES O=c1c(O)c(-c2ccc(O)c(O)c2)oc2cc(O)cc(O)c12
REMARK SMILES IDX 5 1 3 2 2 3 1 4 22 5 20 6 19 7 17 8 16 9 15 10 14 11 6 12
REMARK SMILES IDX 7 13 8 14 9 15 13 16 11 17 10 18 12 20 4 22 21 24 18 26
REMARK H PARENT 10 19 12 21 4 23 21 25 18 27
REMARK Flexibility Score: inf
ROOT
ATOM      1  C   UNL     1       3.953  -8.532   7.212  1.00  0.00     0.180 A 
ATOM      2  C   UNL     1       3.420  -7.242   7.378  1.00  0.00     0.208 A 
ATOM      3  C   UNL     1       4.260  -6.211   7.826  1.00  0.00     0.238 A 
ATOM      4  O   UNL     1       3.765  -5.071   8.024  1.00  0.00    -0.285 OA
ATOM      5  C   UNL     1       5.627  -6.477   8.086  1.00  0.00     0.111 A 
ATOM      6  C   UNL     1       6.578  -5.499   8.504  1.00  0.00     0.134 A 
ATOM      7  C   UNL     1       7.872  -5.901   8.858  1.00  0.00     0.093 A 
ATOM      8  C   UNL     1       8.267  -7.237   8.746  1.00  0.00     0.123 A 
ATOM      9  C   UNL     1       7.363  -8.189   8.281  1.00  0.00     0.094 A 
ATOM     10  C   UNL     1       6.054  -7.824   7.956  1.00  0.00     0.146 A 
ATOM     11  O   UNL     1       5.222  -8.765   7.526  1.00  0.00    -0.452 OA
ENDROOT
BRANCH   1  12
ATOM     12  C   UNL     1       3.136  -9.665   6.720  1.00  0.00     0.025 A 
ATOM     13  C   UNL     1       3.416 -10.291   5.492  1.00  0.00     0.016 A 
ATOM     14  C   UNL     1       2.647 -11.374   5.060  1.00  0.00     0.051 A 
ATOM     15  C   UNL     1       1.596 -11.855   5.851  1.00  0.00     0.157 A 
ATOM     16  C   UNL     1       2.095 -10.166   7.519  1.00  0.00     0.062 A 
ATOM     17  C   UNL     1       1.321 -11.251   7.085  1.00  0.00     0.158 A 
BRANCH  15  18
ATOM     18  O   UNL     1       0.825 -12.934   5.422  1.00  0.00    -0.504 OA
ATOM     19  H   UNL     1      -0.062 -13.158   5.858  1.00  0.00     0.293 HD
ENDBRANCH  15  18
BRANCH  17  20
ATOM     20  O   UNL     1       0.280 -11.737   7.874  1.00  0.00    -0.504 OA
ATOM     21  H   UNL     1      -0.682 -11.706   7.560  1.00  0.00     0.293 HD
ENDBRANCH  17  20
ENDBRANCH   1  12
BRANCH   2  22
ATOM     22  O   UNL     1       2.064  -7.006   7.136  1.00  0.00    -0.502 OA
ATOM     23  H   UNL     1       1.738  -6.480   6.334  1.00  0.00     0.293 HD
ENDBRANCH   2  22
BRANCH   6  24
ATOM     24  O   UNL     1       6.313  -4.128   8.561  1.00  0.00    -0.507 OA
ATOM     25  H   UNL     1       5.764  -3.678   9.278  1.00  0.00     0.293 HD
ENDBRANCH   6  24
BRANCH   8  26
ATOM     26  O   UNL     1       9.561  -7.626   9.086  1.00  0.00    -0.508 OA
ATOM     27  H   UNL     1       9.795  -8.599   9.247  1.00  0.00     0.293 HD
ENDBRANCH   8  26
TORSDOF 6
ENDMDL
MODEL 5
REMARK VINA RESULT:    -7.454      7.980     12.850
REMARK INTER + INTRA:          -9.234
REMARK INTER:                  -9.076
REMARK INTRA:                  -0.158
REMARK UNBOUND:                -0.256
REMARK SMILES O=c1c(O)c(-c2ccc(O)c(O)c2)oc2cc(O)cc(O)c12
REMARK SMILES IDX 5 1 3 2 2 3 1 4 22 5 20 6 19 7 17 8 16 9 15 10 14 11 6 12
REMARK SMILES IDX 7 13 8 14 9 15 13 16 11 17 10 18 12 20 4 22 21 24 18 26
REMARK H PARENT 10 19 12 21 4 23 21 25 18 27
REMARK Flexibility Score: inf
ROOT
ATOM      1  C   UNL     1       4.968  -7.001   6.793  1.00  0.00     0.180 A 
ATOM      2  C   UNL     1       5.096  -6.608   8.136  1.00  0.00     0.208 A 
ATOM      3  C   UNL     1       6.376  -6.550   8.709  1.00  0.00     0.238 A 
ATOM      4  O   UNL     1       6.481  -6.249   9.926  1.00  0.00    -0.285 OA
ATOM      5  C   UNL     1       7.514  -6.870   7.928  1.00  0.00     0.111 A 
ATOM      6  C   UNL     1       8.861  -6.806   8.394  1.00  0.00     0.134 A 
ATOM      7  C   UNL     1       9.898  -7.271   7.575  1.00  0.00     0.093 A 
ATOM      8  C   UNL     1       9.641  -7.736   6.283  1.00  0.00     0.123 A 
ATOM      9  C   UNL     1       8.335  -7.745   5.797  1.00  0.00     0.094 A 
ATOM     10  C   UNL     1       7.277  -7.322   6.604  1.00  0.00     0.146 A 
ATOM     11  O   UNL     1       6.046  -7.357   6.105  1.00  0.00    -0.452 OA
ENDROOT
BRANCH   1  12
ATOM     12  C   UNL     1       3.654  -7.062   6.111  1.00  0.00     0.025 A 
ATOM     13  C   UNL     1       2.658  -7.966   6.521  1.00  0.00     0.016 A 
ATOM     14  C   UNL     1       1.417  -7.988   5.879  1.00  0.00     0.051 A 
ATOM     15  C   UNL     1       1.149  -7.102   4.829  1.00  0.00     0.157 A 
ATOM     16  C   UNL     1       3.372  -6.160   5.072  1.00  0.00     0.062 A 
ATOM     17  C   UNL     1       2.128  -6.183   4.426  1.00  0.00     0.158 A 
BRANCH  15  18
ATOM     18  O   UNL     1      -0.087  -7.122   4.184  1.00  0.00    -0.504 OA
ATOM     19  H   UNL     1      -0.249  -7.701   3.369  1.00  0.00     0.293 HD
ENDBRANCH  15  18
BRANCH  17  20
ATOM     20  O   UNL     1       1.856  -5.297   3.385  1.00  0.00    -0.504 OA
ATOM     21  H   UNL     1       1.180  -5.518   2.664  1.00  0.00     0.293 HD
ENDBRANCH  17  20
ENDBRANCH   1  12
BRANCH   2  22
ATOM     22  O   UNL     1       3.960  -6.317   8.895  1.00  0.00    -0.502 OA
ATOM     23  H   UNL     1       3.291  -5.605   8.624  1.00  0.00     0.293 HD
ENDBRANCH   2  22
BRANCH   6  24
ATOM     24  O   UNL     1       9.234  -6.274   9.631  1.00  0.00    -0.507 OA
ATOM     25  H   UNL     1       9.824  -6.740  10.303  1.00  0.00     0.293 HD
ENDBRANCH   6  24
BRANCH   8  26
ATOM     26  O   UNL     1      10.680  -8.182   5.468  1.00  0.00    -0.508 OA
ATOM     27  H   UNL     1      11.579  -7.714   5.453  1.00  0.00     0.293 HD
ENDBRANCH   8  26
TORSDOF 6
ENDMDL
MODEL 6
REMARK VINA RESULT:    -7.438      7.700     10.919
REMARK INTER + INTRA:          -9.215
REMARK INTER:                  -8.927
REMARK INTRA:                  -0.288
REMARK UNBOUND:                -0.256
REMARK SMILES O=c1c(O)c(-c2ccc(O)c(O)c2)oc2cc(O)cc(O)c12
REMARK SMILES IDX 5 1 3 2 2 3 1 4 22 5 20 6 19 7 17 8 16 9 15 10 14 11 6 12
REMARK SMILES IDX 7 13 8 14 9 15 13 16 11 17 10 18 12 20 4 22 21 24 18 26
REMARK H PARENT 10 19 12 21 4 23 21 25 18 27
REMARK Flexibility Score: inf
ROOT
ATOM      1  C   UNL     1       4.986  -6.962   7.793  1.00  0.00     0.180 A 
ATOM      2  C   UNL     1       4.457  -6.006   6.909  1.00  0.00     0.208 A 
ATOM      3  C   UNL     1       3.260  -6.293   6.233  1.00  0.00     0.238 A 
ATOM      4  O   UNL     1       2.819  -5.457   5.403  1.00  0.00    -0.285 OA
ATOM      5  C   UNL     1       2.598  -7.524   6.463  1.00  0.00     0.111 A 
ATOM      6  C   UNL     1       1.359  -7.902   5.865  1.00  0.00     0.134 A 
ATOM      7  C   UNL     1       0.863  -9.197   6.063  1.00  0.00     0.093 A 
ATOM      8  C   UNL     1       1.529 -10.104   6.891  1.00  0.00     0.123 A 
ATOM      9  C   UNL     1       2.708  -9.724   7.528  1.00  0.00     0.094 A 
ATOM     10  C   UNL     1       3.246  -8.452   7.320  1.00  0.00     0.146 A 
ATOM     11  O   UNL     1       4.378  -8.133   7.938  1.00  0.00    -0.452 OA
ENDROOT
BRANCH   1  12
ATOM     12  C   UNL     1       6.231  -6.722   8.560  1.00  0.00     0.025 A 
ATOM     13  C   UNL     1       6.244  -5.886   9.691  1.00  0.00     0.016 A 
ATOM     14  C   UNL     1       7.425  -5.695  10.413  1.00  0.00     0.051 A 
ATOM     15  C   UNL     1       8.604  -6.342  10.024  1.00  0.00     0.157 A 
ATOM     16  C   UNL     1       7.412  -7.386   8.188  1.00  0.00     0.062 A 
ATOM     17  C   UNL     1       8.597  -7.193   8.911  1.00  0.00     0.158 A 
BRANCH  15  18
ATOM     18  O   UNL     1       9.784  -6.152  10.741  1.00  0.00    -0.504 OA
ATOM     19  H   UNL     1       9.842  -6.363  11.731  1.00  0.00     0.293 HD
ENDBRANCH  15  18
BRANCH  17  20
ATOM     20  O   UNL     1       9.770  -7.842   8.531  1.00  0.00    -0.504 OA
ATOM     21  H   UNL     1      10.503  -7.359   8.026  1.00  0.00     0.293 HD
ENDBRANCH  17  20
ENDBRANCH   1  12
BRANCH   2  22
ATOM     22  O   UNL     1       5.137  -4.808   6.680  1.00  0.00    -0.502 OA
ATOM     23  H   UNL     1       6.122  -4.776   6.449  1.00  0.00     0.293 HD
ENDBRANCH   2  22
BRANCH   6  24
ATOM     24  O   UNL     1       0.570  -7.042   5.096  1.00  0.00    -0.507 OA
ATOM     25  H   UNL     1      -0.035  -7.335   4.344  1.00  0.00     0.293 HD
ENDBRANCH   6  24
BRANCH   8  26
ATOM     26  O   UNL     1       1.021 -11.385   7.095  1.00  0.00    -0.508 OA
ATOM     27  H   UNL     1       0.438 -11.602   7.896  1.00  0.00     0.293 HD
ENDBRANCH   8  26
TORSDOF 6
ENDMDL
MODEL 7
REMARK VINA RESULT:    -7.416      6.089      9.143
REMARK INTER + INTRA:          -9.189
REMARK INTER:                  -8.865
REMARK INTRA:                  -0.323
REMARK UNBOUND:                -0.256
REMARK SMILES O=c1c(O)c(-c2ccc(O)c(O)c2)oc2cc(O)cc(O)c12
REMARK SMILES IDX 5 1 3 2 2 3 1 4 22 5 20 6 19 7 17 8 16 9 15 10 14 11 6 12
REMARK SMILES IDX 7 13 8 14 9 15 13 16 11 17 10 18 12 20 4 22 21 24 18 26
REMARK H PARENT 10 19 12 21 4 23 21 25 18 27
REMARK Flexibility Score: inf
ROOT
ATOM      1  C   UNL     1       6.804  -6.366   8.672  1.00  0.00     0.180 A 
ATOM      2  C   UNL     1       5.772  -5.433   8.470  1.00  0.00     0.208 A 
ATOM      3  C   UNL     1       4.527  -5.886   8.005  1.00  0.00     0.238 A 
ATOM      4  O   UNL     1       3.624  -5.040   7.776  1.00  0.00    -0.285 OA
ATOM      5  C   UNL     1       4.324  -7.266   7.764  1.00  0.00     0.111 A 
ATOM      6  C   UNL     1       3.091  -7.840   7.331  1.00  0.00     0.134 A 
ATOM      7  C   UNL     1       3.042  -9.200   6.997  1.00  0.00     0.093 A 
ATOM      8  C   UNL     1       4.164 -10.018   7.145  1.00  0.00     0.123 A 
ATOM      9  C   UNL     1       5.356  -9.479   7.625  1.00  0.00     0.094 A 
ATOM     10  C   UNL     1       5.445  -8.119   7.930  1.00  0.00     0.146 A 
ATOM     11  O   UNL     1       6.603  -7.645   8.375  1.00  0.00    -0.452 OA
ENDROOT
BRANCH   1  12
ATOM     12  C   UNL     1       8.136  -5.969   9.184  1.00  0.00     0.025 A 
ATOM     13  C   UNL     1       9.167  -5.572   8.314  1.00  0.00     0.016 A 
ATOM     14  C   UNL     1      10.407  -5.179   8.821  1.00  0.00     0.051 A 
ATOM     15  C   UNL     1      10.633  -5.165  10.203  1.00  0.00     0.157 A 
ATOM     16  C   UNL     1       8.361  -5.933  10.570  1.00  0.00     0.062 A 
ATOM     17  C   UNL     1       9.607  -5.540  11.080  1.00  0.00     0.158 A 
BRANCH  15  18
ATOM     18  O   UNL     1      11.870  -4.774  10.713  1.00  0.00    -0.504 OA
ATOM     19  H   UNL     1      12.602  -4.417  10.111  1.00  0.00     0.293 HD
ENDBRANCH  15  18
BRANCH  17  20
ATOM     20  O   UNL     1       9.831  -5.518  12.456  1.00  0.00    -0.504 OA
ATOM     21  H   UNL     1       9.119  -5.809  13.113  1.00  0.00     0.293 HD
ENDBRANCH  17  20
ENDBRANCH   1  12
BRANCH   2  22
ATOM     22  O   UNL     1       6.000  -4.074   8.695  1.00  0.00    -0.502 OA
ATOM     23  H   UNL     1       5.365  -3.354   8.370  1.00  0.00     0.293 HD
ENDBRANCH   2  22
BRANCH   6  24
ATOM     24  O   UNL     1       1.890  -7.131   7.238  1.00  0.00    -0.507 OA
ATOM     25  H   UNL     1       1.814  -6.125   7.240  1.00  0.00     0.293 HD
ENDBRANCH   6  24
BRANCH   8  26
ATOM     26  O   UNL     1       4.102 -11.373   6.826  1.00  0.00    -0.508 OA
ATOM     27  H   UNL     1       4.786 -12.032   7.181  1.00  0.00     0.293 HD
ENDBRANCH   8  26
TORSDOF 6
ENDMDL
MODEL 8
REMARK VINA RESULT:    -7.359      3.430      7.447
REMARK INTER + INTRA:          -9.120
REMARK INTER:                  -8.861
REMARK INTRA:                  -0.260
REMARK UNBOUND:                -0.256
REMARK SMILES O=c1c(O)c(-c2ccc(O)c(O)c2)oc2cc(O)cc(O)c12
REMARK SMILES IDX 5 1 3 2 2 3 1 4 22 5 20 6 19 7 17 8 16 9 15 10 14 11 6 12
REMARK SMILES IDX 7 13 8 14 9 15 13 16 11 17 10 18 12 20 4 22 21 24 18 26
REMARK H PARENT 10 19 12 21 4 23 21 25 18 27
REMARK Flexibility Score: inf
ROOT
ATOM      1  C   UNL     1      10.778  -4.406  11.323  1.00  0.00     0.180 A 
ATOM      2  C   UNL     1      11.353  -5.087  12.410  1.00  0.00     0.208 A 
ATOM      3  C   UNL     1      12.238  -4.397  13.254  1.00  0.00     0.238 A 
ATOM      4  O   UNL     1      12.791  -5.026  14.193  1.00  0.00    -0.285 OA
ATOM      5  C   UNL     1      12.525  -3.032  13.010  1.00  0.00     0.111 A 
ATOM      6  C   UNL     1      13.376  -2.225  13.824  1.00  0.00     0.134 A 
ATOM      7  C   UNL     1      13.692  -0.923  13.414  1.00  0.00     0.093 A 
ATOM      8  C   UNL     1      13.135  -0.378  12.254  1.00  0.00     0.123 A 
ATOM      9  C   UNL     1      12.255  -1.138  11.485  1.00  0.00     0.094 A 
ATOM     10  C   UNL     1      11.951  -2.452  11.849  1.00  0.00     0.146 A 
ATOM     11  O   UNL     1      11.116  -3.144  11.083  1.00  0.00    -0.452 OA
ENDROOT
BRANCH   1  12
ATOM     12  C   UNL     1       9.816  -5.058  10.405  1.00  0.00     0.025 A 
ATOM     13  C   UNL     1      10.203  -5.484   9.122  1.00  0.00     0.016 A 
ATOM     14  C   UNL     1       9.284  -6.119   8.282  1.00  0.00     0.051 A 
ATOM     15  C   UNL     1       7.972  -6.347   8.714  1.00  0.00     0.157 A 
ATOM     16  C   UNL     1       8.504  -5.309  10.841  1.00  0.00     0.062 A 
ATOM     17  C   UNL     1       7.582  -5.944   9.998  1.00  0.00     0.158 A 
BRANCH  15  18
ATOM     18  O   UNL     1       7.052  -6.979   7.879  1.00  0.00    -0.504 OA
ATOM     19  H   UNL     1       7.352  -7.562   7.106  1.00  0.00     0.293 HD
ENDBRANCH  15  18
BRANCH  17  20
ATOM     20  O   UNL     1       6.277  -6.180  10.429  1.00  0.00    -0.504 OA
ATOM     21  H   UNL     1       5.598  -5.432  10.494  1.00  0.00     0.293 HD
ENDBRANCH  17  20
ENDBRANCH   1  12
BRANCH   2  22
ATOM     22  O   UNL     1      11.073  -6.439  12.620  1.00  0.00    -0.502 OA
ATOM     23  H   UNL     1      10.148  -6.830  12.490  1.00  0.00     0.293 HD
ENDBRANCH   2  22
BRANCH   6  24
ATOM     24  O   UNL     1      13.909  -2.641  15.047  1.00  0.00    -0.507 OA
ATOM     25  H   UNL     1      13.835  -2.127  15.911  1.00  0.00     0.293 HD
ENDBRANCH   6  24
BRANCH   8  26
ATOM     26  O   UNL     1      13.441   0.923  11.862  1.00  0.00    -0.508 OA
ATOM     27  H   UNL     1      14.397   1.258  11.842  1.00  0.00     0.293 HD
ENDBRANCH   8  26
TORSDOF 6
ENDMDL
MODEL 9
REMARK VINA RESULT:    -7.332      7.448     12.359
REMARK INTER + INTRA:          -9.087
REMARK INTER:                  -8.872
REMARK INTRA:                  -0.215
REMARK UNBOUND:                -0.256
REMARK SMILES O=c1c(O)c(-c2ccc(O)c(O)c2)oc2cc(O)cc(O)c12
REMARK SMILES IDX 5 1 3 2 2 3 1 4 22 5 20 6 19 7 17 8 16 9 15 10 14 11 6 12
REMARK SMILES IDX 7 13 8 14 9 15 13 16 11 17 10 18 12 20 4 22 21 24 18 26
REMARK H PARENT 10 19 12 21 4 23 21 25 18 27
REMARK Flexibility Score: inf
ROOT
ATOM      1  C   UNL     1       4.268  -6.516   7.359  1.00  0.00     0.180 A 
ATOM      2  C   UNL     1       5.124  -7.579   7.693  1.00  0.00     0.208 A 
ATOM      3  C   UNL     1       6.144  -7.362   8.633  1.00  0.00     0.238 A 
ATOM      4  O   UNL     1       6.941  -8.302   8.889  1.00  0.00    -0.285 OA
ATOM      5  C   UNL     1       6.284  -6.091   9.241  1.00  0.00     0.111 A 
ATOM      6  C   UNL     1       7.255  -5.770  10.236  1.00  0.00     0.134 A 
ATOM      7  C   UNL     1       7.387  -4.446  10.671  1.00  0.00     0.093 A 
ATOM      8  C   UNL     1       6.539  -3.443  10.195  1.00  0.00     0.123 A 
ATOM      9  C   UNL     1       5.548  -3.758   9.268  1.00  0.00     0.094 A 
ATOM     10  C   UNL     1       5.416  -5.063   8.787  1.00  0.00     0.146 A 
ATOM     11  O   UNL     1       4.465  -5.318   7.896  1.00  0.00    -0.452 OA
ENDROOT
BRANCH   1  12
ATOM     12  C   UNL     1       3.155  -6.674   6.394  1.00  0.00     0.025 A 
ATOM     13  C   UNL     1       3.207  -6.094   5.114  1.00  0.00     0.016 A 
ATOM     14  C   UNL     1       2.155  -6.277   4.213  1.00  0.00     0.051 A 
ATOM     15  C   UNL     1       1.044  -7.050   4.571  1.00  0.00     0.157 A 
ATOM     16  C   UNL     1       2.047  -7.466   6.740  1.00  0.00     0.062 A 
ATOM     17  C   UNL     1       0.991  -7.648   5.837  1.00  0.00     0.158 A 
BRANCH  15  18
ATOM     18  O   UNL     1      -0.008  -7.233   3.675  1.00  0.00    -0.504 OA
ATOM     19  H   UNL     1      -0.966  -7.029   3.934  1.00  0.00     0.293 HD
ENDBRANCH  15  18
BRANCH  17  20
ATOM     20  O   UNL     1      -0.113  -8.424   6.188  1.00  0.00    -0.504 OA
ATOM     21  H   UNL     1      -0.221  -8.797   7.123  1.00  0.00     0.293 HD
ENDBRANCH  17  20
ENDBRANCH   1  12
BRANCH   2  22
ATOM     22  O   UNL     1       4.982  -8.819   7.066  1.00  0.00    -0.502 OA
ATOM     23  H   UNL     1       5.281  -8.985   6.113  1.00  0.00     0.293 HD
ENDBRANCH   2  22
BRANCH   6  24
ATOM     24  O   UNL     1       8.088  -6.713  10.845  1.00  0.00    -0.507 OA
ATOM     25  H   UNL     1       8.794  -7.251  10.366  1.00  0.00     0.293 HD
ENDBRANCH   6  24
BRANCH   8  26
ATOM     26  O   UNL     1       6.666  -2.131  10.644  1.00  0.00    -0.508 OA
ATOM     27  H   UNL     1       6.933  -1.380  10.018  1.00  0.00     0.293 HD
ENDBRANCH   8  26
TORSDOF 6
ENDMDL
