MODEL 1
REMARK VINA RESULT:    -1.386      0.000      0.000
REMARK INTER + INTRA:          -4.320
REMARK INTER:                  -2.601
REMARK INTRA:                  -1.719
REMARK UNBOUND:                -1.719
REMARK SMILES CCCCCCCCC=CCCCCCCCC(=O)[O-]
REMARK SMILES IDX 10 1 9 2 11 3 12 4 13 5 14 6 15 7 16 8 17 9 18 10 19 11
REMARK SMILES IDX 20 12 8 13 7 14 6 15 5 16 4 17 3 18 2 19 1 20
REMARK H PARENT
REMARK Flexibility Score: inf
ROOT
ATOM      1  C   UNL     1     -21.334  -0.123  14.161  1.00  0.00    -0.031 C 
ATOM      2  C   UNL     1     -20.927  -1.362  13.829  1.00  0.00    -0.031 C 
ENDROOT
BRANCH   1   3
ATOM      3  C   UNL     1     -22.348   0.685  13.388  1.00  0.00     0.027 C 
BRANCH   3   4
ATOM      4  C   UNL     1     -21.704   1.473  12.235  1.00  0.00     0.004 C 
BRANCH   4   5
ATOM      5  C   UNL     1     -22.530   1.495  10.932  1.00  0.00     0.000 C 
BRANCH   5   6
ATOM      6  C   UNL     1     -21.711   1.345   9.638  1.00  0.00     0.000 C 
BRANCH   6   7
ATOM      7  C   UNL     1     -21.994   2.458   8.619  1.00  0.00     0.000 C 
BRANCH   7   8
ATOM      8  C   UNL     1     -21.581   2.025   7.204  1.00  0.00     0.006 C 
BRANCH   8   9
ATOM      9  C   UNL     1     -20.513   0.923   7.224  1.00  0.00     0.053 C 
BRANCH   9  10
ATOM     10  C   UNL     1     -20.900  -0.242   6.366  1.00  0.00     0.041 C 
ATOM     11  O   UNL     1     -22.023  -0.792   6.516  1.00  0.00    -0.550 OA
ATOM     12  O   UNL     1     -20.009  -0.743   5.426  1.00  0.00    -0.550 OA
ENDBRANCH   9  10
ENDBRANCH   8   9
ENDBRANCH   7   8
ENDBRANCH   6   7
ENDBRANCH   5   6
ENDBRANCH   4   5
ENDBRANCH   3   4
ENDBRANCH   1   3
BRANCH   2  13
ATOM     13  C   UNL     1     -21.342  -2.095  12.577  1.00  0.00     0.027 C 
BRANCH  13  14
ATOM     14  C   UNL     1     -20.297  -1.959  11.459  1.00  0.00     0.004 C 
BRANCH  14  15
ATOM     15  C   UNL     1     -20.940  -1.954  10.063  1.00  0.00     0.000 C 
BRANCH  15  16
ATOM     16  C   UNL     1     -19.964  -2.382   8.954  1.00  0.00     0.000 C 
BRANCH  16  17
ATOM     17  C   UNL     1     -20.497  -3.529   8.070  1.00  0.00    -0.000 C 
BRANCH  17  18
ATOM     18  C   UNL     1     -19.623  -4.792   8.170  1.00  0.00    -0.000 C 
BRANCH  18  19
ATOM     19  C   UNL     1     -20.430  -6.085   7.980  1.00  0.00    -0.003 C 
ATOM     20  C   UNL     1     -21.760  -6.063   8.732  1.00  0.00     0.004 C 
ENDBRANCH  18  19
ENDBRANCH  17  18
ENDBRANCH  16  17
ENDBRANCH  15  16
ENDBRANCH  14  15
ENDBRANCH  13  14
ENDBRANCH   2  13
TORSDOF 15
ENDMDL
MODEL 2
REMARK VINA RESULT:    -1.345      2.092      6.049
REMARK INTER + INTRA:          -4.244
REMARK INTER:                  -2.900
REMARK INTRA:                  -1.344
REMARK UNBOUND:                -1.719
REMARK SMILES CCCCCCCCC=CCCCCCCCC(=O)[O-]
REMARK SMILES IDX 10 1 9 2 11 3 12 4 13 5 14 6 15 7 16 8 17 9 18 10 19 11
REMARK SMILES IDX 20 12 8 13 7 14 6 15 5 16 4 17 3 18 2 19 1 20
REMARK H PARENT
REMARK Flexibility Score: inf
ROOT
ATOM      1  C   UNL     1     -21.512   0.817  13.631  1.00  0.00    -0.031 C 
ATOM      2  C   UNL     1     -21.618   1.574  12.524  1.00  0.00    -0.031 C 
ENDROOT
BRANCH   1   3
ATOM      3  C   UNL     1     -22.070  -0.579  13.774  1.00  0.00     0.027 C 
BRANCH   3   4
ATOM      4  C   UNL     1     -21.056  -1.654  13.348  1.00  0.00     0.004 C 
BRANCH   4   5
ATOM      5  C   UNL     1     -21.294  -2.240  11.941  1.00  0.00     0.000 C 
BRANCH   5   6
ATOM      6  C   UNL     1     -20.175  -1.966  10.921  1.00  0.00     0.000 C 
BRANCH   6   7
ATOM      7  C   UNL     1     -20.604  -2.241   9.473  1.00  0.00     0.000 C 
BRANCH   7   8
ATOM      8  C   UNL     1     -21.003  -0.939   8.762  1.00  0.00     0.006 C 
BRANCH   8   9
ATOM      9  C   UNL     1     -20.987  -1.083   7.234  1.00  0.00     0.053 C 
BRANCH   9  10
ATOM     10  C   UNL     1     -21.128   0.242   6.550  1.00  0.00     0.041 C 
ATOM     11  O   UNL     1     -22.003   0.403   5.658  1.00  0.00    -0.550 OA
ATOM     12  O   UNL     1     -20.272   1.288   6.871  1.00  0.00    -0.550 OA
ENDBRANCH   9  10
ENDBRANCH   8   9
ENDBRANCH   7   8
ENDBRANCH   6   7
ENDBRANCH   5   6
ENDBRANCH   4   5
ENDBRANCH   3   4
ENDBRANCH   1   3
BRANCH   2  13
ATOM     13  C   UNL     1     -22.397   1.189  11.290  1.00  0.00     0.027 C 
BRANCH  13  14
ATOM     14  C   UNL     1     -21.815   1.831  10.021  1.00  0.00     0.004 C 
BRANCH  14  15
ATOM     15  C   UNL     1     -22.850   2.698   9.285  1.00  0.00     0.000 C 
BRANCH  15  16
ATOM     16  C   UNL     1     -22.206   3.715   8.329  1.00  0.00     0.000 C 
BRANCH  16  17
ATOM     17  C   UNL     1     -22.430   5.184   8.746  1.00  0.00    -0.000 C 
BRANCH  17  18
ATOM     18  C   UNL     1     -21.142   6.020   8.637  1.00  0.00    -0.000 C 
BRANCH  18  19
ATOM     19  C   UNL     1     -20.335   6.032   9.943  1.00  0.00    -0.003 C 
ATOM     20  C   UNL     1     -19.036   6.828   9.824  1.00  0.00     0.004 C 
ENDBRANCH  18  19
ENDBRANCH  17  18
ENDBRANCH  16  17
ENDBRANCH  15  16
ENDBRANCH  14  15
ENDBRANCH  13  14
ENDBRANCH   2  13
TORSDOF 15
ENDMDL
MODEL 3
REMARK VINA RESULT:    -1.165      2.016      4.854
REMARK INTER + INTRA:          -3.905
REMARK INTER:                  -2.154
REMARK INTRA:                  -1.751
REMARK UNBOUND:                -1.719
REMARK SMILES CCCCCCCCC=CCCCCCCCC(=O)[O-]
REMARK SMILES IDX 10 1 9 2 11 3 12 4 13 5 14 6 15 7 16 8 17 9 18 10 19 11
REMARK SMILES IDX 20 12 8 13 7 14 6 15 5 16 4 17 3 18 2 19 1 20
REMARK H PARENT
REMARK Flexibility Score: inf
ROOT
ATOM      1  C   UNL     1     -21.631   0.884  13.554  1.00  0.00    -0.031 C 
ATOM      2  C   UNL     1     -21.762   1.614  12.432  1.00  0.00    -0.031 C 
ENDROOT
BRANCH   1   3
ATOM      3  C   UNL     1     -22.129  -0.531  13.722  1.00  0.00     0.027 C 
BRANCH   3   4
ATOM      4  C   UNL     1     -21.050  -1.570  13.373  1.00  0.00     0.004 C 
BRANCH   4   5
ATOM      5  C   UNL     1     -21.212  -2.222  11.985  1.00  0.00     0.000 C 
BRANCH   5   6
ATOM      6  C   UNL     1     -20.313  -1.637  10.881  1.00  0.00     0.000 C 
BRANCH   6   7
ATOM      7  C   UNL     1     -20.694  -2.128   9.476  1.00  0.00     0.000 C 
BRANCH   7   8
ATOM      8  C   UNL     1     -19.819  -3.319   9.056  1.00  0.00     0.006 C 
BRANCH   8   9
ATOM      9  C   UNL     1     -20.418  -4.090   7.871  1.00  0.00     0.053 C 
BRANCH   9  10
ATOM     10  C   UNL     1     -20.482  -5.562   8.141  1.00  0.00     0.041 C 
ATOM     11  O   UNL     1     -19.522  -6.308   7.809  1.00  0.00    -0.550 OA
ATOM     12  O   UNL     1     -21.612  -6.115   8.728  1.00  0.00    -0.550 OA
ENDBRANCH   9  10
ENDBRANCH   8   9
ENDBRANCH   7   8
ENDBRANCH   6   7
ENDBRANCH   5   6
ENDBRANCH   4   5
ENDBRANCH   3   4
ENDBRANCH   1   3
BRANCH   2  13
ATOM     13  C   UNL     1     -22.516   1.172  11.202  1.00  0.00     0.027 C 
BRANCH  13  14
ATOM     14  C   UNL     1     -21.743   1.486   9.912  1.00  0.00     0.004 C 
BRANCH  14  15
ATOM     15  C   UNL     1     -22.418   2.595   9.089  1.00  0.00     0.000 C 
BRANCH  15  16
ATOM     16  C   UNL     1     -21.704   2.868   7.754  1.00  0.00     0.000 C 
BRANCH  16  17
ATOM     17  C   UNL     1     -20.916   1.655   7.214  1.00  0.00    -0.000 C 
BRANCH  17  18
ATOM     18  C   UNL     1     -21.789   0.745   6.331  1.00  0.00    -0.000 C 
BRANCH  18  19
ATOM     19  C   UNL     1     -21.437  -0.742   6.489  1.00  0.00    -0.003 C 
ATOM     20  C   UNL     1     -20.120  -1.110   5.807  1.00  0.00     0.004 C 
ENDBRANCH  18  19
ENDBRANCH  17  18
ENDBRANCH  16  17
ENDBRANCH  15  16
ENDBRANCH  14  15
ENDBRANCH  13  14
ENDBRANCH   2  13
TORSDOF 15
ENDMDL
MODEL 4
REMARK VINA RESULT:    -0.994      2.842      7.469
REMARK INTER + INTRA:          -3.586
REMARK INTER:                  -2.998
REMARK INTRA:                  -0.587
REMARK UNBOUND:                -1.719
REMARK SMILES CCCCCCCCC=CCCCCCCCC(=O)[O-]
REMARK SMILES IDX 10 1 9 2 11 3 12 4 13 5 14 6 15 7 16 8 17 9 18 10 19 11
REMARK SMILES IDX 20 12 8 13 7 14 6 15 5 16 4 17 3 18 2 19 1 20
REMARK H PARENT
REMARK Flexibility Score: inf
ROOT
ATOM      1  C   UNL     1     -20.264  -1.276   6.275  1.00  0.00    -0.031 C 
ATOM      2  C   UNL     1     -20.568  -0.039   5.841  1.00  0.00    -0.031 C 
ENDROOT
BRANCH   1   3
ATOM      3  C   UNL     1     -21.109  -2.083   7.231  1.00  0.00     0.027 C 
BRANCH   3   4
ATOM      4  C   UNL     1     -20.307  -3.211   7.901  1.00  0.00     0.004 C 
BRANCH   4   5
ATOM      5  C   UNL     1     -19.973  -2.966   9.388  1.00  0.00     0.000 C 
BRANCH   5   6
ATOM      6  C   UNL     1     -20.798  -1.859  10.068  1.00  0.00     0.000 C 
BRANCH   6   7
ATOM      7  C   UNL     1     -20.322  -1.549  11.495  1.00  0.00     0.000 C 
BRANCH   7   8
ATOM      8  C   UNL     1     -21.243  -2.204  12.535  1.00  0.00     0.006 C 
BRANCH   8   9
ATOM      9  C   UNL     1     -22.162  -1.184  13.221  1.00  0.00     0.053 C 
BRANCH   9  10
ATOM     10  C   UNL     1     -21.391  -0.026  13.777  1.00  0.00     0.041 C 
ATOM     11  O   UNL     1     -20.653  -0.184  14.786  1.00  0.00    -0.550 OA
ATOM     12  O   UNL     1     -21.513   1.233  13.204  1.00  0.00    -0.550 OA
ENDBRANCH   9  10
ENDBRANCH   8   9
ENDBRANCH   7   8
ENDBRANCH   6   7
ENDBRANCH   5   6
ENDBRANCH   4   5
ENDBRANCH   3   4
ENDBRANCH   1   3
BRANCH   2  13
ATOM     13  C   UNL     1     -21.746   0.775   6.321  1.00  0.00     0.027 C 
BRANCH  13  14
ATOM     14  C   UNL     1     -21.337   1.798   7.391  1.00  0.00     0.004 C 
BRANCH  14  15
ATOM     15  C   UNL     1     -21.475   1.234   8.814  1.00  0.00     0.000 C 
BRANCH  15  16
ATOM     16  C   UNL     1     -22.327   2.126   9.731  1.00  0.00     0.000 C 
BRANCH  16  17
ATOM     17  C   UNL     1     -23.095   3.234   8.979  1.00  0.00    -0.000 C 
BRANCH  17  18
ATOM     18  C   UNL     1     -22.145   4.233   8.294  1.00  0.00    -0.000 C 
BRANCH  18  19
ATOM     19  C   UNL     1     -22.112   5.595   9.003  1.00  0.00    -0.003 C 
ATOM     20  C   UNL     1     -20.703   5.996   9.439  1.00  0.00     0.004 C 
ENDBRANCH  18  19
ENDBRANCH  17  18
ENDBRANCH  16  17
ENDBRANCH  15  16
ENDBRANCH  14  15
ENDBRANCH  13  14
ENDBRANCH   2  13
TORSDOF 15
ENDMDL
MODEL 5
REMARK VINA RESULT:    -0.988      3.176      5.523
REMARK INTER + INTRA:          -3.573
REMARK INTER:                  -2.647
REMARK INTRA:                  -0.926
REMARK UNBOUND:                -1.719
REMARK SMILES CCCCCCCCC=CCCCCCCCC(=O)[O-]
REMARK SMILES IDX 10 1 9 2 11 3 12 4 13 5 14 6 15 7 16 8 17 9 18 10 19 11
REMARK SMILES IDX 20 12 8 13 7 14 6 15 5 16 4 17 3 18 2 19 1 20
REMARK H PARENT
REMARK Flexibility Score: inf
ROOT
ATOM      1  C   UNL     1     -20.584  -2.009   8.584  1.00  0.00    -0.031 C 
ATOM      2  C   UNL     1     -20.188  -3.250   8.921  1.00  0.00    -0.031 C 
ENDROOT
BRANCH   1   3
ATOM      3  C   UNL     1     -20.996  -1.586   7.194  1.00  0.00     0.027 C 
BRANCH   3   4
ATOM      4  C   UNL     1     -21.164  -0.062   7.080  1.00  0.00     0.004 C 
BRANCH   4   5
ATOM      5  C   UNL     1     -20.962   0.708   8.401  1.00  0.00     0.000 C 
BRANCH   5   6
ATOM      6  C   UNL     1     -22.022   1.784   8.698  1.00  0.00     0.000 C 
BRANCH   6   7
ATOM      7  C   UNL     1     -22.258   1.993  10.202  1.00  0.00     0.000 C 
BRANCH   7   8
ATOM      8  C   UNL     1     -21.894   0.729  10.995  1.00  0.00     0.006 C 
BRANCH   8   9
ATOM      9  C   UNL     1     -21.814   0.994  12.504  1.00  0.00     0.053 C 
BRANCH   9  10
ATOM     10  C   UNL     1     -21.379  -0.224  13.260  1.00  0.00     0.041 C 
ATOM     11  O   UNL     1     -21.099  -0.141  14.486  1.00  0.00    -0.550 OA
ATOM     12  O   UNL     1     -21.251  -1.442  12.606  1.00  0.00    -0.550 OA
ENDBRANCH   9  10
ENDBRANCH   8   9
ENDBRANCH   7   8
ENDBRANCH   6   7
ENDBRANCH   5   6
ENDBRANCH   4   5
ENDBRANCH   3   4
ENDBRANCH   1   3
BRANCH   2  13
ATOM     13  C   UNL     1     -19.995  -4.385   7.944  1.00  0.00     0.027 C 
BRANCH  13  14
ATOM     14  C   UNL     1     -20.468  -5.727   8.524  1.00  0.00     0.004 C 
BRANCH  14  15
ATOM     15  C   UNL     1     -21.674  -6.294   7.758  1.00  0.00     0.000 C 
BRANCH  15  16
ATOM     16  C   UNL     1     -22.812  -6.749   8.687  1.00  0.00     0.000 C 
BRANCH  16  17
ATOM     17  C   UNL     1     -23.607  -7.957   8.145  1.00  0.00    -0.000 C 
BRANCH  17  18
ATOM     18  C   UNL     1     -25.123  -7.689   8.124  1.00  0.00    -0.000 C 
BRANCH  18  19
ATOM     19  C   UNL     1     -25.909  -8.813   7.432  1.00  0.00    -0.003 C 
ATOM     20  C   UNL     1     -26.741  -9.638   8.414  1.00  0.00     0.004 C 
ENDBRANCH  18  19
ENDBRANCH  17  18
ENDBRANCH  16  17
ENDBRANCH  15  16
ENDBRANCH  14  15
ENDBRANCH  13  14
ENDBRANCH   2  13
TORSDOF 15
ENDMDL
MODEL 6
REMARK VINA RESULT:    -0.967      2.756      5.788
REMARK INTER + INTRA:          -3.533
REMARK INTER:                  -2.067
REMARK INTRA:                  -1.466
REMARK UNBOUND:                -1.719
REMARK SMILES CCCCCCCCC=CCCCCCCCC(=O)[O-]
REMARK SMILES IDX 10 1 9 2 11 3 12 4 13 5 14 6 15 7 16 8 17 9 18 10 19 11
REMARK SMILES IDX 20 12 8 13 7 14 6 15 5 16 4 17 3 18 2 19 1 20
REMARK H PARENT
REMARK Flexibility Score: inf
ROOT
ATOM      1  C   UNL     1     -20.622  -2.415   7.544  1.00  0.00    -0.031 C 
ATOM      2  C   UNL     1     -20.313  -2.458   8.853  1.00  0.00    -0.031 C 
ENDROOT
BRANCH   1   3
ATOM      3  C   UNL     1     -21.412  -1.313   6.882  1.00  0.00     0.027 C 
BRANCH   3   4
ATOM      4  C   UNL     1     -20.507  -0.327   6.124  1.00  0.00     0.004 C 
BRANCH   4   5
ATOM      5  C   UNL     1     -20.239   0.999   6.865  1.00  0.00     0.000 C 
BRANCH   5   6
ATOM      6  C   UNL     1     -21.497   1.791   7.262  1.00  0.00     0.000 C 
BRANCH   6   7
ATOM      7  C   UNL     1     -21.798   1.724   8.766  1.00  0.00     0.000 C 
BRANCH   7   8
ATOM      8  C   UNL     1     -22.526   2.991   9.238  1.00  0.00     0.006 C 
BRANCH   8   9
ATOM      9  C   UNL     1     -22.418   4.135   8.220  1.00  0.00     0.053 C 
BRANCH   9  10
ATOM     10  C   UNL     1     -22.044   5.429   8.876  1.00  0.00     0.041 C 
ATOM     11  O   UNL     1     -22.831   6.412   8.830  1.00  0.00    -0.550 OA
ATOM     12  O   UNL     1     -20.815   5.561   9.509  1.00  0.00    -0.550 OA
ENDBRANCH   9  10
ENDBRANCH   8   9
ENDBRANCH   7   8
ENDBRANCH   6   7
ENDBRANCH   5   6
ENDBRANCH   4   5
ENDBRANCH   3   4
ENDBRANCH   1   3
BRANCH   2  13
ATOM     13  C   UNL     1     -20.795  -1.464   9.882  1.00  0.00     0.027 C 
BRANCH  13  14
ATOM     14  C   UNL     1     -20.328  -1.833  11.298  1.00  0.00     0.004 C 
BRANCH  14  15
ATOM     15  C   UNL     1     -21.481  -2.354  12.170  1.00  0.00     0.000 C 
BRANCH  15  16
ATOM     16  C   UNL     1     -21.369  -1.909  13.638  1.00  0.00     0.000 C 
BRANCH  16  17
ATOM     17  C   UNL     1     -22.222  -0.668  13.975  1.00  0.00    -0.000 C 
BRANCH  17  18
ATOM     18  C   UNL     1     -21.356   0.578  14.232  1.00  0.00    -0.000 C 
BRANCH  18  19
ATOM     19  C   UNL     1     -21.279   1.505  13.009  1.00  0.00    -0.003 C 
ATOM     20  C   UNL     1     -22.439   1.292  12.037  1.00  0.00     0.004 C 
ENDBRANCH  18  19
ENDBRANCH  17  18
ENDBRANCH  16  17
ENDBRANCH  15  16
ENDBRANCH  14  15
ENDBRANCH  13  14
ENDBRANCH   2  13
TORSDOF 15
ENDMDL
MODEL 7
REMARK VINA RESULT:    -0.939      2.815      5.114
REMARK INTER + INTRA:          -3.482
REMARK INTER:                  -3.558
REMARK INTRA:                   0.076
REMARK UNBOUND:                -1.719
REMARK SMILES CCCCCCCCC=CCCCCCCCC(=O)[O-]
REMARK SMILES IDX 10 1 9 2 11 3 12 4 13 5 14 6 15 7 16 8 17 9 18 10 19 11
REMARK SMILES IDX 20 12 8 13 7 14 6 15 5 16 4 17 3 18 2 19 1 20
REMARK H PARENT
REMARK Flexibility Score: inf
ROOT
ATOM      1  C   UNL     1     -21.609   0.696   6.225  1.00  0.00    -0.031 C 
ATOM      2  C   UNL     1     -21.524  -0.644   6.145  1.00  0.00    -0.031 C 
ENDROOT
BRANCH   1   3
ATOM      3  C   UNL     1     -20.971   1.535   7.306  1.00  0.00     0.027 C 
BRANCH   3   4
ATOM      4  C   UNL     1     -21.667   2.896   7.469  1.00  0.00     0.004 C 
BRANCH   4   5
ATOM      5  C   UNL     1     -22.356   3.106   8.833  1.00  0.00     0.000 C 
BRANCH   5   6
ATOM      6  C   UNL     1     -22.511   1.836   9.688  1.00  0.00     0.000 C 
BRANCH   6   7
ATOM      7  C   UNL     1     -21.598   1.832  10.924  1.00  0.00     0.000 C 
BRANCH   7   8
ATOM      8  C   UNL     1     -22.273   1.113  12.101  1.00  0.00     0.006 C 
BRANCH   8   9
ATOM      9  C   UNL     1     -21.448   1.210  13.391  1.00  0.00     0.053 C 
BRANCH   9  10
ATOM     10  C   UNL     1     -21.408  -0.095  14.126  1.00  0.00     0.041 C 
ATOM     11  O   UNL     1     -20.391  -0.411  14.799  1.00  0.00    -0.550 OA
ATOM     12  O   UNL     1     -22.478  -0.976  14.040  1.00  0.00    -0.550 OA
ENDBRANCH   9  10
ENDBRANCH   8   9
ENDBRANCH   7   8
ENDBRANCH   6   7
ENDBRANCH   5   6
ENDBRANCH   4   5
ENDBRANCH   3   4
ENDBRANCH   1   3
BRANCH   2  13
ATOM     13  C   UNL     1     -20.866  -1.527   7.178  1.00  0.00     0.027 C 
BRANCH  13  14
ATOM     14  C   UNL     1     -21.060  -0.984   8.602  1.00  0.00     0.004 C 
BRANCH  14  15
ATOM     15  C   UNL     1     -20.431  -1.903   9.661  1.00  0.00     0.000 C 
BRANCH  15  16
ATOM     16  C   UNL     1     -20.734  -3.391   9.419  1.00  0.00     0.000 C 
BRANCH  16  17
ATOM     17  C   UNL     1     -19.811  -4.047   8.369  1.00  0.00    -0.000 C 
BRANCH  17  18
ATOM     18  C   UNL     1     -19.985  -5.575   8.320  1.00  0.00    -0.000 C 
BRANCH  18  19
ATOM     19  C   UNL     1     -21.382  -5.994   7.840  1.00  0.00    -0.003 C 
ATOM     20  C   UNL     1     -22.294  -6.422   8.989  1.00  0.00     0.004 C 
ENDBRANCH  18  19
ENDBRANCH  17  18
ENDBRANCH  16  17
ENDBRANCH  15  16
ENDBRANCH  14  15
ENDBRANCH  13  14
ENDBRANCH   2  13
TORSDOF 15
ENDMDL
MODEL 8
REMARK VINA RESULT:    -0.933      2.288      6.483
REMARK INTER + INTRA:          -3.470
REMARK INTER:                  -2.444
REMARK INTRA:                  -1.026
REMARK UNBOUND:                -1.719
REMARK SMILES CCCCCCCCC=CCCCCCCCC(=O)[O-]
REMARK SMILES IDX 10 1 9 2 11 3 12 4 13 5 14 6 15 7 16 8 17 9 18 10 19 11
REMARK SMILES IDX 20 12 8 13 7 14 6 15 5 16 4 17 3 18 2 19 1 20
REMARK H PARENT
REMARK Flexibility Score: inf
ROOT
ATOM      1  C   UNL     1     -20.811   0.747   6.558  1.00  0.00    -0.031 C 
ATOM      2  C   UNL     1     -20.991   1.815   7.358  1.00  0.00    -0.031 C 
ENDROOT
BRANCH   1   3
ATOM      3  C   UNL     1     -21.714  -0.462   6.524  1.00  0.00     0.027 C 
BRANCH   3   4
ATOM      4  C   UNL     1     -20.994  -1.735   7.000  1.00  0.00     0.004 C 
BRANCH   4   5
ATOM      5  C   UNL     1     -20.618  -1.739   8.496  1.00  0.00     0.000 C 
BRANCH   5   6
ATOM      6  C   UNL     1     -20.235  -3.115   9.068  1.00  0.00     0.000 C 
BRANCH   6   7
ATOM      7  C   UNL     1     -19.843  -4.128   7.982  1.00  0.00     0.000 C 
BRANCH   7   8
ATOM      8  C   UNL     1     -20.155  -5.563   8.432  1.00  0.00     0.006 C 
BRANCH   8   9
ATOM      9  C   UNL     1     -21.406  -6.127   7.745  1.00  0.00     0.053 C 
BRANCH   9  10
ATOM     10  C   UNL     1     -22.466  -6.497   8.736  1.00  0.00     0.041 C 
ATOM     11  O   UNL     1     -22.463  -5.984   9.887  1.00  0.00    -0.550 OA
ATOM     12  O   UNL     1     -23.438  -7.432   8.403  1.00  0.00    -0.550 OA
ENDBRANCH   9  10
ENDBRANCH   8   9
ENDBRANCH   7   8
ENDBRANCH   6   7
ENDBRANCH   5   6
ENDBRANCH   4   5
ENDBRANCH   3   4
ENDBRANCH   1   3
BRANCH   2  13
ATOM     13  C   UNL     1     -22.060   1.925   8.417  1.00  0.00     0.027 C 
BRANCH  13  14
ATOM     14  C   UNL     1     -21.741   1.059   9.646  1.00  0.00     0.004 C 
BRANCH  14  15
ATOM     15  C   UNL     1     -21.729   1.881  10.945  1.00  0.00     0.000 C 
BRANCH  15  16
ATOM     16  C   UNL     1     -22.361   1.134  12.131  1.00  0.00     0.000 C 
BRANCH  16  17
ATOM     17  C   UNL     1     -21.578   1.296  13.452  1.00  0.00    -0.000 C 
BRANCH  17  18
ATOM     18  C   UNL     1     -21.021  -0.045  13.963  1.00  0.00    -0.000 C 
BRANCH  18  19
ATOM     19  C   UNL     1     -21.803  -1.252  13.423  1.00  0.00    -0.003 C 
ATOM     20  C   UNL     1     -21.082  -1.954  12.274  1.00  0.00     0.004 C 
ENDBRANCH  18  19
ENDBRANCH  17  18
ENDBRANCH  16  17
ENDBRANCH  15  16
ENDBRANCH  14  15
ENDBRANCH  13  14
ENDBRANCH   2  13
TORSDOF 15
ENDMDL
MODEL 9
REMARK VINA RESULT:    -0.927      2.568      7.109
REMARK INTER + INTRA:          -3.460
REMARK INTER:                  -2.357
REMARK INTRA:                  -1.102
REMARK UNBOUND:                -1.719
REMARK SMILES CCCCCCCCC=CCCCCCCCC(=O)[O-]
REMARK SMILES IDX 10 1 9 2 11 3 12 4 13 5 14 6 15 7 16 8 17 9 18 10 19 11
REMARK SMILES IDX 20 12 8 13 7 14 6 15 5 16 4 17 3 18 2 19 1 20
REMARK H PARENT
REMARK Flexibility Score: inf
ROOT
ATOM      1  C   UNL     1     -20.610  -2.275   7.923  1.00  0.00    -0.031 C 
ATOM      2  C   UNL     1     -20.968  -1.787   6.721  1.00  0.00    -0.031 C 
ENDROOT
BRANCH   1   3
ATOM      3  C   UNL     1     -20.881  -1.593   9.242  1.00  0.00     0.027 C 
BRANCH   3   4
ATOM      4  C   UNL     1     -20.131  -2.263  10.405  1.00  0.00     0.004 C 
BRANCH   4   5
ATOM      5  C   UNL     1     -20.426  -1.659  11.793  1.00  0.00     0.000 C 
BRANCH   5   6
ATOM      6  C   UNL     1     -21.512  -2.387  12.605  1.00  0.00     0.000 C 
BRANCH   6   7
ATOM      7  C   UNL     1     -21.875  -1.659  13.908  1.00  0.00     0.000 C 
BRANCH   7   8
ATOM      8  C   UNL     1     -20.958  -0.448  14.133  1.00  0.00     0.006 C 
BRANCH   8   9
ATOM      9  C   UNL     1     -21.731   0.877  14.113  1.00  0.00     0.053 C 
BRANCH   9  10
ATOM     10  C   UNL     1     -21.713   1.511  12.756  1.00  0.00     0.041 C 
ATOM     11  O   UNL     1     -22.365   0.996  11.809  1.00  0.00    -0.550 OA
ATOM     12  O   UNL     1     -20.952   2.650  12.528  1.00  0.00    -0.550 OA
ENDBRANCH   9  10
ENDBRANCH   8   9
ENDBRANCH   7   8
ENDBRANCH   6   7
ENDBRANCH   5   6
ENDBRANCH   4   5
ENDBRANCH   3   4
ENDBRANCH   1   3
BRANCH   2  13
ATOM     13  C   UNL     1     -21.601  -0.435   6.496  1.00  0.00     0.027 C 
BRANCH  13  14
ATOM     14  C   UNL     1     -20.617   0.711   6.772  1.00  0.00     0.004 C 
BRANCH  14  15
ATOM     15  C   UNL     1     -21.334   1.989   7.236  1.00  0.00     0.000 C 
BRANCH  15  16
ATOM     16  C   UNL     1     -21.802   1.915   8.699  1.00  0.00     0.000 C 
BRANCH  16  17
ATOM     17  C   UNL     1     -22.606   3.151   9.155  1.00  0.00    -0.000 C 
BRANCH  17  18
ATOM     18  C   UNL     1     -22.415   4.348   8.206  1.00  0.00    -0.000 C 
BRANCH  18  19
ATOM     19  C   UNL     1     -22.213   5.671   8.960  1.00  0.00    -0.003 C 
ATOM     20  C   UNL     1     -20.740   6.062   9.078  1.00  0.00     0.004 C 
ENDBRANCH  18  19
ENDBRANCH  17  18
ENDBRANCH  16  17
ENDBRANCH  15  16
ENDBRANCH  14  15
ENDBRANCH  13  14
ENDBRANCH   2  13
TORSDOF 15
ENDMDL
