MODEL 1
REMARK VINA RESULT:    -3.213      0.000      0.000
REMARK INTER + INTRA:         -14.637
REMARK INTER:                  -8.472
REMARK INTRA:                  -6.166
REMARK UNBOUND:                -6.166
REMARK SMILES CCCCCCCCCCCCCCCCCCCCCCCCCCCCCC(=O)[O-]
REMARK SMILES IDX 16 1 17 2 18 3 19 4 20 5 21 6 22 7 23 8 24 9 25 10 26 11
REMARK SMILES IDX 27 12 28 13 29 14 30 15 31 16 32 17 15 18 14 19 13 20 12 21
REMARK SMILES IDX 11 22 10 23 9 24 8 25 7 26 6 27 5 28 4 29 3 30 2 31 1 32
REMARK H PARENT
REMARK Flexibility Score: inf
ROOT
ATOM      1  C   UNL     1       9.420  64.872   8.714  1.00  0.00     0.000 C 
ENDROOT
BRANCH   1   2
ATOM      2  C   UNL     1       9.684  63.364   8.549  1.00  0.00     0.000 C 
BRANCH   2   3
ATOM      3  C   UNL     1      11.151  62.968   8.821  1.00  0.00     0.000 C 
BRANCH   3   4
ATOM      4  C   UNL     1      11.782  62.082   7.729  1.00  0.00     0.000 C 
BRANCH   4   5
ATOM      5  C   UNL     1      12.750  62.798   6.770  1.00  0.00     0.000 C 
BRANCH   5   6
ATOM      6  C   UNL     1      13.441  64.050   7.344  1.00  0.00     0.000 C 
BRANCH   6   7
ATOM      7  C   UNL     1      13.222  65.304   6.478  1.00  0.00     0.000 C 
BRANCH   7   8
ATOM      8  C   UNL     1      11.824  65.355   5.838  1.00  0.00     0.000 C 
BRANCH   8   9
ATOM      9  C   UNL     1      11.730  66.154   4.521  1.00  0.00     0.000 C 
BRANCH   9  10
ATOM     10  C   UNL     1      10.795  65.563   3.450  1.00  0.00     0.000 C 
BRANCH  10  11
ATOM     11  C   UNL     1       9.721  66.553   2.976  1.00  0.00     0.000 C 
BRANCH  11  12
ATOM     12  C   UNL     1      10.195  68.016   3.030  1.00  0.00     0.000 C 
BRANCH  12  13
ATOM     13  C   UNL     1       9.051  69.031   3.239  1.00  0.00     0.006 C 
BRANCH  13  14
ATOM     14  C   UNL     1       7.651  68.407   3.105  1.00  0.00     0.053 C 
BRANCH  14  15
ATOM     15  C   UNL     1       6.604  69.204   3.824  1.00  0.00     0.041 C 
ATOM     16  O   UNL     1       6.936  70.143   4.598  1.00  0.00    -0.550 OA
ATOM     17  O   UNL     1       5.259  68.931   3.613  1.00  0.00    -0.550 OA
ENDBRANCH  14  15
ENDBRANCH  13  14
ENDBRANCH  12  13
ENDBRANCH  11  12
ENDBRANCH  10  11
ENDBRANCH   9  10
ENDBRANCH   8   9
ENDBRANCH   7   8
ENDBRANCH   6   7
ENDBRANCH   5   6
ENDBRANCH   4   5
ENDBRANCH   3   4
ENDBRANCH   2   3
ENDBRANCH   1   2
BRANCH   1  18
ATOM     18  C   UNL     1      10.638  65.624   9.275  1.00  0.00     0.000 C 
BRANCH  18  19
ATOM     19  C   UNL     1      10.255  66.924  10.004  1.00  0.00     0.000 C 
BRANCH  19  20
ATOM     20  C   UNL     1      11.413  67.937  10.078  1.00  0.00     0.000 C 
BRANCH  20  21
ATOM     21  C   UNL     1      12.416  67.872   8.911  1.00  0.00     0.000 C 
BRANCH  21  22
ATOM     22  C   UNL     1      12.417  69.141   8.041  1.00  0.00     0.000 C 
BRANCH  22  23
ATOM     23  C   UNL     1      11.559  68.982   6.775  1.00  0.00     0.000 C 
BRANCH  23  24
ATOM     24  C   UNL     1      10.337  69.911   6.766  1.00  0.00    -0.000 C 
BRANCH  24  25
ATOM     25  C   UNL     1       9.087  69.173   7.267  1.00  0.00    -0.000 C 
BRANCH  25  26
ATOM     26  C   UNL     1       8.891  67.801   6.596  1.00  0.00    -0.000 C 
BRANCH  26  27
ATOM     27  C   UNL     1       7.478  67.200   6.734  1.00  0.00    -0.000 C 
BRANCH  27  28
ATOM     28  C   UNL     1       6.814  67.399   8.108  1.00  0.00    -0.000 C 
BRANCH  28  29
ATOM     29  C   UNL     1       5.280  67.370   8.041  1.00  0.00    -0.000 C 
BRANCH  29  30
ATOM     30  C   UNL     1       4.775  65.993   7.595  1.00  0.00    -0.000 C 
BRANCH  30  31
ATOM     31  C   UNL     1       4.852  64.982   8.745  1.00  0.00    -0.003 C 
ATOM     32  C   UNL     1       5.843  63.864   8.429  1.00  0.00     0.004 C 
ENDBRANCH  30  31
ENDBRANCH  29  30
ENDBRANCH  28  29
ENDBRANCH  27  28
ENDBRANCH  26  27
ENDBRANCH  25  26
ENDBRANCH  24  25
ENDBRANCH  23  24
ENDBRANCH  22  23
ENDBRANCH  21  22
ENDBRANCH  20  21
ENDBRANCH  19  20
ENDBRANCH  18  19
ENDBRANCH   1  18
TORSDOF 28
ENDMDL
MODEL 2
REMARK VINA RESULT:    -3.172      2.276      5.732
REMARK INTER + INTRA:         -14.530
REMARK INTER:                  -9.124
REMARK INTRA:                  -5.407
REMARK UNBOUND:                -6.166
REMARK SMILES CCCCCCCCCCCCCCCCCCCCCCCCCCCCCC(=O)[O-]
REMARK SMILES IDX 16 1 17 2 18 3 19 4 20 5 21 6 22 7 23 8 24 9 25 10 26 11
REMARK SMILES IDX 27 12 28 13 29 14 30 15 31 16 32 17 15 18 14 19 13 20 12 21
REMARK SMILES IDX 11 22 10 23 9 24 8 25 7 26 6 27 5 28 4 29 3 30 2 31 1 32
REMARK H PARENT
REMARK Flexibility Score: inf
ROOT
ATOM      1  C   UNL     1       9.196  64.815   8.554  1.00  0.00     0.000 C 
ENDROOT
BRANCH   1   2
ATOM      2  C   UNL     1      10.380  65.758   8.267  1.00  0.00     0.000 C 
BRANCH   2   3
ATOM      3  C   UNL     1       9.946  67.120   7.682  1.00  0.00     0.000 C 
BRANCH   3   4
ATOM      4  C   UNL     1      11.046  68.199   7.709  1.00  0.00     0.000 C 
BRANCH   4   5
ATOM      5  C   UNL     1      12.239  67.909   8.639  1.00  0.00     0.000 C 
BRANCH   5   6
ATOM      6  C   UNL     1      12.132  68.507  10.055  1.00  0.00     0.000 C 
BRANCH   6   7
ATOM      7  C   UNL     1      12.175  67.437  11.160  1.00  0.00     0.000 C 
BRANCH   7   8
ATOM      8  C   UNL     1      10.777  67.031  11.658  1.00  0.00     0.000 C 
BRANCH   8   9
ATOM      9  C   UNL     1       9.638  68.008  11.296  1.00  0.00     0.000 C 
BRANCH   9  10
ATOM     10  C   UNL     1       8.216  67.422  11.354  1.00  0.00     0.000 C 
BRANCH  10  11
ATOM     11  C   UNL     1       7.376  67.755  10.111  1.00  0.00     0.000 C 
BRANCH  11  12
ATOM     12  C   UNL     1       6.344  66.664   9.780  1.00  0.00     0.000 C 
BRANCH  12  13
ATOM     13  C   UNL     1       5.960  66.605   8.285  1.00  0.00     0.006 C 
BRANCH  13  14
ATOM     14  C   UNL     1       4.866  65.569   7.979  1.00  0.00     0.053 C 
BRANCH  14  15
ATOM     15  C   UNL     1       5.069  64.290   8.735  1.00  0.00     0.041 C 
ATOM     16  O   UNL     1       4.304  63.983   9.689  1.00  0.00    -0.550 OA
ATOM     17  O   UNL     1       6.087  63.419   8.363  1.00  0.00    -0.550 OA
ENDBRANCH  14  15
ENDBRANCH  13  14
ENDBRANCH  12  13
ENDBRANCH  11  12
ENDBRANCH  10  11
ENDBRANCH   9  10
ENDBRANCH   8   9
ENDBRANCH   7   8
ENDBRANCH   6   7
ENDBRANCH   5   6
ENDBRANCH   4   5
ENDBRANCH   3   4
ENDBRANCH   2   3
ENDBRANCH   1   2
BRANCH   1  18
ATOM     18  C   UNL     1       9.635  63.350   8.706  1.00  0.00     0.000 C 
BRANCH  18  19
ATOM     19  C   UNL     1      11.160  63.193   8.841  1.00  0.00     0.000 C 
BRANCH  19  20
ATOM     20  C   UNL     1      11.748  62.164   7.855  1.00  0.00     0.000 C 
BRANCH  20  21
ATOM     21  C   UNL     1      12.879  62.694   6.954  1.00  0.00     0.000 C 
BRANCH  21  22
ATOM     22  C   UNL     1      13.423  64.061   7.404  1.00  0.00     0.000 C 
BRANCH  22  23
ATOM     23  C   UNL     1      13.325  65.122   6.295  1.00  0.00     0.000 C 
BRANCH  23  24
ATOM     24  C   UNL     1      12.461  64.666   5.111  1.00  0.00    -0.000 C 
BRANCH  24  25
ATOM     25  C   UNL     1      12.104  65.855   4.206  1.00  0.00    -0.000 C 
BRANCH  25  26
ATOM     26  C   UNL     1      10.673  66.374   4.437  1.00  0.00    -0.000 C 
BRANCH  26  27
ATOM     27  C   UNL     1       9.725  66.241   3.227  1.00  0.00    -0.000 C 
BRANCH  27  28
ATOM     28  C   UNL     1       8.758  67.421   3.023  1.00  0.00    -0.000 C 
BRANCH  28  29
ATOM     29  C   UNL     1       8.583  68.277   4.286  1.00  0.00    -0.000 C 
BRANCH  29  30
ATOM     30  C   UNL     1       7.348  67.838   5.081  1.00  0.00    -0.000 C 
BRANCH  30  31
ATOM     31  C   UNL     1       6.124  67.708   4.166  1.00  0.00    -0.003 C 
ATOM     32  C   UNL     1       4.828  67.897   4.950  1.00  0.00     0.004 C 
ENDBRANCH  30  31
ENDBRANCH  29  30
ENDBRANCH  28  29
ENDBRANCH  27  28
ENDBRANCH  26  27
ENDBRANCH  25  26
ENDBRANCH  24  25
ENDBRANCH  23  24
ENDBRANCH  22  23
ENDBRANCH  21  22
ENDBRANCH  20  21
ENDBRANCH  19  20
ENDBRANCH  18  19
ENDBRANCH   1  18
TORSDOF 28
ENDMDL
MODEL 3
REMARK VINA RESULT:    -3.157      1.352      5.275
REMARK INTER + INTRA:         -14.490
REMARK INTER:                  -9.739
REMARK INTRA:                  -4.751
REMARK UNBOUND:                -6.166
REMARK SMILES CCCCCCCCCCCCCCCCCCCCCCCCCCCCCC(=O)[O-]
REMARK SMILES IDX 16 1 17 2 18 3 19 4 20 5 21 6 22 7 23 8 24 9 25 10 26 11
REMARK SMILES IDX 27 12 28 13 29 14 30 15 31 16 32 17 15 18 14 19 13 20 12 21
REMARK SMILES IDX 11 22 10 23 9 24 8 25 7 26 6 27 5 28 4 29 3 30 2 31 1 32
REMARK H PARENT
REMARK Flexibility Score: inf
ROOT
ATOM      1  C   UNL     1      13.414  63.876   7.607  1.00  0.00     0.000 C 
ENDROOT
BRANCH   1   2
ATOM      2  C   UNL     1      12.702  62.610   7.094  1.00  0.00     0.000 C 
BRANCH   2   3
ATOM      3  C   UNL     1      11.535  62.158   7.998  1.00  0.00     0.000 C 
BRANCH   3   4
ATOM      4  C   UNL     1      11.090  63.212   9.031  1.00  0.00     0.000 C 
BRANCH   4   5
ATOM      5  C   UNL     1       9.898  64.092   8.609  1.00  0.00     0.000 C 
BRANCH   5   6
ATOM      6  C   UNL     1       8.522  63.399   8.644  1.00  0.00     0.000 C 
BRANCH   6   7
ATOM      7  C   UNL     1       7.353  64.397   8.717  1.00  0.00     0.000 C 
BRANCH   7   8
ATOM      8  C   UNL     1       5.980  63.728   8.532  1.00  0.00     0.000 C 
BRANCH   8   9
ATOM      9  C   UNL     1       4.763  64.667   8.674  1.00  0.00     0.000 C 
BRANCH   9  10
ATOM     10  C   UNL     1       5.090  66.168   8.774  1.00  0.00     0.000 C 
BRANCH  10  11
ATOM     11  C   UNL     1       4.570  66.979   7.577  1.00  0.00     0.000 C 
BRANCH  11  12
ATOM     12  C   UNL     1       5.237  66.575   6.251  1.00  0.00     0.000 C 
BRANCH  12  13
ATOM     13  C   UNL     1       4.591  67.227   5.009  1.00  0.00     0.006 C 
BRANCH  13  14
ATOM     14  C   UNL     1       5.437  67.075   3.733  1.00  0.00     0.053 C 
BRANCH  14  15
ATOM     15  C   UNL     1       5.530  68.356   2.959  1.00  0.00     0.041 C 
ATOM     16  O   UNL     1       4.599  68.703   2.184  1.00  0.00    -0.550 OA
ATOM     17  O   UNL     1       6.634  69.185   3.121  1.00  0.00    -0.550 OA
ENDBRANCH  14  15
ENDBRANCH  13  14
ENDBRANCH  12  13
ENDBRANCH  11  12
ENDBRANCH  10  11
ENDBRANCH   9  10
ENDBRANCH   8   9
ENDBRANCH   7   8
ENDBRANCH   6   7
ENDBRANCH   5   6
ENDBRANCH   4   5
ENDBRANCH   3   4
ENDBRANCH   2   3
ENDBRANCH   1   2
BRANCH   1  18
ATOM     18  C   UNL     1      13.534  64.962   6.525  1.00  0.00     0.000 C 
BRANCH  18  19
ATOM     19  C   UNL     1      12.189  65.286   5.851  1.00  0.00     0.000 C 
BRANCH  19  20
ATOM     20  C   UNL     1      12.182  64.974   4.342  1.00  0.00     0.000 C 
BRANCH  20  21
ATOM     21  C   UNL     1      11.652  66.106   3.441  1.00  0.00     0.000 C 
BRANCH  21  22
ATOM     22  C   UNL     1      10.231  65.845   2.912  1.00  0.00     0.000 C 
BRANCH  22  23
ATOM     23  C   UNL     1       9.186  66.760   3.571  1.00  0.00     0.000 C 
BRANCH  23  24
ATOM     24  C   UNL     1       9.820  67.860   4.435  1.00  0.00    -0.000 C 
BRANCH  24  25
ATOM     25  C   UNL     1       8.890  68.245   5.596  1.00  0.00    -0.000 C 
BRANCH  25  26
ATOM     26  C   UNL     1       8.808  67.159   6.684  1.00  0.00    -0.000 C 
BRANCH  26  27
ATOM     27  C   UNL     1       9.243  67.610   8.094  1.00  0.00    -0.000 C 
BRANCH  27  28
ATOM     28  C   UNL     1      10.763  67.742   8.298  1.00  0.00    -0.000 C 
BRANCH  28  29
ATOM     29  C   UNL     1      11.154  67.951   9.769  1.00  0.00    -0.000 C 
BRANCH  29  30
ATOM     30  C   UNL     1      11.762  66.674  10.363  1.00  0.00    -0.000 C 
BRANCH  30  31
ATOM     31  C   UNL     1      13.225  66.899  10.763  1.00  0.00    -0.003 C 
ATOM     32  C   UNL     1      14.125  66.987   9.533  1.00  0.00     0.004 C 
ENDBRANCH  30  31
ENDBRANCH  29  30
ENDBRANCH  28  29
ENDBRANCH  27  28
ENDBRANCH  26  27
ENDBRANCH  25  26
ENDBRANCH  24  25
ENDBRANCH  23  24
ENDBRANCH  22  23
ENDBRANCH  21  22
ENDBRANCH  20  21
ENDBRANCH  19  20
ENDBRANCH  18  19
ENDBRANCH   1  18
TORSDOF 28
ENDMDL
MODEL 4
REMARK VINA RESULT:    -3.124      2.273      6.592
REMARK INTER + INTRA:         -14.403
REMARK INTER:                  -9.755
REMARK INTRA:                  -4.648
REMARK UNBOUND:                -6.166
REMARK SMILES CCCCCCCCCCCCCCCCCCCCCCCCCCCCCC(=O)[O-]
REMARK SMILES IDX 16 1 17 2 18 3 19 4 20 5 21 6 22 7 23 8 24 9 25 10 26 11
REMARK SMILES IDX 27 12 28 13 29 14 30 15 31 16 32 17 15 18 14 19 13 20 12 21
REMARK SMILES IDX 11 22 10 23 9 24 8 25 7 26 6 27 5 28 4 29 3 30 2 31 1 32
REMARK H PARENT
REMARK Flexibility Score: inf
ROOT
ATOM      1  C   UNL     1      12.319  66.078   4.380  1.00  0.00     0.000 C 
ENDROOT
BRANCH   1   2
ATOM      2  C   UNL     1      11.697  65.324   3.190  1.00  0.00     0.000 C 
BRANCH   2   3
ATOM      3  C   UNL     1      10.232  65.726   2.912  1.00  0.00     0.000 C 
BRANCH   3   4
ATOM      4  C   UNL     1      10.004  67.247   2.802  1.00  0.00     0.000 C 
BRANCH   4   5
ATOM      5  C   UNL     1       8.864  67.811   3.669  1.00  0.00     0.000 C 
BRANCH   5   6
ATOM      6  C   UNL     1       7.504  67.102   3.516  1.00  0.00     0.000 C 
BRANCH   6   7
ATOM      7  C   UNL     1       6.342  67.897   4.137  1.00  0.00     0.000 C 
BRANCH   7   8
ATOM      8  C   UNL     1       5.028  67.751   3.351  1.00  0.00     0.000 C 
BRANCH   8   9
ATOM      9  C   UNL     1       3.964  66.845   4.006  1.00  0.00     0.000 C 
BRANCH   9  10
ATOM     10  C   UNL     1       4.294  66.353   5.427  1.00  0.00     0.000 C 
BRANCH  10  11
ATOM     11  C   UNL     1       3.630  67.196   6.526  1.00  0.00     0.000 C 
BRANCH  11  12
ATOM     12  C   UNL     1       4.024  66.744   7.943  1.00  0.00     0.000 C 
BRANCH  12  13
ATOM     13  C   UNL     1       5.425  66.100   8.020  1.00  0.00     0.006 C 
BRANCH  13  14
ATOM     14  C   UNL     1       5.402  64.655   8.546  1.00  0.00     0.053 C 
BRANCH  14  15
ATOM     15  C   UNL     1       6.778  64.068   8.649  1.00  0.00     0.041 C 
ATOM     16  O   UNL     1       7.759  64.791   8.974  1.00  0.00    -0.550 OA
ATOM     17  O   UNL     1       6.973  62.712   8.417  1.00  0.00    -0.550 OA
ENDBRANCH  14  15
ENDBRANCH  13  14
ENDBRANCH  12  13
ENDBRANCH  11  12
ENDBRANCH  10  11
ENDBRANCH   9  10
ENDBRANCH   8   9
ENDBRANCH   7   8
ENDBRANCH   6   7
ENDBRANCH   5   6
ENDBRANCH   4   5
ENDBRANCH   3   4
ENDBRANCH   2   3
ENDBRANCH   1   2
BRANCH   1  18
ATOM     18  C   UNL     1      12.139  65.329   5.710  1.00  0.00     0.000 C 
BRANCH  18  19
ATOM     19  C   UNL     1      13.434  65.264   6.540  1.00  0.00     0.000 C 
BRANCH  19  20
ATOM     20  C   UNL     1      13.738  63.849   7.071  1.00  0.00     0.000 C 
BRANCH  20  21
ATOM     21  C   UNL     1      12.784  62.745   6.576  1.00  0.00     0.000 C 
BRANCH  21  22
ATOM     22  C   UNL     1      11.940  62.125   7.703  1.00  0.00     0.000 C 
BRANCH  22  23
ATOM     23  C   UNL     1      10.830  63.071   8.189  1.00  0.00     0.000 C 
BRANCH  23  24
ATOM     24  C   UNL     1      11.036  63.532   9.639  1.00  0.00    -0.000 C 
BRANCH  24  25
ATOM     25  C   UNL     1      11.232  65.055   9.705  1.00  0.00    -0.000 C 
BRANCH  25  26
ATOM     26  C   UNL     1      12.606  65.458  10.270  1.00  0.00    -0.000 C 
BRANCH  26  27
ATOM     27  C   UNL     1      13.076  66.879   9.897  1.00  0.00    -0.000 C 
BRANCH  27  28
ATOM     28  C   UNL     1      11.973  67.814   9.368  1.00  0.00    -0.000 C 
BRANCH  28  29
ATOM     29  C   UNL     1      12.222  68.275   7.924  1.00  0.00    -0.000 C 
BRANCH  29  30
ATOM     30  C   UNL     1      10.911  68.689   7.245  1.00  0.00    -0.000 C 
BRANCH  30  31
ATOM     31  C   UNL     1       9.963  67.492   7.109  1.00  0.00    -0.003 C 
ATOM     32  C   UNL     1       8.535  67.875   7.490  1.00  0.00     0.004 C 
ENDBRANCH  30  31
ENDBRANCH  29  30
ENDBRANCH  28  29
ENDBRANCH  27  28
ENDBRANCH  26  27
ENDBRANCH  25  26
ENDBRANCH  24  25
ENDBRANCH  23  24
ENDBRANCH  22  23
ENDBRANCH  21  22
ENDBRANCH  20  21
ENDBRANCH  19  20
ENDBRANCH  18  19
ENDBRANCH   1  18
TORSDOF 28
ENDMDL
MODEL 5
REMARK VINA RESULT:    -3.120      1.968      3.982
REMARK INTER + INTRA:         -14.394
REMARK INTER:                  -9.771
REMARK INTRA:                  -4.623
REMARK UNBOUND:                -6.166
REMARK SMILES CCCCCCCCCCCCCCCCCCCCCCCCCCCCCC(=O)[O-]
REMARK SMILES IDX 16 1 17 2 18 3 19 4 20 5 21 6 22 7 23 8 24 9 25 10 26 11
REMARK SMILES IDX 27 12 28 13 29 14 30 15 31 16 32 17 15 18 14 19 13 20 12 21
REMARK SMILES IDX 11 22 10 23 9 24 8 25 7 26 6 27 5 28 4 29 3 30 2 31 1 32
REMARK H PARENT
REMARK Flexibility Score: inf
ROOT
ATOM      1  C   UNL     1       9.737  63.652   8.369  1.00  0.00     0.000 C 
ENDROOT
BRANCH   1   2
ATOM      2  C   UNL     1      11.013  62.931   8.842  1.00  0.00     0.000 C 
BRANCH   2   3
ATOM      3  C   UNL     1      11.862  62.368   7.682  1.00  0.00     0.000 C 
BRANCH   3   4
ATOM      4  C   UNL     1      13.135  63.181   7.376  1.00  0.00     0.000 C 
BRANCH   4   5
ATOM      5  C   UNL     1      13.702  63.994   8.554  1.00  0.00     0.000 C 
BRANCH   5   6
ATOM      6  C   UNL     1      13.929  65.492   8.274  1.00  0.00     0.000 C 
BRANCH   6   7
ATOM      7  C   UNL     1      13.579  65.890   6.829  1.00  0.00     0.000 C 
BRANCH   7   8
ATOM      8  C   UNL     1      12.201  66.563   6.708  1.00  0.00     0.000 C 
BRANCH   8   9
ATOM      9  C   UNL     1      11.238  65.917   5.690  1.00  0.00     0.000 C 
BRANCH   9  10
ATOM     10  C   UNL     1      11.903  65.285   4.453  1.00  0.00     0.000 C 
BRANCH  10  11
ATOM     11  C   UNL     1      11.233  65.697   3.133  1.00  0.00     0.000 C 
BRANCH  11  12
ATOM     12  C   UNL     1      12.166  66.510   2.220  1.00  0.00     0.000 C 
BRANCH  12  13
ATOM     13  C   UNL     1      11.419  67.385   1.190  1.00  0.00     0.006 C 
BRANCH  13  14
ATOM     14  C   UNL     1      10.047  67.870   1.686  1.00  0.00     0.053 C 
BRANCH  14  15
ATOM     15  C   UNL     1       9.342  68.715   0.667  1.00  0.00     0.041 C 
ATOM     16  O   UNL     1       9.653  68.637  -0.553  1.00  0.00    -0.550 OA
ATOM     17  O   UNL     1       8.317  69.567   1.061  1.00  0.00    -0.550 OA
ENDBRANCH  14  15
ENDBRANCH  13  14
ENDBRANCH  12  13
ENDBRANCH  11  12
ENDBRANCH  10  11
ENDBRANCH   9  10
ENDBRANCH   8   9
ENDBRANCH   7   8
ENDBRANCH   6   7
ENDBRANCH   5   6
ENDBRANCH   4   5
ENDBRANCH   3   4
ENDBRANCH   2   3
ENDBRANCH   1   2
BRANCH   1  18
ATOM     18  C   UNL     1       9.662  65.104   8.868  1.00  0.00     0.000 C 
BRANCH  18  19
ATOM     19  C   UNL     1       8.218  65.583   9.098  1.00  0.00     0.000 C 
BRANCH  19  20
ATOM     20  C   UNL     1       7.163  64.539   8.683  1.00  0.00     0.000 C 
BRANCH  20  21
ATOM     21  C   UNL     1       5.709  64.900   9.039  1.00  0.00     0.000 C 
BRANCH  21  22
ATOM     22  C   UNL     1       4.928  65.503   7.859  1.00  0.00     0.000 C 
BRANCH  22  23
ATOM     23  C   UNL     1       4.180  66.789   8.250  1.00  0.00     0.000 C 
BRANCH  23  24
ATOM     24  C   UNL     1       5.099  68.018   8.299  1.00  0.00    -0.000 C 
BRANCH  24  25
ATOM     25  C   UNL     1       5.809  68.222   6.951  1.00  0.00    -0.000 C 
BRANCH  25  26
ATOM     26  C   UNL     1       7.343  68.240   7.078  1.00  0.00    -0.000 C 
BRANCH  26  27
ATOM     27  C   UNL     1       8.112  68.002   5.763  1.00  0.00    -0.000 C 
BRANCH  27  28
ATOM     28  C   UNL     1       7.383  68.461   4.488  1.00  0.00    -0.000 C 
BRANCH  28  29
ATOM     29  C   UNL     1       6.972  67.292   3.579  1.00  0.00    -0.000 C 
BRANCH  29  30
ATOM     30  C   UNL     1       5.457  67.288   3.340  1.00  0.00    -0.000 C 
BRANCH  30  31
ATOM     31  C   UNL     1       4.794  66.101   4.049  1.00  0.00    -0.003 C 
ATOM     32  C   UNL     1       3.448  66.500   4.648  1.00  0.00     0.004 C 
ENDBRANCH  30  31
ENDBRANCH  29  30
ENDBRANCH  28  29
ENDBRANCH  27  28
ENDBRANCH  26  27
ENDBRANCH  25  26
ENDBRANCH  24  25
ENDBRANCH  23  24
ENDBRANCH  22  23
ENDBRANCH  21  22
ENDBRANCH  20  21
ENDBRANCH  19  20
ENDBRANCH  18  19
ENDBRANCH   1  18
TORSDOF 28
ENDMDL
MODEL 6
REMARK VINA RESULT:    -3.109      1.955      5.701
REMARK INTER + INTRA:         -14.363
REMARK INTER:                  -9.596
REMARK INTRA:                  -4.767
REMARK UNBOUND:                -6.166
REMARK SMILES CCCCCCCCCCCCCCCCCCCCCCCCCCCCCC(=O)[O-]
REMARK SMILES IDX 16 1 17 2 18 3 19 4 20 5 21 6 22 7 23 8 24 9 25 10 26 11
REMARK SMILES IDX 27 12 28 13 29 14 30 15 31 16 32 17 15 18 14 19 13 20 12 21
REMARK SMILES IDX 11 22 10 23 9 24 8 25 7 26 6 27 5 28 4 29 3 30 2 31 1 32
REMARK H PARENT
REMARK Flexibility Score: inf
ROOT
ATOM      1  C   UNL     1      11.352  62.078   8.007  1.00  0.00     0.000 C 
ENDROOT
BRANCH   1   2
ATOM      2  C   UNL     1      10.865  63.289   8.825  1.00  0.00     0.000 C 
BRANCH   2   3
ATOM      3  C   UNL     1       9.341  63.514   8.733  1.00  0.00     0.000 C 
BRANCH   3   4
ATOM      4  C   UNL     1       8.923  64.997   8.667  1.00  0.00     0.000 C 
BRANCH   4   5
ATOM      5  C   UNL     1       7.413  65.267   8.803  1.00  0.00     0.000 C 
BRANCH   5   6
ATOM      6  C   UNL     1       6.498  64.060   8.521  1.00  0.00     0.000 C 
BRANCH   6   7
ATOM      7  C   UNL     1       5.012  64.363   8.780  1.00  0.00     0.000 C 
BRANCH   7   8
ATOM      8  C   UNL     1       4.768  65.803   9.263  1.00  0.00     0.000 C 
BRANCH   8   9
ATOM      9  C   UNL     1       4.008  66.712   8.273  1.00  0.00     0.000 C 
BRANCH   9  10
ATOM     10  C   UNL     1       4.790  67.934   7.758  1.00  0.00     0.000 C 
BRANCH  10  11
ATOM     11  C   UNL     1       5.138  67.839   6.264  1.00  0.00     0.000 C 
BRANCH  11  12
ATOM     12  C   UNL     1       4.749  66.485   5.647  1.00  0.00     0.000 C 
BRANCH  12  13
ATOM     13  C   UNL     1       3.491  66.549   4.754  1.00  0.00     0.006 C 
BRANCH  13  14
ATOM     14  C   UNL     1       3.803  66.895   3.288  1.00  0.00     0.053 C 
BRANCH  14  15
ATOM     15  C   UNL     1       2.560  67.013   2.457  1.00  0.00     0.041 C 
ATOM     16  O   UNL     1       2.518  66.521   1.297  1.00  0.00    -0.550 OA
ATOM     17  O   UNL     1       1.435  67.640   2.979  1.00  0.00    -0.550 OA
ENDBRANCH  14  15
ENDBRANCH  13  14
ENDBRANCH  12  13
ENDBRANCH  11  12
ENDBRANCH  10  11
ENDBRANCH   9  10
ENDBRANCH   8   9
ENDBRANCH   7   8
ENDBRANCH   6   7
ENDBRANCH   5   6
ENDBRANCH   4   5
ENDBRANCH   3   4
ENDBRANCH   2   3
ENDBRANCH   1   2
BRANCH   1  18
ATOM     18  C   UNL     1      12.619  62.389   7.194  1.00  0.00     0.000 C 
BRANCH  18  19
ATOM     19  C   UNL     1      13.397  63.600   7.738  1.00  0.00     0.000 C 
BRANCH  19  20
ATOM     20  C   UNL     1      13.735  64.636   6.648  1.00  0.00     0.000 C 
BRANCH  20  21
ATOM     21  C   UNL     1      12.532  65.428   6.101  1.00  0.00     0.000 C 
BRANCH  21  22
ATOM     22  C   UNL     1      11.974  66.451   7.105  1.00  0.00     0.000 C 
BRANCH  22  23
ATOM     23  C   UNL     1      11.260  67.622   6.409  1.00  0.00     0.000 C 
BRANCH  23  24
ATOM     24  C   UNL     1      10.231  68.313   7.316  1.00  0.00    -0.000 C 
BRANCH  24  25
ATOM     25  C   UNL     1       8.838  68.298   6.670  1.00  0.00    -0.000 C 
BRANCH  25  26
ATOM     26  C   UNL     1       8.716  67.268   5.532  1.00  0.00    -0.000 C 
BRANCH  26  27
ATOM     27  C   UNL     1       8.157  67.822   4.205  1.00  0.00    -0.000 C 
BRANCH  27  28
ATOM     28  C   UNL     1       8.983  67.474   2.953  1.00  0.00    -0.000 C 
BRANCH  28  29
ATOM     29  C   UNL     1       9.634  66.085   3.033  1.00  0.00    -0.000 C 
BRANCH  29  30
ATOM     30  C   UNL     1      11.159  66.185   2.907  1.00  0.00    -0.000 C 
BRANCH  30  31
ATOM     31  C   UNL     1      11.594  67.635   2.658  1.00  0.00    -0.003 C 
ATOM     32  C   UNL     1      13.046  67.853   3.076  1.00  0.00     0.004 C 
ENDBRANCH  30  31
ENDBRANCH  29  30
ENDBRANCH  28  29
ENDBRANCH  27  28
ENDBRANCH  26  27
ENDBRANCH  25  26
ENDBRANCH  24  25
ENDBRANCH  23  24
ENDBRANCH  22  23
ENDBRANCH  21  22
ENDBRANCH  20  21
ENDBRANCH  19  20
ENDBRANCH  18  19
ENDBRANCH   1  18
TORSDOF 28
ENDMDL
MODEL 7
REMARK VINA RESULT:    -3.104      2.478      3.948
REMARK INTER + INTRA:         -14.351
REMARK INTER:                  -9.150
REMARK INTRA:                  -5.201
REMARK UNBOUND:                -6.166
REMARK SMILES CCCCCCCCCCCCCCCCCCCCCCCCCCCCCC(=O)[O-]
REMARK SMILES IDX 16 1 17 2 18 3 19 4 20 5 21 6 22 7 23 8 24 9 25 10 26 11
REMARK SMILES IDX 27 12 28 13 29 14 30 15 31 16 32 17 15 18 14 19 13 20 12 21
REMARK SMILES IDX 11 22 10 23 9 24 8 25 7 26 6 27 5 28 4 29 3 30 2 31 1 32
REMARK H PARENT
REMARK Flexibility Score: inf
ROOT
ATOM      1  C   UNL     1      11.493  61.999   7.997  1.00  0.00     0.000 C 
ENDROOT
BRANCH   1   2
ATOM      2  C   UNL     1      12.640  62.553   7.131  1.00  0.00     0.000 C 
BRANCH   2   3
ATOM      3  C   UNL     1      13.399  63.720   7.798  1.00  0.00     0.000 C 
BRANCH   3   4
ATOM      4  C   UNL     1      13.614  64.941   6.882  1.00  0.00     0.000 C 
BRANCH   4   5
ATOM      5  C   UNL     1      12.640  65.060   5.695  1.00  0.00     0.000 C 
BRANCH   5   6
ATOM      6  C   UNL     1      11.350  65.855   5.977  1.00  0.00     0.000 C 
BRANCH   6   7
ATOM      7  C   UNL     1      11.625  67.303   6.419  1.00  0.00     0.000 C 
BRANCH   7   8
ATOM      8  C   UNL     1      10.498  68.275   6.030  1.00  0.00     0.000 C 
BRANCH   8   9
ATOM      9  C   UNL     1       9.082  67.661   5.990  1.00  0.00     0.000 C 
BRANCH   9  10
ATOM     10  C   UNL     1       8.370  67.721   4.626  1.00  0.00     0.000 C 
BRANCH  10  11
ATOM     11  C   UNL     1       9.345  67.782   3.440  1.00  0.00     0.000 C 
BRANCH  11  12
ATOM     12  C   UNL     1       9.568  66.410   2.781  1.00  0.00     0.000 C 
BRANCH  12  13
ATOM     13  C   UNL     1      11.055  66.073   2.537  1.00  0.00     0.006 C 
BRANCH  13  14
ATOM     14  C   UNL     1      11.975  67.304   2.601  1.00  0.00     0.053 C 
BRANCH  14  15
ATOM     15  C   UNL     1      12.886  67.392   1.413  1.00  0.00     0.041 C 
ATOM     16  O   UNL     1      14.118  67.615   1.567  1.00  0.00    -0.550 OA
ATOM     17  O   UNL     1      12.379  67.195   0.134  1.00  0.00    -0.550 OA
ENDBRANCH  14  15
ENDBRANCH  13  14
ENDBRANCH  12  13
ENDBRANCH  11  12
ENDBRANCH  10  11
ENDBRANCH   9  10
ENDBRANCH   8   9
ENDBRANCH   7   8
ENDBRANCH   6   7
ENDBRANCH   5   6
ENDBRANCH   4   5
ENDBRANCH   3   4
ENDBRANCH   2   3
ENDBRANCH   1   2
BRANCH   1  18
ATOM     18  C   UNL     1      10.952  63.039   8.992  1.00  0.00     0.000 C 
BRANCH  18  19
ATOM     19  C   UNL     1       9.680  63.742   8.488  1.00  0.00     0.000 C 
BRANCH  19  20
ATOM     20  C   UNL     1       9.609  65.226   8.899  1.00  0.00     0.000 C 
BRANCH  20  21
ATOM     21  C   UNL     1      10.861  65.767   9.615  1.00  0.00     0.000 C 
BRANCH  21  22
ATOM     22  C   UNL     1      10.655  67.167  10.220  1.00  0.00     0.000 C 
BRANCH  22  23
ATOM     23  C   UNL     1       9.467  67.909   9.585  1.00  0.00     0.000 C 
BRANCH  23  24
ATOM     24  C   UNL     1       8.717  68.796  10.588  1.00  0.00    -0.000 C 
BRANCH  24  25
ATOM     25  C   UNL     1       7.235  68.398  10.665  1.00  0.00    -0.000 C 
BRANCH  25  26
ATOM     26  C   UNL     1       7.028  66.944  11.124  1.00  0.00    -0.000 C 
BRANCH  26  27
ATOM     27  C   UNL     1       5.914  66.176  10.383  1.00  0.00    -0.000 C 
BRANCH  27  28
ATOM     28  C   UNL     1       6.334  65.551   9.040  1.00  0.00    -0.000 C 
BRANCH  28  29
ATOM     29  C   UNL     1       5.140  65.053   8.212  1.00  0.00    -0.000 C 
BRANCH  29  30
ATOM     30  C   UNL     1       4.410  66.222   7.541  1.00  0.00    -0.000 C 
BRANCH  30  31
ATOM     31  C   UNL     1       5.223  66.771   6.362  1.00  0.00    -0.003 C 
ATOM     32  C   UNL     1       4.492  66.551   5.040  1.00  0.00     0.004 C 
ENDBRANCH  30  31
ENDBRANCH  29  30
ENDBRANCH  28  29
ENDBRANCH  27  28
ENDBRANCH  26  27
ENDBRANCH  25  26
ENDBRANCH  24  25
ENDBRANCH  23  24
ENDBRANCH  22  23
ENDBRANCH  21  22
ENDBRANCH  20  21
ENDBRANCH  19  20
ENDBRANCH  18  19
ENDBRANCH   1  18
TORSDOF 28
ENDMDL
MODEL 8
REMARK VINA RESULT:    -3.085      2.298      5.914
REMARK INTER + INTRA:         -14.300
REMARK INTER:                  -9.147
REMARK INTRA:                  -5.153
REMARK UNBOUND:                -6.166
REMARK SMILES CCCCCCCCCCCCCCCCCCCCCCCCCCCCCC(=O)[O-]
REMARK SMILES IDX 16 1 17 2 18 3 19 4 20 5 21 6 22 7 23 8 24 9 25 10 26 11
REMARK SMILES IDX 27 12 28 13 29 14 30 15 31 16 32 17 15 18 14 19 13 20 12 21
REMARK SMILES IDX 11 22 10 23 9 24 8 25 7 26 6 27 5 28 4 29 3 30 2 31 1 32
REMARK H PARENT
REMARK Flexibility Score: inf
ROOT
ATOM      1  C   UNL     1       6.699  64.034   8.733  1.00  0.00     0.000 C 
ENDROOT
BRANCH   1   2
ATOM      2  C   UNL     1       5.232  64.467   8.554  1.00  0.00     0.000 C 
BRANCH   2   3
ATOM      3  C   UNL     1       4.735  65.412   9.670  1.00  0.00     0.000 C 
BRANCH   3   4
ATOM      4  C   UNL     1       4.339  66.819   9.178  1.00  0.00     0.000 C 
BRANCH   4   5
ATOM      5  C   UNL     1       3.975  66.923   7.686  1.00  0.00     0.000 C 
BRANCH   5   6
ATOM      6  C   UNL     1       4.799  67.942   6.875  1.00  0.00     0.000 C 
BRANCH   6   7
ATOM      7  C   UNL     1       5.932  67.287   6.067  1.00  0.00     0.000 C 
BRANCH   7   8
ATOM      8  C   UNL     1       7.320  67.858   6.406  1.00  0.00     0.000 C 
BRANCH   8   9
ATOM      9  C   UNL     1       8.340  67.844   5.248  1.00  0.00     0.000 C 
BRANCH   9  10
ATOM     10  C   UNL     1       7.746  67.989   3.836  1.00  0.00     0.000 C 
BRANCH  10  11
ATOM     11  C   UNL     1       8.811  67.963   2.728  1.00  0.00     0.000 C 
BRANCH  11  12
ATOM     12  C   UNL     1      10.201  67.560   3.249  1.00  0.00     0.000 C 
BRANCH  12  13
ATOM     13  C   UNL     1      10.661  66.165   2.772  1.00  0.00     0.006 C 
BRANCH  13  14
ATOM     14  C   UNL     1      12.188  66.038   2.647  1.00  0.00     0.053 C 
BRANCH  14  15
ATOM     15  C   UNL     1      12.752  66.973   1.619  1.00  0.00     0.041 C 
ATOM     16  O   UNL     1      13.725  67.723   1.903  1.00  0.00    -0.550 OA
ATOM     17  O   UNL     1      12.222  66.992   0.335  1.00  0.00    -0.550 OA
ENDBRANCH  14  15
ENDBRANCH  13  14
ENDBRANCH  12  13
ENDBRANCH  11  12
ENDBRANCH  10  11
ENDBRANCH   9  10
ENDBRANCH   8   9
ENDBRANCH   7   8
ENDBRANCH   6   7
ENDBRANCH   5   6
ENDBRANCH   4   5
ENDBRANCH   3   4
ENDBRANCH   2   3
ENDBRANCH   1   2
BRANCH   1  18
ATOM     18  C   UNL     1       7.665  65.229   8.771  1.00  0.00     0.000 C 
BRANCH  18  19
ATOM     19  C   UNL     1       9.142  64.808   8.677  1.00  0.00     0.000 C 
BRANCH  19  20
ATOM     20  C   UNL     1       9.336  63.279   8.715  1.00  0.00     0.000 C 
BRANCH  20  21
ATOM     21  C   UNL     1      10.753  62.808   9.091  1.00  0.00     0.000 C 
BRANCH  21  22
ATOM     22  C   UNL     1      11.698  63.965   9.459  1.00  0.00     0.000 C 
BRANCH  22  23
ATOM     23  C   UNL     1      13.003  63.935   8.645  1.00  0.00     0.000 C 
BRANCH  23  24
ATOM     24  C   UNL     1      12.936  62.970   7.453  1.00  0.00    -0.000 C 
BRANCH  24  25
ATOM     25  C   UNL     1      12.831  63.744   6.130  1.00  0.00    -0.000 C 
BRANCH  25  26
ATOM     26  C   UNL     1      12.912  65.269   6.320  1.00  0.00    -0.000 C 
BRANCH  26  27
ATOM     27  C   UNL     1      11.563  66.012   6.243  1.00  0.00    -0.000 C 
BRANCH  27  28
ATOM     28  C   UNL     1      11.573  67.446   6.801  1.00  0.00    -0.000 C 
BRANCH  28  29
ATOM     29  C   UNL     1      11.394  67.496   8.327  1.00  0.00    -0.000 C 
BRANCH  29  30
ATOM     30  C   UNL     1      10.260  68.451   8.716  1.00  0.00    -0.000 C 
BRANCH  30  31
ATOM     31  C   UNL     1       9.772  68.170  10.142  1.00  0.00    -0.003 C 
ATOM     32  C   UNL     1      10.781  67.323  10.912  1.00  0.00     0.004 C 
ENDBRANCH  30  31
ENDBRANCH  29  30
ENDBRANCH  28  29
ENDBRANCH  27  28
ENDBRANCH  26  27
ENDBRANCH  25  26
ENDBRANCH  24  25
ENDBRANCH  23  24
ENDBRANCH  22  23
ENDBRANCH  21  22
ENDBRANCH  20  21
ENDBRANCH  19  20
ENDBRANCH  18  19
ENDBRANCH   1  18
TORSDOF 28
ENDMDL
MODEL 9
REMARK VINA RESULT:    -3.081      1.759      5.928
REMARK INTER + INTRA:         -14.291
REMARK INTER:                  -8.653
REMARK INTRA:                  -5.638
REMARK UNBOUND:                -6.166
REMARK SMILES CCCCCCCCCCCCCCCCCCCCCCCCCCCCCC(=O)[O-]
REMARK SMILES IDX 16 1 17 2 18 3 19 4 20 5 21 6 22 7 23 8 24 9 25 10 26 11
REMARK SMILES IDX 27 12 28 13 29 14 30 15 31 16 32 17 15 18 14 19 13 20 12 21
REMARK SMILES IDX 11 22 10 23 9 24 8 25 7 26 6 27 5 28 4 29 3 30 2 31 1 32
REMARK H PARENT
REMARK Flexibility Score: inf
ROOT
ATOM      1  C   UNL     1      10.423  65.810   8.470  1.00  0.00     0.000 C 
ENDROOT
BRANCH   1   2
ATOM      2  C   UNL     1      10.099  67.138   7.760  1.00  0.00     0.000 C 
BRANCH   2   3
ATOM      3  C   UNL     1       8.585  67.376   7.573  1.00  0.00     0.000 C 
BRANCH   3   4
ATOM      4  C   UNL     1       8.095  68.750   8.071  1.00  0.00     0.000 C 
BRANCH   4   5
ATOM      5  C   UNL     1       7.136  68.716   9.275  1.00  0.00     0.000 C 
BRANCH   5   6
ATOM      6  C   UNL     1       7.547  67.769  10.419  1.00  0.00     0.000 C 
BRANCH   6   7
ATOM      7  C   UNL     1       6.601  66.565  10.568  1.00  0.00     0.000 C 
BRANCH   7   8
ATOM      8  C   UNL     1       5.119  66.939  10.390  1.00  0.00     0.000 C 
BRANCH   8   9
ATOM      9  C   UNL     1       4.389  66.218   9.237  1.00  0.00     0.000 C 
BRANCH   9  10
ATOM     10  C   UNL     1       5.299  65.549   8.190  1.00  0.00     0.000 C 
BRANCH  10  11
ATOM     11  C   UNL     1       5.089  66.098   6.771  1.00  0.00     0.000 C 
BRANCH  11  12
ATOM     12  C   UNL     1       4.787  67.607   6.756  1.00  0.00     0.000 C 
BRANCH  12  13
ATOM     13  C   UNL     1       3.516  67.977   5.961  1.00  0.00     0.006 C 
BRANCH  13  14
ATOM     14  C   UNL     1       3.006  66.838   5.063  1.00  0.00     0.053 C 
BRANCH  14  15
ATOM     15  C   UNL     1       2.970  67.231   3.617  1.00  0.00     0.041 C 
ATOM     16  O   UNL     1       2.026  67.938   3.170  1.00  0.00    -0.550 OA
ATOM     17  O   UNL     1       3.998  66.842   2.766  1.00  0.00    -0.550 OA
ENDBRANCH  14  15
ENDBRANCH  13  14
ENDBRANCH  12  13
ENDBRANCH  11  12
ENDBRANCH  10  11
ENDBRANCH   9  10
ENDBRANCH   8   9
ENDBRANCH   7   8
ENDBRANCH   6   7
ENDBRANCH   5   6
ENDBRANCH   4   5
ENDBRANCH   3   4
ENDBRANCH   2   3
ENDBRANCH   1   2
BRANCH   1  18
ATOM     18  C   UNL     1       9.193  64.896   8.597  1.00  0.00     0.000 C 
BRANCH  18  19
ATOM     19  C   UNL     1       9.560  63.402   8.642  1.00  0.00     0.000 C 
BRANCH  19  20
ATOM     20  C   UNL     1      11.073  63.158   8.808  1.00  0.00     0.000 C 
BRANCH  20  21
ATOM     21  C   UNL     1      11.673  62.101   7.862  1.00  0.00     0.000 C 
BRANCH  21  22
ATOM     22  C   UNL     1      12.725  62.677   6.899  1.00  0.00     0.000 C 
BRANCH  22  23
ATOM     23  C   UNL     1      13.446  63.902   7.486  1.00  0.00     0.000 C 
BRANCH  23  24
ATOM     24  C   UNL     1      13.453  65.102   6.527  1.00  0.00    -0.000 C 
BRANCH  24  25
ATOM     25  C   UNL     1      12.340  64.967   5.477  1.00  0.00    -0.000 C 
BRANCH  25  26
ATOM     26  C   UNL     1      12.203  66.215   4.585  1.00  0.00    -0.000 C 
BRANCH  26  27
ATOM     27  C   UNL     1      10.971  66.225   3.658  1.00  0.00    -0.000 C 
BRANCH  27  28
ATOM     28  C   UNL     1       9.823  67.146   4.107  1.00  0.00    -0.000 C 
BRANCH  28  29
ATOM     29  C   UNL     1       8.560  66.992   3.246  1.00  0.00    -0.000 C 
BRANCH  29  30
ATOM     30  C   UNL     1       7.306  67.388   4.034  1.00  0.00    -0.000 C 
BRANCH  30  31
ATOM     31  C   UNL     1       6.791  68.763   3.591  1.00  0.00    -0.003 C 
ATOM     32  C   UNL     1       7.014  69.811   4.678  1.00  0.00     0.004 C 
ENDBRANCH  30  31
ENDBRANCH  29  30
ENDBRANCH  28  29
ENDBRANCH  27  28
ENDBRANCH  26  27
ENDBRANCH  25  26
ENDBRANCH  24  25
ENDBRANCH  23  24
ENDBRANCH  22  23
ENDBRANCH  21  22
ENDBRANCH  20  21
ENDBRANCH  19  20
ENDBRANCH  18  19
ENDBRANCH   1  18
TORSDOF 28
ENDMDL
