MODEL 1
REMARK VINA RESULT:    -0.286      0.000      0.000
REMARK INTER + INTRA:          -0.585
REMARK INTER:                  -0.344
REMARK INTRA:                  -0.241
REMARK UNBOUND:                -0.241
REMARK SMILES Oc1cc(O)c2cc(O)c(-c3ccc(O)c(O)c3)[o+]c2c1
REMARK SMILES IDX 10 1 19 2 20 3 21 4 2 5 3 6 4 7 6 8 7 9 8 10 11 11 12 12
REMARK SMILES IDX 13 13 14 14 18 15 16 16 15 17 17 19 9 21 1 23 5 25
REMARK H PARENT 15 18 17 20 9 22 1 24 5 26
REMARK Flexibility Score: inf
ROOT
ATOM      1  C   UNL     1      29.635  37.914  27.132  1.00  0.00     0.402 A 
ATOM      2  O   UNL     1      30.144  36.688  27.044  1.00  0.00    -0.202 OA
ATOM      3  C   UNL     1      29.475  35.655  26.543  1.00  0.00     0.368 A 
ATOM      4  C   UNL     1      30.093  34.402  26.497  1.00  0.00     0.162 A 
ATOM      5  C   UNL     1      29.413  33.300  25.978  1.00  0.00     0.128 A 
ATOM      6  C   UNL     1      28.106  33.447  25.502  1.00  0.00     0.093 A 
ATOM      7  C   UNL     1      27.464  34.691  25.539  1.00  0.00     0.136 A 
ATOM      8  C   UNL     1      28.153  35.815  26.063  1.00  0.00     0.125 A 
ATOM      9  C   UNL     1      27.594  37.103  26.126  1.00  0.00     0.078 A 
ATOM     10  C   UNL     1      28.337  38.164  26.651  1.00  0.00     0.223 A 
ENDROOT
BRANCH   1  11
ATOM     11  C   UNL     1      30.476  38.981  27.720  1.00  0.00     0.087 A 
ATOM     12  C   UNL     1      30.113  39.546  28.953  1.00  0.00     0.022 A 
ATOM     13  C   UNL     1      30.881  40.568  29.517  1.00  0.00     0.051 A 
ATOM     14  C   UNL     1      32.012  41.051  28.853  1.00  0.00     0.157 A 
ATOM     15  C   UNL     1      31.603  39.483  27.043  1.00  0.00     0.068 A 
ATOM     16  C   UNL     1      32.373  40.511  27.607  1.00  0.00     0.158 A 
BRANCH  14  17
ATOM     17  O   UNL     1      32.761  42.070  29.442  1.00  0.00    -0.504 OA
ATOM     18  H   UNL     1      32.524  43.048  29.326  1.00  0.00     0.293 HD
ENDBRANCH  14  17
BRANCH  16  19
ATOM     19  O   UNL     1      33.492  40.998  26.934  1.00  0.00    -0.504 OA
ATOM     20  H   UNL     1      33.421  41.391  26.002  1.00  0.00     0.293 HD
ENDBRANCH  16  19
ENDBRANCH   1  11
BRANCH  10  21
ATOM     21  O   UNL     1      27.800  39.452  26.669  1.00  0.00    -0.500 OA
ATOM     22  H   UNL     1      27.255  39.791  27.453  1.00  0.00     0.294 HD
ENDBRANCH  10  21
BRANCH   5  23
ATOM     23  O   UNL     1      30.047  32.059  25.940  1.00  0.00    -0.507 OA
ATOM     24  H   UNL     1      29.748  31.331  25.302  1.00  0.00     0.293 HD
ENDBRANCH   5  23
BRANCH   7  25
ATOM     25  O   UNL     1      26.156  34.755  25.048  1.00  0.00    -0.507 OA
ATOM     26  H   UNL     1      25.882  34.470  24.119  1.00  0.00     0.293 HD
ENDBRANCH   7  25
TORSDOF 6
ENDMDL
MODEL 2
REMARK VINA RESULT:     0.507      1.003      2.606
REMARK INTER + INTRA:           0.370
REMARK INTER:                   0.639
REMARK INTRA:                  -0.269
REMARK UNBOUND:                -0.241
REMARK SMILES Oc1cc(O)c2cc(O)c(-c3ccc(O)c(O)c3)[o+]c2c1
REMARK SMILES IDX 10 1 19 2 20 3 21 4 2 5 3 6 4 7 6 8 7 9 8 10 11 11 12 12
REMARK SMILES IDX 13 13 14 14 18 15 16 16 15 17 17 19 9 21 1 23 5 25
REMARK H PARENT 15 18 17 20 9 22 1 24 5 26
REMARK Flexibility Score: inf
ROOT
ATOM      1  C   UNL     1      30.562  37.304  27.446  1.00  0.00     0.402 A 
ATOM      2  O   UNL     1      29.394  37.241  26.812  1.00  0.00    -0.202 OA
ATOM      3  C   UNL     1      28.864  36.106  26.370  1.00  0.00     0.368 A 
ATOM      4  C   UNL     1      27.632  36.141  25.711  1.00  0.00     0.162 A 
ATOM      5  C   UNL     1      27.054  34.965  25.234  1.00  0.00     0.128 A 
ATOM      6  C   UNL     1      27.710  33.742  25.415  1.00  0.00     0.093 A 
ATOM      7  C   UNL     1      28.946  33.680  26.070  1.00  0.00     0.136 A 
ATOM      8  C   UNL     1      29.536  34.874  26.559  1.00  0.00     0.125 A 
ATOM      9  C   UNL     1      30.764  34.906  27.241  1.00  0.00     0.078 A 
ATOM     10  C   UNL     1      31.281  36.122  27.699  1.00  0.00     0.223 A 
ENDROOT
BRANCH   1  11
ATOM     11  C   UNL     1      31.052  38.632  27.881  1.00  0.00     0.087 A 
ATOM     12  C   UNL     1      30.351  39.335  28.875  1.00  0.00     0.022 A 
ATOM     13  C   UNL     1      30.783  40.598  29.287  1.00  0.00     0.051 A 
ATOM     14  C   UNL     1      31.910  41.185  28.704  1.00  0.00     0.157 A 
ATOM     15  C   UNL     1      32.173  39.233  27.281  1.00  0.00     0.068 A 
ATOM     16  C   UNL     1      32.606  40.502  27.692  1.00  0.00     0.158 A 
BRANCH  14  17
ATOM     17  O   UNL     1      32.319  42.446  29.138  1.00  0.00    -0.504 OA
ATOM     18  H   UNL     1      31.718  43.046  29.688  1.00  0.00     0.293 HD
ENDBRANCH  14  17
BRANCH  16  19
ATOM     19  O   UNL     1      33.722  41.088  27.097  1.00  0.00    -0.504 OA
ATOM     20  H   UNL     1      34.661  40.760  27.292  1.00  0.00     0.293 HD
ENDBRANCH  16  19
ENDBRANCH   1  11
BRANCH  10  21
ATOM     21  O   UNL     1      32.476  36.147  28.418  1.00  0.00    -0.500 OA
ATOM     22  H   UNL     1      32.996  35.301  28.617  1.00  0.00     0.294 HD
ENDBRANCH  10  21
BRANCH   5  23
ATOM     23  O   UNL     1      25.824  35.020  24.580  1.00  0.00    -0.507 OA
ATOM     24  H   UNL     1      25.683  34.577  23.681  1.00  0.00     0.293 HD
ENDBRANCH   5  23
BRANCH   7  25
ATOM     25  O   UNL     1      29.539  32.421  26.208  1.00  0.00    -0.507 OA
ATOM     26  H   UNL     1      29.482  31.852  27.040  1.00  0.00     0.293 HD
ENDBRANCH   7  25
TORSDOF 6
ENDMDL
MODEL 3
REMARK VINA RESULT:     0.886      3.265      5.503
REMARK INTER + INTRA:           0.827
REMARK INTER:                   1.135
REMARK INTRA:                  -0.308
REMARK UNBOUND:                -0.241
REMARK SMILES Oc1cc(O)c2cc(O)c(-c3ccc(O)c(O)c3)[o+]c2c1
REMARK SMILES IDX 10 1 19 2 20 3 21 4 2 5 3 6 4 7 6 8 7 9 8 10 11 11 12 12
REMARK SMILES IDX 13 13 14 14 18 15 16 16 15 17 17 19 9 21 1 23 5 25
REMARK H PARENT 15 18 17 20 9 22 1 24 5 26
REMARK Flexibility Score: inf
ROOT
ATOM      1  C   UNL     1      29.684  37.545  26.381  1.00  0.00     0.402 A 
ATOM      2  O   UNL     1      30.201  38.129  27.459  1.00  0.00    -0.202 OA
ATOM      3  C   UNL     1      29.563  38.207  28.622  1.00  0.00     0.368 A 
ATOM      4  C   UNL     1      30.187  38.845  29.697  1.00  0.00     0.162 A 
ATOM      5  C   UNL     1      29.541  38.943  30.930  1.00  0.00     0.128 A 
ATOM      6  C   UNL     1      28.260  38.403  31.091  1.00  0.00     0.093 A 
ATOM      7  C   UNL     1      27.613  37.760  30.028  1.00  0.00     0.136 A 
ATOM      8  C   UNL     1      28.268  37.655  28.774  1.00  0.00     0.125 A 
ATOM      9  C   UNL     1      27.703  37.016  27.658  1.00  0.00     0.078 A 
ATOM     10  C   UNL     1      28.412  36.947  26.455  1.00  0.00     0.223 A 
ENDROOT
BRANCH   1  11
ATOM     11  C   UNL     1      30.489  37.531  25.138  1.00  0.00     0.087 A 
ATOM     12  C   UNL     1      30.159  38.408  24.091  1.00  0.00     0.022 A 
ATOM     13  C   UNL     1      30.892  38.398  22.902  1.00  0.00     0.051 A 
ATOM     14  C   UNL     1      31.954  37.505  22.733  1.00  0.00     0.157 A 
ATOM     15  C   UNL     1      31.545  36.619  24.958  1.00  0.00     0.068 A 
ATOM     16  C   UNL     1      32.279  36.606  23.763  1.00  0.00     0.158 A 
BRANCH  14  17
ATOM     17  O   UNL     1      32.669  37.520  21.536  1.00  0.00    -0.504 OA
ATOM     18  H   UNL     1      32.372  38.069  20.738  1.00  0.00     0.293 HD
ENDBRANCH  14  17
BRANCH  16  19
ATOM     19  O   UNL     1      33.329  35.704  23.596  1.00  0.00    -0.504 OA
ATOM     20  H   UNL     1      33.321  35.013  22.854  1.00  0.00     0.293 HD
ENDBRANCH  16  19
ENDBRANCH   1  11
BRANCH  10  21
ATOM     21  O   UNL     1      27.871  36.271  25.361  1.00  0.00    -0.500 OA
ATOM     22  H   UNL     1      26.896  36.366  25.106  1.00  0.00     0.294 HD
ENDBRANCH  10  21
BRANCH   5  23
ATOM     23  O   UNL     1      30.180  39.582  31.991  1.00  0.00    -0.507 OA
ATOM     24  H   UNL     1      30.519  40.533  31.909  1.00  0.00     0.293 HD
ENDBRANCH   5  23
BRANCH   7  25
ATOM     25  O   UNL     1      26.334  37.249  30.268  1.00  0.00    -0.507 OA
ATOM     26  H   UNL     1      26.104  36.618  31.021  1.00  0.00     0.293 HD
ENDBRANCH   7  25
TORSDOF 6
ENDMDL
MODEL 4
REMARK VINA RESULT:     1.044      3.258      5.468
REMARK INTER + INTRA:           1.016
REMARK INTER:                   1.301
REMARK INTRA:                  -0.284
REMARK UNBOUND:                -0.241
REMARK SMILES Oc1cc(O)c2cc(O)c(-c3ccc(O)c(O)c3)[o+]c2c1
REMARK SMILES IDX 10 1 19 2 20 3 21 4 2 5 3 6 4 7 6 8 7 9 8 10 11 11 12 12
REMARK SMILES IDX 13 13 14 14 18 15 16 16 15 17 17 19 9 21 1 23 5 25
REMARK H PARENT 15 18 17 20 9 22 1 24 5 26
REMARK Flexibility Score: inf
ROOT
ATOM      1  C   UNL     1      29.708  37.303  27.056  1.00  0.00     0.402 A 
ATOM      2  O   UNL     1      30.169  37.934  25.979  1.00  0.00    -0.202 OA
ATOM      3  C   UNL     1      29.498  38.895  25.353  1.00  0.00     0.368 A 
ATOM      4  C   UNL     1      30.063  39.496  24.226  1.00  0.00     0.162 A 
ATOM      5  C   UNL     1      29.380  40.506  23.548  1.00  0.00     0.128 A 
ATOM      6  C   UNL     1      28.121  40.919  23.998  1.00  0.00     0.093 A 
ATOM      7  C   UNL     1      27.532  40.331  25.124  1.00  0.00     0.136 A 
ATOM      8  C   UNL     1      28.225  39.306  25.818  1.00  0.00     0.125 A 
ATOM      9  C   UNL     1      27.719  38.671  26.964  1.00  0.00     0.078 A 
ATOM     10  C   UNL     1      28.463  37.671  27.598  1.00  0.00     0.223 A 
ENDROOT
BRANCH   1  11
ATOM     11  C   UNL     1      30.546  36.241  27.658  1.00  0.00     0.087 A 
ATOM     12  C   UNL     1      30.166  34.896  27.514  1.00  0.00     0.022 A 
ATOM     13  C   UNL     1      30.931  33.879  28.090  1.00  0.00     0.051 A 
ATOM     14  C   UNL     1      32.075  34.188  28.831  1.00  0.00     0.157 A 
ATOM     15  C   UNL     1      31.686  36.550  28.422  1.00  0.00     0.068 A 
ATOM     16  C   UNL     1      32.452  35.530  29.004  1.00  0.00     0.158 A 
BRANCH  14  17
ATOM     17  O   UNL     1      32.820  33.151  29.393  1.00  0.00    -0.504 OA
ATOM     18  H   UNL     1      33.607  33.325  30.006  1.00  0.00     0.293 HD
ENDBRANCH  14  17
BRANCH  16  19
ATOM     19  O   UNL     1      33.585  35.845  29.753  1.00  0.00    -0.504 OA
ATOM     20  H   UNL     1      34.519  35.674  29.400  1.00  0.00     0.293 HD
ENDBRANCH  16  19
ENDBRANCH   1  11
BRANCH  10  21
ATOM     21  O   UNL     1      27.982  37.074  28.764  1.00  0.00    -0.500 OA
ATOM     22  H   UNL     1      26.997  37.082  28.999  1.00  0.00     0.294 HD
ENDBRANCH  10  21
BRANCH   5  23
ATOM     23  O   UNL     1      29.962  41.094  22.426  1.00  0.00    -0.507 OA
ATOM     24  H   UNL     1      30.964  41.085  22.284  1.00  0.00     0.293 HD
ENDBRANCH   5  23
BRANCH   7  25
ATOM     25  O   UNL     1      26.271  40.798  25.508  1.00  0.00    -0.507 OA
ATOM     26  H   UNL     1      25.940  40.827  26.461  1.00  0.00     0.293 HD
ENDBRANCH   7  25
TORSDOF 6
ENDMDL
MODEL 5
REMARK VINA RESULT:     1.257      3.273      5.755
REMARK INTER + INTRA:           1.273
REMARK INTER:                   1.576
REMARK INTRA:                  -0.303
REMARK UNBOUND:                -0.241
REMARK SMILES Oc1cc(O)c2cc(O)c(-c3ccc(O)c(O)c3)[o+]c2c1
REMARK SMILES IDX 10 1 19 2 20 3 21 4 2 5 3 6 4 7 6 8 7 9 8 10 11 11 12 12
REMARK SMILES IDX 13 13 14 14 18 15 16 16 15 17 17 19 9 21 1 23 5 25
REMARK H PARENT 15 18 17 20 9 22 1 24 5 26
REMARK Flexibility Score: inf
ROOT
ATOM      1  C   UNL     1      30.582  38.274  26.879  1.00  0.00     0.402 A 
ATOM      2  O   UNL     1      29.418  37.800  27.317  1.00  0.00    -0.202 OA
ATOM      3  C   UNL     1      28.971  37.992  28.553  1.00  0.00     0.368 A 
ATOM      4  C   UNL     1      27.737  37.451  28.922  1.00  0.00     0.162 A 
ATOM      5  C   UNL     1      27.244  37.635  30.214  1.00  0.00     0.128 A 
ATOM      6  C   UNL     1      27.989  38.365  31.147  1.00  0.00     0.093 A 
ATOM      7  C   UNL     1      29.229  38.916  30.802  1.00  0.00     0.136 A 
ATOM      8  C   UNL     1      29.732  38.734  29.488  1.00  0.00     0.125 A 
ATOM      9  C   UNL     1      30.958  39.262  29.050  1.00  0.00     0.078 A 
ATOM     10  C   UNL     1      31.386  39.044  27.737  1.00  0.00     0.223 A 
ENDROOT
BRANCH   1  11
ATOM     11  C   UNL     1      30.975  37.983  25.481  1.00  0.00     0.087 A 
ATOM     12  C   UNL     1      30.297  38.615  24.427  1.00  0.00     0.022 A 
ATOM     13  C   UNL     1      30.637  38.341  23.100  1.00  0.00     0.051 A 
ATOM     14  C   UNL     1      31.647  37.420  22.805  1.00  0.00     0.157 A 
ATOM     15  C   UNL     1      31.977  37.041  25.182  1.00  0.00     0.068 A 
ATOM     16  C   UNL     1      32.317  36.763  23.850  1.00  0.00     0.158 A 
BRANCH  14  17
ATOM     17  O   UNL     1      31.967  37.168  21.471  1.00  0.00    -0.504 OA
ATOM     18  H   UNL     1      31.324  36.703  20.842  1.00  0.00     0.293 HD
ENDBRANCH  14  17
BRANCH  16  19
ATOM     19  O   UNL     1      33.316  35.834  23.562  1.00  0.00    -0.504 OA
ATOM     20  H   UNL     1      34.150  35.758  24.132  1.00  0.00     0.293 HD
ENDBRANCH  16  19
ENDBRANCH   1  11
BRANCH  10  21
ATOM     21  O   UNL     1      32.580  39.610  27.288  1.00  0.00    -0.500 OA
ATOM     22  H   UNL     1      33.142  39.168  26.570  1.00  0.00     0.294 HD
ENDBRANCH  10  21
BRANCH   5  23
ATOM     23  O   UNL     1      26.010  37.088  30.563  1.00  0.00    -0.507 OA
ATOM     24  H   UNL     1      25.634  36.280  30.080  1.00  0.00     0.293 HD
ENDBRANCH   5  23
BRANCH   7  25
ATOM     25  O   UNL     1      29.914  39.629  31.792  1.00  0.00    -0.507 OA
ATOM     26  H   UNL     1      29.472  40.244  32.460  1.00  0.00     0.293 HD
ENDBRANCH   7  25
TORSDOF 6
ENDMDL
MODEL 6
REMARK VINA RESULT:     2.112      1.537      6.971
REMARK INTER + INTRA:           2.304
REMARK INTER:                   2.645
REMARK INTRA:                  -0.341
REMARK UNBOUND:                -0.241
REMARK SMILES Oc1cc(O)c2cc(O)c(-c3ccc(O)c(O)c3)[o+]c2c1
REMARK SMILES IDX 10 1 19 2 20 3 21 4 2 5 3 6 4 7 6 8 7 9 8 10 11 11 12 12
REMARK SMILES IDX 13 13 14 14 18 15 16 16 15 17 17 19 9 21 1 23 5 25
REMARK H PARENT 15 18 17 20 9 22 1 24 5 26
REMARK Flexibility Score: inf
ROOT
ATOM      1  C   UNL     1      29.492  37.489  26.849  1.00  0.00     0.402 A 
ATOM      2  O   UNL     1      29.393  37.683  28.161  1.00  0.00    -0.202 OA
ATOM      3  C   UNL     1      30.059  38.631  28.811  1.00  0.00     0.368 A 
ATOM      4  C   UNL     1      29.894  38.755  30.193  1.00  0.00     0.162 A 
ATOM      5  C   UNL     1      30.583  39.740  30.900  1.00  0.00     0.128 A 
ATOM      6  C   UNL     1      31.446  40.610  30.224  1.00  0.00     0.093 A 
ATOM      7  C   UNL     1      31.630  40.505  28.839  1.00  0.00     0.136 A 
ATOM      8  C   UNL     1      30.929  39.507  28.116  1.00  0.00     0.125 A 
ATOM      9  C   UNL     1      31.041  39.338  26.726  1.00  0.00     0.078 A 
ATOM     10  C   UNL     1      30.313  38.334  26.081  1.00  0.00     0.223 A 
ENDROOT
BRANCH   1  11
ATOM     11  C   UNL     1      28.705  36.391  26.242  1.00  0.00     0.087 A 
ATOM     12  C   UNL     1      27.429  36.661  25.723  1.00  0.00     0.022 A 
ATOM     13  C   UNL     1      26.660  35.636  25.164  1.00  0.00     0.051 A 
ATOM     14  C   UNL     1      27.147  34.326  25.130  1.00  0.00     0.157 A 
ATOM     15  C   UNL     1      29.184  35.068  26.226  1.00  0.00     0.068 A 
ATOM     16  C   UNL     1      28.413  34.038  25.668  1.00  0.00     0.158 A 
BRANCH  14  17
ATOM     17  O   UNL     1      26.359  33.324  24.563  1.00  0.00    -0.504 OA
ATOM     18  H   UNL     1      25.716  33.511  23.803  1.00  0.00     0.293 HD
ENDBRANCH  14  17
BRANCH  16  19
ATOM     19  O   UNL     1      28.897  32.731  25.649  1.00  0.00    -0.504 OA
ATOM     20  H   UNL     1      28.465  32.013  25.079  1.00  0.00     0.293 HD
ENDBRANCH  16  19
ENDBRANCH   1  11
BRANCH  10  21
ATOM     21  O   UNL     1      30.387  38.197  24.694  1.00  0.00    -0.500 OA
ATOM     22  H   UNL     1      29.750  38.687  24.076  1.00  0.00     0.294 HD
ENDBRANCH  10  21
BRANCH   5  23
ATOM     23  O   UNL     1      30.403  39.848  32.278  1.00  0.00    -0.507 OA
ATOM     24  H   UNL     1      31.188  39.982  32.905  1.00  0.00     0.293 HD
ENDBRANCH   5  23
BRANCH   7  25
ATOM     25  O   UNL     1      32.512  41.409  28.238  1.00  0.00    -0.507 OA
ATOM     26  H   UNL     1      32.399  41.782  27.307  1.00  0.00     0.293 HD
ENDBRANCH   7  25
TORSDOF 6
ENDMDL
MODEL 7
REMARK VINA RESULT:     2.268      3.362      5.770
REMARK INTER + INTRA:           2.491
REMARK INTER:                   2.818
REMARK INTRA:                  -0.328
REMARK UNBOUND:                -0.241
REMARK SMILES Oc1cc(O)c2cc(O)c(-c3ccc(O)c(O)c3)[o+]c2c1
REMARK SMILES IDX 10 1 19 2 20 3 21 4 2 5 3 6 4 7 6 8 7 9 8 10 11 11 12 12
REMARK SMILES IDX 13 13 14 14 18 15 16 16 15 17 17 19 9 21 1 23 5 25
REMARK H PARENT 15 18 17 20 9 22 1 24 5 26
REMARK Flexibility Score: inf
ROOT
ATOM      1  C   UNL     1      30.468  37.302  26.175  1.00  0.00     0.402 A 
ATOM      2  O   UNL     1      29.346  37.947  26.485  1.00  0.00    -0.202 OA
ATOM      3  C   UNL     1      28.820  38.902  25.725  1.00  0.00     0.368 A 
ATOM      4  C   UNL     1      27.640  39.526  26.137  1.00  0.00     0.162 A 
ATOM      5  C   UNL     1      27.067  40.532  25.359  1.00  0.00     0.128 A 
ATOM      6  C   UNL     1      27.676  40.920  24.161  1.00  0.00     0.093 A 
ATOM      7  C   UNL     1      28.860  40.311  23.727  1.00  0.00     0.136 A 
ATOM      8  C   UNL     1      29.444  39.285  24.513  1.00  0.00     0.125 A 
ATOM      9  C   UNL     1      30.621  38.609  24.150  1.00  0.00     0.078 A 
ATOM     10  C   UNL     1      31.135  37.604  24.975  1.00  0.00     0.223 A 
ENDROOT
BRANCH   1  11
ATOM     11  C   UNL     1      30.960  36.265  27.111  1.00  0.00     0.087 A 
ATOM     12  C   UNL     1      30.311  35.020  27.166  1.00  0.00     0.022 A 
ATOM     13  C   UNL     1      30.745  34.034  28.055  1.00  0.00     0.051 A 
ATOM     14  C   UNL     1      31.821  34.279  28.912  1.00  0.00     0.157 A 
ATOM     15  C   UNL     1      32.030  36.516  27.989  1.00  0.00     0.068 A 
ATOM     16  C   UNL     1      32.465  35.528  28.884  1.00  0.00     0.158 A 
BRANCH  14  17
ATOM     17  O   UNL     1      32.235  33.274  29.787  1.00  0.00    -0.504 OA
ATOM     18  H   UNL     1      31.760  33.096  30.664  1.00  0.00     0.293 HD
ENDBRANCH  14  17
BRANCH  16  19
ATOM     19  O   UNL     1      33.530  35.783  29.745  1.00  0.00    -0.504 OA
ATOM     20  H   UNL     1      33.435  35.686  30.750  1.00  0.00     0.293 HD
ENDBRANCH  16  19
ENDBRANCH   1  11
BRANCH  10  21
ATOM     21  O   UNL     1      32.276  36.899  24.590  1.00  0.00    -0.500 OA
ATOM     22  H   UNL     1      32.220  35.960  24.214  1.00  0.00     0.294 HD
ENDBRANCH  10  21
BRANCH   5  23
ATOM     23  O   UNL     1      25.889  41.143  25.787  1.00  0.00    -0.507 OA
ATOM     24  H   UNL     1      25.365  41.764  25.182  1.00  0.00     0.293 HD
ENDBRANCH   5  23
BRANCH   7  25
ATOM     25  O   UNL     1      29.408  40.757  22.520  1.00  0.00    -0.507 OA
ATOM     26  H   UNL     1      28.868  40.979  21.696  1.00  0.00     0.293 HD
ENDBRANCH   7  25
TORSDOF 6
ENDMDL
