MODEL 1
REMARK VINA RESULT:    -3.364      0.000      0.000
REMARK INTER + INTRA:          -3.561
REMARK INTER:                  -3.561
REMARK INTRA:                   0.000
REMARK UNBOUND:                 0.000
REMARK SMILES O=c1ccc2cc(O)c(O)cc2o1
REMARK SMILES IDX 4 1 3 2 2 3 1 4 13 5 12 6 11 7 9 8 7 9 6 10 5 11 8 12 10 14
REMARK H PARENT 8 13 10 15
REMARK Flexibility Score: inf
ROOT
ATOM      1  C   UNL     1       3.947 -17.048  54.291  1.00  0.00     0.019 A 
ATOM      2  C   UNL     1       5.224 -16.614  54.649  1.00  0.00     0.094 A 
ATOM      3  C   UNL     1       5.425 -15.259  54.933  1.00  0.00     0.336 A 
ATOM      4  O   UNL     1       6.569 -14.847  55.259  1.00  0.00    -0.246 OA
ATOM      5  O   UNL     1       4.412 -14.399  54.863  1.00  0.00    -0.423 OA
ATOM      6  C   UNL     1       3.179 -14.770  54.526  1.00  0.00     0.142 A 
ATOM      7  C   UNL     1       2.153 -13.821  54.469  1.00  0.00     0.098 A 
ATOM      8  C   UNL     1       0.853 -14.208  54.113  1.00  0.00     0.161 A 
ATOM      9  C   UNL     1       0.577 -15.550  53.814  1.00  0.00     0.158 A 
ATOM     10  C   UNL     1       1.601 -16.506  53.870  1.00  0.00     0.062 A 
ATOM     11  C   UNL     1       2.902 -16.121  54.226  1.00  0.00     0.022 A 
ENDROOT
BRANCH   9  12
ATOM     12  O   UNL     1      -0.718 -15.925  53.462  1.00  0.00    -0.504 OA
ATOM     13  H   UNL     1      -1.210 -16.660  53.956  1.00  0.00     0.293 HD
ENDBRANCH   9  12
BRANCH   8  14
ATOM     14  O   UNL     1      -0.171 -13.263  54.055  1.00  0.00    -0.504 OA
ATOM     15  H   UNL     1      -0.066 -12.342  54.463  1.00  0.00     0.293 HD
ENDBRANCH   8  14
TORSDOF 2
ENDMDL
MODEL 2
REMARK VINA RESULT:    -3.213      1.005      4.536
REMARK INTER + INTRA:          -3.401
REMARK INTER:                  -3.401
REMARK INTRA:                   0.000
REMARK UNBOUND:                 0.000
REMARK SMILES O=c1ccc2cc(O)c(O)cc2o1
REMARK SMILES IDX 4 1 3 2 2 3 1 4 13 5 12 6 11 7 9 8 7 9 6 10 5 11 8 12 10 14
REMARK H PARENT 8 13 10 15
REMARK Flexibility Score: inf
ROOT
ATOM      1  C   UNL     1       1.641 -16.811  54.302  1.00  0.00     0.019 A 
ATOM      2  C   UNL     1       0.469 -16.101  54.042  1.00  0.00     0.094 A 
ATOM      3  C   UNL     1       0.520 -14.704  53.988  1.00  0.00     0.336 A 
ATOM      4  O   UNL     1      -0.526 -14.045  53.755  1.00  0.00    -0.246 OA
ATOM      5  O   UNL     1       1.671 -14.065  54.181  1.00  0.00    -0.423 OA
ATOM      6  C   UNL     1       2.812 -14.703  54.432  1.00  0.00     0.142 A 
ATOM      7  C   UNL     1       3.992 -13.978  54.627  1.00  0.00     0.098 A 
ATOM      8  C   UNL     1       5.196 -14.646  54.891  1.00  0.00     0.161 A 
ATOM      9  C   UNL     1       5.220 -16.047  54.960  1.00  0.00     0.158 A 
ATOM     10  C   UNL     1       4.041 -16.780  54.766  1.00  0.00     0.062 A 
ATOM     11  C   UNL     1       2.836 -16.113  54.501  1.00  0.00     0.022 A 
ENDROOT
BRANCH   9  12
ATOM     12  O   UNL     1       6.421 -16.702  55.223  1.00  0.00    -0.504 OA
ATOM     13  H   UNL     1       7.315 -16.233  55.126  1.00  0.00     0.293 HD
ENDBRANCH   9  12
BRANCH   8  14
ATOM     14  O   UNL     1       6.373 -13.925  55.086  1.00  0.00    -0.504 OA
ATOM     15  H   UNL     1       6.377 -12.912  55.108  1.00  0.00     0.293 HD
ENDBRANCH   8  14
TORSDOF 2
ENDMDL
MODEL 3
REMARK VINA RESULT:    -3.119      2.297      3.851
REMARK INTER + INTRA:          -3.301
REMARK INTER:                  -3.301
REMARK INTRA:                   0.000
REMARK UNBOUND:                 0.000
REMARK SMILES O=c1ccc2cc(O)c(O)cc2o1
REMARK SMILES IDX 4 1 3 2 2 3 1 4 13 5 12 6 11 7 9 8 7 9 6 10 5 11 8 12 10 14
REMARK H PARENT 8 13 10 15
REMARK Flexibility Score: inf
ROOT
ATOM      1  C   UNL     1       1.347 -14.810  53.887  1.00  0.00     0.019 A 
ATOM      2  C   UNL     1       1.763 -16.080  54.286  1.00  0.00     0.094 A 
ATOM      3  C   UNL     1       2.970 -16.210  54.983  1.00  0.00     0.336 A 
ATOM      4  O   UNL     1       3.363 -17.347  55.353  1.00  0.00    -0.246 OA
ATOM      5  O   UNL     1       3.707 -15.137  55.258  1.00  0.00    -0.423 OA
ATOM      6  C   UNL     1       3.348 -13.908  54.895  1.00  0.00     0.142 A 
ATOM      7  C   UNL     1       4.164 -12.817  55.212  1.00  0.00     0.098 A 
ATOM      8  C   UNL     1       3.789 -11.521  54.831  1.00  0.00     0.161 A 
ATOM      9  C   UNL     1       2.592 -11.314  54.130  1.00  0.00     0.158 A 
ATOM     10  C   UNL     1       1.769 -12.404  53.809  1.00  0.00     0.062 A 
ATOM     11  C   UNL     1       2.143 -13.701  54.190  1.00  0.00     0.022 A 
ENDROOT
BRANCH   9  12
ATOM     12  O   UNL     1       2.227 -10.022  53.756  1.00  0.00    -0.504 OA
ATOM     13  H   UNL     1       1.339  -9.620  54.033  1.00  0.00     0.293 HD
ENDBRANCH   9  12
BRANCH   8  14
ATOM     14  O   UNL     1       4.601 -10.432  55.146  1.00  0.00    -0.504 OA
ATOM     15  H   UNL     1       4.366  -9.492  54.850  1.00  0.00     0.293 HD
ENDBRANCH   8  14
TORSDOF 2
ENDMDL
MODEL 4
REMARK VINA RESULT:    -3.038      7.131      9.300
REMARK INTER + INTRA:          -3.216
REMARK INTER:                  -3.216
REMARK INTRA:                   0.000
REMARK UNBOUND:                 0.000
REMARK SMILES O=c1ccc2cc(O)c(O)cc2o1
REMARK SMILES IDX 4 1 3 2 2 3 1 4 13 5 12 6 11 7 9 8 7 9 6 10 5 11 8 12 10 14
REMARK H PARENT 8 13 10 15
REMARK Flexibility Score: inf
ROOT
ATOM      1  C   UNL     1      -2.675  -7.914  55.194  1.00  0.00     0.019 A 
ATOM      2  C   UNL     1      -2.827  -9.281  55.425  1.00  0.00     0.094 A 
ATOM      3  C   UNL     1      -1.689 -10.095  55.451  1.00  0.00     0.336 A 
ATOM      4  O   UNL     1      -1.805 -11.331  55.659  1.00  0.00    -0.246 OA
ATOM      5  O   UNL     1      -0.482  -9.571  55.258  1.00  0.00    -0.423 OA
ATOM      6  C   UNL     1      -0.292  -8.272  55.034  1.00  0.00     0.142 A 
ATOM      7  C   UNL     1       1.002  -7.777  54.838  1.00  0.00     0.098 A 
ATOM      8  C   UNL     1       1.205  -6.410  54.601  1.00  0.00     0.161 A 
ATOM      9  C   UNL     1       0.111  -5.534  54.561  1.00  0.00     0.158 A 
ATOM     10  C   UNL     1      -1.188  -6.024  54.757  1.00  0.00     0.062 A 
ATOM     11  C   UNL     1      -1.394  -7.391  54.994  1.00  0.00     0.022 A 
ENDROOT
BRANCH   9  12
ATOM     12  O   UNL     1       0.324  -4.177  54.325  1.00  0.00    -0.504 OA
ATOM     13  H   UNL     1      -0.301  -3.470  54.694  1.00  0.00     0.293 HD
ENDBRANCH   9  12
BRANCH   8  14
ATOM     14  O   UNL     1       2.494  -5.915  54.405  1.00  0.00    -0.504 OA
ATOM     15  H   UNL     1       3.309  -6.406  54.752  1.00  0.00     0.293 HD
ENDBRANCH   8  14
TORSDOF 2
ENDMDL
MODEL 5
REMARK VINA RESULT:    -3.034      6.609      8.646
REMARK INTER + INTRA:          -3.211
REMARK INTER:                  -3.211
REMARK INTRA:                   0.000
REMARK UNBOUND:                 0.000
REMARK SMILES O=c1ccc2cc(O)c(O)cc2o1
REMARK SMILES IDX 4 1 3 2 2 3 1 4 13 5 12 6 11 7 9 8 7 9 6 10 5 11 8 12 10 14
REMARK H PARENT 8 13 10 15
REMARK Flexibility Score: inf
ROOT
ATOM      1  C   UNL     1      -1.628  -6.151  55.293  1.00  0.00     0.019 A 
ATOM      2  C   UNL     1      -0.507  -5.394  54.954  1.00  0.00     0.094 A 
ATOM      3  C   UNL     1       0.689  -6.053  54.647  1.00  0.00     0.336 A 
ATOM      4  O   UNL     1       1.712  -5.388  54.338  1.00  0.00    -0.246 OA
ATOM      5  O   UNL     1       0.753  -7.382  54.680  1.00  0.00    -0.423 OA
ATOM      6  C   UNL     1      -0.292  -8.142  54.999  1.00  0.00     0.142 A 
ATOM      7  C   UNL     1      -0.166  -9.535  55.015  1.00  0.00     0.098 A 
ATOM      8  C   UNL     1      -1.265 -10.339  55.351  1.00  0.00     0.161 A 
ATOM      9  C   UNL     1      -2.495  -9.748  55.670  1.00  0.00     0.158 A 
ATOM     10  C   UNL     1      -2.629  -8.352  55.654  1.00  0.00     0.062 A 
ATOM     11  C   UNL     1      -1.532  -7.546  55.319  1.00  0.00     0.022 A 
ENDROOT
BRANCH   9  12
ATOM     12  O   UNL     1      -3.582 -10.555  56.002  1.00  0.00    -0.504 OA
ATOM     13  H   UNL     1      -4.468 -10.478  55.517  1.00  0.00     0.293 HD
ENDBRANCH   9  12
BRANCH   8  14
ATOM     14  O   UNL     1      -1.140 -11.727  55.369  1.00  0.00    -0.504 OA
ATOM     15  H   UNL     1      -1.296 -12.263  56.215  1.00  0.00     0.293 HD
ENDBRANCH   8  14
TORSDOF 2
ENDMDL
MODEL 6
REMARK VINA RESULT:    -2.865      1.144      5.024
REMARK INTER + INTRA:          -3.032
REMARK INTER:                  -3.032
REMARK INTRA:                   0.000
REMARK UNBOUND:                 0.000
REMARK SMILES O=c1ccc2cc(O)c(O)cc2o1
REMARK SMILES IDX 4 1 3 2 2 3 1 4 13 5 12 6 11 7 9 8 7 9 6 10 5 11 8 12 10 14
REMARK H PARENT 8 13 10 15
REMARK Flexibility Score: inf
ROOT
ATOM      1  C   UNL     1       1.750 -13.485  54.209  1.00  0.00     0.019 A 
ATOM      2  C   UNL     1       0.513 -14.052  53.902  1.00  0.00     0.094 A 
ATOM      3  C   UNL     1       0.406 -15.444  53.821  1.00  0.00     0.336 A 
ATOM      4  O   UNL     1      -0.702 -15.975  53.546  1.00  0.00    -0.246 OA
ATOM      5  O   UNL     1       1.470 -16.215  54.032  1.00  0.00    -0.423 OA
ATOM      6  C   UNL     1       2.669 -15.716  54.326  1.00  0.00     0.142 A 
ATOM      7  C   UNL     1       3.752 -16.575  54.538  1.00  0.00     0.098 A 
ATOM      8  C   UNL     1       5.016 -16.053  54.848  1.00  0.00     0.161 A 
ATOM      9  C   UNL     1       5.198 -14.666  54.946  1.00  0.00     0.158 A 
ATOM     10  C   UNL     1       4.116 -13.799  54.735  1.00  0.00     0.062 A 
ATOM     11  C   UNL     1       2.851 -14.319  54.426  1.00  0.00     0.022 A 
ENDROOT
BRANCH   9  12
ATOM     12  O   UNL     1       6.458 -14.157  55.254  1.00  0.00    -0.504 OA
ATOM     13  H   UNL     1       7.124 -13.913  54.530  1.00  0.00     0.293 HD
ENDBRANCH   9  12
BRANCH   8  14
ATOM     14  O   UNL     1       6.097 -16.907  55.059  1.00  0.00    -0.504 OA
ATOM     15  H   UNL     1       5.992 -17.782  55.560  1.00  0.00     0.293 HD
ENDBRANCH   8  14
TORSDOF 2
ENDMDL
MODEL 7
REMARK VINA RESULT:    -2.819      5.318      7.952
REMARK INTER + INTRA:          -2.983
REMARK INTER:                  -2.983
REMARK INTRA:                   0.000
REMARK UNBOUND:                 0.000
REMARK SMILES O=c1ccc2cc(O)c(O)cc2o1
REMARK SMILES IDX 4 1 3 2 2 3 1 4 13 5 12 6 11 7 9 8 7 9 6 10 5 11 8 12 10 14
REMARK H PARENT 8 13 10 15
REMARK Flexibility Score: inf
ROOT
ATOM      1  C   UNL     1      -1.333  -9.552  55.576  1.00  0.00     0.019 A 
ATOM      2  C   UNL     1      -2.098  -8.444  55.212  1.00  0.00     0.094 A 
ATOM      3  C   UNL     1      -1.482  -7.385  54.536  1.00  0.00     0.336 A 
ATOM      4  O   UNL     1      -2.155  -6.377  54.199  1.00  0.00    -0.246 OA
ATOM      5  O   UNL     1      -0.184  -7.438  54.246  1.00  0.00    -0.423 OA
ATOM      6  C   UNL     1       0.583  -8.475  54.574  1.00  0.00     0.142 A 
ATOM      7  C   UNL     1       1.941  -8.474  54.242  1.00  0.00     0.098 A 
ATOM      8  C   UNL     1       2.753  -9.564  54.587  1.00  0.00     0.161 A 
ATOM      9  C   UNL     1       2.203 -10.661  55.266  1.00  0.00     0.158 A 
ATOM     10  C   UNL     1       0.841 -10.668  55.601  1.00  0.00     0.062 A 
ATOM     11  C   UNL     1       0.028  -9.579  55.257  1.00  0.00     0.022 A 
ENDROOT
BRANCH   9  12
ATOM     12  O   UNL     1       3.017 -11.741  55.604  1.00  0.00    -0.504 OA
ATOM     13  H   UNL     1       3.541 -12.251  54.902  1.00  0.00     0.293 HD
ENDBRANCH   9  12
BRANCH   8  14
ATOM     14  O   UNL     1       4.107  -9.565  54.257  1.00  0.00    -0.504 OA
ATOM     15  H   UNL     1       4.719 -10.325  54.530  1.00  0.00     0.293 HD
ENDBRANCH   8  14
TORSDOF 2
ENDMDL
MODEL 8
REMARK VINA RESULT:    -2.769      3.211      4.778
REMARK INTER + INTRA:          -2.931
REMARK INTER:                  -2.931
REMARK INTRA:                   0.000
REMARK UNBOUND:                 0.000
REMARK SMILES O=c1ccc2cc(O)c(O)cc2o1
REMARK SMILES IDX 4 1 3 2 2 3 1 4 13 5 12 6 11 7 9 8 7 9 6 10 5 11 8 12 10 14
REMARK H PARENT 8 13 10 15
REMARK Flexibility Score: inf
ROOT
ATOM      1  C   UNL     1       4.282 -13.629  55.403  1.00  0.00     0.019 A 
ATOM      2  C   UNL     1       3.661 -14.807  54.991  1.00  0.00     0.094 A 
ATOM      3  C   UNL     1       2.516 -14.727  54.191  1.00  0.00     0.336 A 
ATOM      4  O   UNL     1       1.941 -15.779  53.808  1.00  0.00    -0.246 OA
ATOM      5  O   UNL     1       2.029 -13.542  53.830  1.00  0.00    -0.423 OA
ATOM      6  C   UNL     1       2.590 -12.393  54.201  1.00  0.00     0.142 A 
ATOM      7  C   UNL     1       2.034 -11.178  53.791  1.00  0.00     0.098 A 
ATOM      8  C   UNL     1       2.622  -9.966  54.181  1.00  0.00     0.161 A 
ATOM      9  C   UNL     1       3.772  -9.969  54.983  1.00  0.00     0.158 A 
ATOM     10  C   UNL     1       4.335 -11.185  55.398  1.00  0.00     0.062 A 
ATOM     11  C   UNL     1       3.748 -12.398  55.009  1.00  0.00     0.022 A 
ENDROOT
BRANCH   9  12
ATOM     12  O   UNL     1       4.349  -8.760  55.365  1.00  0.00    -0.504 OA
ATOM     13  H   UNL     1       3.847  -7.883  55.284  1.00  0.00     0.293 HD
ENDBRANCH   9  12
BRANCH   8  14
ATOM     14  O   UNL     1       2.069  -8.752  53.773  1.00  0.00    -0.504 OA
ATOM     15  H   UNL     1       1.439  -8.696  52.982  1.00  0.00     0.293 HD
ENDBRANCH   8  14
TORSDOF 2
ENDMDL
MODEL 9
REMARK VINA RESULT:    -2.763      5.652      8.320
REMARK INTER + INTRA:          -2.925
REMARK INTER:                  -2.925
REMARK INTRA:                   0.000
REMARK UNBOUND:                 0.000
REMARK SMILES O=c1ccc2cc(O)c(O)cc2o1
REMARK SMILES IDX 4 1 3 2 2 3 1 4 13 5 12 6 11 7 9 8 7 9 6 10 5 11 8 12 10 14
REMARK H PARENT 8 13 10 15
REMARK Flexibility Score: inf
ROOT
ATOM      1  C   UNL     1       0.447  -6.661  54.610  1.00  0.00     0.019 A 
ATOM      2  C   UNL     1      -0.820  -6.414  55.139  1.00  0.00     0.094 A 
ATOM      3  C   UNL     1      -1.526  -7.468  55.729  1.00  0.00     0.336 A 
ATOM      4  O   UNL     1      -2.670  -7.265  56.213  1.00  0.00    -0.246 OA
ATOM      5  O   UNL     1      -0.995  -8.687  55.783  1.00  0.00    -0.423 OA
ATOM      6  C   UNL     1       0.210  -8.966  55.290  1.00  0.00     0.142 A 
ATOM      7  C   UNL     1       0.717 -10.267  55.376  1.00  0.00     0.098 A 
ATOM      8  C   UNL     1       1.985 -10.565  54.857  1.00  0.00     0.161 A 
ATOM      9  C   UNL     1       2.750  -9.559  54.251  1.00  0.00     0.158 A 
ATOM     10  C   UNL     1       2.247  -8.252  54.162  1.00  0.00     0.062 A 
ATOM     11  C   UNL     1       0.980  -7.952  54.680  1.00  0.00     0.022 A 
ENDROOT
BRANCH   9  12
ATOM     12  O   UNL     1       4.009  -9.865  53.739  1.00  0.00    -0.504 OA
ATOM     13  H   UNL     1       4.120 -10.442  52.913  1.00  0.00     0.293 HD
ENDBRANCH   9  12
BRANCH   8  14
ATOM     14  O   UNL     1       2.492 -11.861  54.941  1.00  0.00    -0.504 OA
ATOM     15  H   UNL     1       2.789 -12.369  54.117  1.00  0.00     0.293 HD
ENDBRANCH   8  14
TORSDOF 2
ENDMDL
