MODEL 1
REMARK VINA RESULT:    -0.203      0.000      0.000
REMARK INTER + INTRA:          -1.362
REMARK INTER:                  -0.440
REMARK INTRA:                  -0.921
REMARK UNBOUND:                -0.921
REMARK SMILES CCCCCCCCCCCCCCCCCCCCCC(=O)[O-]
REMARK SMILES IDX 12 1 11 2 10 3 9 4 8 5 7 6 6 7 5 8 4 9 3 10 2 11 1 12 13 13
REMARK SMILES IDX 14 14 15 15 16 16 17 17 18 18 19 19 20 20 21 21 22 22 23 23
REMARK SMILES IDX 24 24
REMARK H PARENT
REMARK Flexibility Score: inf
ROOT
ATOM      1  C   UNL     1       6.119 -35.093  24.438  1.00  0.00     0.000 C 
ENDROOT
BRANCH   1   2
ATOM      2  C   UNL     1       6.001 -36.534  24.962  1.00  0.00     0.000 C 
BRANCH   2   3
ATOM      3  C   UNL     1       6.106 -37.581  23.843  1.00  0.00     0.000 C 
BRANCH   3   4
ATOM      4  C   UNL     1       5.574 -38.941  24.313  1.00  0.00    -0.000 C 
BRANCH   4   5
ATOM      5  C   UNL     1       4.889 -39.737  23.186  1.00  0.00    -0.000 C 
BRANCH   5   6
ATOM      6  C   UNL     1       5.520 -39.561  21.790  1.00  0.00    -0.000 C 
BRANCH   6   7
ATOM      7  C   UNL     1       5.460 -38.132  21.215  1.00  0.00    -0.000 C 
BRANCH   7   8
ATOM      8  C   UNL     1       5.095 -38.043  19.723  1.00  0.00    -0.000 C 
BRANCH   8   9
ATOM      9  C   UNL     1       3.585 -38.183  19.469  1.00  0.00    -0.000 C 
BRANCH   9  10
ATOM     10  C   UNL     1       2.757 -37.145  20.243  1.00  0.00    -0.000 C 
BRANCH  10  11
ATOM     11  C   UNL     1       1.243 -37.386  20.128  1.00  0.00    -0.003 C 
ATOM     12  C   UNL     1       0.859 -37.801  18.711  1.00  0.00     0.004 C 
ENDBRANCH  10  11
ENDBRANCH   9  10
ENDBRANCH   8   9
ENDBRANCH   7   8
ENDBRANCH   6   7
ENDBRANCH   5   6
ENDBRANCH   4   5
ENDBRANCH   3   4
ENDBRANCH   2   3
ENDBRANCH   1   2
BRANCH   1  13
ATOM     13  C   UNL     1       6.049 -35.015  22.903  1.00  0.00     0.000 C 
BRANCH  13  14
ATOM     14  C   UNL     1       4.620 -34.794  22.382  1.00  0.00     0.000 C 
BRANCH  14  15
ATOM     15  C   UNL     1       4.553 -34.733  20.847  1.00  0.00     0.000 C 
BRANCH  15  16
ATOM     16  C   UNL     1       5.934 -34.877  20.180  1.00  0.00     0.000 C 
BRANCH  16  17
ATOM     17  C   UNL     1       5.956 -34.648  18.657  1.00  0.00     0.000 C 
BRANCH  17  18
ATOM     18  C   UNL     1       4.558 -34.371  18.074  1.00  0.00     0.000 C 
BRANCH  18  19
ATOM     19  C   UNL     1       4.249 -35.244  16.846  1.00  0.00     0.000 C 
BRANCH  19  20
ATOM     20  C   UNL     1       2.974 -36.087  17.025  1.00  0.00     0.006 C 
BRANCH  20  21
ATOM     21  C   UNL     1       2.438 -36.617  15.689  1.00  0.00     0.053 C 
BRANCH  21  22
ATOM     22  C   UNL     1       3.511 -37.286  14.885  1.00  0.00     0.041 C 
ATOM     23  O   UNL     1       3.846 -38.472  15.137  1.00  0.00    -0.550 OA
ATOM     24  O   UNL     1       4.160 -36.586  13.875  1.00  0.00    -0.550 OA
ENDBRANCH  21  22
ENDBRANCH  20  21
ENDBRANCH  19  20
ENDBRANCH  18  19
ENDBRANCH  17  18
ENDBRANCH  16  17
ENDBRANCH  15  16
ENDBRANCH  14  15
ENDBRANCH  13  14
ENDBRANCH   1  13
TORSDOF 20
ENDMDL
MODEL 2
REMARK VINA RESULT:     0.309      1.012      2.211
REMARK INTER + INTRA:          -0.251
REMARK INTER:                   1.445
REMARK INTRA:                  -1.696
REMARK UNBOUND:                -0.921
REMARK SMILES CCCCCCCCCCCCCCCCCCCCCC(=O)[O-]
REMARK SMILES IDX 12 1 11 2 10 3 9 4 8 5 7 6 6 7 5 8 4 9 3 10 2 11 1 12 13 13
REMARK SMILES IDX 14 14 15 15 16 16 17 17 18 18 19 19 20 20 21 21 22 22 23 23
REMARK SMILES IDX 24 24
REMARK H PARENT
REMARK Flexibility Score: inf
ROOT
ATOM      1  C   UNL     1       6.046 -34.334  22.343  1.00  0.00     0.000 C 
ENDROOT
BRANCH   1   2
ATOM      2  C   UNL     1       5.645 -34.602  23.803  1.00  0.00     0.000 C 
BRANCH   2   3
ATOM      3  C   UNL     1       6.047 -36.006  24.278  1.00  0.00     0.000 C 
BRANCH   3   4
ATOM      4  C   UNL     1       5.159 -36.466  25.442  1.00  0.00    -0.000 C 
BRANCH   4   5
ATOM      5  C   UNL     1       4.692 -37.926  25.296  1.00  0.00    -0.000 C 
BRANCH   5   6
ATOM      6  C   UNL     1       5.627 -38.829  24.467  1.00  0.00    -0.000 C 
BRANCH   6   7
ATOM      7  C   UNL     1       4.948 -39.608  23.323  1.00  0.00    -0.000 C 
BRANCH   7   8
ATOM      8  C   UNL     1       5.771 -39.715  22.027  1.00  0.00    -0.000 C 
BRANCH   8   9
ATOM      9  C   UNL     1       5.442 -38.602  21.018  1.00  0.00    -0.000 C 
BRANCH   9  10
ATOM     10  C   UNL     1       3.932 -38.344  20.895  1.00  0.00    -0.000 C 
BRANCH  10  11
ATOM     11  C   UNL     1       3.535 -37.772  19.525  1.00  0.00    -0.003 C 
ATOM     12  C   UNL     1       2.032 -37.520  19.449  1.00  0.00     0.004 C 
ENDBRANCH  10  11
ENDBRANCH   9  10
ENDBRANCH   8   9
ENDBRANCH   7   8
ENDBRANCH   6   7
ENDBRANCH   5   6
ENDBRANCH   4   5
ENDBRANCH   3   4
ENDBRANCH   2   3
ENDBRANCH   1   2
BRANCH   1  13
ATOM     13  C   UNL     1       6.125 -35.623  21.505  1.00  0.00     0.000 C 
BRANCH  13  14
ATOM     14  C   UNL     1       6.037 -35.356  19.994  1.00  0.00     0.000 C 
BRANCH  14  15
ATOM     15  C   UNL     1       4.658 -34.822  19.569  1.00  0.00     0.000 C 
BRANCH  15  16
ATOM     16  C   UNL     1       4.635 -34.306  18.118  1.00  0.00     0.000 C 
BRANCH  16  17
ATOM     17  C   UNL     1       4.274 -35.356  17.051  1.00  0.00     0.000 C 
BRANCH  17  18
ATOM     18  C   UNL     1       3.074 -34.939  16.183  1.00  0.00     0.000 C 
BRANCH  18  19
ATOM     19  C   UNL     1       1.929 -35.966  16.228  1.00  0.00     0.000 C 
BRANCH  19  20
ATOM     20  C   UNL     1       2.084 -37.071  15.168  1.00  0.00     0.006 C 
BRANCH  20  21
ATOM     21  C   UNL     1       3.239 -38.026  15.494  1.00  0.00     0.053 C 
BRANCH  21  22
ATOM     22  C   UNL     1       4.243 -38.087  14.383  1.00  0.00     0.041 C 
ATOM     23  O   UNL     1       4.612 -39.198  13.922  1.00  0.00    -0.550 OA
ATOM     24  O   UNL     1       4.789 -36.914  13.875  1.00  0.00    -0.550 OA
ENDBRANCH  21  22
ENDBRANCH  20  21
ENDBRANCH  19  20
ENDBRANCH  18  19
ENDBRANCH  17  18
ENDBRANCH  16  17
ENDBRANCH  15  16
ENDBRANCH  14  15
ENDBRANCH  13  14
ENDBRANCH   1  13
TORSDOF 20
ENDMDL
MODEL 3
REMARK VINA RESULT:     0.667      2.102      5.867
REMARK INTER + INTRA:           0.525
REMARK INTER:                   0.789
REMARK INTRA:                  -0.264
REMARK UNBOUND:                -0.921
REMARK SMILES CCCCCCCCCCCCCCCCCCCCCC(=O)[O-]
REMARK SMILES IDX 12 1 11 2 10 3 9 4 8 5 7 6 6 7 5 8 4 9 3 10 2 11 1 12 13 13
REMARK SMILES IDX 14 14 15 15 16 16 17 17 18 18 19 19 20 20 21 21 22 22 23 23
REMARK SMILES IDX 24 24
REMARK H PARENT
REMARK Flexibility Score: inf
ROOT
ATOM      1  C   UNL     1       4.795 -35.036  22.547  1.00  0.00     0.000 C 
ENDROOT
BRANCH   1   2
ATOM      2  C   UNL     1       5.729 -35.940  21.726  1.00  0.00     0.000 C 
BRANCH   2   3
ATOM      3  C   UNL     1       5.898 -35.455  20.278  1.00  0.00     0.000 C 
BRANCH   3   4
ATOM      4  C   UNL     1       4.556 -34.991  19.695  1.00  0.00    -0.000 C 
BRANCH   4   5
ATOM      5  C   UNL     1       4.650 -34.614  18.205  1.00  0.00    -0.000 C 
BRANCH   5   6
ATOM      6  C   UNL     1       4.336 -35.761  17.223  1.00  0.00    -0.000 C 
BRANCH   6   7
ATOM      7  C   UNL     1       3.176 -36.687  17.642  1.00  0.00    -0.000 C 
BRANCH   7   8
ATOM      8  C   UNL     1       1.856 -36.465  16.881  1.00  0.00    -0.000 C 
BRANCH   8   9
ATOM      9  C   UNL     1       2.029 -36.534  15.354  1.00  0.00    -0.000 C 
BRANCH   9  10
ATOM     10  C   UNL     1       3.469 -36.874  14.938  1.00  0.00    -0.000 C 
BRANCH  10  11
ATOM     11  C   UNL     1       3.612 -38.307  14.404  1.00  0.00    -0.003 C 
ATOM     12  C   UNL     1       5.022 -38.559  13.878  1.00  0.00     0.004 C 
ENDBRANCH  10  11
ENDBRANCH   9  10
ENDBRANCH   8   9
ENDBRANCH   7   8
ENDBRANCH   6   7
ENDBRANCH   5   6
ENDBRANCH   4   5
ENDBRANCH   3   4
ENDBRANCH   2   3
ENDBRANCH   1   2
BRANCH   1  13
ATOM     13  C   UNL     1       5.565 -34.031  23.423  1.00  0.00     0.000 C 
BRANCH  13  14
ATOM     14  C   UNL     1       6.116 -34.664  24.710  1.00  0.00     0.000 C 
BRANCH  14  15
ATOM     15  C   UNL     1       6.064 -36.201  24.681  1.00  0.00     0.000 C 
BRANCH  15  16
ATOM     16  C   UNL     1       4.909 -36.779  25.521  1.00  0.00     0.000 C 
BRANCH  16  17
ATOM     17  C   UNL     1       4.711 -38.302  25.406  1.00  0.00     0.000 C 
BRANCH  17  18
ATOM     18  C   UNL     1       5.778 -38.980  24.528  1.00  0.00     0.000 C 
BRANCH  18  19
ATOM     19  C   UNL     1       5.329 -40.360  24.016  1.00  0.00     0.000 C 
BRANCH  19  20
ATOM     20  C   UNL     1       5.682 -40.584  22.535  1.00  0.00     0.006 C 
BRANCH  20  21
ATOM     21  C   UNL     1       5.495 -39.312  21.697  1.00  0.00     0.053 C 
BRANCH  21  22
ATOM     22  C   UNL     1       5.839 -39.540  20.256  1.00  0.00     0.041 C 
ATOM     23  O   UNL     1       5.856 -38.574  19.449  1.00  0.00    -0.550 OA
ATOM     24  O   UNL     1       6.114 -40.823  19.802  1.00  0.00    -0.550 OA
ENDBRANCH  21  22
ENDBRANCH  20  21
ENDBRANCH  19  20
ENDBRANCH  18  19
ENDBRANCH  17  18
ENDBRANCH  16  17
ENDBRANCH  15  16
ENDBRANCH  14  15
ENDBRANCH  13  14
ENDBRANCH   1  13
TORSDOF 20
ENDMDL
MODEL 4
REMARK VINA RESULT:     0.725      1.671      5.202
REMARK INTER + INTRA:           0.651
REMARK INTER:                   1.903
REMARK INTRA:                  -1.252
REMARK UNBOUND:                -0.921
REMARK SMILES CCCCCCCCCCCCCCCCCCCCCC(=O)[O-]
REMARK SMILES IDX 12 1 11 2 10 3 9 4 8 5 7 6 6 7 5 8 4 9 3 10 2 11 1 12 13 13
REMARK SMILES IDX 14 14 15 15 16 16 17 17 18 18 19 19 20 20 21 21 22 22 23 23
REMARK SMILES IDX 24 24
REMARK H PARENT
REMARK Flexibility Score: inf
ROOT
ATOM      1  C   UNL     1       5.888 -34.420  23.483  1.00  0.00     0.000 C 
ENDROOT
BRANCH   1   2
ATOM      2  C   UNL     1       4.481 -34.430  22.863  1.00  0.00     0.000 C 
BRANCH   2   3
ATOM      3  C   UNL     1       4.511 -34.543  21.332  1.00  0.00     0.000 C 
BRANCH   3   4
ATOM      4  C   UNL     1       5.862 -35.088  20.849  1.00  0.00    -0.000 C 
BRANCH   4   5
ATOM      5  C   UNL     1       6.125 -34.799  19.359  1.00  0.00    -0.000 C 
BRANCH   5   6
ATOM      6  C   UNL     1       4.882 -34.381  18.548  1.00  0.00    -0.000 C 
BRANCH   6   7
ATOM      7  C   UNL     1       4.667 -35.151  17.229  1.00  0.00    -0.000 C 
BRANCH   7   8
ATOM      8  C   UNL     1       3.231 -35.652  16.993  1.00  0.00    -0.000 C 
BRANCH   8   9
ATOM      9  C   UNL     1       3.004 -36.156  15.557  1.00  0.00    -0.000 C 
BRANCH   9  10
ATOM     10  C   UNL     1       3.402 -37.630  15.380  1.00  0.00    -0.000 C 
BRANCH  10  11
ATOM     11  C   UNL     1       4.079 -37.905  14.027  1.00  0.00    -0.003 C 
ATOM     12  C   UNL     1       4.805 -39.247  14.039  1.00  0.00     0.004 C 
ENDBRANCH  10  11
ENDBRANCH   9  10
ENDBRANCH   8   9
ENDBRANCH   7   8
ENDBRANCH   6   7
ENDBRANCH   5   6
ENDBRANCH   4   5
ENDBRANCH   3   4
ENDBRANCH   2   3
ENDBRANCH   1   2
BRANCH   1  13
ATOM     13  C   UNL     1       6.108 -35.581  24.469  1.00  0.00     0.000 C 
BRANCH  13  14
ATOM     14  C   UNL     1       6.068 -36.957  23.786  1.00  0.00     0.000 C 
BRANCH  14  15
ATOM     15  C   UNL     1       5.963 -38.114  24.794  1.00  0.00     0.000 C 
BRANCH  15  16
ATOM     16  C   UNL     1       4.702 -38.975  24.592  1.00  0.00     0.000 C 
BRANCH  16  17
ATOM     17  C   UNL     1       4.496 -39.515  23.164  1.00  0.00     0.000 C 
BRANCH  17  18
ATOM     18  C   UNL     1       5.819 -39.866  22.461  1.00  0.00     0.000 C 
BRANCH  18  19
ATOM     19  C   UNL     1       5.792 -39.538  20.958  1.00  0.00     0.000 C 
BRANCH  19  20
ATOM     20  C   UNL     1       5.314 -38.103  20.674  1.00  0.00     0.006 C 
BRANCH  20  21
ATOM     21  C   UNL     1       4.523 -38.007  19.363  1.00  0.00     0.053 C 
BRANCH  21  22
ATOM     22  C   UNL     1       3.084 -37.663  19.605  1.00  0.00     0.041 C 
ATOM     23  O   UNL     1       2.766 -36.900  20.555  1.00  0.00    -0.550 OA
ATOM     24  O   UNL     1       2.094 -38.208  18.797  1.00  0.00    -0.550 OA
ENDBRANCH  21  22
ENDBRANCH  20  21
ENDBRANCH  19  20
ENDBRANCH  18  19
ENDBRANCH  17  18
ENDBRANCH  16  17
ENDBRANCH  15  16
ENDBRANCH  14  15
ENDBRANCH  13  14
ENDBRANCH   1  13
TORSDOF 20
ENDMDL
MODEL 5
REMARK VINA RESULT:     0.762      2.677      5.071
REMARK INTER + INTRA:           0.731
REMARK INTER:                   2.076
REMARK INTRA:                  -1.345
REMARK UNBOUND:                -0.921
REMARK SMILES CCCCCCCCCCCCCCCCCCCCCC(=O)[O-]
REMARK SMILES IDX 12 1 11 2 10 3 9 4 8 5 7 6 6 7 5 8 4 9 3 10 2 11 1 12 13 13
REMARK SMILES IDX 14 14 15 15 16 16 17 17 18 18 19 19 20 20 21 21 22 22 23 23
REMARK SMILES IDX 24 24
REMARK H PARENT
REMARK Flexibility Score: inf
ROOT
ATOM      1  C   UNL     1       5.729 -35.313  21.283  1.00  0.00     0.000 C 
ENDROOT
BRANCH   1   2
ATOM      2  C   UNL     1       4.826 -34.953  22.475  1.00  0.00     0.000 C 
BRANCH   2   3
ATOM      3  C   UNL     1       5.554 -34.114  23.535  1.00  0.00     0.000 C 
BRANCH   3   4
ATOM      4  C   UNL     1       5.978 -34.983  24.727  1.00  0.00    -0.000 C 
BRANCH   4   5
ATOM      5  C   UNL     1       6.125 -36.471  24.358  1.00  0.00    -0.000 C 
BRANCH   5   6
ATOM      6  C   UNL     1       5.256 -37.437  25.189  1.00  0.00    -0.000 C 
BRANCH   6   7
ATOM      7  C   UNL     1       4.080 -36.782  25.942  1.00  0.00    -0.000 C 
BRANCH   7   8
ATOM      8  C   UNL     1       3.214 -37.749  26.768  1.00  0.00    -0.000 C 
BRANCH   8   9
ATOM      9  C   UNL     1       1.996 -37.062  27.406  1.00  0.00    -0.000 C 
BRANCH   9  10
ATOM     10  C   UNL     1       2.362 -35.747  28.113  1.00  0.00    -0.000 C 
BRANCH  10  11
ATOM     11  C   UNL     1       1.132 -34.989  28.635  1.00  0.00    -0.003 C 
ATOM     12  C   UNL     1       1.474 -34.182  29.885  1.00  0.00     0.004 C 
ENDBRANCH  10  11
ENDBRANCH   9  10
ENDBRANCH   8   9
ENDBRANCH   7   8
ENDBRANCH   6   7
ENDBRANCH   5   6
ENDBRANCH   4   5
ENDBRANCH   3   4
ENDBRANCH   2   3
ENDBRANCH   1   2
BRANCH   1  13
ATOM     13  C   UNL     1       4.958 -35.373  19.953  1.00  0.00     0.000 C 
BRANCH  13  14
ATOM     14  C   UNL     1       5.172 -36.695  19.199  1.00  0.00     0.000 C 
BRANCH  14  15
ATOM     15  C   UNL     1       4.134 -37.765  19.579  1.00  0.00     0.000 C 
BRANCH  15  16
ATOM     16  C   UNL     1       2.722 -37.186  19.785  1.00  0.00     0.000 C 
BRANCH  16  17
ATOM     17  C   UNL     1       1.635 -37.755  18.854  1.00  0.00     0.000 C 
BRANCH  17  18
ATOM     18  C   UNL     1       2.046 -37.732  17.371  1.00  0.00     0.000 C 
BRANCH  18  19
ATOM     19  C   UNL     1       1.650 -36.421  16.670  1.00  0.00     0.000 C 
BRANCH  19  20
ATOM     20  C   UNL     1       2.697 -35.960  15.641  1.00  0.00     0.006 C 
BRANCH  20  21
ATOM     21  C   UNL     1       2.669 -36.815  14.367  1.00  0.00     0.053 C 
BRANCH  21  22
ATOM     22  C   UNL     1       3.977 -37.510  14.135  1.00  0.00     0.041 C 
ATOM     23  O   UNL     1       4.045 -38.765  14.184  1.00  0.00    -0.550 OA
ATOM     24  O   UNL     1       5.125 -36.766  13.891  1.00  0.00    -0.550 OA
ENDBRANCH  21  22
ENDBRANCH  20  21
ENDBRANCH  19  20
ENDBRANCH  18  19
ENDBRANCH  17  18
ENDBRANCH  16  17
ENDBRANCH  15  16
ENDBRANCH  14  15
ENDBRANCH  13  14
ENDBRANCH   1  13
TORSDOF 20
ENDMDL
MODEL 6
REMARK VINA RESULT:     1.189      3.362      7.460
REMARK INTER + INTRA:           1.659
REMARK INTER:                   1.949
REMARK INTRA:                  -0.290
REMARK UNBOUND:                -0.921
REMARK SMILES CCCCCCCCCCCCCCCCCCCCCC(=O)[O-]
REMARK SMILES IDX 12 1 11 2 10 3 9 4 8 5 7 6 6 7 5 8 4 9 3 10 2 11 1 12 13 13
REMARK SMILES IDX 14 14 15 15 16 16 17 17 18 18 19 19 20 20 21 21 22 22 23 23
REMARK SMILES IDX 24 24
REMARK H PARENT
REMARK Flexibility Score: inf
ROOT
ATOM      1  C   UNL     1       0.913 -37.636  17.916  1.00  0.00     0.000 C 
ENDROOT
BRANCH   1   2
ATOM      2  C   UNL     1       1.451 -36.402  17.172  1.00  0.00     0.000 C 
BRANCH   2   3
ATOM      3  C   UNL     1       2.416 -36.771  16.037  1.00  0.00     0.000 C 
BRANCH   3   4
ATOM      4  C   UNL     1       3.840 -36.291  16.350  1.00  0.00    -0.000 C 
BRANCH   4   5
ATOM      5  C   UNL     1       3.900 -35.354  17.571  1.00  0.00    -0.000 C 
BRANCH   5   6
ATOM      6  C   UNL     1       5.115 -34.406  17.604  1.00  0.00    -0.000 C 
BRANCH   6   7
ATOM      7  C   UNL     1       6.032 -34.555  18.835  1.00  0.00    -0.000 C 
BRANCH   7   8
ATOM      8  C   UNL     1       5.392 -35.258  20.045  1.00  0.00    -0.000 C 
BRANCH   8   9
ATOM      9  C   UNL     1       6.052 -34.869  21.379  1.00  0.00    -0.000 C 
BRANCH   9  10
ATOM     10  C   UNL     1       5.191 -35.245  22.595  1.00  0.00    -0.000 C 
BRANCH  10  11
ATOM     11  C   UNL     1       5.967 -36.054  23.646  1.00  0.00    -0.003 C 
ATOM     12  C   UNL     1       5.242 -36.048  24.989  1.00  0.00     0.004 C 
ENDBRANCH  10  11
ENDBRANCH   9  10
ENDBRANCH   8   9
ENDBRANCH   7   8
ENDBRANCH   6   7
ENDBRANCH   5   6
ENDBRANCH   4   5
ENDBRANCH   3   4
ENDBRANCH   2   3
ENDBRANCH   1   2
BRANCH   1  13
ATOM     13  C   UNL     1       1.280 -37.632  19.411  1.00  0.00     0.000 C 
BRANCH  13  14
ATOM     14  C   UNL     1       2.761 -37.303  19.658  1.00  0.00     0.000 C 
BRANCH  14  15
ATOM     15  C   UNL     1       3.479 -38.391  20.474  1.00  0.00     0.000 C 
BRANCH  15  16
ATOM     16  C   UNL     1       4.903 -38.683  19.965  1.00  0.00     0.000 C 
BRANCH  16  17
ATOM     17  C   UNL     1       6.022 -38.515  21.009  1.00  0.00     0.000 C 
BRANCH  17  18
ATOM     18  C   UNL     1       5.641 -39.076  22.391  1.00  0.00     0.000 C 
BRANCH  18  19
ATOM     19  C   UNL     1       5.047 -40.493  22.309  1.00  0.00     0.000 C 
BRANCH  19  20
ATOM     20  C   UNL     1       6.125 -41.575  22.121  1.00  0.00     0.006 C 
BRANCH  20  21
ATOM     21  C   UNL     1       5.976 -42.721  23.130  1.00  0.00     0.053 C 
BRANCH  21  22
ATOM     22  C   UNL     1       5.763 -42.211  24.523  1.00  0.00     0.041 C 
ATOM     23  O   UNL     1       5.585 -43.017  25.473  1.00  0.00    -0.550 OA
ATOM     24  O   UNL     1       5.735 -40.843  24.766  1.00  0.00    -0.550 OA
ENDBRANCH  21  22
ENDBRANCH  20  21
ENDBRANCH  19  20
ENDBRANCH  18  19
ENDBRANCH  17  18
ENDBRANCH  16  17
ENDBRANCH  15  16
ENDBRANCH  14  15
ENDBRANCH  13  14
ENDBRANCH   1  13
TORSDOF 20
ENDMDL
MODEL 7
REMARK VINA RESULT:     1.286      1.893      5.544
REMARK INTER + INTRA:           1.869
REMARK INTER:                   3.367
REMARK INTRA:                  -1.498
REMARK UNBOUND:                -0.921
REMARK SMILES CCCCCCCCCCCCCCCCCCCCCC(=O)[O-]
REMARK SMILES IDX 12 1 11 2 10 3 9 4 8 5 7 6 6 7 5 8 4 9 3 10 2 11 1 12 13 13
REMARK SMILES IDX 14 14 15 15 16 16 17 17 18 18 19 19 20 20 21 21 22 22 23 23
REMARK SMILES IDX 24 24
REMARK H PARENT
REMARK Flexibility Score: inf
ROOT
ATOM      1  C   UNL     1       5.021 -35.285  22.016  1.00  0.00     0.000 C 
ENDROOT
BRANCH   1   2
ATOM      2  C   UNL     1       6.080 -35.737  20.997  1.00  0.00     0.000 C 
BRANCH   2   3
ATOM      3  C   UNL     1       6.123 -34.840  19.751  1.00  0.00     0.000 C 
BRANCH   3   4
ATOM      4  C   UNL     1       4.705 -34.470  19.293  1.00  0.00    -0.000 C 
BRANCH   4   5
ATOM      5  C   UNL     1       4.570 -34.405  17.761  1.00  0.00    -0.000 C 
BRANCH   5   6
ATOM      6  C   UNL     1       4.306 -35.760  17.073  1.00  0.00    -0.000 C 
BRANCH   6   7
ATOM      7  C   UNL     1       3.089 -35.792  16.127  1.00  0.00    -0.000 C 
BRANCH   7   8
ATOM      8  C   UNL     1       2.272 -37.096  16.158  1.00  0.00    -0.000 C 
BRANCH   8   9
ATOM      9  C   UNL     1       2.448 -37.878  17.471  1.00  0.00    -0.000 C 
BRANCH   9  10
ATOM     10  C   UNL     1       1.266 -37.688  18.434  1.00  0.00    -0.000 C 
BRANCH  10  11
ATOM     11  C   UNL     1       1.711 -37.296  19.852  1.00  0.00    -0.003 C 
ATOM     12  C   UNL     1       0.508 -36.985  20.739  1.00  0.00     0.004 C 
ENDBRANCH  10  11
ENDBRANCH   9  10
ENDBRANCH   8   9
ENDBRANCH   7   8
ENDBRANCH   6   7
ENDBRANCH   5   6
ENDBRANCH   4   5
ENDBRANCH   3   4
ENDBRANCH   2   3
ENDBRANCH   1   2
BRANCH   1  13
ATOM     13  C   UNL     1       5.407 -33.977  22.729  1.00  0.00     0.000 C 
BRANCH  13  14
ATOM     14  C   UNL     1       5.948 -34.212  24.149  1.00  0.00     0.000 C 
BRANCH  14  15
ATOM     15  C   UNL     1       6.117 -35.705  24.477  1.00  0.00     0.000 C 
BRANCH  15  16
ATOM     16  C   UNL     1       5.108 -36.207  25.526  1.00  0.00     0.000 C 
BRANCH  16  17
ATOM     17  C   UNL     1       4.973 -37.737  25.630  1.00  0.00     0.000 C 
BRANCH  17  18
ATOM     18  C   UNL     1       5.661 -38.479  24.470  1.00  0.00     0.000 C 
BRANCH  18  19
ATOM     19  C   UNL     1       4.974 -39.813  24.133  1.00  0.00     0.000 C 
BRANCH  19  20
ATOM     20  C   UNL     1       5.323 -40.318  22.721  1.00  0.00     0.006 C 
BRANCH  20  21
ATOM     21  C   UNL     1       6.105 -39.276  21.911  1.00  0.00     0.053 C 
BRANCH  21  22
ATOM     22  C   UNL     1       5.348 -38.834  20.695  1.00  0.00     0.041 C 
ATOM     23  O   UNL     1       4.130 -38.531  20.782  1.00  0.00    -0.550 OA
ATOM     24  O   UNL     1       5.984 -38.785  19.461  1.00  0.00    -0.550 OA
ENDBRANCH  21  22
ENDBRANCH  20  21
ENDBRANCH  19  20
ENDBRANCH  18  19
ENDBRANCH  17  18
ENDBRANCH  16  17
ENDBRANCH  15  16
ENDBRANCH  14  15
ENDBRANCH  13  14
ENDBRANCH   1  13
TORSDOF 20
ENDMDL
