MODEL 1
REMARK VINA RESULT:    -3.113      0.000      0.000
REMARK INTER + INTRA:          -8.897
REMARK INTER:                  -5.842
REMARK INTRA:                  -3.054
REMARK UNBOUND:                -3.054
REMARK SMILES CCCCCCCCC=CCCCCCCCC(=O)[O-]
REMARK SMILES IDX 10 1 9 2 11 3 12 4 13 5 14 6 15 7 16 8 17 9 18 10 19 11
REMARK SMILES IDX 20 12 8 13 7 14 6 15 5 16 4 17 3 18 2 19 1 20
REMARK H PARENT
REMARK Flexibility Score: inf
ROOT
ATOM      1  C   UNL     1     112.721  53.526 231.131  1.00  0.00    -0.031 C 
ATOM      2  C   UNL     1     112.900  52.734 232.207  1.00  0.00    -0.031 C 
ENDROOT
BRANCH   1   3
ATOM      3  C   UNL     1     113.514  54.771 230.821  1.00  0.00     0.027 C 
BRANCH   3   4
ATOM      4  C   UNL     1     112.635  56.029 230.890  1.00  0.00     0.004 C 
BRANCH   4   5
ATOM      5  C   UNL     1     111.386  55.927 230.002  1.00  0.00     0.000 C 
BRANCH   5   6
ATOM      6  C   UNL     1     111.490  56.793 228.734  1.00  0.00     0.000 C 
BRANCH   6   7
ATOM      7  C   UNL     1     111.473  55.957 227.443  1.00  0.00     0.000 C 
BRANCH   7   8
ATOM      8  C   UNL     1     112.791  55.205 227.204  1.00  0.00     0.006 C 
BRANCH   8   9
ATOM      9  C   UNL     1     112.543  53.702 227.052  1.00  0.00     0.053 C 
BRANCH   9  10
ATOM     10  C   UNL     1     111.781  53.420 225.795  1.00  0.00     0.041 C 
ATOM     11  O   UNL     1     110.695  52.785 225.842  1.00  0.00    -0.550 OA
ATOM     12  O   UNL     1     112.292  53.820 224.567  1.00  0.00    -0.550 OA
ENDBRANCH   9  10
ENDBRANCH   8   9
ENDBRANCH   7   8
ENDBRANCH   6   7
ENDBRANCH   5   6
ENDBRANCH   4   5
ENDBRANCH   3   4
ENDBRANCH   1   3
BRANCH   2  13
ATOM     13  C   UNL     1     113.905  52.968 233.311  1.00  0.00     0.027 C 
BRANCH  13  14
ATOM     14  C   UNL     1     113.268  53.644 234.537  1.00  0.00     0.004 C 
BRANCH  14  15
ATOM     15  C   UNL     1     113.481  55.168 234.618  1.00  0.00     0.000 C 
BRANCH  15  16
ATOM     16  C   UNL     1     112.164  55.958 234.634  1.00  0.00     0.000 C 
BRANCH  16  17
ATOM     17  C   UNL     1     110.958  55.016 234.540  1.00  0.00    -0.000 C 
BRANCH  17  18
ATOM     18  C   UNL     1     109.997  55.460 233.431  1.00  0.00    -0.000 C 
BRANCH  18  19
ATOM     19  C   UNL     1     109.410  54.250 232.695  1.00  0.00    -0.003 C 
ATOM     20  C   UNL     1     109.541  52.980 233.529  1.00  0.00     0.004 C 
ENDBRANCH  18  19
ENDBRANCH  17  18
ENDBRANCH  16  17
ENDBRANCH  15  16
ENDBRANCH  14  15
ENDBRANCH  13  14
ENDBRANCH   2  13
TORSDOF 15
ENDMDL
MODEL 2
REMARK VINA RESULT:    -3.069      1.570      2.425
REMARK INTER + INTRA:          -8.815
REMARK INTER:                  -6.927
REMARK INTRA:                  -1.888
REMARK UNBOUND:                -3.054
REMARK SMILES CCCCCCCCC=CCCCCCCCC(=O)[O-]
REMARK SMILES IDX 10 1 9 2 11 3 12 4 13 5 14 6 15 7 16 8 17 9 18 10 19 11
REMARK SMILES IDX 20 12 8 13 7 14 6 15 5 16 4 17 3 18 2 19 1 20
REMARK H PARENT
REMARK Flexibility Score: inf
ROOT
ATOM      1  C   UNL     1     112.634  53.656 230.925  1.00  0.00    -0.031 C 
ATOM      2  C   UNL     1     112.917  52.897 232.003  1.00  0.00    -0.031 C 
ENDROOT
BRANCH   1   3
ATOM      3  C   UNL     1     113.430  54.852 230.466  1.00  0.00     0.027 C 
BRANCH   3   4
ATOM      4  C   UNL     1     113.404  54.993 228.937  1.00  0.00     0.004 C 
BRANCH   4   5
ATOM      5  C   UNL     1     112.737  53.794 228.244  1.00  0.00     0.000 C 
BRANCH   5   6
ATOM      6  C   UNL     1     113.437  53.408 226.929  1.00  0.00     0.000 C 
BRANCH   6   7
ATOM      7  C   UNL     1     112.481  53.418 225.725  1.00  0.00     0.000 C 
BRANCH   7   8
ATOM      8  C   UNL     1     111.058  53.861 226.100  1.00  0.00     0.006 C 
BRANCH   8   9
ATOM      9  C   UNL     1     110.149  53.880 224.867  1.00  0.00     0.053 C 
BRANCH   9  10
ATOM     10  C   UNL     1     109.612  52.511 224.590  1.00  0.00     0.041 C 
ATOM     11  O   UNL     1     109.372  52.152 223.407  1.00  0.00    -0.550 OA
ATOM     12  O   UNL     1     109.336  51.647 225.641  1.00  0.00    -0.550 OA
ENDBRANCH   9  10
ENDBRANCH   8   9
ENDBRANCH   7   8
ENDBRANCH   6   7
ENDBRANCH   5   6
ENDBRANCH   4   5
ENDBRANCH   3   4
ENDBRANCH   1   3
BRANCH   2  13
ATOM     13  C   UNL     1     114.062  53.126 232.961  1.00  0.00     0.027 C 
BRANCH  13  14
ATOM     14  C   UNL     1     113.569  53.437 234.385  1.00  0.00     0.004 C 
BRANCH  14  15
ATOM     15  C   UNL     1     112.769  54.746 234.520  1.00  0.00     0.000 C 
BRANCH  15  16
ATOM     16  C   UNL     1     111.374  54.537 235.125  1.00  0.00     0.000 C 
BRANCH  16  17
ATOM     17  C   UNL     1     110.350  55.480 234.480  1.00  0.00    -0.000 C 
BRANCH  17  18
ATOM     18  C   UNL     1     110.075  55.082 233.025  1.00  0.00    -0.000 C 
BRANCH  18  19
ATOM     19  C   UNL     1     110.337  56.258 232.076  1.00  0.00    -0.003 C 
ATOM     20  C   UNL     1     109.731  56.001 230.700  1.00  0.00     0.004 C 
ENDBRANCH  18  19
ENDBRANCH  17  18
ENDBRANCH  16  17
ENDBRANCH  15  16
ENDBRANCH  14  15
ENDBRANCH  13  14
ENDBRANCH   2  13
TORSDOF 15
ENDMDL
MODEL 3
REMARK VINA RESULT:    -2.893      1.700      4.000
REMARK INTER + INTRA:          -8.485
REMARK INTER:                  -6.269
REMARK INTRA:                  -2.216
REMARK UNBOUND:                -3.054
REMARK SMILES CCCCCCCCC=CCCCCCCCC(=O)[O-]
REMARK SMILES IDX 10 1 9 2 11 3 12 4 13 5 14 6 15 7 16 8 17 9 18 10 19 11
REMARK SMILES IDX 20 12 8 13 7 14 6 15 5 16 4 17 3 18 2 19 1 20
REMARK H PARENT
REMARK Flexibility Score: inf
ROOT
ATOM      1  C   UNL     1     112.505  52.903 231.917  1.00  0.00    -0.031 C 
ATOM      2  C   UNL     1     111.312  52.751 232.525  1.00  0.00    -0.031 C 
ENDROOT
BRANCH   1   3
ATOM      3  C   UNL     1     113.314  54.175 231.887  1.00  0.00     0.027 C 
BRANCH   3   4
ATOM      4  C   UNL     1     113.347  54.789 230.478  1.00  0.00     0.004 C 
BRANCH   4   5
ATOM      5  C   UNL     1     112.934  53.787 229.388  1.00  0.00     0.000 C 
BRANCH   5   6
ATOM      6  C   UNL     1     113.046  54.377 227.971  1.00  0.00     0.000 C 
BRANCH   6   7
ATOM      7  C   UNL     1     113.289  53.302 226.900  1.00  0.00     0.000 C 
BRANCH   7   8
ATOM      8  C   UNL     1     112.385  53.473 225.669  1.00  0.00     0.006 C 
BRANCH   8   9
ATOM      9  C   UNL     1     110.911  53.540 226.079  1.00  0.00     0.053 C 
BRANCH   9  10
ATOM     10  C   UNL     1     110.058  52.809 225.091  1.00  0.00     0.041 C 
ATOM     11  O   UNL     1     109.869  53.286 223.941  1.00  0.00    -0.550 OA
ATOM     12  O   UNL     1     109.434  51.622 225.454  1.00  0.00    -0.550 OA
ENDBRANCH   9  10
ENDBRANCH   8   9
ENDBRANCH   7   8
ENDBRANCH   6   7
ENDBRANCH   5   6
ENDBRANCH   4   5
ENDBRANCH   3   4
ENDBRANCH   1   3
BRANCH   2  13
ATOM     13  C   UNL     1     110.558  53.835 233.260  1.00  0.00     0.027 C 
BRANCH  13  14
ATOM     14  C   UNL     1     109.601  54.602 232.332  1.00  0.00     0.004 C 
BRANCH  14  15
ATOM     15  C   UNL     1     110.112  55.982 231.876  1.00  0.00     0.000 C 
BRANCH  15  16
ATOM     16  C   UNL     1     109.401  56.499 230.616  1.00  0.00     0.000 C 
BRANCH  16  17
ATOM     17  C   UNL     1     110.417  56.926 229.550  1.00  0.00    -0.000 C 
BRANCH  17  18
ATOM     18  C   UNL     1     109.917  56.577 228.143  1.00  0.00    -0.000 C 
BRANCH  18  19
ATOM     19  C   UNL     1     110.830  57.183 227.070  1.00  0.00    -0.003 C 
ATOM     20  C   UNL     1     110.152  57.181 225.704  1.00  0.00     0.004 C 
ENDBRANCH  18  19
ENDBRANCH  17  18
ENDBRANCH  16  17
ENDBRANCH  15  16
ENDBRANCH  14  15
ENDBRANCH  13  14
ENDBRANCH   2  13
TORSDOF 15
ENDMDL
MODEL 4
REMARK VINA RESULT:    -2.871      3.142      7.176
REMARK INTER + INTRA:          -8.442
REMARK INTER:                  -7.281
REMARK INTRA:                  -1.161
REMARK UNBOUND:                -3.054
REMARK SMILES CCCCCCCCC=CCCCCCCCC(=O)[O-]
REMARK SMILES IDX 10 1 9 2 11 3 12 4 13 5 14 6 15 7 16 8 17 9 18 10 19 11
REMARK SMILES IDX 20 12 8 13 7 14 6 15 5 16 4 17 3 18 2 19 1 20
REMARK H PARENT
REMARK Flexibility Score: inf
ROOT
ATOM      1  C   UNL     1     113.182  54.649 230.456  1.00  0.00    -0.031 C 
ATOM      2  C   UNL     1     113.361  54.615 229.121  1.00  0.00    -0.031 C 
ENDROOT
BRANCH   1   3
ATOM      3  C   UNL     1     112.618  53.526 231.291  1.00  0.00     0.027 C 
BRANCH   3   4
ATOM      4  C   UNL     1     113.508  53.228 232.507  1.00  0.00     0.004 C 
BRANCH   4   5
ATOM      5  C   UNL     1     112.726  53.246 233.830  1.00  0.00     0.000 C 
BRANCH   5   6
ATOM      6  C   UNL     1     111.422  54.058 233.734  1.00  0.00     0.000 C 
BRANCH   6   7
ATOM      7  C   UNL     1     110.187  53.248 234.161  1.00  0.00     0.000 C 
BRANCH   7   8
ATOM      8  C   UNL     1     109.383  52.716 232.965  1.00  0.00     0.006 C 
BRANCH   8   9
ATOM      9  C   UNL     1     109.940  51.373 232.486  1.00  0.00     0.053 C 
BRANCH   9  10
ATOM     10  C   UNL     1     108.857  50.341 232.439  1.00  0.00     0.041 C 
ATOM     11  O   UNL     1     109.147  49.123 232.311  1.00  0.00    -0.550 OA
ATOM     12  O   UNL     1     107.525  50.730 232.491  1.00  0.00    -0.550 OA
ENDBRANCH   9  10
ENDBRANCH   8   9
ENDBRANCH   7   8
ENDBRANCH   6   7
ENDBRANCH   5   6
ENDBRANCH   4   5
ENDBRANCH   3   4
ENDBRANCH   1   3
BRANCH   2  13
ATOM     13  C   UNL     1     113.003  53.458 228.217  1.00  0.00     0.027 C 
BRANCH  13  14
ATOM     14  C   UNL     1     113.514  53.669 226.781  1.00  0.00     0.004 C 
BRANCH  14  15
ATOM     15  C   UNL     1     112.510  54.353 225.833  1.00  0.00     0.000 C 
BRANCH  15  16
ATOM     16  C   UNL     1     111.054  53.952 226.110  1.00  0.00     0.000 C 
BRANCH  16  17
ATOM     17  C   UNL     1     110.453  53.208 224.911  1.00  0.00    -0.000 C 
BRANCH  17  18
ATOM     18  C   UNL     1     109.270  52.334 225.343  1.00  0.00    -0.000 C 
BRANCH  18  19
ATOM     19  C   UNL     1     108.034  52.616 224.480  1.00  0.00    -0.003 C 
ATOM     20  C   UNL     1     108.046  54.046 223.951  1.00  0.00     0.004 C 
ENDBRANCH  18  19
ENDBRANCH  17  18
ENDBRANCH  16  17
ENDBRANCH  15  16
ENDBRANCH  14  15
ENDBRANCH  13  14
ENDBRANCH   2  13
TORSDOF 15
ENDMDL
MODEL 5
REMARK VINA RESULT:    -2.816      1.864      2.907
REMARK INTER + INTRA:          -8.339
REMARK INTER:                  -6.652
REMARK INTRA:                  -1.688
REMARK UNBOUND:                -3.054
REMARK SMILES CCCCCCCCC=CCCCCCCCC(=O)[O-]
REMARK SMILES IDX 10 1 9 2 11 3 12 4 13 5 14 6 15 7 16 8 17 9 18 10 19 11
REMARK SMILES IDX 20 12 8 13 7 14 6 15 5 16 4 17 3 18 2 19 1 20
REMARK H PARENT
REMARK Flexibility Score: inf
ROOT
ATOM      1  C   UNL     1     112.600  53.568 231.016  1.00  0.00    -0.031 C 
ATOM      2  C   UNL     1     112.982  52.826 232.074  1.00  0.00    -0.031 C 
ENDROOT
BRANCH   1   3
ATOM      3  C   UNL     1     113.263  54.844 230.558  1.00  0.00     0.027 C 
BRANCH   3   4
ATOM      4  C   UNL     1     113.547  54.820 229.048  1.00  0.00     0.004 C 
BRANCH   4   5
ATOM      5  C   UNL     1     112.927  53.599 228.350  1.00  0.00     0.000 C 
BRANCH   5   6
ATOM      6  C   UNL     1     113.545  53.333 226.967  1.00  0.00     0.000 C 
BRANCH   6   7
ATOM      7  C   UNL     1     112.618  53.750 225.814  1.00  0.00     0.000 C 
BRANCH   7   8
ATOM      8  C   UNL     1     111.131  53.537 226.140  1.00  0.00     0.006 C 
BRANCH   8   9
ATOM      9  C   UNL     1     110.277  53.613 224.871  1.00  0.00     0.053 C 
BRANCH   9  10
ATOM     10  C   UNL     1     109.573  52.314 224.634  1.00  0.00     0.041 C 
ATOM     11  O   UNL     1     109.267  51.573 225.605  1.00  0.00    -0.550 OA
ATOM     12  O   UNL     1     109.293  51.901 223.338  1.00  0.00    -0.550 OA
ENDBRANCH   9  10
ENDBRANCH   8   9
ENDBRANCH   7   8
ENDBRANCH   6   7
ENDBRANCH   5   6
ENDBRANCH   4   5
ENDBRANCH   3   4
ENDBRANCH   1   3
BRANCH   2  13
ATOM     13  C   UNL     1     114.124  53.154 233.009  1.00  0.00     0.027 C 
BRANCH  13  14
ATOM     14  C   UNL     1     113.666  54.012 234.200  1.00  0.00     0.004 C 
BRANCH  14  15
ATOM     15  C   UNL     1     112.296  53.622 234.787  1.00  0.00     0.000 C 
BRANCH  15  16
ATOM     16  C   UNL     1     111.330  54.811 234.897  1.00  0.00     0.000 C 
BRANCH  16  17
ATOM     17  C   UNL     1     111.585  55.830 233.780  1.00  0.00    -0.000 C 
BRANCH  17  18
ATOM     18  C   UNL     1     111.468  57.265 234.307  1.00  0.00    -0.000 C 
BRANCH  18  19
ATOM     19  C   UNL     1     112.846  57.831 234.670  1.00  0.00    -0.003 C 
ATOM     20  C   UNL     1     113.852  57.594 233.548  1.00  0.00     0.004 C 
ENDBRANCH  18  19
ENDBRANCH  17  18
ENDBRANCH  16  17
ENDBRANCH  15  16
ENDBRANCH  14  15
ENDBRANCH  13  14
ENDBRANCH   2  13
TORSDOF 15
ENDMDL
MODEL 6
REMARK VINA RESULT:    -2.772      2.979      7.342
REMARK INTER + INTRA:          -8.258
REMARK INTER:                  -6.791
REMARK INTRA:                  -1.467
REMARK UNBOUND:                -3.054
REMARK SMILES CCCCCCCCC=CCCCCCCCC(=O)[O-]
REMARK SMILES IDX 10 1 9 2 11 3 12 4 13 5 14 6 15 7 16 8 17 9 18 10 19 11
REMARK SMILES IDX 20 12 8 13 7 14 6 15 5 16 4 17 3 18 2 19 1 20
REMARK H PARENT
REMARK Flexibility Score: inf
ROOT
ATOM      1  C   UNL     1     112.926  54.524 230.608  1.00  0.00    -0.031 C 
ATOM      2  C   UNL     1     113.177  54.607 229.286  1.00  0.00    -0.031 C 
ENDROOT
BRANCH   1   3
ATOM      3  C   UNL     1     112.384  53.310 231.320  1.00  0.00     0.027 C 
BRANCH   3   4
ATOM      4  C   UNL     1     113.364  52.798 232.387  1.00  0.00     0.004 C 
BRANCH   4   5
ATOM      5  C   UNL     1     114.014  53.938 233.187  1.00  0.00     0.000 C 
BRANCH   5   6
ATOM      6  C   UNL     1     113.458  54.047 234.618  1.00  0.00     0.000 C 
BRANCH   6   7
ATOM      7  C   UNL     1     112.635  55.327 234.837  1.00  0.00     0.000 C 
BRANCH   7   8
ATOM      8  C   UNL     1     111.184  55.193 234.350  1.00  0.00     0.006 C 
BRANCH   8   9
ATOM      9  C   UNL     1     110.619  53.812 234.692  1.00  0.00     0.053 C 
BRANCH   9  10
ATOM     10  C   UNL     1     109.514  53.448 233.749  1.00  0.00     0.041 C 
ATOM     11  O   UNL     1     108.876  52.374 233.905  1.00  0.00    -0.550 OA
ATOM     12  O   UNL     1     109.220  54.275 232.672  1.00  0.00    -0.550 OA
ENDBRANCH   9  10
ENDBRANCH   8   9
ENDBRANCH   7   8
ENDBRANCH   6   7
ENDBRANCH   5   6
ENDBRANCH   4   5
ENDBRANCH   3   4
ENDBRANCH   1   3
BRANCH   2  13
ATOM     13  C   UNL     1     112.932  53.509 228.276  1.00  0.00     0.027 C 
BRANCH  13  14
ATOM     14  C   UNL     1     112.697  54.069 226.863  1.00  0.00     0.004 C 
BRANCH  14  15
ATOM     15  C   UNL     1     111.574  55.119 226.762  1.00  0.00     0.000 C 
BRANCH  15  16
ATOM     16  C   UNL     1     110.319  54.589 226.053  1.00  0.00     0.000 C 
BRANCH  16  17
ATOM     17  C   UNL     1     110.594  53.232 225.393  1.00  0.00    -0.000 C 
BRANCH  17  18
ATOM     18  C   UNL     1     109.290  52.459 225.161  1.00  0.00    -0.000 C 
BRANCH  18  19
ATOM     19  C   UNL     1     109.278  51.806 223.773  1.00  0.00    -0.003 C 
ATOM     20  C   UNL     1     108.236  52.454 222.868  1.00  0.00     0.004 C 
ENDBRANCH  18  19
ENDBRANCH  17  18
ENDBRANCH  16  17
ENDBRANCH  15  16
ENDBRANCH  14  15
ENDBRANCH  13  14
ENDBRANCH   2  13
TORSDOF 15
ENDMDL
MODEL 7
REMARK VINA RESULT:    -2.761     15.670     17.826
REMARK INTER + INTRA:          -8.237
REMARK INTER:                  -5.767
REMARK INTRA:                  -2.470
REMARK UNBOUND:                -3.054
REMARK SMILES CCCCCCCCC=CCCCCCCCC(=O)[O-]
REMARK SMILES IDX 10 1 9 2 11 3 12 4 13 5 14 6 15 7 16 8 17 9 18 10 19 11
REMARK SMILES IDX 20 12 8 13 7 14 6 15 5 16 4 17 3 18 2 19 1 20
REMARK H PARENT
REMARK Flexibility Score: inf
ROOT
ATOM      1  C   UNL     1      98.277  56.232 224.223  1.00  0.00    -0.031 C 
ATOM      2  C   UNL     1      97.261  56.540 225.054  1.00  0.00    -0.031 C 
ENDROOT
BRANCH   1   3
ATOM      3  C   UNL     1      98.511  56.846 222.865  1.00  0.00     0.027 C 
BRANCH   3   4
ATOM      4  C   UNL     1      97.724  56.107 221.771  1.00  0.00     0.004 C 
BRANCH   4   5
ATOM      5  C   UNL     1      96.743  57.026 221.027  1.00  0.00     0.000 C 
BRANCH   5   6
ATOM      6  C   UNL     1      96.735  56.775 219.508  1.00  0.00     0.000 C 
BRANCH   6   7
ATOM      7  C   UNL     1      98.149  56.756 218.905  1.00  0.00     0.000 C 
BRANCH   7   8
ATOM      8  C   UNL     1      98.815  58.141 218.907  1.00  0.00     0.006 C 
BRANCH   8   9
ATOM      9  C   UNL     1     100.315  58.025 219.193  1.00  0.00     0.053 C 
BRANCH   9  10
ATOM     10  C   UNL     1     101.015  59.302 218.849  1.00  0.00     0.041 C 
ATOM     11  O   UNL     1     102.272  59.342 218.798  1.00  0.00    -0.550 OA
ATOM     12  O   UNL     1     100.280  60.460 218.627  1.00  0.00    -0.550 OA
ENDBRANCH   9  10
ENDBRANCH   8   9
ENDBRANCH   7   8
ENDBRANCH   6   7
ENDBRANCH   5   6
ENDBRANCH   4   5
ENDBRANCH   3   4
ENDBRANCH   1   3
BRANCH   2  13
ATOM     13  C   UNL     1      96.159  57.532 224.762  1.00  0.00     0.027 C 
BRANCH  13  14
ATOM     14  C   UNL     1      94.863  56.836 224.312  1.00  0.00     0.004 C 
BRANCH  14  15
ATOM     15  C   UNL     1      94.549  55.518 225.044  1.00  0.00     0.000 C 
BRANCH  15  16
ATOM     16  C   UNL     1      93.909  54.462 224.132  1.00  0.00     0.000 C 
BRANCH  16  17
ATOM     17  C   UNL     1      94.239  54.736 222.660  1.00  0.00    -0.000 C 
BRANCH  17  18
ATOM     18  C   UNL     1      95.141  53.637 222.084  1.00  0.00    -0.000 C 
BRANCH  18  19
ATOM     19  C   UNL     1      95.055  53.602 220.554  1.00  0.00    -0.003 C 
ATOM     20  C   UNL     1      96.352  53.085 219.940  1.00  0.00     0.004 C 
ENDBRANCH  18  19
ENDBRANCH  17  18
ENDBRANCH  16  17
ENDBRANCH  15  16
ENDBRANCH  14  15
ENDBRANCH  13  14
ENDBRANCH   2  13
TORSDOF 15
ENDMDL
MODEL 8
REMARK VINA RESULT:    -2.742      1.445      2.845
REMARK INTER + INTRA:          -8.200
REMARK INTER:                  -5.711
REMARK INTRA:                  -2.490
REMARK UNBOUND:                -3.054
REMARK SMILES CCCCCCCCC=CCCCCCCCC(=O)[O-]
REMARK SMILES IDX 10 1 9 2 11 3 12 4 13 5 14 6 15 7 16 8 17 9 18 10 19 11
REMARK SMILES IDX 20 12 8 13 7 14 6 15 5 16 4 17 3 18 2 19 1 20
REMARK H PARENT
REMARK Flexibility Score: inf
ROOT
ATOM      1  C   UNL     1     110.990  56.708 230.914  1.00  0.00    -0.031 C 
ATOM      2  C   UNL     1     111.881  57.033 231.871  1.00  0.00    -0.031 C 
ENDROOT
BRANCH   1   3
ATOM      3  C   UNL     1     111.233  55.734 229.788  1.00  0.00     0.027 C 
BRANCH   3   4
ATOM      4  C   UNL     1     112.011  56.389 228.636  1.00  0.00     0.004 C 
BRANCH   4   5
ATOM      5  C   UNL     1     113.245  55.573 228.219  1.00  0.00     0.000 C 
BRANCH   5   6
ATOM      6  C   UNL     1     113.092  54.073 228.524  1.00  0.00     0.000 C 
BRANCH   6   7
ATOM      7  C   UNL     1     113.166  53.201 227.260  1.00  0.00     0.000 C 
BRANCH   7   8
ATOM      8  C   UNL     1     112.570  53.894 226.024  1.00  0.00     0.006 C 
BRANCH   8   9
ATOM      9  C   UNL     1     111.109  53.485 225.820  1.00  0.00     0.053 C 
BRANCH   9  10
ATOM     10  C   UNL     1     110.378  54.526 225.031  1.00  0.00     0.041 C 
ATOM     11  O   UNL     1     109.269  54.964 225.435  1.00  0.00    -0.550 OA
ATOM     12  O   UNL     1     110.900  54.979 223.826  1.00  0.00    -0.550 OA
ENDBRANCH   9  10
ENDBRANCH   8   9
ENDBRANCH   7   8
ENDBRANCH   6   7
ENDBRANCH   5   6
ENDBRANCH   4   5
ENDBRANCH   3   4
ENDBRANCH   1   3
BRANCH   2  13
ATOM     13  C   UNL     1     113.293  56.503 231.970  1.00  0.00     0.027 C 
BRANCH  13  14
ATOM     14  C   UNL     1     113.409  55.357 232.990  1.00  0.00     0.004 C 
BRANCH  14  15
ATOM     15  C   UNL     1     114.125  54.097 232.468  1.00  0.00     0.000 C 
BRANCH  15  16
ATOM     16  C   UNL     1     113.268  52.828 232.584  1.00  0.00     0.000 C 
BRANCH  16  17
ATOM     17  C   UNL     1     111.938  52.994 231.838  1.00  0.00    -0.000 C 
BRANCH  17  18
ATOM     18  C   UNL     1     110.766  52.476 232.680  1.00  0.00    -0.000 C 
BRANCH  18  19
ATOM     19  C   UNL     1     109.911  53.637 233.203  1.00  0.00    -0.003 C 
ATOM     20  C   UNL     1     110.347  54.056 234.602  1.00  0.00     0.004 C 
ENDBRANCH  18  19
ENDBRANCH  17  18
ENDBRANCH  16  17
ENDBRANCH  15  16
ENDBRANCH  14  15
ENDBRANCH  13  14
ENDBRANCH   2  13
TORSDOF 15
ENDMDL
MODEL 9
REMARK VINA RESULT:    -2.705     15.525     17.560
REMARK INTER + INTRA:          -8.131
REMARK INTER:                  -5.223
REMARK INTRA:                  -2.908
REMARK UNBOUND:                -3.054
REMARK SMILES CCCCCCCCC=CCCCCCCCC(=O)[O-]
REMARK SMILES IDX 10 1 9 2 11 3 12 4 13 5 14 6 15 7 16 8 17 9 18 10 19 11
REMARK SMILES IDX 20 12 8 13 7 14 6 15 5 16 4 17 3 18 2 19 1 20
REMARK H PARENT
REMARK Flexibility Score: inf
ROOT
ATOM      1  C   UNL     1      95.057  64.582 226.009  1.00  0.00    -0.031 C 
ATOM      2  C   UNL     1      95.394  65.123 227.196  1.00  0.00    -0.031 C 
ENDROOT
BRANCH   1   3
ATOM      3  C   UNL     1      95.068  65.305 224.685  1.00  0.00     0.027 C 
BRANCH   3   4
ATOM      4  C   UNL     1      96.052  64.659 223.698  1.00  0.00     0.004 C 
BRANCH   4   5
ATOM      5  C   UNL     1      97.272  64.041 224.401  1.00  0.00     0.000 C 
BRANCH   5   6
ATOM      6  C   UNL     1      98.380  65.073 224.676  1.00  0.00     0.000 C 
BRANCH   6   7
ATOM      7  C   UNL     1      99.656  64.804 223.862  1.00  0.00     0.000 C 
BRANCH   7   8
ATOM      8  C   UNL     1     100.832  64.342 224.736  1.00  0.00     0.006 C 
BRANCH   8   9
ATOM      9  C   UNL     1     101.342  62.971 224.285  1.00  0.00     0.053 C 
BRANCH   9  10
ATOM     10  C   UNL     1     102.583  62.599 225.034  1.00  0.00     0.041 C 
ATOM     11  O   UNL     1     102.518  61.820 226.021  1.00  0.00    -0.550 OA
ATOM     12  O   UNL     1     103.806  63.149 224.670  1.00  0.00    -0.550 OA
ENDBRANCH   9  10
ENDBRANCH   8   9
ENDBRANCH   7   8
ENDBRANCH   6   7
ENDBRANCH   5   6
ENDBRANCH   4   5
ENDBRANCH   3   4
ENDBRANCH   1   3
BRANCH   2  13
ATOM     13  C   UNL     1      95.814  66.558 227.419  1.00  0.00     0.027 C 
BRANCH  13  14
ATOM     14  C   UNL     1      97.290  66.668 227.839  1.00  0.00     0.004 C 
BRANCH  14  15
ATOM     15  C   UNL     1      97.845  65.434 228.575  1.00  0.00     0.000 C 
BRANCH  15  16
ATOM     16  C   UNL     1      99.255  65.041 228.110  1.00  0.00     0.000 C 
BRANCH  16  17
ATOM     17  C   UNL     1      99.422  63.516 228.094  1.00  0.00    -0.000 C 
BRANCH  17  18
ATOM     18  C   UNL     1      98.089  62.813 228.376  1.00  0.00    -0.000 C 
BRANCH  18  19
ATOM     19  C   UNL     1      97.700  61.887 227.217  1.00  0.00    -0.003 C 
ATOM     20  C   UNL     1      98.935  61.286 226.554  1.00  0.00     0.004 C 
ENDBRANCH  18  19
ENDBRANCH  17  18
ENDBRANCH  16  17
ENDBRANCH  15  16
ENDBRANCH  14  15
ENDBRANCH  13  14
ENDBRANCH   2  13
TORSDOF 15
ENDMDL
