MODEL 1
REMARK VINA RESULT:    -6.911      0.000      0.000
REMARK INTER + INTRA:         -11.610
REMARK INTER:                 -10.144
REMARK INTRA:                  -1.466
REMARK UNBOUND:                -1.466
REMARK SMILES O=c1c(O[C@H]2O[C@@H](CO)[C@@H](O)[C@H](O)[C@@H]2O)c(-c2ccc(O)c(O)c2)oc2cc(O)cc(O)c12
REMARK SMILES IDX 4 1 3 2 16 3 25 4 2 5 26 6 1 7 33 8 27 9 31 10 28 11 30 12
REMARK SMILES IDX 17 13 18 14 19 15 20 16 24 17 22 18 21 19 23 21 32 23 29 25
REMARK SMILES IDX 5 27 14 28 6 29 12 30 7 31 10 32 15 33 13 35 8 37 9 38 11 40
REMARK H PARENT 21 20 23 22 32 24 29 26 15 34 13 36 9 39 11 41
REMARK Flexibility Score: inf
ROOT
ATOM      1  O   UNL     1     -38.186   6.058  81.538  1.00  0.00    -0.454 OA
ENDROOT
BRANCH   1   2
ATOM      2  C   UNL     1     -38.888   5.374  80.535  1.00  0.00     0.214 A 
ATOM      3  C   UNL     1     -38.350   5.177  79.248  1.00  0.00     0.180 A 
ATOM      4  O   UNL     1     -39.020   4.458  78.357  1.00  0.00    -0.452 OA
ATOM      5  C   UNL     1     -40.159   4.865  80.823  1.00  0.00     0.239 A 
ATOM      6  C   UNL     1     -40.210   3.921  78.598  1.00  0.00     0.146 A 
ATOM      7  O   UNL     1     -40.667   5.130  81.944  1.00  0.00    -0.285 OA
ATOM      8  C   UNL     1     -40.842   4.082  79.860  1.00  0.00     0.111 A 
ATOM      9  C   UNL     1     -40.837   3.205  77.575  1.00  0.00     0.094 A 
ATOM     10  C   UNL     1     -42.114   3.466  80.067  1.00  0.00     0.134 A 
ATOM     11  C   UNL     1     -42.102   2.651  77.774  1.00  0.00     0.123 A 
ATOM     12  C   UNL     1     -42.733   2.788  79.009  1.00  0.00     0.093 A 
BRANCH   3  13
ATOM     13  C   UNL     1     -37.066   5.776  78.835  1.00  0.00     0.025 A 
ATOM     14  C   UNL     1     -37.038   6.957  78.077  1.00  0.00     0.016 A 
ATOM     15  C   UNL     1     -35.817   7.519  77.696  1.00  0.00     0.051 A 
ATOM     16  C   UNL     1     -34.612   6.899  78.053  1.00  0.00     0.157 A 
ATOM     17  C   UNL     1     -35.861   5.141  79.166  1.00  0.00     0.062 A 
ATOM     18  C   UNL     1     -34.635   5.701  78.787  1.00  0.00     0.158 A 
BRANCH  16  19
ATOM     19  O   UNL     1     -33.395   7.469  77.680  1.00  0.00    -0.504 OA
ATOM     20  H   UNL     1     -33.243   8.469  77.720  1.00  0.00     0.293 HD
ENDBRANCH  16  19
BRANCH  18  21
ATOM     21  O   UNL     1     -33.454   5.056  79.150  1.00  0.00    -0.504 OA
ATOM     22  H   UNL     1     -32.904   5.351  79.949  1.00  0.00     0.293 HD
ENDBRANCH  18  21
ENDBRANCH   3  13
BRANCH  10  23
ATOM     23  O   UNL     1     -42.800   3.470  81.286  1.00  0.00    -0.507 OA
ATOM     24  H   UNL     1     -43.794   3.603  81.393  1.00  0.00     0.293 HD
ENDBRANCH  10  23
BRANCH  11  25
ATOM     25  O   UNL     1     -42.740   1.953  76.751  1.00  0.00    -0.508 OA
ATOM     26  H   UNL     1     -43.210   1.071  76.924  1.00  0.00     0.293 HD
ENDBRANCH  11  25
ENDBRANCH   1   2
BRANCH   1  27
ATOM     27  C   UNL     1     -37.598   5.403  82.665  1.00  0.00     0.339 C 
ATOM     28  C   UNL     1     -37.500   6.416  83.843  1.00  0.00     0.214 C 
ATOM     29  O   UNL     1     -36.332   4.895  82.269  1.00  0.00    -0.332 OA
ATOM     30  C   UNL     1     -36.040   6.883  84.025  1.00  0.00     0.180 C 
ATOM     31  C   UNL     1     -35.595   4.453  83.394  1.00  0.00     0.179 C 
ATOM     32  C   UNL     1     -35.094   5.677  84.217  1.00  0.00     0.177 C 
BRANCH  28  33
ATOM     33  O   UNL     1     -37.963   5.807  85.023  1.00  0.00    -0.384 OA
ATOM     34  H   UNL     1     -38.541   5.048  84.751  1.00  0.00     0.211 HD
ENDBRANCH  28  33
BRANCH  30  35
ATOM     35  O   UNL     1     -35.928   7.749  85.124  1.00  0.00    -0.387 OA
ATOM     36  H   UNL     1     -35.850   8.669  84.757  1.00  0.00     0.211 HD
ENDBRANCH  30  35
BRANCH  31  37
ATOM     37  C   UNL     1     -34.476   3.510  82.931  1.00  0.00     0.191 C 
BRANCH  37  38
ATOM     38  O   UNL     1     -33.822   4.035  81.809  1.00  0.00    -0.394 OA
ATOM     39  H   UNL     1     -33.760   3.293  81.153  1.00  0.00     0.210 HD
ENDBRANCH  37  38
ENDBRANCH  31  37
BRANCH  32  40
ATOM     40  O   UNL     1     -33.797   6.067  83.832  1.00  0.00    -0.387 OA
ATOM     41  H   UNL     1     -33.157   5.541  84.378  1.00  0.00     0.211 HD
ENDBRANCH  32  40
ENDBRANCH   1  27
TORSDOF 12
ENDMDL
MODEL 2
REMARK VINA RESULT:    -6.701      1.961      6.368
REMARK INTER + INTRA:         -11.301
REMARK INTER:                  -9.787
REMARK INTRA:                  -1.514
REMARK UNBOUND:                -1.466
REMARK SMILES O=c1c(O[C@H]2O[C@@H](CO)[C@@H](O)[C@H](O)[C@@H]2O)c(-c2ccc(O)c(O)c2)oc2cc(O)cc(O)c12
REMARK SMILES IDX 4 1 3 2 16 3 25 4 2 5 26 6 1 7 33 8 27 9 31 10 28 11 30 12
REMARK SMILES IDX 17 13 18 14 19 15 20 16 24 17 22 18 21 19 23 21 32 23 29 25
REMARK SMILES IDX 5 27 14 28 6 29 12 30 7 31 10 32 15 33 13 35 8 37 9 38 11 40
REMARK H PARENT 21 20 23 22 32 24 29 26 15 34 13 36 9 39 11 41
REMARK Flexibility Score: inf
ROOT
ATOM      1  O   UNL     1     -37.220   3.587  80.886  1.00  0.00    -0.454 OA
ENDROOT
BRANCH   1   2
ATOM      2  C   UNL     1     -37.128   4.703  80.042  1.00  0.00     0.214 A 
ATOM      3  C   UNL     1     -38.225   5.164  79.289  1.00  0.00     0.180 A 
ATOM      4  O   UNL     1     -38.110   6.269  78.563  1.00  0.00    -0.452 OA
ATOM      5  C   UNL     1     -35.910   5.386  79.950  1.00  0.00     0.239 A 
ATOM      6  C   UNL     1     -36.987   6.972  78.478  1.00  0.00     0.146 A 
ATOM      7  O   UNL     1     -34.913   4.908  80.552  1.00  0.00    -0.285 OA
ATOM      8  C   UNL     1     -35.821   6.575  79.185  1.00  0.00     0.111 A 
ATOM      9  C   UNL     1     -36.972   8.105  77.661  1.00  0.00     0.094 A 
ATOM     10  C   UNL     1     -34.647   7.381  79.068  1.00  0.00     0.134 A 
ATOM     11  C   UNL     1     -35.805   8.856  77.516  1.00  0.00     0.123 A 
ATOM     12  C   UNL     1     -34.654   8.489  78.212  1.00  0.00     0.093 A 
BRANCH   3  13
ATOM     13  C   UNL     1     -39.508   4.436  79.248  1.00  0.00     0.025 A 
ATOM     14  C   UNL     1     -39.881   3.702  78.110  1.00  0.00     0.016 A 
ATOM     15  C   UNL     1     -41.095   3.012  78.084  1.00  0.00     0.051 A 
ATOM     16  C   UNL     1     -41.958   3.060  79.186  1.00  0.00     0.157 A 
ATOM     17  C   UNL     1     -40.386   4.507  80.338  1.00  0.00     0.062 A 
ATOM     18  C   UNL     1     -41.604   3.816  80.317  1.00  0.00     0.158 A 
BRANCH  16  19
ATOM     19  O   UNL     1     -43.164   2.362  79.161  1.00  0.00    -0.504 OA
ATOM     20  H   UNL     1     -44.045   2.829  78.985  1.00  0.00     0.293 HD
ENDBRANCH  16  19
BRANCH  18  21
ATOM     21  O   UNL     1     -42.445   3.891  81.426  1.00  0.00    -0.504 OA
ATOM     22  H   UNL     1     -42.107   4.174  82.339  1.00  0.00     0.293 HD
ENDBRANCH  18  21
ENDBRANCH   3  13
BRANCH  10  23
ATOM     23  O   UNL     1     -33.465   7.155  79.780  1.00  0.00    -0.507 OA
ATOM     24  H   UNL     1     -33.343   7.313  80.768  1.00  0.00     0.293 HD
ENDBRANCH  10  23
BRANCH  11  25
ATOM     25  O   UNL     1     -35.779   9.976  76.688  1.00  0.00    -0.508 OA
ATOM     26  H   UNL     1     -36.579  10.233  76.121  1.00  0.00     0.293 HD
ENDBRANCH  11  25
ENDBRANCH   1   2
BRANCH   1  27
ATOM     27  C   UNL     1     -37.371   3.691  82.304  1.00  0.00     0.339 C 
ATOM     28  C   UNL     1     -38.142   2.441  82.821  1.00  0.00     0.214 C 
ATOM     29  O   UNL     1     -38.042   4.909  82.588  1.00  0.00    -0.332 OA
ATOM     30  C   UNL     1     -39.597   2.820  83.173  1.00  0.00     0.180 C 
ATOM     31  C   UNL     1     -38.440   4.958  83.946  1.00  0.00     0.179 C 
ATOM     32  C   UNL     1     -39.634   3.987  84.186  1.00  0.00     0.177 C 
BRANCH  28  33
ATOM     33  O   UNL     1     -37.489   1.927  83.955  1.00  0.00    -0.384 OA
ATOM     34  H   UNL     1     -36.636   2.425  84.051  1.00  0.00     0.211 HD
ENDBRANCH  28  33
BRANCH  30  35
ATOM     35  O   UNL     1     -40.284   1.716  83.700  1.00  0.00    -0.387 OA
ATOM     36  H   UNL     1     -41.060   1.550  83.102  1.00  0.00     0.211 HD
ENDBRANCH  30  35
BRANCH  31  37
ATOM     37  C   UNL     1     -38.729   6.413  84.340  1.00  0.00     0.191 C 
BRANCH  37  38
ATOM     38  O   UNL     1     -39.257   7.123  83.254  1.00  0.00    -0.394 OA
ATOM     39  H   UNL     1     -40.163   7.416  83.531  1.00  0.00     0.210 HD
ENDBRANCH  37  38
ENDBRANCH  31  37
BRANCH  32  40
ATOM     40  O   UNL     1     -40.873   4.643  84.057  1.00  0.00    -0.387 OA
ATOM     41  H   UNL     1     -40.896   5.054  83.154  1.00  0.00     0.211 HD
ENDBRANCH  32  40
ENDBRANCH   1  27
TORSDOF 12
ENDMDL
MODEL 3
REMARK VINA RESULT:    -6.587      2.214      7.736
REMARK INTER + INTRA:         -11.134
REMARK INTER:                 -10.200
REMARK INTRA:                  -0.935
REMARK UNBOUND:                -1.466
REMARK SMILES O=c1c(O[C@H]2O[C@@H](CO)[C@@H](O)[C@H](O)[C@@H]2O)c(-c2ccc(O)c(O)c2)oc2cc(O)cc(O)c12
REMARK SMILES IDX 4 1 3 2 16 3 25 4 2 5 26 6 1 7 33 8 27 9 31 10 28 11 30 12
REMARK SMILES IDX 17 13 18 14 19 15 20 16 24 17 22 18 21 19 23 21 32 23 29 25
REMARK SMILES IDX 5 27 14 28 6 29 12 30 7 31 10 32 15 33 13 35 8 37 9 38 11 40
REMARK H PARENT 21 20 23 22 32 24 29 26 15 34 13 36 9 39 11 41
REMARK Flexibility Score: inf
ROOT
ATOM      1  O   UNL     1     -37.184   3.761  79.467  1.00  0.00    -0.454 OA
ENDROOT
BRANCH   1   2
ATOM      2  C   UNL     1     -36.409   4.702  80.159  1.00  0.00     0.214 A 
ATOM      3  C   UNL     1     -36.639   5.009  81.514  1.00  0.00     0.180 A 
ATOM      4  O   UNL     1     -35.832   5.851  82.147  1.00  0.00    -0.452 OA
ATOM      5  C   UNL     1     -35.369   5.353  79.485  1.00  0.00     0.239 A 
ATOM      6  C   UNL     1     -34.808   6.460  81.560  1.00  0.00     0.146 A 
ATOM      7  O   UNL     1     -35.236   5.142  78.252  1.00  0.00    -0.285 OA
ATOM      8  C   UNL     1     -34.509   6.230  80.190  1.00  0.00     0.111 A 
ATOM      9  C   UNL     1     -34.040   7.349  82.316  1.00  0.00     0.094 A 
ATOM     10  C   UNL     1     -33.385   6.901  79.618  1.00  0.00     0.134 A 
ATOM     11  C   UNL     1     -32.975   8.036  81.733  1.00  0.00     0.123 A 
ATOM     12  C   UNL     1     -32.658   7.813  80.393  1.00  0.00     0.093 A 
BRANCH   3  13
ATOM     13  C   UNL     1     -37.781   4.448  82.262  1.00  0.00     0.025 A 
ATOM     14  C   UNL     1     -38.610   5.278  83.034  1.00  0.00     0.016 A 
ATOM     15  C   UNL     1     -39.692   4.738  83.733  1.00  0.00     0.051 A 
ATOM     16  C   UNL     1     -39.949   3.361  83.682  1.00  0.00     0.157 A 
ATOM     17  C   UNL     1     -38.023   3.067  82.235  1.00  0.00     0.062 A 
ATOM     18  C   UNL     1     -39.106   2.522  82.934  1.00  0.00     0.158 A 
BRANCH  16  19
ATOM     19  O   UNL     1     -41.036   2.827  84.372  1.00  0.00    -0.504 OA
ATOM     20  H   UNL     1     -40.979   2.596  85.357  1.00  0.00     0.293 HD
ENDBRANCH  16  19
BRANCH  18  21
ATOM     21  O   UNL     1     -39.331   1.147  82.870  1.00  0.00    -0.504 OA
ATOM     22  H   UNL     1     -39.016   0.517  83.598  1.00  0.00     0.293 HD
ENDBRANCH  18  21
ENDBRANCH   3  13
BRANCH  10  23
ATOM     23  O   UNL     1     -32.928   6.695  78.313  1.00  0.00    -0.507 OA
ATOM     24  H   UNL     1     -33.471   6.297  77.563  1.00  0.00     0.293 HD
ENDBRANCH  10  23
BRANCH  11  25
ATOM     25  O   UNL     1     -32.218   8.937  82.477  1.00  0.00    -0.508 OA
ATOM     26  H   UNL     1     -31.851   8.693  83.390  1.00  0.00     0.293 HD
ENDBRANCH  11  25
ENDBRANCH   1   2
BRANCH   1  27
ATOM     27  C   UNL     1     -38.248   4.124  78.584  1.00  0.00     0.339 C 
ATOM     28  C   UNL     1     -38.803   5.515  79.009  1.00  0.00     0.214 C 
ATOM     29  O   UNL     1     -39.231   3.100  78.632  1.00  0.00    -0.332 OA
ATOM     30  C   UNL     1     -40.163   5.352  79.721  1.00  0.00     0.180 C 
ATOM     31  C   UNL     1     -40.415   3.511  77.975  1.00  0.00     0.179 C 
ATOM     32  C   UNL     1     -41.161   4.573  78.835  1.00  0.00     0.177 C 
BRANCH  28  33
ATOM     33  O   UNL     1     -38.949   6.327  77.870  1.00  0.00    -0.384 OA
ATOM     34  H   UNL     1     -38.764   7.260  78.152  1.00  0.00     0.211 HD
ENDBRANCH  28  33
BRANCH  30  35
ATOM     35  O   UNL     1     -40.704   6.603  80.054  1.00  0.00    -0.387 OA
ATOM     36  H   UNL     1     -40.495   6.760  81.013  1.00  0.00     0.211 HD
ENDBRANCH  30  35
BRANCH  31  37
ATOM     37  C   UNL     1     -41.262   2.277  77.634  1.00  0.00     0.191 C 
BRANCH  37  38
ATOM     38  O   UNL     1     -42.400   2.646  76.905  1.00  0.00    -0.394 OA
ATOM     39  H   UNL     1     -42.539   3.612  77.081  1.00  0.00     0.210 HD
ENDBRANCH  37  38
ENDBRANCH  31  37
BRANCH  32  40
ATOM     40  O   UNL     1     -42.126   3.982  79.672  1.00  0.00    -0.387 OA
ATOM     41  H   UNL     1     -42.111   4.476  80.533  1.00  0.00     0.211 HD
ENDBRANCH  32  40
ENDBRANCH   1  27
TORSDOF 12
ENDMDL
MODEL 4
REMARK VINA RESULT:    -6.543      1.838      2.821
REMARK INTER + INTRA:         -11.069
REMARK INTER:                  -9.875
REMARK INTRA:                  -1.194
REMARK UNBOUND:                -1.466
REMARK SMILES O=c1c(O[C@H]2O[C@@H](CO)[C@@H](O)[C@H](O)[C@@H]2O)c(-c2ccc(O)c(O)c2)oc2cc(O)cc(O)c12
REMARK SMILES IDX 4 1 3 2 16 3 25 4 2 5 26 6 1 7 33 8 27 9 31 10 28 11 30 12
REMARK SMILES IDX 17 13 18 14 19 15 20 16 24 17 22 18 21 19 23 21 32 23 29 25
REMARK SMILES IDX 5 27 14 28 6 29 12 30 7 31 10 32 15 33 13 35 8 37 9 38 11 40
REMARK H PARENT 21 20 23 22 32 24 29 26 15 34 13 36 9 39 11 41
REMARK Flexibility Score: inf
ROOT
ATOM      1  O   UNL     1     -37.718   5.262  82.034  1.00  0.00    -0.454 OA
ENDROOT
BRANCH   1   2
ATOM      2  C   UNL     1     -38.454   4.811  80.928  1.00  0.00     0.214 A 
ATOM      3  C   UNL     1     -37.888   4.714  79.642  1.00  0.00     0.180 A 
ATOM      4  O   UNL     1     -38.602   4.210  78.643  1.00  0.00    -0.452 OA
ATOM      5  C   UNL     1     -39.791   4.439  81.109  1.00  0.00     0.239 A 
ATOM      6  C   UNL     1     -39.860   3.806  78.777  1.00  0.00     0.146 A 
ATOM      7  O   UNL     1     -40.311   4.621  82.240  1.00  0.00    -0.285 OA
ATOM      8  C   UNL     1     -40.522   3.884  80.031  1.00  0.00     0.111 A 
ATOM      9  C   UNL     1     -40.525   3.317  77.650  1.00  0.00     0.094 A 
ATOM     10  C   UNL     1     -41.870   3.418  80.117  1.00  0.00     0.134 A 
ATOM     11  C   UNL     1     -41.857   2.912  77.736  1.00  0.00     0.123 A 
ATOM     12  C   UNL     1     -42.520   2.969  78.961  1.00  0.00     0.093 A 
BRANCH   3  13
ATOM     13  C   UNL     1     -36.521   5.188  79.349  1.00  0.00     0.025 A 
ATOM     14  C   UNL     1     -35.402   4.476  79.808  1.00  0.00     0.016 A 
ATOM     15  C   UNL     1     -34.112   4.930  79.520  1.00  0.00     0.051 A 
ATOM     16  C   UNL     1     -33.927   6.109  78.786  1.00  0.00     0.157 A 
ATOM     17  C   UNL     1     -36.334   6.383  78.641  1.00  0.00     0.062 A 
ATOM     18  C   UNL     1     -35.044   6.842  78.349  1.00  0.00     0.158 A 
BRANCH  16  19
ATOM     19  O   UNL     1     -32.639   6.554  78.491  1.00  0.00    -0.504 OA
ATOM     20  H   UNL     1     -31.820   6.107  78.885  1.00  0.00     0.293 HD
ENDBRANCH  16  19
BRANCH  18  21
ATOM     21  O   UNL     1     -34.892   8.023  77.625  1.00  0.00    -0.504 OA
ATOM     22  H   UNL     1     -35.234   8.913  77.969  1.00  0.00     0.293 HD
ENDBRANCH  18  21
ENDBRANCH   3  13
BRANCH  10  23
ATOM     23  O   UNL     1     -42.605   3.353  81.305  1.00  0.00    -0.507 OA
ATOM     24  H   UNL     1     -43.415   3.914  81.519  1.00  0.00     0.293 HD
ENDBRANCH  10  23
BRANCH  11  25
ATOM     25  O   UNL     1     -42.530   2.442  76.611  1.00  0.00    -0.508 OA
ATOM     26  H   UNL     1     -43.540   2.345  76.600  1.00  0.00     0.293 HD
ENDBRANCH  11  25
ENDBRANCH   1   2
BRANCH   1  27
ATOM     27  C   UNL     1     -37.660   6.636  82.425  1.00  0.00     0.339 C 
ATOM     28  C   UNL     1     -38.792   7.415  81.694  1.00  0.00     0.214 C 
ATOM     29  O   UNL     1     -36.365   7.128  82.118  1.00  0.00    -0.332 OA
ATOM     30  C   UNL     1     -38.201   8.268  80.551  1.00  0.00     0.180 C 
ATOM     31  C   UNL     1     -36.319   8.537  82.252  1.00  0.00     0.179 C 
ATOM     32  C   UNL     1     -37.094   9.209  81.079  1.00  0.00     0.177 C 
BRANCH  28  33
ATOM     33  O   UNL     1     -39.461   8.241  82.615  1.00  0.00    -0.384 OA
ATOM     34  H   UNL     1     -39.147   9.169  82.456  1.00  0.00     0.211 HD
ENDBRANCH  28  33
BRANCH  30  35
ATOM     35  O   UNL     1     -39.203   9.025  79.924  1.00  0.00    -0.387 OA
ATOM     36  H   UNL     1     -38.742   9.697  79.357  1.00  0.00     0.211 HD
ENDBRANCH  30  35
BRANCH  31  37
ATOM     37  C   UNL     1     -34.858   8.989  82.375  1.00  0.00     0.191 C 
BRANCH  37  38
ATOM     38  O   UNL     1     -34.039   8.256  81.506  1.00  0.00    -0.394 OA
ATOM     39  H   UNL     1     -33.895   7.376  81.940  1.00  0.00     0.210 HD
ENDBRANCH  37  38
ENDBRANCH  31  37
BRANCH  32  40
ATOM     40  O   UNL     1     -36.241   9.532  80.008  1.00  0.00    -0.387 OA
ATOM     41  H   UNL     1     -36.687   9.230  79.174  1.00  0.00     0.211 HD
ENDBRANCH  32  40
ENDBRANCH   1  27
TORSDOF 12
ENDMDL
MODEL 5
REMARK VINA RESULT:    -6.508      2.840      7.421
REMARK INTER + INTRA:         -11.018
REMARK INTER:                 -10.164
REMARK INTRA:                  -0.854
REMARK UNBOUND:                -1.466
REMARK SMILES O=c1c(O[C@H]2O[C@@H](CO)[C@@H](O)[C@H](O)[C@@H]2O)c(-c2ccc(O)c(O)c2)oc2cc(O)cc(O)c12
REMARK SMILES IDX 4 1 3 2 16 3 25 4 2 5 26 6 1 7 33 8 27 9 31 10 28 11 30 12
REMARK SMILES IDX 17 13 18 14 19 15 20 16 24 17 22 18 21 19 23 21 32 23 29 25
REMARK SMILES IDX 5 27 14 28 6 29 12 30 7 31 10 32 15 33 13 35 8 37 9 38 11 40
REMARK H PARENT 21 20 23 22 32 24 29 26 15 34 13 36 9 39 11 41
REMARK Flexibility Score: inf
ROOT
ATOM      1  O   UNL     1     -38.588   5.257  77.999  1.00  0.00    -0.454 OA
ENDROOT
BRANCH   1   2
ATOM      2  C   UNL     1     -37.545   6.155  78.263  1.00  0.00     0.214 A 
ATOM      3  C   UNL     1     -37.708   7.548  78.137  1.00  0.00     0.180 A 
ATOM      4  O   UNL     1     -36.714   8.362  78.471  1.00  0.00    -0.452 OA
ATOM      5  C   UNL     1     -36.304   5.653  78.671  1.00  0.00     0.239 A 
ATOM      6  C   UNL     1     -35.533   7.933  78.902  1.00  0.00     0.146 A 
ATOM      7  O   UNL     1     -36.143   4.405  78.686  1.00  0.00    -0.285 OA
ATOM      8  C   UNL     1     -35.268   6.544  79.042  1.00  0.00     0.111 A 
ATOM      9  C   UNL     1     -34.549   8.879  79.199  1.00  0.00     0.094 A 
ATOM     10  C   UNL     1     -33.985   6.143  79.527  1.00  0.00     0.134 A 
ATOM     11  C   UNL     1     -33.284   8.473  79.624  1.00  0.00     0.123 A 
ATOM     12  C   UNL     1     -33.008   7.115  79.780  1.00  0.00     0.093 A 
BRANCH   3  13
ATOM     13  C   UNL     1     -38.949   8.148  77.609  1.00  0.00     0.025 A 
ATOM     14  C   UNL     1     -38.965   8.768  76.349  1.00  0.00     0.016 A 
ATOM     15  C   UNL     1     -40.147   9.327  75.856  1.00  0.00     0.051 A 
ATOM     16  C   UNL     1     -41.319   9.288  76.621  1.00  0.00     0.157 A 
ATOM     17  C   UNL     1     -40.115   8.136  78.386  1.00  0.00     0.062 A 
ATOM     18  C   UNL     1     -41.302   8.695  77.895  1.00  0.00     0.158 A 
BRANCH  16  19
ATOM     19  O   UNL     1     -42.499   9.838  76.122  1.00  0.00    -0.504 OA
ATOM     20  H   UNL     1     -42.503  10.432  75.301  1.00  0.00     0.293 HD
ENDBRANCH  16  19
BRANCH  18  21
ATOM     21  O   UNL     1     -42.450   8.648  78.684  1.00  0.00    -0.504 OA
ATOM     22  H   UNL     1     -43.379   8.711  78.286  1.00  0.00     0.293 HD
ENDBRANCH  18  21
ENDBRANCH   3  13
BRANCH  10  23
ATOM     23  O   UNL     1     -33.626   4.819  79.797  1.00  0.00    -0.507 OA
ATOM     24  H   UNL     1     -33.902   4.298  80.614  1.00  0.00     0.293 HD
ENDBRANCH  10  23
BRANCH  11  25
ATOM     25  O   UNL     1     -32.294   9.411  79.903  1.00  0.00    -0.508 OA
ATOM     26  H   UNL     1     -31.310   9.196  79.779  1.00  0.00     0.293 HD
ENDBRANCH  11  25
ENDBRANCH   1   2
BRANCH   1  27
ATOM     27  C   UNL     1     -38.942   4.190  78.883  1.00  0.00     0.339 C 
ATOM     28  C   UNL     1     -39.698   3.095  78.074  1.00  0.00     0.214 C 
ATOM     29  O   UNL     1     -39.722   4.731  79.939  1.00  0.00    -0.332 OA
ATOM     30  C   UNL     1     -41.208   3.146  78.389  1.00  0.00     0.180 C 
ATOM     31  C   UNL     1     -40.308   3.699  80.710  1.00  0.00     0.179 C 
ATOM     32  C   UNL     1     -41.461   3.024  79.909  1.00  0.00     0.177 C 
BRANCH  28  33
ATOM     33  O   UNL     1     -39.179   1.830  78.403  1.00  0.00    -0.384 OA
ATOM     34  H   UNL     1     -39.440   1.209  77.674  1.00  0.00     0.211 HD
ENDBRANCH  28  33
BRANCH  30  35
ATOM     35  O   UNL     1     -41.892   2.123  77.714  1.00  0.00    -0.387 OA
ATOM     36  H   UNL     1     -42.086   1.416  78.384  1.00  0.00     0.211 HD
ENDBRANCH  30  35
BRANCH  31  37
ATOM     37  C   UNL     1     -40.741   4.263  82.071  1.00  0.00     0.191 C 
BRANCH  37  38
ATOM     38  O   UNL     1     -41.527   3.333  82.763  1.00  0.00    -0.394 OA
ATOM     39  H   UNL     1     -41.841   2.679  82.085  1.00  0.00     0.210 HD
ENDBRANCH  37  38
ENDBRANCH  31  37
BRANCH  32  40
ATOM     40  O   UNL     1     -42.708   3.608  80.197  1.00  0.00    -0.387 OA
ATOM     41  H   UNL     1     -43.249   2.926  80.673  1.00  0.00     0.211 HD
ENDBRANCH  32  40
ENDBRANCH   1  27
TORSDOF 12
ENDMDL
MODEL 6
REMARK VINA RESULT:    -6.427      2.313      7.365
REMARK INTER + INTRA:         -10.900
REMARK INTER:                  -9.871
REMARK INTRA:                  -1.028
REMARK UNBOUND:                -1.466
REMARK SMILES O=c1c(O[C@H]2O[C@@H](CO)[C@@H](O)[C@H](O)[C@@H]2O)c(-c2ccc(O)c(O)c2)oc2cc(O)cc(O)c12
REMARK SMILES IDX 4 1 3 2 16 3 25 4 2 5 26 6 1 7 33 8 27 9 31 10 28 11 30 12
REMARK SMILES IDX 17 13 18 14 19 15 20 16 24 17 22 18 21 19 23 21 32 23 29 25
REMARK SMILES IDX 5 27 14 28 6 29 12 30 7 31 10 32 15 33 13 35 8 37 9 38 11 40
REMARK H PARENT 21 20 23 22 32 24 29 26 15 34 13 36 9 39 11 41
REMARK Flexibility Score: inf
ROOT
ATOM      1  O   UNL     1     -38.167   5.380  77.587  1.00  0.00    -0.454 OA
ENDROOT
BRANCH   1   2
ATOM      2  C   UNL     1     -37.569   5.021  78.803  1.00  0.00     0.214 A 
ATOM      3  C   UNL     1     -38.228   4.215  79.752  1.00  0.00     0.180 A 
ATOM      4  O   UNL     1     -37.592   3.840  80.854  1.00  0.00    -0.452 OA
ATOM      5  C   UNL     1     -36.273   5.470  79.080  1.00  0.00     0.239 A 
ATOM      6  C   UNL     1     -36.349   4.207  81.140  1.00  0.00     0.146 A 
ATOM      7  O   UNL     1     -35.733   6.267  78.270  1.00  0.00    -0.285 OA
ATOM      8  C   UNL     1     -35.610   5.036  80.254  1.00  0.00     0.111 A 
ATOM      9  C   UNL     1     -35.787   3.774  82.344  1.00  0.00     0.094 A 
ATOM     10  C   UNL     1     -34.270   5.384  80.608  1.00  0.00     0.134 A 
ATOM     11  C   UNL     1     -34.496   4.162  82.701  1.00  0.00     0.123 A 
ATOM     12  C   UNL     1     -33.750   4.965  81.839  1.00  0.00     0.093 A 
BRANCH   3  13
ATOM     13  C   UNL     1     -39.632   3.793  79.581  1.00  0.00     0.025 A 
ATOM     14  C   UNL     1     -40.073   3.245  78.366  1.00  0.00     0.016 A 
ATOM     15  C   UNL     1     -41.403   2.843  78.217  1.00  0.00     0.051 A 
ATOM     16  C   UNL     1     -42.310   2.999  79.273  1.00  0.00     0.157 A 
ATOM     17  C   UNL     1     -40.548   3.976  80.627  1.00  0.00     0.062 A 
ATOM     18  C   UNL     1     -41.881   3.574  80.482  1.00  0.00     0.158 A 
BRANCH  16  19
ATOM     19  O   UNL     1     -43.634   2.587  79.125  1.00  0.00    -0.504 OA
ATOM     20  H   UNL     1     -44.078   2.544  78.216  1.00  0.00     0.293 HD
ENDBRANCH  16  19
BRANCH  18  21
ATOM     21  O   UNL     1     -42.761   3.750  81.549  1.00  0.00    -0.504 OA
ATOM     22  H   UNL     1     -42.478   4.202  82.410  1.00  0.00     0.293 HD
ENDBRANCH  18  21
ENDBRANCH   3  13
BRANCH  10  23
ATOM     23  O   UNL     1     -33.405   6.114  79.786  1.00  0.00    -0.507 OA
ATOM     24  H   UNL     1     -33.291   5.976  78.794  1.00  0.00     0.293 HD
ENDBRANCH  10  23
BRANCH  11  25
ATOM     25  O   UNL     1     -33.938   3.749  83.909  1.00  0.00    -0.508 OA
ATOM     26  H   UNL     1     -34.345   4.016  84.799  1.00  0.00     0.293 HD
ENDBRANCH  11  25
ENDBRANCH   1   2
BRANCH   1  27
ATOM     27  C   UNL     1     -39.044   6.501  77.449  1.00  0.00     0.339 C 
ATOM     28  C   UNL     1     -38.446   7.481  76.397  1.00  0.00     0.214 C 
ATOM     29  O   UNL     1     -39.203   7.096  78.729  1.00  0.00    -0.332 OA
ATOM     30  C   UNL     1     -37.843   8.716  77.101  1.00  0.00     0.180 C 
ATOM     31  C   UNL     1     -39.857   8.347  78.622  1.00  0.00     0.179 C 
ATOM     32  C   UNL     1     -38.889   9.403  78.007  1.00  0.00     0.177 C 
BRANCH  28  33
ATOM     33  O   UNL     1     -39.457   7.881  75.505  1.00  0.00    -0.384 OA
ATOM     34  H   UNL     1     -39.066   8.575  74.914  1.00  0.00     0.211 HD
ENDBRANCH  28  33
BRANCH  30  35
ATOM     35  O   UNL     1     -37.358   9.637  76.159  1.00  0.00    -0.387 OA
ATOM     36  H   UNL     1     -37.601   9.286  75.262  1.00  0.00     0.211 HD
ENDBRANCH  30  35
BRANCH  31  37
ATOM     37  C   UNL     1     -40.424   8.744  79.991  1.00  0.00     0.191 C 
BRANCH  37  38
ATOM     38  O   UNL     1     -39.554   8.354  81.018  1.00  0.00    -0.394 OA
ATOM     39  H   UNL     1     -39.389   7.385  80.886  1.00  0.00     0.210 HD
ENDBRANCH  37  38
ENDBRANCH  31  37
BRANCH  32  40
ATOM     40  O   UNL     1     -38.205  10.125  79.002  1.00  0.00    -0.387 OA
ATOM     41  H   UNL     1     -37.529  10.689  78.545  1.00  0.00     0.211 HD
ENDBRANCH  32  40
ENDBRANCH   1  27
TORSDOF 12
ENDMDL
MODEL 7
REMARK VINA RESULT:    -6.324     10.491     13.653
REMARK INTER + INTRA:         -10.748
REMARK INTER:                  -9.407
REMARK INTRA:                  -1.342
REMARK UNBOUND:                -1.466
REMARK SMILES O=c1c(O[C@H]2O[C@@H](CO)[C@@H](O)[C@H](O)[C@@H]2O)c(-c2ccc(O)c(O)c2)oc2cc(O)cc(O)c12
REMARK SMILES IDX 4 1 3 2 16 3 25 4 2 5 26 6 1 7 33 8 27 9 31 10 28 11 30 12
REMARK SMILES IDX 17 13 18 14 19 15 20 16 24 17 22 18 21 19 23 21 32 23 29 25
REMARK SMILES IDX 5 27 14 28 6 29 12 30 7 31 10 32 15 33 13 35 8 37 9 38 11 40
REMARK H PARENT 21 20 23 22 32 24 29 26 15 34 13 36 9 39 11 41
REMARK Flexibility Score: inf
ROOT
ATOM      1  O   UNL     1     -42.719  -7.463  83.264  1.00  0.00    -0.454 OA
ENDROOT
BRANCH   1   2
ATOM      2  C   UNL     1     -41.740  -7.835  82.332  1.00  0.00     0.214 A 
ATOM      3  C   UNL     1     -41.819  -7.463  80.976  1.00  0.00     0.180 A 
ATOM      4  O   UNL     1     -40.829  -7.774  80.148  1.00  0.00    -0.452 OA
ATOM      5  C   UNL     1     -40.645  -8.593  82.764  1.00  0.00     0.239 A 
ATOM      6  C   UNL     1     -39.752  -8.455  80.521  1.00  0.00     0.146 A 
ATOM      7  O   UNL     1     -40.635  -8.999  83.955  1.00  0.00    -0.285 OA
ATOM      8  C   UNL     1     -39.593  -8.891  81.864  1.00  0.00     0.111 A 
ATOM      9  C   UNL     1     -38.785  -8.750  79.558  1.00  0.00     0.094 A 
ATOM     10  C   UNL     1     -38.405  -9.606  82.210  1.00  0.00     0.134 A 
ATOM     11  C   UNL     1     -37.653  -9.492  79.897  1.00  0.00     0.123 A 
ATOM     12  C   UNL     1     -37.473  -9.917  81.213  1.00  0.00     0.093 A 
BRANCH   3  13
ATOM     13  C   UNL     1     -42.992  -6.759  80.423  1.00  0.00     0.025 A 
ATOM     14  C   UNL     1     -42.888  -5.432  79.978  1.00  0.00     0.016 A 
ATOM     15  C   UNL     1     -44.003  -4.776  79.451  1.00  0.00     0.051 A 
ATOM     16  C   UNL     1     -45.238  -5.433  79.378  1.00  0.00     0.157 A 
ATOM     17  C   UNL     1     -44.236  -7.405  80.376  1.00  0.00     0.062 A 
ATOM     18  C   UNL     1     -45.356  -6.753  79.848  1.00  0.00     0.158 A 
BRANCH  16  19
ATOM     19  O   UNL     1     -46.347  -4.781  78.841  1.00  0.00    -0.504 OA
ATOM     20  H   UNL     1     -46.972  -4.232  79.420  1.00  0.00     0.293 HD
ENDBRANCH  16  19
BRANCH  18  21
ATOM     21  O   UNL     1     -46.573  -7.431  79.796  1.00  0.00    -0.504 OA
ATOM     22  H   UNL     1     -46.638  -8.431  79.944  1.00  0.00     0.293 HD
ENDBRANCH  18  21
ENDBRANCH   3  13
BRANCH  10  23
ATOM     23  O   UNL     1     -38.082 -10.010  83.509  1.00  0.00    -0.507 OA
ATOM     24  H   UNL     1     -38.085 -10.963  83.838  1.00  0.00     0.293 HD
ENDBRANCH  10  23
BRANCH  11  25
ATOM     25  O   UNL     1     -36.695  -9.805  78.937  1.00  0.00    -0.508 OA
ATOM     26  H   UNL     1     -36.911  -9.784  77.946  1.00  0.00     0.293 HD
ENDBRANCH  11  25
ENDBRANCH   1   2
BRANCH   1  27
ATOM     27  C   UNL     1     -42.623  -6.286  84.070  1.00  0.00     0.339 C 
ATOM     28  C   UNL     1     -43.911  -5.434  83.871  1.00  0.00     0.214 C 
ATOM     29  O   UNL     1     -41.441  -5.593  83.701  1.00  0.00    -0.332 OA
ATOM     30  C   UNL     1     -43.606  -4.207  82.985  1.00  0.00     0.180 C 
ATOM     31  C   UNL     1     -41.413  -4.303  84.283  1.00  0.00     0.179 C 
ATOM     32  C   UNL     1     -42.443  -3.376  83.571  1.00  0.00     0.177 C 
BRANCH  28  33
ATOM     33  O   UNL     1     -44.392  -5.015  85.125  1.00  0.00    -0.384 OA
ATOM     34  H   UNL     1     -45.255  -4.553  84.966  1.00  0.00     0.211 HD
ENDBRANCH  28  33
BRANCH  30  35
ATOM     35  O   UNL     1     -44.744  -3.396  82.850  1.00  0.00    -0.387 OA
ATOM     36  H   UNL     1     -45.533  -3.997  82.908  1.00  0.00     0.211 HD
ENDBRANCH  30  35
BRANCH  31  37
ATOM     37  C   UNL     1     -39.975  -3.767  84.265  1.00  0.00     0.191 C 
BRANCH  37  38
ATOM     38  O   UNL     1     -39.953  -2.403  84.585  1.00  0.00    -0.394 OA
ATOM     39  H   UNL     1     -40.640  -1.975  84.012  1.00  0.00     0.210 HD
ENDBRANCH  37  38
ENDBRANCH  31  37
BRANCH  32  40
ATOM     40  O   UNL     1     -41.851  -2.645  82.525  1.00  0.00    -0.387 OA
ATOM     41  H   UNL     1     -42.128  -3.073  81.673  1.00  0.00     0.211 HD
ENDBRANCH  32  40
ENDBRANCH   1  27
TORSDOF 12
ENDMDL
MODEL 8
REMARK VINA RESULT:    -6.269      9.893     12.253
REMARK INTER + INTRA:         -10.667
REMARK INTER:                  -9.035
REMARK INTRA:                  -1.632
REMARK UNBOUND:                -1.466
REMARK SMILES O=c1c(O[C@H]2O[C@@H](CO)[C@@H](O)[C@H](O)[C@@H]2O)c(-c2ccc(O)c(O)c2)oc2cc(O)cc(O)c12
REMARK SMILES IDX 4 1 3 2 16 3 25 4 2 5 26 6 1 7 33 8 27 9 31 10 28 11 30 12
REMARK SMILES IDX 17 13 18 14 19 15 20 16 24 17 22 18 21 19 23 21 32 23 29 25
REMARK SMILES IDX 5 27 14 28 6 29 12 30 7 31 10 32 15 33 13 35 8 37 9 38 11 40
REMARK H PARENT 21 20 23 22 32 24 29 26 15 34 13 36 9 39 11 41
REMARK Flexibility Score: inf
ROOT
ATOM      1  O   UNL     1     -42.543  -6.673  83.514  1.00  0.00    -0.454 OA
ENDROOT
BRANCH   1   2
ATOM      2  C   UNL     1     -43.149  -6.050  82.413  1.00  0.00     0.214 A 
ATOM      3  C   UNL     1     -42.655  -4.849  81.868  1.00  0.00     0.180 A 
ATOM      4  O   UNL     1     -43.217  -4.337  80.781  1.00  0.00    -0.452 OA
ATOM      5  C   UNL     1     -44.277  -6.642  81.834  1.00  0.00     0.239 A 
ATOM      6  C   UNL     1     -44.262  -4.887  80.172  1.00  0.00     0.146 A 
ATOM      7  O   UNL     1     -44.765  -7.661  82.389  1.00  0.00    -0.285 OA
ATOM      8  C   UNL     1     -44.843  -6.088  80.660  1.00  0.00     0.111 A 
ATOM      9  C   UNL     1     -44.790  -4.246  79.049  1.00  0.00     0.094 A 
ATOM     10  C   UNL     1     -45.955  -6.641  79.954  1.00  0.00     0.134 A 
ATOM     11  C   UNL     1     -45.907  -4.770  78.397  1.00  0.00     0.123 A 
ATOM     12  C   UNL     1     -46.484  -5.954  78.853  1.00  0.00     0.093 A 
BRANCH   3  13
ATOM     13  C   UNL     1     -41.540  -4.107  82.488  1.00  0.00     0.025 A 
ATOM     14  C   UNL     1     -41.789  -3.027  83.351  1.00  0.00     0.016 A 
ATOM     15  C   UNL     1     -40.726  -2.336  83.937  1.00  0.00     0.051 A 
ATOM     16  C   UNL     1     -39.404  -2.703  83.656  1.00  0.00     0.157 A 
ATOM     17  C   UNL     1     -40.216  -4.454  82.185  1.00  0.00     0.062 A 
ATOM     18  C   UNL     1     -39.148  -3.765  82.771  1.00  0.00     0.158 A 
BRANCH  16  19
ATOM     19  O   UNL     1     -38.346  -2.018  84.251  1.00  0.00    -0.504 OA
ATOM     20  H   UNL     1     -38.099  -2.163  85.223  1.00  0.00     0.293 HD
ENDBRANCH  16  19
BRANCH  18  21
ATOM     21  O   UNL     1     -37.844  -4.149  82.464  1.00  0.00    -0.504 OA
ATOM     22  H   UNL     1     -37.619  -5.086  82.150  1.00  0.00     0.293 HD
ENDBRANCH  18  21
ENDBRANCH   3  13
BRANCH  10  23
ATOM     23  O   UNL     1     -46.560  -7.860  80.272  1.00  0.00    -0.507 OA
ATOM     24  H   UNL     1     -47.189  -8.012  81.045  1.00  0.00     0.293 HD
ENDBRANCH  10  23
BRANCH  11  25
ATOM     25  O   UNL     1     -46.449  -4.125  77.288  1.00  0.00    -0.508 OA
ATOM     26  H   UNL     1     -46.748  -4.642  76.468  1.00  0.00     0.293 HD
ENDBRANCH  11  25
ENDBRANCH   1   2
BRANCH   1  27
ATOM     27  C   UNL     1     -41.623  -7.760  83.386  1.00  0.00     0.339 C 
ATOM     28  C   UNL     1     -40.599  -7.693  84.557  1.00  0.00     0.214 C 
ATOM     29  O   UNL     1     -41.007  -7.669  82.110  1.00  0.00    -0.332 OA
ATOM     30  C   UNL     1     -39.237  -7.178  84.046  1.00  0.00     0.180 C 
ATOM     31  C   UNL     1     -39.914  -8.564  82.016  1.00  0.00     0.179 C 
ATOM     32  C   UNL     1     -38.723  -8.042  82.873  1.00  0.00     0.177 C 
BRANCH  28  33
ATOM     33  O   UNL     1     -40.450  -8.973  85.120  1.00  0.00    -0.384 OA
ATOM     34  H   UNL     1     -41.337  -9.416  85.076  1.00  0.00     0.211 HD
ENDBRANCH  28  33
BRANCH  30  35
ATOM     35  O   UNL     1     -38.287  -7.172  85.080  1.00  0.00    -0.387 OA
ATOM     36  H   UNL     1     -38.791  -7.253  85.932  1.00  0.00     0.211 HD
ENDBRANCH  30  35
BRANCH  31  37
ATOM     37  C   UNL     1     -39.567  -8.790  80.538  1.00  0.00     0.191 C 
BRANCH  37  38
ATOM     38  O   UNL     1     -39.941  -7.681  79.767  1.00  0.00    -0.394 OA
ATOM     39  H   UNL     1     -39.163  -7.472  79.189  1.00  0.00     0.210 HD
ENDBRANCH  37  38
ENDBRANCH  31  37
BRANCH  32  40
ATOM     40  O   UNL     1     -37.832  -7.265  82.110  1.00  0.00    -0.387 OA
ATOM     41  H   UNL     1     -37.504  -7.837  81.367  1.00  0.00     0.211 HD
ENDBRANCH  32  40
ENDBRANCH   1  27
TORSDOF 12
ENDMDL
