MODEL 1
REMARK VINA RESULT:    -2.902      0.000      0.000
REMARK INTER + INTRA:          -5.671
REMARK INTER:                  -4.599
REMARK INTRA:                  -1.072
REMARK UNBOUND:                -1.072
REMARK SMILES CCCCCCCCCCCC(=O)[O-]
REMARK SMILES IDX 7 1 8 2 9 3 10 4 11 5 12 6 13 7 14 8 6 9 5 10 4 11 3 12 2 13
REMARK SMILES IDX 1 14
REMARK H PARENT
REMARK Flexibility Score: inf
ROOT
ATOM      1  C   UNL     1       4.079  18.608   5.858  1.00  0.00     0.000 C 
ENDROOT
BRANCH   1   2
ATOM      2  C   UNL     1       5.284  18.766   6.798  1.00  0.00     0.000 C 
BRANCH   2   3
ATOM      3  C   UNL     1       5.250  17.712   7.915  1.00  0.00     0.000 C 
BRANCH   3   4
ATOM      4  C   UNL     1       3.991  16.832   7.860  1.00  0.00     0.006 C 
BRANCH   4   5
ATOM      5  C   UNL     1       4.292  15.353   8.139  1.00  0.00     0.053 C 
BRANCH   5   6
ATOM      6  C   UNL     1       4.321  14.576   6.861  1.00  0.00     0.041 C 
ATOM      7  O   UNL     1       3.606  13.547   6.729  1.00  0.00    -0.550 OA
ATOM      8  O   UNL     1       5.175  14.956   5.834  1.00  0.00    -0.550 OA
ENDBRANCH   5   6
ENDBRANCH   4   5
ENDBRANCH   3   4
ENDBRANCH   2   3
ENDBRANCH   1   2
BRANCH   1   9
ATOM      9  C   UNL     1       3.229  19.885   5.761  1.00  0.00     0.000 C 
BRANCH   9  10
ATOM     10  C   UNL     1       1.888  19.760   6.506  1.00  0.00    -0.000 C 
BRANCH  10  11
ATOM     11  C   UNL     1       1.818  20.665   7.747  1.00  0.00    -0.000 C 
BRANCH  11  12
ATOM     12  C   UNL     1       2.626  20.111   8.934  1.00  0.00    -0.000 C 
BRANCH  12  13
ATOM     13  C   UNL     1       1.800  20.042  10.227  1.00  0.00    -0.003 C 
ATOM     14  C   UNL     1       2.374  19.055  11.243  1.00  0.00     0.004 C 
ENDBRANCH  12  13
ENDBRANCH  11  12
ENDBRANCH  10  11
ENDBRANCH   9  10
ENDBRANCH   1   9
TORSDOF 10
ENDMDL
MODEL 2
REMARK VINA RESULT:    -2.791      0.822      1.644
REMARK INTER + INTRA:          -5.495
REMARK INTER:                  -4.362
REMARK INTRA:                  -1.133
REMARK UNBOUND:                -1.072
REMARK SMILES CCCCCCCCCCCC(=O)[O-]
REMARK SMILES IDX 7 1 8 2 9 3 10 4 11 5 12 6 13 7 14 8 6 9 5 10 4 11 3 12 2 13
REMARK SMILES IDX 1 14
REMARK H PARENT
REMARK Flexibility Score: inf
ROOT
ATOM      1  C   UNL     1       3.008  20.129   5.796  1.00  0.00     0.000 C 
ENDROOT
BRANCH   1   2
ATOM      2  C   UNL     1       4.010  18.966   5.711  1.00  0.00     0.000 C 
BRANCH   2   3
ATOM      3  C   UNL     1       5.093  19.097   6.793  1.00  0.00     0.000 C 
BRANCH   3   4
ATOM      4  C   UNL     1       5.201  17.844   7.677  1.00  0.00     0.006 C 
BRANCH   4   5
ATOM      5  C   UNL     1       4.007  16.896   7.508  1.00  0.00     0.053 C 
BRANCH   5   6
ATOM      6  C   UNL     1       4.466  15.472   7.514  1.00  0.00     0.041 C 
ATOM      7  O   UNL     1       5.672  15.195   7.749  1.00  0.00    -0.550 OA
ATOM      8  O   UNL     1       3.573  14.452   7.209  1.00  0.00    -0.550 OA
ENDBRANCH   5   6
ENDBRANCH   4   5
ENDBRANCH   3   4
ENDBRANCH   2   3
ENDBRANCH   1   2
BRANCH   1   9
ATOM      9  C   UNL     1       1.733  19.759   6.571  1.00  0.00     0.000 C 
BRANCH   9  10
ATOM     10  C   UNL     1       1.382  20.790   7.657  1.00  0.00    -0.000 C 
BRANCH  10  11
ATOM     11  C   UNL     1       2.461  20.887   8.748  1.00  0.00    -0.000 C 
BRANCH  11  12
ATOM     12  C   UNL     1       2.553  19.614   9.608  1.00  0.00    -0.000 C 
BRANCH  12  13
ATOM     13  C   UNL     1       1.711  19.708  10.889  1.00  0.00    -0.003 C 
ATOM     14  C   UNL     1       2.234  18.804  12.006  1.00  0.00     0.004 C 
ENDBRANCH  12  13
ENDBRANCH  11  12
ENDBRANCH  10  11
ENDBRANCH   9  10
ENDBRANCH   1   9
TORSDOF 10
ENDMDL
MODEL 3
REMARK VINA RESULT:    -2.781      1.740      3.397
REMARK INTER + INTRA:          -5.478
REMARK INTER:                  -4.422
REMARK INTRA:                  -1.057
REMARK UNBOUND:                -1.072
REMARK SMILES CCCCCCCCCCCC(=O)[O-]
REMARK SMILES IDX 7 1 8 2 9 3 10 4 11 5 12 6 13 7 14 8 6 9 5 10 4 11 3 12 2 13
REMARK SMILES IDX 1 14
REMARK H PARENT
REMARK Flexibility Score: inf
ROOT
ATOM      1  C   UNL     1       5.128  17.535   9.733  1.00  0.00     0.000 C 
ENDROOT
BRANCH   1   2
ATOM      2  C   UNL     1       4.255  16.277   9.864  1.00  0.00     0.000 C 
BRANCH   2   3
ATOM      3  C   UNL     1       4.740  15.173   8.912  1.00  0.00     0.000 C 
BRANCH   3   4
ATOM      4  C   UNL     1       3.905  15.095   7.623  1.00  0.00     0.006 C 
BRANCH   4   5
ATOM      5  C   UNL     1       4.772  14.979   6.363  1.00  0.00     0.053 C 
BRANCH   5   6
ATOM      6  C   UNL     1       4.467  13.709   5.634  1.00  0.00     0.041 C 
ATOM      7  O   UNL     1       3.559  12.941   6.050  1.00  0.00    -0.550 OA
ATOM      8  O   UNL     1       5.219  13.346   4.524  1.00  0.00    -0.550 OA
ENDBRANCH   5   6
ENDBRANCH   4   5
ENDBRANCH   3   4
ENDBRANCH   2   3
ENDBRANCH   1   2
BRANCH   1   9
ATOM      9  C   UNL     1       4.439  18.655   8.935  1.00  0.00     0.000 C 
BRANCH   9  10
ATOM     10  C   UNL     1       4.976  18.771   7.498  1.00  0.00    -0.000 C 
BRANCH  10  11
ATOM     11  C   UNL     1       3.870  18.610   6.442  1.00  0.00    -0.000 C 
BRANCH  11  12
ATOM     12  C   UNL     1       2.574  19.348   6.821  1.00  0.00    -0.000 C 
BRANCH  12  13
ATOM     13  C   UNL     1       2.077  20.275   5.702  1.00  0.00    -0.003 C 
ATOM     14  C   UNL     1       3.194  20.700   4.748  1.00  0.00     0.004 C 
ENDBRANCH  12  13
ENDBRANCH  11  12
ENDBRANCH  10  11
ENDBRANCH   9  10
ENDBRANCH   1   9
TORSDOF 10
ENDMDL
MODEL 4
REMARK VINA RESULT:    -2.774      1.375      3.448
REMARK INTER + INTRA:          -5.469
REMARK INTER:                  -4.584
REMARK INTRA:                  -0.885
REMARK UNBOUND:                -1.072
REMARK SMILES CCCCCCCCCCCC(=O)[O-]
REMARK SMILES IDX 7 1 8 2 9 3 10 4 11 5 12 6 13 7 14 8 6 9 5 10 4 11 3 12 2 13
REMARK SMILES IDX 1 14
REMARK H PARENT
REMARK Flexibility Score: inf
ROOT
ATOM      1  C   UNL     1       3.902  18.334  11.017  1.00  0.00     0.000 C 
ENDROOT
BRANCH   1   2
ATOM      2  C   UNL     1       4.205  16.905  11.494  1.00  0.00     0.000 C 
BRANCH   2   3
ATOM      3  C   UNL     1       4.364  15.952  10.300  1.00  0.00     0.000 C 
BRANCH   3   4
ATOM      4  C   UNL     1       4.399  16.691   8.953  1.00  0.00     0.006 C 
BRANCH   4   5
ATOM      5  C   UNL     1       5.211  15.943   7.889  1.00  0.00     0.053 C 
BRANCH   5   6
ATOM      6  C   UNL     1       4.652  14.572   7.673  1.00  0.00     0.041 C 
ATOM      7  O   UNL     1       3.490  14.427   7.210  1.00  0.00    -0.550 OA
ATOM      8  O   UNL     1       5.394  13.454   8.030  1.00  0.00    -0.550 OA
ENDBRANCH   5   6
ENDBRANCH   4   5
ENDBRANCH   3   4
ENDBRANCH   2   3
ENDBRANCH   1   2
BRANCH   1   9
ATOM      9  C   UNL     1       2.462  18.773  11.332  1.00  0.00     0.000 C 
BRANCH   9  10
ATOM     10  C   UNL     1       1.936  19.827  10.343  1.00  0.00    -0.000 C 
BRANCH  10  11
ATOM     11  C   UNL     1       2.688  19.802   9.002  1.00  0.00    -0.000 C 
BRANCH  11  12
ATOM     12  C   UNL     1       1.909  20.496   7.871  1.00  0.00    -0.000 C 
BRANCH  12  13
ATOM     13  C   UNL     1       1.968  19.714   6.550  1.00  0.00    -0.003 C 
ATOM     14  C   UNL     1       3.357  19.143   6.264  1.00  0.00     0.004 C 
ENDBRANCH  12  13
ENDBRANCH  11  12
ENDBRANCH  10  11
ENDBRANCH   9  10
ENDBRANCH   1   9
TORSDOF 10
ENDMDL
MODEL 5
REMARK VINA RESULT:    -2.742      2.405      4.191
REMARK INTER + INTRA:          -5.418
REMARK INTER:                  -4.539
REMARK INTRA:                  -0.879
REMARK UNBOUND:                -1.072
REMARK SMILES CCCCCCCCCCCC(=O)[O-]
REMARK SMILES IDX 7 1 8 2 9 3 10 4 11 5 12 6 13 7 14 8 6 9 5 10 4 11 3 12 2 13
REMARK SMILES IDX 1 14
REMARK H PARENT
REMARK Flexibility Score: inf
ROOT
ATOM      1  C   UNL     1       0.910  20.977   9.614  1.00  0.00     0.000 C 
ENDROOT
BRANCH   1   2
ATOM      2  C   UNL     1       2.135  20.083   9.863  1.00  0.00     0.000 C 
BRANCH   2   3
ATOM      3  C   UNL     1       1.968  19.274  11.158  1.00  0.00     0.000 C 
BRANCH   3   4
ATOM      4  C   UNL     1       3.130  18.296  11.400  1.00  0.00     0.006 C 
BRANCH   4   5
ATOM      5  C   UNL     1       3.861  17.917  10.106  1.00  0.00     0.053 C 
BRANCH   5   6
ATOM      6  C   UNL     1       4.677  16.679  10.311  1.00  0.00     0.041 C 
ATOM      7  O   UNL     1       4.197  15.550  10.027  1.00  0.00    -0.550 OA
ATOM      8  O   UNL     1       5.948  16.767  10.863  1.00  0.00    -0.550 OA
ENDBRANCH   5   6
ENDBRANCH   4   5
ENDBRANCH   3   4
ENDBRANCH   2   3
ENDBRANCH   1   2
BRANCH   1   9
ATOM      9  C   UNL     1       0.979  21.719   8.269  1.00  0.00     0.000 C 
BRANCH   9  10
ATOM     10  C   UNL     1       0.047  21.108   7.209  1.00  0.00    -0.000 C 
BRANCH  10  11
ATOM     11  C   UNL     1       0.781  20.136   6.270  1.00  0.00    -0.000 C 
BRANCH  11  12
ATOM     12  C   UNL     1       1.895  20.820   5.459  1.00  0.00    -0.000 C 
BRANCH  12  13
ATOM     13  C   UNL     1       3.199  20.008   5.450  1.00  0.00    -0.003 C 
ATOM     14  C   UNL     1       3.249  18.961   6.564  1.00  0.00     0.004 C 
ENDBRANCH  12  13
ENDBRANCH  11  12
ENDBRANCH  10  11
ENDBRANCH   9  10
ENDBRANCH   1   9
TORSDOF 10
ENDMDL
MODEL 6
REMARK VINA RESULT:    -2.731      1.582      3.656
REMARK INTER + INTRA:          -5.400
REMARK INTER:                  -4.405
REMARK INTRA:                  -0.995
REMARK UNBOUND:                -1.072
REMARK SMILES CCCCCCCCCCCC(=O)[O-]
REMARK SMILES IDX 7 1 8 2 9 3 10 4 11 5 12 6 13 7 14 8 6 9 5 10 4 11 3 12 2 13
REMARK SMILES IDX 1 14
REMARK H PARENT
REMARK Flexibility Score: inf
ROOT
ATOM      1  C   UNL     1       1.739  20.004  10.325  1.00  0.00     0.000 C 
ENDROOT
BRANCH   1   2
ATOM      2  C   UNL     1       2.783  18.976  10.788  1.00  0.00     0.000 C 
BRANCH   2   3
ATOM      3  C   UNL     1       3.824  18.720   9.687  1.00  0.00     0.000 C 
BRANCH   3   4
ATOM      4  C   UNL     1       4.093  17.223   9.464  1.00  0.00     0.006 C 
BRANCH   4   5
ATOM      5  C   UNL     1       4.242  16.864   7.980  1.00  0.00     0.053 C 
BRANCH   5   6
ATOM      6  C   UNL     1       5.603  16.305   7.711  1.00  0.00     0.041 C 
ATOM      7  O   UNL     1       6.437  16.189   8.648  1.00  0.00    -0.550 OA
ATOM      8  O   UNL     1       5.970  15.960   6.417  1.00  0.00    -0.550 OA
ENDBRANCH   5   6
ENDBRANCH   4   5
ENDBRANCH   3   4
ENDBRANCH   2   3
ENDBRANCH   1   2
BRANCH   1   9
ATOM      9  C   UNL     1       2.087  20.635   8.967  1.00  0.00     0.000 C 
BRANCH   9  10
ATOM     10  C   UNL     1       0.842  20.919   8.110  1.00  0.00    -0.000 C 
BRANCH  10  11
ATOM     11  C   UNL     1       0.965  20.350   6.687  1.00  0.00    -0.000 C 
BRANCH  11  12
ATOM     12  C   UNL     1       2.260  19.546   6.477  1.00  0.00    -0.000 C 
BRANCH  12  13
ATOM     13  C   UNL     1       3.133  20.121   5.352  1.00  0.00    -0.003 C 
ATOM     14  C   UNL     1       2.443  21.252   4.589  1.00  0.00     0.004 C 
ENDBRANCH  12  13
ENDBRANCH  11  12
ENDBRANCH  10  11
ENDBRANCH   9  10
ENDBRANCH   1   9
TORSDOF 10
ENDMDL
MODEL 7
REMARK VINA RESULT:    -2.706      0.982      3.142
REMARK INTER + INTRA:          -5.360
REMARK INTER:                  -4.158
REMARK INTRA:                  -1.202
REMARK UNBOUND:                -1.072
REMARK SMILES CCCCCCCCCCCC(=O)[O-]
REMARK SMILES IDX 7 1 8 2 9 3 10 4 11 5 12 6 13 7 14 8 6 9 5 10 4 11 3 12 2 13
REMARK SMILES IDX 1 14
REMARK H PARENT
REMARK Flexibility Score: inf
ROOT
ATOM      1  C   UNL     1       3.672  19.431   9.919  1.00  0.00     0.000 C 
ENDROOT
BRANCH   1   2
ATOM      2  C   UNL     1       4.016  17.945   9.728  1.00  0.00     0.000 C 
BRANCH   2   3
ATOM      3  C   UNL     1       4.727  17.717   8.385  1.00  0.00     0.000 C 
BRANCH   3   4
ATOM      4  C   UNL     1       3.936  16.790   7.447  1.00  0.00     0.006 C 
BRANCH   4   5
ATOM      5  C   UNL     1       3.995  15.320   7.881  1.00  0.00     0.053 C 
BRANCH   5   6
ATOM      6  C   UNL     1       4.402  14.452   6.732  1.00  0.00     0.041 C 
ATOM      7  O   UNL     1       5.366  14.788   5.994  1.00  0.00    -0.550 OA
ATOM      8  O   UNL     1       3.685  13.298   6.444  1.00  0.00    -0.550 OA
ENDBRANCH   5   6
ENDBRANCH   4   5
ENDBRANCH   3   4
ENDBRANCH   2   3
ENDBRANCH   1   2
BRANCH   1   9
ATOM      9  C   UNL     1       2.299  19.803   9.335  1.00  0.00     0.000 C 
BRANCH   9  10
ATOM     10  C   UNL     1       2.410  20.721   8.106  1.00  0.00    -0.000 C 
BRANCH  10  11
ATOM     11  C   UNL     1       1.575  20.217   6.917  1.00  0.00    -0.000 C 
BRANCH  11  12
ATOM     12  C   UNL     1       2.366  20.204   5.597  1.00  0.00    -0.000 C 
BRANCH  12  13
ATOM     13  C   UNL     1       3.880  20.344   5.819  1.00  0.00    -0.003 C 
ATOM     14  C   UNL     1       4.695  19.393   4.941  1.00  0.00     0.004 C 
ENDBRANCH  12  13
ENDBRANCH  11  12
ENDBRANCH  10  11
ENDBRANCH   9  10
ENDBRANCH   1   9
TORSDOF 10
ENDMDL
MODEL 8
REMARK VINA RESULT:    -2.671      1.260      1.948
REMARK INTER + INTRA:          -5.305
REMARK INTER:                  -4.087
REMARK INTRA:                  -1.218
REMARK UNBOUND:                -1.072
REMARK SMILES CCCCCCCCCCCC(=O)[O-]
REMARK SMILES IDX 7 1 8 2 9 3 10 4 11 5 12 6 13 7 14 8 6 9 5 10 4 11 3 12 2 13
REMARK SMILES IDX 1 14
REMARK H PARENT
REMARK Flexibility Score: inf
ROOT
ATOM      1  C   UNL     1       2.890  19.006   7.000  1.00  0.00     0.000 C 
ENDROOT
BRANCH   1   2
ATOM      2  C   UNL     1       4.070  18.481   6.167  1.00  0.00     0.000 C 
BRANCH   2   3
ATOM      3  C   UNL     1       4.781  17.328   6.891  1.00  0.00     0.000 C 
BRANCH   3   4
ATOM      4  C   UNL     1       3.823  16.488   7.751  1.00  0.00     0.006 C 
BRANCH   4   5
ATOM      5  C   UNL     1       4.497  15.244   8.344  1.00  0.00     0.053 C 
BRANCH   5   6
ATOM      6  C   UNL     1       4.660  14.189   7.296  1.00  0.00     0.041 C 
ATOM      7  O   UNL     1       3.651  13.717   6.709  1.00  0.00    -0.550 OA
ATOM      8  O   UNL     1       5.923  13.689   7.003  1.00  0.00    -0.550 OA
ENDBRANCH   5   6
ENDBRANCH   4   5
ENDBRANCH   3   4
ENDBRANCH   2   3
ENDBRANCH   1   2
BRANCH   1   9
ATOM      9  C   UNL     1       3.185  20.363   7.658  1.00  0.00     0.000 C 
BRANCH   9  10
ATOM     10  C   UNL     1       3.443  20.242   9.170  1.00  0.00    -0.000 C 
BRANCH  10  11
ATOM     11  C   UNL     1       2.213  19.733   9.939  1.00  0.00    -0.000 C 
BRANCH  11  12
ATOM     12  C   UNL     1       2.586  18.821  11.121  1.00  0.00    -0.000 C 
BRANCH  12  13
ATOM     13  C   UNL     1       3.982  18.198  10.966  1.00  0.00    -0.003 C 
ATOM     14  C   UNL     1       4.117  16.862  11.696  1.00  0.00     0.004 C 
ENDBRANCH  12  13
ENDBRANCH  11  12
ENDBRANCH  10  11
ENDBRANCH   9  10
ENDBRANCH   1   9
TORSDOF 10
ENDMDL
MODEL 9
REMARK VINA RESULT:    -2.635      3.732      5.164
REMARK INTER + INTRA:          -5.247
REMARK INTER:                  -4.331
REMARK INTRA:                  -0.916
REMARK UNBOUND:                -1.072
REMARK SMILES CCCCCCCCCCCC(=O)[O-]
REMARK SMILES IDX 7 1 8 2 9 3 10 4 11 5 12 6 13 7 14 8 6 9 5 10 4 11 3 12 2 13
REMARK SMILES IDX 1 14
REMARK H PARENT
REMARK Flexibility Score: inf
ROOT
ATOM      1  C   UNL     1       4.226  20.013   8.435  1.00  0.00     0.000 C 
ENDROOT
BRANCH   1   2
ATOM      2  C   UNL     1       3.184  19.154   9.169  1.00  0.00     0.000 C 
BRANCH   2   3
ATOM      3  C   UNL     1       2.079  20.033   9.775  1.00  0.00     0.000 C 
BRANCH   3   4
ATOM      4  C   UNL     1       1.709  19.616  11.208  1.00  0.00     0.006 C 
BRANCH   4   5
ATOM      5  C   UNL     1       2.646  18.540  11.770  1.00  0.00     0.053 C 
BRANCH   5   6
ATOM      6  C   UNL     1       2.134  18.034  13.082  1.00  0.00     0.041 C 
ATOM      7  O   UNL     1       1.045  18.465  13.546  1.00  0.00    -0.550 OA
ATOM      8  O   UNL     1       2.883  17.126  13.818  1.00  0.00    -0.550 OA
ENDBRANCH   5   6
ENDBRANCH   4   5
ENDBRANCH   3   4
ENDBRANCH   2   3
ENDBRANCH   1   2
BRANCH   1   9
ATOM      9  C   UNL     1       4.671  19.395   7.100  1.00  0.00     0.000 C 
BRANCH   9  10
ATOM     10  C   UNL     1       3.486  19.090   6.166  1.00  0.00    -0.000 C 
BRANCH  10  11
ATOM     11  C   UNL     1       3.241  20.211   5.142  1.00  0.00    -0.000 C 
BRANCH  11  12
ATOM     12  C   UNL     1       1.859  20.868   5.300  1.00  0.00    -0.000 C 
BRANCH  12  13
ATOM     13  C   UNL     1       0.977  20.144   6.328  1.00  0.00    -0.003 C 
ATOM     14  C   UNL     1      -0.350  20.861   6.576  1.00  0.00     0.004 C 
ENDBRANCH  12  13
ENDBRANCH  11  12
ENDBRANCH  10  11
ENDBRANCH   9  10
ENDBRANCH   1   9
TORSDOF 10
ENDMDL
