MODEL 1
REMARK VINA RESULT:    -4.002      0.000      0.000
REMARK INTER + INTRA:          -7.855
REMARK INTER:                  -6.809
REMARK INTRA:                  -1.045
REMARK UNBOUND:                -1.045
REMARK SMILES CCCCCCCCCCCCCC(=O)[O-]
REMARK SMILES IDX 8 1 9 2 10 3 11 4 12 5 13 6 14 7 15 8 16 9 7 10 6 11 5 12
REMARK SMILES IDX 4 13 3 14 2 15 1 16
REMARK H PARENT
REMARK Flexibility Score: inf
ROOT
ATOM      1  C   UNL     1     129.512 120.873 118.081  1.00  0.00     0.000 C 
ENDROOT
BRANCH   1   2
ATOM      2  C   UNL     1     128.137 120.821 118.769  1.00  0.00     0.000 C 
BRANCH   2   3
ATOM      3  C   UNL     1     126.973 120.903 117.766  1.00  0.00     0.000 C 
BRANCH   3   4
ATOM      4  C   UNL     1     125.944 119.777 117.964  1.00  0.00     0.000 C 
BRANCH   4   5
ATOM      5  C   UNL     1     124.579 120.100 117.328  1.00  0.00     0.006 C 
BRANCH   5   6
ATOM      6  C   UNL     1     124.341 121.595 117.061  1.00  0.00     0.053 C 
BRANCH   6   7
ATOM      7  C   UNL     1     123.072 122.082 117.689  1.00  0.00     0.041 C 
ATOM      8  O   UNL     1     122.155 121.270 117.980  1.00  0.00    -0.550 OA
ATOM      9  O   UNL     1     122.915 123.431 117.984  1.00  0.00    -0.550 OA
ENDBRANCH   6   7
ENDBRANCH   5   6
ENDBRANCH   4   5
ENDBRANCH   3   4
ENDBRANCH   2   3
ENDBRANCH   1   2
BRANCH   1  10
ATOM     10  C   UNL     1     130.444 119.737 118.534  1.00  0.00     0.000 C 
BRANCH  10  11
ATOM     11  C   UNL     1     131.910 119.980 118.147  1.00  0.00    -0.000 C 
BRANCH  11  12
ATOM     12  C   UNL     1     132.806 120.027 119.394  1.00  0.00    -0.000 C 
BRANCH  12  13
ATOM     13  C   UNL     1     132.082 120.599 120.625  1.00  0.00    -0.000 C 
BRANCH  13  14
ATOM     14  C   UNL     1     132.498 122.048 120.934  1.00  0.00    -0.000 C 
BRANCH  14  15
ATOM     15  C   UNL     1     131.463 123.074 120.444  1.00  0.00    -0.003 C 
ATOM     16  C   UNL     1     130.122 122.955 121.169  1.00  0.00     0.004 C 
ENDBRANCH  14  15
ENDBRANCH  13  14
ENDBRANCH  12  13
ENDBRANCH  11  12
ENDBRANCH  10  11
ENDBRANCH   1  10
TORSDOF 12
ENDMDL
MODEL 2
REMARK VINA RESULT:    -3.982      0.920      2.513
REMARK INTER + INTRA:          -7.821
REMARK INTER:                  -6.588
REMARK INTRA:                  -1.233
REMARK UNBOUND:                -1.045
REMARK SMILES CCCCCCCCCCCCCC(=O)[O-]
REMARK SMILES IDX 8 1 9 2 10 3 11 4 12 5 13 6 14 7 15 8 16 9 7 10 6 11 5 12
REMARK SMILES IDX 4 13 3 14 2 15 1 16
REMARK H PARENT
REMARK Flexibility Score: inf
ROOT
ATOM      1  C   UNL     1     128.448 121.151 120.151  1.00  0.00     0.000 C 
ENDROOT
BRANCH   1   2
ATOM      2  C   UNL     1     128.727 120.934 118.654  1.00  0.00     0.000 C 
BRANCH   2   3
ATOM      3  C   UNL     1     127.537 120.294 117.920  1.00  0.00     0.000 C 
BRANCH   3   4
ATOM      4  C   UNL     1     126.181 120.816 118.425  1.00  0.00     0.000 C 
BRANCH   4   5
ATOM      5  C   UNL     1     125.081 120.756 117.350  1.00  0.00     0.006 C 
BRANCH   5   6
ATOM      6  C   UNL     1     124.451 122.116 117.008  1.00  0.00     0.053 C 
BRANCH   6   7
ATOM      7  C   UNL     1     123.179 122.350 117.762  1.00  0.00     0.041 C 
ATOM      8  O   UNL     1     122.797 123.523 118.012  1.00  0.00    -0.550 OA
ATOM      9  O   UNL     1     122.398 121.272 118.160  1.00  0.00    -0.550 OA
ENDBRANCH   6   7
ENDBRANCH   5   6
ENDBRANCH   4   5
ENDBRANCH   3   4
ENDBRANCH   2   3
ENDBRANCH   1   2
BRANCH   1  10
ATOM     10  C   UNL     1     129.417 122.157 120.793  1.00  0.00     0.000 C 
BRANCH  10  11
ATOM     11  C   UNL     1     130.713 122.333 119.986  1.00  0.00    -0.000 C 
BRANCH  11  12
ATOM     12  C   UNL     1     131.946 122.099 120.872  1.00  0.00    -0.000 C 
BRANCH  12  13
ATOM     13  C   UNL     1     132.789 120.897 120.412  1.00  0.00    -0.000 C 
BRANCH  13  14
ATOM     14  C   UNL     1     132.111 119.550 120.717  1.00  0.00    -0.000 C 
BRANCH  14  15
ATOM     15  C   UNL     1     131.733 118.781 119.441  1.00  0.00    -0.003 C 
ATOM     16  C   UNL     1     132.204 119.480 118.166  1.00  0.00     0.004 C 
ENDBRANCH  14  15
ENDBRANCH  13  14
ENDBRANCH  12  13
ENDBRANCH  11  12
ENDBRANCH  10  11
ENDBRANCH   1  10
TORSDOF 12
ENDMDL
MODEL 3
REMARK VINA RESULT:    -3.921      3.621      6.931
REMARK INTER + INTRA:          -7.717
REMARK INTER:                  -5.935
REMARK INTRA:                  -1.781
REMARK UNBOUND:                -1.045
REMARK SMILES CCCCCCCCCCCCCC(=O)[O-]
REMARK SMILES IDX 8 1 9 2 10 3 11 4 12 5 13 6 14 7 15 8 16 9 7 10 6 11 5 12
REMARK SMILES IDX 4 13 3 14 2 15 1 16
REMARK H PARENT
REMARK Flexibility Score: inf
ROOT
ATOM      1  C   UNL     1     126.033 119.627 117.775  1.00  0.00     0.000 C 
ENDROOT
BRANCH   1   2
ATOM      2  C   UNL     1     126.833 120.940 117.722  1.00  0.00     0.000 C 
BRANCH   2   3
ATOM      3  C   UNL     1     128.311 120.744 118.104  1.00  0.00     0.000 C 
BRANCH   3   4
ATOM      4  C   UNL     1     128.495 119.742 119.256  1.00  0.00     0.000 C 
BRANCH   4   5
ATOM      5  C   UNL     1     129.116 120.385 120.511  1.00  0.00     0.006 C 
BRANCH   5   6
ATOM      6  C   UNL     1     129.424 121.884 120.370  1.00  0.00     0.053 C 
BRANCH   6   7
ATOM      7  C   UNL     1     130.896 122.152 120.310  1.00  0.00     0.041 C 
ATOM      8  O   UNL     1     131.695 121.236 119.982  1.00  0.00    -0.550 OA
ATOM      9  O   UNL     1     131.383 123.424 120.587  1.00  0.00    -0.550 OA
ENDBRANCH   6   7
ENDBRANCH   5   6
ENDBRANCH   4   5
ENDBRANCH   3   4
ENDBRANCH   2   3
ENDBRANCH   1   2
BRANCH   1  10
ATOM     10  C   UNL     1     124.531 119.840 117.523  1.00  0.00     0.000 C 
BRANCH  10  11
ATOM     11  C   UNL     1     124.196 121.281 117.109  1.00  0.00    -0.000 C 
BRANCH  11  12
ATOM     12  C   UNL     1     122.984 121.808 117.891  1.00  0.00    -0.000 C 
BRANCH  12  13
ATOM     13  C   UNL     1     123.379 122.774 119.021  1.00  0.00    -0.000 C 
BRANCH  13  14
ATOM     14  C   UNL     1     123.592 122.055 120.365  1.00  0.00    -0.000 C 
BRANCH  14  15
ATOM     15  C   UNL     1     125.079 121.936 120.738  1.00  0.00    -0.003 C 
ATOM     16  C   UNL     1     125.428 120.582 121.355  1.00  0.00     0.004 C 
ENDBRANCH  14  15
ENDBRANCH  13  14
ENDBRANCH  12  13
ENDBRANCH  11  12
ENDBRANCH  10  11
ENDBRANCH   1  10
TORSDOF 12
ENDMDL
MODEL 4
REMARK VINA RESULT:    -3.889      2.032      3.409
REMARK INTER + INTRA:          -7.663
REMARK INTER:                  -6.702
REMARK INTRA:                  -0.961
REMARK UNBOUND:                -1.045
REMARK SMILES CCCCCCCCCCCCCC(=O)[O-]
REMARK SMILES IDX 8 1 9 2 10 3 11 4 12 5 13 6 14 7 15 8 16 9 7 10 6 11 5 12
REMARK SMILES IDX 4 13 3 14 2 15 1 16
REMARK H PARENT
REMARK Flexibility Score: inf
ROOT
ATOM      1  C   UNL     1     125.889 119.839 117.790  1.00  0.00     0.000 C 
ENDROOT
BRANCH   1   2
ATOM      2  C   UNL     1     124.494 120.307 117.339  1.00  0.00     0.000 C 
BRANCH   2   3
ATOM      3  C   UNL     1     124.471 121.794 116.947  1.00  0.00     0.000 C 
BRANCH   3   4
ATOM      4  C   UNL     1     123.469 122.609 117.781  1.00  0.00     0.000 C 
BRANCH   4   5
ATOM      5  C   UNL     1     122.852 121.794 118.934  1.00  0.00     0.006 C 
BRANCH   5   6
ATOM      6  C   UNL     1     122.851 122.513 120.292  1.00  0.00     0.053 C 
BRANCH   6   7
ATOM      7  C   UNL     1     123.974 122.055 121.170  1.00  0.00     0.041 C 
ATOM      8  O   UNL     1     125.024 121.583 120.662  1.00  0.00    -0.550 OA
ATOM      9  O   UNL     1     123.872 122.181 122.550  1.00  0.00    -0.550 OA
ENDBRANCH   6   7
ENDBRANCH   5   6
ENDBRANCH   4   5
ENDBRANCH   3   4
ENDBRANCH   2   3
ENDBRANCH   1   2
BRANCH   1  10
ATOM     10  C   UNL     1     126.939 120.960 117.725  1.00  0.00     0.000 C 
BRANCH  10  11
ATOM     11  C   UNL     1     128.079 120.767 118.737  1.00  0.00    -0.000 C 
BRANCH  11  12
ATOM     12  C   UNL     1     129.443 120.760 118.031  1.00  0.00    -0.000 C 
BRANCH  12  13
ATOM     13  C   UNL     1     130.592 121.201 118.954  1.00  0.00    -0.000 C 
BRANCH  13  14
ATOM     14  C   UNL     1     130.099 121.625 120.349  1.00  0.00    -0.000 C 
BRANCH  14  15
ATOM     15  C   UNL     1     130.599 123.023 120.748  1.00  0.00    -0.003 C 
ATOM     16  C   UNL     1     132.124 123.134 120.730  1.00  0.00     0.004 C 
ENDBRANCH  14  15
ENDBRANCH  13  14
ENDBRANCH  12  13
ENDBRANCH  11  12
ENDBRANCH  10  11
ENDBRANCH   1  10
TORSDOF 12
ENDMDL
MODEL 5
REMARK VINA RESULT:    -3.887      3.935      7.591
REMARK INTER + INTRA:          -7.659
REMARK INTER:                  -6.460
REMARK INTRA:                  -1.200
REMARK UNBOUND:                -1.045
REMARK SMILES CCCCCCCCCCCCCC(=O)[O-]
REMARK SMILES IDX 8 1 9 2 10 3 11 4 12 5 13 6 14 7 15 8 16 9 7 10 6 11 5 12
REMARK SMILES IDX 4 13 3 14 2 15 1 16
REMARK H PARENT
REMARK Flexibility Score: inf
ROOT
ATOM      1  C   UNL     1     126.229 120.722 117.897  1.00  0.00     0.000 C 
ENDROOT
BRANCH   1   2
ATOM      2  C   UNL     1     126.715 120.699 119.356  1.00  0.00     0.000 C 
BRANCH   2   3
ATOM      3  C   UNL     1     128.214 121.021 119.483  1.00  0.00     0.000 C 
BRANCH   3   4
ATOM      4  C   UNL     1     128.979 120.793 118.168  1.00  0.00     0.000 C 
BRANCH   4   5
ATOM      5  C   UNL     1     130.507 120.792 118.362  1.00  0.00     0.006 C 
BRANCH   5   6
ATOM      6  C   UNL     1     130.989 121.529 119.621  1.00  0.00     0.053 C 
BRANCH   6   7
ATOM      7  C   UNL     1     131.920 120.690 120.440  1.00  0.00     0.041 C 
ATOM      8  O   UNL     1     133.065 121.120 120.739  1.00  0.00    -0.550 OA
ATOM      9  O   UNL     1     131.510 119.445 120.902  1.00  0.00    -0.550 OA
ENDBRANCH   6   7
ENDBRANCH   5   6
ENDBRANCH   4   5
ENDBRANCH   3   4
ENDBRANCH   2   3
ENDBRANCH   1   2
BRANCH   1  10
ATOM     10  C   UNL     1     125.027 119.793 117.660  1.00  0.00     0.000 C 
BRANCH  10  11
ATOM     11  C   UNL     1     123.779 120.547 117.175  1.00  0.00    -0.000 C 
BRANCH  11  12
ATOM     12  C   UNL     1     124.092 122.033 116.942  1.00  0.00    -0.000 C 
BRANCH  12  13
ATOM     13  C   UNL     1     123.288 122.962 117.867  1.00  0.00    -0.000 C 
BRANCH  13  14
ATOM     14  C   UNL     1     122.610 122.203 119.022  1.00  0.00    -0.000 C 
BRANCH  14  15
ATOM     15  C   UNL     1     123.402 122.306 120.336  1.00  0.00    -0.003 C 
ATOM     16  C   UNL     1     123.085 121.171 121.310  1.00  0.00     0.004 C 
ENDBRANCH  14  15
ENDBRANCH  13  14
ENDBRANCH  12  13
ENDBRANCH  11  12
ENDBRANCH  10  11
ENDBRANCH   1  10
TORSDOF 12
ENDMDL
MODEL 6
REMARK VINA RESULT:    -3.878      3.629      6.996
REMARK INTER + INTRA:          -7.644
REMARK INTER:                  -6.017
REMARK INTRA:                  -1.627
REMARK UNBOUND:                -1.045
REMARK SMILES CCCCCCCCCCCCCC(=O)[O-]
REMARK SMILES IDX 8 1 9 2 10 3 11 4 12 5 13 6 14 7 15 8 16 9 7 10 6 11 5 12
REMARK SMILES IDX 4 13 3 14 2 15 1 16
REMARK H PARENT
REMARK Flexibility Score: inf
ROOT
ATOM      1  C   UNL     1     124.731 121.583 117.221  1.00  0.00     0.000 C 
ENDROOT
BRANCH   1   2
ATOM      2  C   UNL     1     124.825 120.087 117.567  1.00  0.00     0.000 C 
BRANCH   2   3
ATOM      3  C   UNL     1     126.252 119.658 117.947  1.00  0.00     0.000 C 
BRANCH   3   4
ATOM      4  C   UNL     1     127.267 120.807 117.817  1.00  0.00     0.000 C 
BRANCH   4   5
ATOM      5  C   UNL     1     128.306 120.814 118.954  1.00  0.00     0.006 C 
BRANCH   5   6
ATOM      6  C   UNL     1     129.757 121.015 118.487  1.00  0.00     0.053 C 
BRANCH   6   7
ATOM      7  C   UNL     1     130.639 121.508 119.592  1.00  0.00     0.041 C 
ATOM      8  O   UNL     1     131.783 121.013 119.760  1.00  0.00    -0.550 OA
ATOM      9  O   UNL     1     130.207 122.540 120.419  1.00  0.00    -0.550 OA
ENDBRANCH   6   7
ENDBRANCH   5   6
ENDBRANCH   4   5
ENDBRANCH   3   4
ENDBRANCH   2   3
ENDBRANCH   1   2
BRANCH   1  10
ATOM     10  C   UNL     1     123.306 122.138 117.376  1.00  0.00     0.000 C 
BRANCH  10  11
ATOM     11  C   UNL     1     123.131 122.982 118.648  1.00  0.00    -0.000 C 
BRANCH  11  12
ATOM     12  C   UNL     1     122.540 122.140 119.789  1.00  0.00    -0.000 C 
BRANCH  12  13
ATOM     13  C   UNL     1     123.387 122.200 121.072  1.00  0.00    -0.000 C 
BRANCH  13  14
ATOM     14  C   UNL     1     124.885 121.977 120.802  1.00  0.00    -0.000 C 
BRANCH  14  15
ATOM     15  C   UNL     1     125.449 120.777 121.580  1.00  0.00    -0.003 C 
ATOM     16  C   UNL     1     124.672 119.486 121.325  1.00  0.00     0.004 C 
ENDBRANCH  14  15
ENDBRANCH  13  14
ENDBRANCH  12  13
ENDBRANCH  11  12
ENDBRANCH  10  11
ENDBRANCH   1  10
TORSDOF 12
ENDMDL
MODEL 7
REMARK VINA RESULT:    -3.853      1.257      2.445
REMARK INTER + INTRA:          -7.601
REMARK INTER:                  -6.645
REMARK INTRA:                  -0.956
REMARK UNBOUND:                -1.045
REMARK SMILES CCCCCCCCCCCCCC(=O)[O-]
REMARK SMILES IDX 8 1 9 2 10 3 11 4 12 5 13 6 14 7 15 8 16 9 7 10 6 11 5 12
REMARK SMILES IDX 4 13 3 14 2 15 1 16
REMARK H PARENT
REMARK Flexibility Score: inf
ROOT
ATOM      1  C   UNL     1     127.259 120.530 119.131  1.00  0.00     0.000 C 
ENDROOT
BRANCH   1   2
ATOM      2  C   UNL     1     126.702 120.817 117.726  1.00  0.00     0.000 C 
BRANCH   2   3
ATOM      3  C   UNL     1     125.164 120.787 117.684  1.00  0.00     0.000 C 
BRANCH   3   4
ATOM      4  C   UNL     1     124.570 122.005 116.956  1.00  0.00     0.000 C 
BRANCH   4   5
ATOM      5  C   UNL     1     123.297 122.542 117.637  1.00  0.00     0.006 C 
BRANCH   5   6
ATOM      6  C   UNL     1     123.356 122.560 119.172  1.00  0.00     0.053 C 
BRANCH   6   7
ATOM      7  C   UNL     1     122.250 121.760 119.786  1.00  0.00     0.041 C 
ATOM      8  O   UNL     1     121.781 122.083 120.908  1.00  0.00    -0.550 OA
ATOM      9  O   UNL     1     121.714 120.675 119.102  1.00  0.00    -0.550 OA
ENDBRANCH   6   7
ENDBRANCH   5   6
ENDBRANCH   4   5
ENDBRANCH   3   4
ENDBRANCH   2   3
ENDBRANCH   1   2
BRANCH   1  10
ATOM     10  C   UNL     1     128.666 121.111 119.339  1.00  0.00     0.000 C 
BRANCH  10  11
ATOM     11  C   UNL     1     129.603 120.842 118.151  1.00  0.00    -0.000 C 
BRANCH  11  12
ATOM     12  C   UNL     1     130.292 119.477 118.294  1.00  0.00    -0.000 C 
BRANCH  12  13
ATOM     13  C   UNL     1     131.175 119.386 119.550  1.00  0.00    -0.000 C 
BRANCH  13  14
ATOM     14  C   UNL     1     132.364 120.362 119.508  1.00  0.00    -0.000 C 
BRANCH  14  15
ATOM     15  C   UNL     1     132.503 121.174 120.806  1.00  0.00    -0.003 C 
ATOM     16  C   UNL     1     131.853 122.555 120.714  1.00  0.00     0.004 C 
ENDBRANCH  14  15
ENDBRANCH  13  14
ENDBRANCH  12  13
ENDBRANCH  11  12
ENDBRANCH  10  11
ENDBRANCH   1  10
TORSDOF 12
ENDMDL
MODEL 8
REMARK VINA RESULT:    -3.786     10.203     12.309
REMARK INTER + INTRA:          -7.487
REMARK INTER:                  -5.774
REMARK INTRA:                  -1.713
REMARK UNBOUND:                -1.045
REMARK SMILES CCCCCCCCCCCCCC(=O)[O-]
REMARK SMILES IDX 8 1 9 2 10 3 11 4 12 5 13 6 14 7 15 8 16 9 7 10 6 11 5 12
REMARK SMILES IDX 4 13 3 14 2 15 1 16
REMARK H PARENT
REMARK Flexibility Score: inf
ROOT
ATOM      1  C   UNL     1     127.011 126.238 127.558  1.00  0.00     0.000 C 
ENDROOT
BRANCH   1   2
ATOM      2  C   UNL     1     127.326 127.540 126.799  1.00  0.00     0.000 C 
BRANCH   2   3
ATOM      3  C   UNL     1     126.190 127.958 125.850  1.00  0.00     0.000 C 
BRANCH   3   4
ATOM      4  C   UNL     1     125.428 126.752 125.275  1.00  0.00     0.000 C 
BRANCH   4   5
ATOM      5  C   UNL     1     123.909 126.836 125.518  1.00  0.00     0.006 C 
BRANCH   5   6
ATOM      6  C   UNL     1     123.408 128.231 125.925  1.00  0.00     0.053 C 
BRANCH   6   7
ATOM      7  C   UNL     1     122.641 128.895 124.824  1.00  0.00     0.041 C 
ATOM      8  O   UNL     1     123.093 128.901 123.650  1.00  0.00    -0.550 OA
ATOM      9  O   UNL     1     121.409 129.480 125.090  1.00  0.00    -0.550 OA
ENDBRANCH   6   7
ENDBRANCH   5   6
ENDBRANCH   4   5
ENDBRANCH   3   4
ENDBRANCH   2   3
ENDBRANCH   1   2
BRANCH   1  10
ATOM     10  C   UNL     1     126.278 126.491 128.885  1.00  0.00     0.000 C 
BRANCH  10  11
ATOM     11  C   UNL     1     124.962 125.705 128.996  1.00  0.00    -0.000 C 
BRANCH  11  12
ATOM     12  C   UNL     1     123.790 126.644 129.320  1.00  0.00    -0.000 C 
BRANCH  12  13
ATOM     13  C   UNL     1     124.238 128.098 129.549  1.00  0.00    -0.000 C 
BRANCH  13  14
ATOM     14  C   UNL     1     123.375 128.823 130.597  1.00  0.00    -0.000 C 
BRANCH  14  15
ATOM     15  C   UNL     1     123.048 127.932 131.806  1.00  0.00    -0.003 C 
ATOM     16  C   UNL     1     121.579 128.012 132.223  1.00  0.00     0.004 C 
ENDBRANCH  14  15
ENDBRANCH  13  14
ENDBRANCH  12  13
ENDBRANCH  11  12
ENDBRANCH  10  11
ENDBRANCH   1  10
TORSDOF 12
ENDMDL
MODEL 9
REMARK VINA RESULT:    -3.780     10.213     12.757
REMARK INTER + INTRA:          -7.477
REMARK INTER:                  -5.322
REMARK INTRA:                  -2.156
REMARK UNBOUND:                -1.045
REMARK SMILES CCCCCCCCCCCCCC(=O)[O-]
REMARK SMILES IDX 8 1 9 2 10 3 11 4 12 5 13 6 14 7 15 8 16 9 7 10 6 11 5 12
REMARK SMILES IDX 4 13 3 14 2 15 1 16
REMARK H PARENT
REMARK Flexibility Score: inf
ROOT
ATOM      1  C   UNL     1     124.311 126.555 124.885  1.00  0.00     0.000 C 
ENDROOT
BRANCH   1   2
ATOM      2  C   UNL     1     125.405 126.162 125.895  1.00  0.00     0.000 C 
BRANCH   2   3
ATOM      3  C   UNL     1     126.534 127.204 125.974  1.00  0.00     0.000 C 
BRANCH   3   4
ATOM      4  C   UNL     1     127.206 127.240 127.357  1.00  0.00     0.000 C 
BRANCH   4   5
ATOM      5  C   UNL     1     127.249 128.657 127.961  1.00  0.00     0.006 C 
BRANCH   5   6
ATOM      6  C   UNL     1     127.350 129.786 126.924  1.00  0.00     0.053 C 
BRANCH   6   7
ATOM      7  C   UNL     1     128.772 130.152 126.630  1.00  0.00     0.041 C 
ATOM      8  O   UNL     1     129.564 130.426 127.569  1.00  0.00    -0.550 OA
ATOM      9  O   UNL     1     129.231 130.160 125.318  1.00  0.00    -0.550 OA
ENDBRANCH   6   7
ENDBRANCH   5   6
ENDBRANCH   4   5
ENDBRANCH   3   4
ENDBRANCH   2   3
ENDBRANCH   1   2
BRANCH   1  10
ATOM     10  C   UNL     1     123.687 127.925 125.193  1.00  0.00     0.000 C 
BRANCH  10  11
ATOM     11  C   UNL     1     122.910 127.940 126.519  1.00  0.00    -0.000 C 
BRANCH  11  12
ATOM     12  C   UNL     1     123.499 128.977 127.487  1.00  0.00    -0.000 C 
BRANCH  12  13
ATOM     13  C   UNL     1     123.798 128.390 128.877  1.00  0.00    -0.000 C 
BRANCH  13  14
ATOM     14  C   UNL     1     123.505 126.881 128.956  1.00  0.00    -0.000 C 
BRANCH  14  15
ATOM     15  C   UNL     1     124.541 126.126 129.805  1.00  0.00    -0.003 C 
ATOM     16  C   UNL     1     125.369 127.053 130.694  1.00  0.00     0.004 C 
ENDBRANCH  14  15
ENDBRANCH  13  14
ENDBRANCH  12  13
ENDBRANCH  11  12
ENDBRANCH  10  11
ENDBRANCH   1  10
TORSDOF 12
ENDMDL
