MODEL 1
REMARK VINA RESULT:    -1.956      0.000      0.000
REMARK INTER + INTRA:          -8.942
REMARK INTER:                  -5.157
REMARK INTRA:                  -3.784
REMARK UNBOUND:                -3.784
REMARK SMILES CCCCCCCCCCCCCCCCCCCCCCCCCCCCCC(=O)[O-]
REMARK SMILES IDX 16 1 17 2 18 3 19 4 20 5 21 6 22 7 23 8 24 9 25 10 26 11
REMARK SMILES IDX 27 12 28 13 29 14 30 15 31 16 32 17 15 18 14 19 13 20 12 21
REMARK SMILES IDX 11 22 10 23 9 24 8 25 7 26 6 27 5 28 4 29 3 30 2 31 1 32
REMARK H PARENT
REMARK Flexibility Score: inf
ROOT
ATOM      1  C   UNL     1       5.325   8.727  -0.175  1.00  0.00     0.000 C 
ENDROOT
BRANCH   1   2
ATOM      2  C   UNL     1       3.905   8.127  -0.288  1.00  0.00     0.000 C 
BRANCH   2   3
ATOM      3  C   UNL     1       2.875   9.104  -0.881  1.00  0.00     0.000 C 
BRANCH   3   4
ATOM      4  C   UNL     1       3.524  10.167  -1.783  1.00  0.00     0.000 C 
BRANCH   4   5
ATOM      5  C   UNL     1       2.943  11.572  -1.554  1.00  0.00     0.000 C 
BRANCH   5   6
ATOM      6  C   UNL     1       4.025  12.660  -1.457  1.00  0.00     0.000 C 
BRANCH   6   7
ATOM      7  C   UNL     1       4.250  13.078   0.002  1.00  0.00     0.000 C 
BRANCH   7   8
ATOM      8  C   UNL     1       3.170  12.488   0.919  1.00  0.00     0.000 C 
BRANCH   8   9
ATOM      9  C   UNL     1       3.723  12.034   2.283  1.00  0.00     0.000 C 
BRANCH   9  10
ATOM     10  C   UNL     1       2.878  10.934   2.961  1.00  0.00     0.000 C 
BRANCH  10  11
ATOM     11  C   UNL     1       3.350   9.518   2.583  1.00  0.00     0.000 C 
BRANCH  11  12
ATOM     12  C   UNL     1       3.721   8.677   3.824  1.00  0.00     0.000 C 
BRANCH  12  13
ATOM     13  C   UNL     1       5.141   8.086   3.767  1.00  0.00     0.006 C 
BRANCH  13  14
ATOM     14  C   UNL     1       5.224   6.814   2.916  1.00  0.00     0.053 C 
BRANCH  14  15
ATOM     15  C   UNL     1       6.287   5.903   3.443  1.00  0.00     0.041 C 
ATOM     16  O   UNL     1       6.503   4.792   2.886  1.00  0.00    -0.550 OA
ATOM     17  O   UNL     1       6.997   6.249   4.586  1.00  0.00    -0.550 OA
ENDBRANCH  14  15
ENDBRANCH  13  14
ENDBRANCH  12  13
ENDBRANCH  11  12
ENDBRANCH  10  11
ENDBRANCH   9  10
ENDBRANCH   8   9
ENDBRANCH   7   8
ENDBRANCH   6   7
ENDBRANCH   5   6
ENDBRANCH   4   5
ENDBRANCH   3   4
ENDBRANCH   2   3
ENDBRANCH   1   2
BRANCH   1  18
ATOM     18  C   UNL     1       6.276   8.164  -1.245  1.00  0.00     0.000 C 
BRANCH  18  19
ATOM     19  C   UNL     1       7.349   7.225  -0.649  1.00  0.00     0.000 C 
BRANCH  19  20
ATOM     20  C   UNL     1       8.507   7.966   0.049  1.00  0.00     0.000 C 
BRANCH  20  21
ATOM     21  C   UNL     1       8.216   8.425   1.490  1.00  0.00     0.000 C 
BRANCH  21  22
ATOM     22  C   UNL     1       7.542   9.805   1.608  1.00  0.00     0.000 C 
BRANCH  22  23
ATOM     23  C   UNL     1       8.255  10.889   0.786  1.00  0.00     0.000 C 
BRANCH  23  24
ATOM     24  C   UNL     1       7.245  11.802   0.075  1.00  0.00    -0.000 C 
BRANCH  24  25
ATOM     25  C   UNL     1       7.911  12.889  -0.788  1.00  0.00    -0.000 C 
BRANCH  25  26
ATOM     26  C   UNL     1       7.317  13.040  -2.205  1.00  0.00    -0.000 C 
BRANCH  26  27
ATOM     27  C   UNL     1       8.253  12.651  -3.372  1.00  0.00    -0.000 C 
BRANCH  27  28
ATOM     28  C   UNL     1       7.585  11.957  -4.575  1.00  0.00    -0.000 C 
BRANCH  28  29
ATOM     29  C   UNL     1       6.066  11.784  -4.410  1.00  0.00    -0.000 C 
BRANCH  29  30
ATOM     30  C   UNL     1       5.268  12.826  -5.213  1.00  0.00    -0.000 C 
BRANCH  30  31
ATOM     31  C   UNL     1       3.902  12.299  -5.678  1.00  0.00    -0.003 C 
ATOM     32  C   UNL     1       4.064  11.210  -6.734  1.00  0.00     0.004 C 
ENDBRANCH  30  31
ENDBRANCH  29  30
ENDBRANCH  28  29
ENDBRANCH  27  28
ENDBRANCH  26  27
ENDBRANCH  25  26
ENDBRANCH  24  25
ENDBRANCH  23  24
ENDBRANCH  22  23
ENDBRANCH  21  22
ENDBRANCH  20  21
ENDBRANCH  19  20
ENDBRANCH  18  19
ENDBRANCH   1  18
TORSDOF 28
ENDMDL
MODEL 2
REMARK VINA RESULT:    -1.913      3.358      6.694
REMARK INTER + INTRA:          -8.828
REMARK INTER:                  -5.802
REMARK INTRA:                  -3.026
REMARK UNBOUND:                -3.784
REMARK SMILES CCCCCCCCCCCCCCCCCCCCCCCCCCCCCC(=O)[O-]
REMARK SMILES IDX 16 1 17 2 18 3 19 4 20 5 21 6 22 7 23 8 24 9 25 10 26 11
REMARK SMILES IDX 27 12 28 13 29 14 30 15 31 16 32 17 15 18 14 19 13 20 12 21
REMARK SMILES IDX 11 22 10 23 9 24 8 25 7 26 6 27 5 28 4 29 3 30 2 31 1 32
REMARK H PARENT
REMARK Flexibility Score: inf
ROOT
ATOM      1  C   UNL     1       6.465   6.870   2.012  1.00  0.00     0.000 C 
ENDROOT
BRANCH   1   2
ATOM      2  C   UNL     1       5.775   7.287   0.694  1.00  0.00     0.000 C 
BRANCH   2   3
ATOM      3  C   UNL     1       6.666   7.108  -0.547  1.00  0.00     0.000 C 
BRANCH   3   4
ATOM      4  C   UNL     1       6.545   8.282  -1.533  1.00  0.00     0.000 C 
BRANCH   4   5
ATOM      5  C   UNL     1       5.652   9.413  -0.999  1.00  0.00     0.000 C 
BRANCH   5   6
ATOM      6  C   UNL     1       4.255   8.927  -0.581  1.00  0.00     0.000 C 
BRANCH   6   7
ATOM      7  C   UNL     1       3.169   9.889  -1.081  1.00  0.00     0.000 C 
BRANCH   7   8
ATOM      8  C   UNL     1       3.682  10.742  -2.249  1.00  0.00     0.000 C 
BRANCH   8   9
ATOM      9  C   UNL     1       3.533  12.254  -2.000  1.00  0.00     0.000 C 
BRANCH   9  10
ATOM     10  C   UNL     1       3.099  13.050  -3.249  1.00  0.00     0.000 C 
BRANCH  10  11
ATOM     11  C   UNL     1       3.970  12.730  -4.478  1.00  0.00     0.000 C 
BRANCH  11  12
ATOM     12  C   UNL     1       3.208  12.944  -5.804  1.00  0.00     0.000 C 
BRANCH  12  13
ATOM     13  C   UNL     1       4.053  12.649  -7.055  1.00  0.00     0.006 C 
BRANCH  13  14
ATOM     14  C   UNL     1       5.099  11.552  -6.825  1.00  0.00     0.053 C 
BRANCH  14  15
ATOM     15  C   UNL     1       6.478  12.095  -7.026  1.00  0.00     0.041 C 
ATOM     16  O   UNL     1       7.223  11.616  -7.923  1.00  0.00    -0.550 OA
ATOM     17  O   UNL     1       6.966  13.085  -6.182  1.00  0.00    -0.550 OA
ENDBRANCH  14  15
ENDBRANCH  13  14
ENDBRANCH  12  13
ENDBRANCH  11  12
ENDBRANCH  10  11
ENDBRANCH   9  10
ENDBRANCH   8   9
ENDBRANCH   7   8
ENDBRANCH   6   7
ENDBRANCH   5   6
ENDBRANCH   4   5
ENDBRANCH   3   4
ENDBRANCH   2   3
ENDBRANCH   1   2
BRANCH   1  18
ATOM     18  C   UNL     1       5.761   7.463   3.244  1.00  0.00     0.000 C 
BRANCH  18  19
ATOM     19  C   UNL     1       4.412   8.128   2.893  1.00  0.00     0.000 C 
BRANCH  19  20
ATOM     20  C   UNL     1       3.631   8.641   4.119  1.00  0.00     0.000 C 
BRANCH  20  21
ATOM     21  C   UNL     1       2.897   9.980   3.914  1.00  0.00     0.000 C 
BRANCH  21  22
ATOM     22  C   UNL     1       3.190  10.682   2.575  1.00  0.00     0.000 C 
BRANCH  22  23
ATOM     23  C   UNL     1       3.225  12.213   2.700  1.00  0.00     0.000 C 
BRANCH  23  24
ATOM     24  C   UNL     1       4.271  12.824   1.756  1.00  0.00    -0.000 C 
BRANCH  24  25
ATOM     25  C   UNL     1       5.718  12.634   2.245  1.00  0.00    -0.000 C 
BRANCH  25  26
ATOM     26  C   UNL     1       6.288  11.213   2.036  1.00  0.00    -0.000 C 
BRANCH  26  27
ATOM     27  C   UNL     1       7.449  11.097   1.023  1.00  0.00    -0.000 C 
BRANCH  27  28
ATOM     28  C   UNL     1       8.344  12.341   0.871  1.00  0.00    -0.000 C 
BRANCH  28  29
ATOM     29  C   UNL     1       8.081  13.125  -0.427  1.00  0.00    -0.000 C 
BRANCH  29  30
ATOM     30  C   UNL     1       6.981  12.480  -1.287  1.00  0.00    -0.000 C 
BRANCH  30  31
ATOM     31  C   UNL     1       7.483  12.060  -2.677  1.00  0.00    -0.003 C 
ATOM     32  C   UNL     1       8.475  13.079  -3.232  1.00  0.00     0.004 C 
ENDBRANCH  30  31
ENDBRANCH  29  30
ENDBRANCH  28  29
ENDBRANCH  27  28
ENDBRANCH  26  27
ENDBRANCH  25  26
ENDBRANCH  24  25
ENDBRANCH  23  24
ENDBRANCH  22  23
ENDBRANCH  21  22
ENDBRANCH  20  21
ENDBRANCH  19  20
ENDBRANCH  18  19
ENDBRANCH   1  18
TORSDOF 28
ENDMDL
MODEL 3
REMARK VINA RESULT:    -1.056      2.355      5.916
REMARK INTER + INTRA:          -6.569
REMARK INTER:                  -2.044
REMARK INTRA:                  -4.525
REMARK UNBOUND:                -3.784
REMARK SMILES CCCCCCCCCCCCCCCCCCCCCCCCCCCCCC(=O)[O-]
REMARK SMILES IDX 16 1 17 2 18 3 19 4 20 5 21 6 22 7 23 8 24 9 25 10 26 11
REMARK SMILES IDX 27 12 28 13 29 14 30 15 31 16 32 17 15 18 14 19 13 20 12 21
REMARK SMILES IDX 11 22 10 23 9 24 8 25 7 26 6 27 5 28 4 29 3 30 2 31 1 32
REMARK H PARENT
REMARK Flexibility Score: inf
ROOT
ATOM      1  C   UNL     1       3.199   8.213   2.022  1.00  0.00     0.000 C 
ENDROOT
BRANCH   1   2
ATOM      2  C   UNL     1       3.620   9.075   3.234  1.00  0.00     0.000 C 
BRANCH   2   3
ATOM      3  C   UNL     1       5.137   9.070   3.490  1.00  0.00     0.000 C 
BRANCH   3   4
ATOM      4  C   UNL     1       5.579   7.899   4.385  1.00  0.00     0.000 C 
BRANCH   4   5
ATOM      5  C   UNL     1       6.715   7.074   3.761  1.00  0.00     0.000 C 
BRANCH   5   6
ATOM      6  C   UNL     1       6.256   5.686   3.284  1.00  0.00     0.000 C 
BRANCH   6   7
ATOM      7  C   UNL     1       6.609   5.471   1.807  1.00  0.00     0.000 C 
BRANCH   7   8
ATOM      8  C   UNL     1       5.853   6.460   0.909  1.00  0.00     0.000 C 
BRANCH   8   9
ATOM      9  C   UNL     1       6.324   6.422  -0.557  1.00  0.00     0.000 C 
BRANCH   9  10
ATOM     10  C   UNL     1       6.488   7.819  -1.194  1.00  0.00     0.000 C 
BRANCH  10  11
ATOM     11  C   UNL     1       6.472   8.945  -0.145  1.00  0.00     0.000 C 
BRANCH  11  12
ATOM     12  C   UNL     1       7.871   9.199   0.460  1.00  0.00     0.000 C 
BRANCH  12  13
ATOM     13  C   UNL     1       7.993  10.551   1.185  1.00  0.00     0.006 C 
BRANCH  13  14
ATOM     14  C   UNL     1       6.709  11.384   1.116  1.00  0.00     0.053 C 
BRANCH  14  15
ATOM     15  C   UNL     1       6.824  12.594   1.988  1.00  0.00     0.041 C 
ATOM     16  O   UNL     1       7.954  13.106   2.214  1.00  0.00    -0.550 OA
ATOM     17  O   UNL     1       5.695  13.119   2.603  1.00  0.00    -0.550 OA
ENDBRANCH  14  15
ENDBRANCH  13  14
ENDBRANCH  12  13
ENDBRANCH  11  12
ENDBRANCH  10  11
ENDBRANCH   9  10
ENDBRANCH   8   9
ENDBRANCH   7   8
ENDBRANCH   6   7
ENDBRANCH   5   6
ENDBRANCH   4   5
ENDBRANCH   3   4
ENDBRANCH   2   3
ENDBRANCH   1   2
BRANCH   1  18
ATOM     18  C   UNL     1       3.083   9.046   0.735  1.00  0.00     0.000 C 
BRANCH  18  19
ATOM     19  C   UNL     1       3.336  10.551   0.978  1.00  0.00     0.000 C 
BRANCH  19  20
ATOM     20  C   UNL     1       2.875  11.457  -0.181  1.00  0.00     0.000 C 
BRANCH  20  21
ATOM     21  C   UNL     1       3.847  11.538  -1.373  1.00  0.00     0.000 C 
BRANCH  21  22
ATOM     22  C   UNL     1       3.175  11.553  -2.759  1.00  0.00     0.000 C 
BRANCH  22  23
ATOM     23  C   UNL     1       3.389  12.875  -3.511  1.00  0.00     0.000 C 
BRANCH  23  24
ATOM     24  C   UNL     1       3.081  12.719  -5.008  1.00  0.00    -0.000 C 
BRANCH  24  25
ATOM     25  C   UNL     1       3.216  11.269  -5.509  1.00  0.00    -0.000 C 
BRANCH  25  26
ATOM     26  C   UNL     1       4.100  11.101  -6.764  1.00  0.00    -0.000 C 
BRANCH  26  27
ATOM     27  C   UNL     1       4.764  12.391  -7.297  1.00  0.00    -0.000 C 
BRANCH  27  28
ATOM     28  C   UNL     1       6.167  12.228  -7.913  1.00  0.00    -0.000 C 
BRANCH  28  29
ATOM     29  C   UNL     1       7.226  11.763  -6.899  1.00  0.00    -0.000 C 
BRANCH  29  30
ATOM     30  C   UNL     1       7.082  12.467  -5.539  1.00  0.00    -0.000 C 
BRANCH  30  31
ATOM     31  C   UNL     1       6.764  11.492  -4.395  1.00  0.00    -0.003 C 
ATOM     32  C   UNL     1       7.071  12.119  -3.038  1.00  0.00     0.004 C 
ENDBRANCH  30  31
ENDBRANCH  29  30
ENDBRANCH  28  29
ENDBRANCH  27  28
ENDBRANCH  26  27
ENDBRANCH  25  26
ENDBRANCH  24  25
ENDBRANCH  23  24
ENDBRANCH  22  23
ENDBRANCH  21  22
ENDBRANCH  20  21
ENDBRANCH  19  20
ENDBRANCH  18  19
ENDBRANCH   1  18
TORSDOF 28
ENDMDL
MODEL 4
REMARK VINA RESULT:    -0.809      2.741      5.651
REMARK INTER + INTRA:          -5.919
REMARK INTER:                  -2.542
REMARK INTRA:                  -3.377
REMARK UNBOUND:                -3.784
REMARK SMILES CCCCCCCCCCCCCCCCCCCCCCCCCCCCCC(=O)[O-]
REMARK SMILES IDX 16 1 17 2 18 3 19 4 20 5 21 6 22 7 23 8 24 9 25 10 26 11
REMARK SMILES IDX 27 12 28 13 29 14 30 15 31 16 32 17 15 18 14 19 13 20 12 21
REMARK SMILES IDX 11 22 10 23 9 24 8 25 7 26 6 27 5 28 4 29 3 30 2 31 1 32
REMARK H PARENT
REMARK Flexibility Score: inf
ROOT
ATOM      1  C   UNL     1       5.757   8.172   3.315  1.00  0.00     0.000 C 
ENDROOT
BRANCH   1   2
ATOM      2  C   UNL     1       6.813   7.045   3.257  1.00  0.00     0.000 C 
BRANCH   2   3
ATOM      3  C   UNL     1       6.229   5.680   2.855  1.00  0.00     0.000 C 
BRANCH   3   4
ATOM      4  C   UNL     1       6.658   5.248   1.442  1.00  0.00     0.000 C 
BRANCH   4   5
ATOM      5  C   UNL     1       6.211   6.243   0.360  1.00  0.00     0.000 C 
BRANCH   5   6
ATOM      6  C   UNL     1       7.391   6.902  -0.373  1.00  0.00     0.000 C 
BRANCH   6   7
ATOM      7  C   UNL     1       6.985   7.334  -1.787  1.00  0.00     0.000 C 
BRANCH   7   8
ATOM      8  C   UNL     1       5.920   8.438  -1.744  1.00  0.00     0.000 C 
BRANCH   8   9
ATOM      9  C   UNL     1       6.472   9.786  -1.247  1.00  0.00     0.000 C 
BRANCH   9  10
ATOM     10  C   UNL     1       6.287  10.013   0.269  1.00  0.00     0.000 C 
BRANCH  10  11
ATOM     11  C   UNL     1       7.611  10.359   0.975  1.00  0.00     0.000 C 
BRANCH  11  12
ATOM     12  C   UNL     1       7.568  11.749   1.645  1.00  0.00     0.000 C 
BRANCH  12  13
ATOM     13  C   UNL     1       7.157  12.882   0.689  1.00  0.00     0.006 C 
BRANCH  13  14
ATOM     14  C   UNL     1       8.181  13.125  -0.425  1.00  0.00     0.053 C 
BRANCH  14  15
ATOM     15  C   UNL     1       7.583  12.810  -1.760  1.00  0.00     0.041 C 
ATOM     16  O   UNL     1       8.302  12.332  -2.678  1.00  0.00    -0.550 OA
ATOM     17  O   UNL     1       6.249  13.104  -2.012  1.00  0.00    -0.550 OA
ENDBRANCH  14  15
ENDBRANCH  13  14
ENDBRANCH  12  13
ENDBRANCH  11  12
ENDBRANCH  10  11
ENDBRANCH   9  10
ENDBRANCH   8   9
ENDBRANCH   7   8
ENDBRANCH   6   7
ENDBRANCH   5   6
ENDBRANCH   4   5
ENDBRANCH   3   4
ENDBRANCH   2   3
ENDBRANCH   1   2
BRANCH   1  18
ATOM     18  C   UNL     1       4.557   7.885   2.397  1.00  0.00     0.000 C 
BRANCH  18  19
ATOM     19  C   UNL     1       3.362   8.825   2.672  1.00  0.00     0.000 C 
BRANCH  19  20
ATOM     20  C   UNL     1       3.700  10.008   3.601  1.00  0.00     0.000 C 
BRANCH  20  21
ATOM     21  C   UNL     1       4.116  11.305   2.884  1.00  0.00     0.000 C 
BRANCH  21  22
ATOM     22  C   UNL     1       2.960  12.084   2.228  1.00  0.00     0.000 C 
BRANCH  22  23
ATOM     23  C   UNL     1       3.325  12.639   0.843  1.00  0.00     0.000 C 
BRANCH  23  24
ATOM     24  C   UNL     1       2.882  11.682  -0.274  1.00  0.00    -0.000 C 
BRANCH  24  25
ATOM     25  C   UNL     1       3.721  11.816  -1.558  1.00  0.00    -0.000 C 
BRANCH  25  26
ATOM     26  C   UNL     1       3.293  10.878  -2.707  1.00  0.00    -0.000 C 
BRANCH  26  27
ATOM     27  C   UNL     1       4.145  10.959  -3.994  1.00  0.00    -0.000 C 
BRANCH  27  28
ATOM     28  C   UNL     1       4.023  12.262  -4.808  1.00  0.00    -0.000 C 
BRANCH  28  29
ATOM     29  C   UNL     1       3.569  12.033  -6.259  1.00  0.00    -0.000 C 
BRANCH  29  30
ATOM     30  C   UNL     1       4.743  11.694  -7.193  1.00  0.00    -0.000 C 
BRANCH  30  31
ATOM     31  C   UNL     1       5.713  12.871  -7.379  1.00  0.00    -0.003 C 
ATOM     32  C   UNL     1       7.159  12.388  -7.430  1.00  0.00     0.004 C 
ENDBRANCH  30  31
ENDBRANCH  29  30
ENDBRANCH  28  29
ENDBRANCH  27  28
ENDBRANCH  26  27
ENDBRANCH  25  26
ENDBRANCH  24  25
ENDBRANCH  23  24
ENDBRANCH  22  23
ENDBRANCH  21  22
ENDBRANCH  20  21
ENDBRANCH  19  20
ENDBRANCH  18  19
ENDBRANCH   1  18
TORSDOF 28
ENDMDL
MODEL 5
REMARK VINA RESULT:    -0.801      1.969      4.381
REMARK INTER + INTRA:          -5.896
REMARK INTER:                  -2.527
REMARK INTRA:                  -3.369
REMARK UNBOUND:                -3.784
REMARK SMILES CCCCCCCCCCCCCCCCCCCCCCCCCCCCCC(=O)[O-]
REMARK SMILES IDX 16 1 17 2 18 3 19 4 20 5 21 6 22 7 23 8 24 9 25 10 26 11
REMARK SMILES IDX 27 12 28 13 29 14 30 15 31 16 32 17 15 18 14 19 13 20 12 21
REMARK SMILES IDX 11 22 10 23 9 24 8 25 7 26 6 27 5 28 4 29 3 30 2 31 1 32
REMARK H PARENT
REMARK Flexibility Score: inf
ROOT
ATOM      1  C   UNL     1       2.881  10.935   2.836  1.00  0.00     0.000 C 
ENDROOT
BRANCH   1   2
ATOM      2  C   UNL     1       3.277  12.322   3.390  1.00  0.00     0.000 C 
BRANCH   2   3
ATOM      3  C   UNL     1       4.192  13.119   2.445  1.00  0.00     0.000 C 
BRANCH   3   4
ATOM      4  C   UNL     1       3.681  13.120   0.994  1.00  0.00     0.000 C 
BRANCH   4   5
ATOM      5  C   UNL     1       4.819  13.019  -0.034  1.00  0.00     0.000 C 
BRANCH   5   6
ATOM      6  C   UNL     1       5.685  11.763   0.153  1.00  0.00     0.000 C 
BRANCH   6   7
ATOM      7  C   UNL     1       7.173  12.093  -0.024  1.00  0.00     0.000 C 
BRANCH   7   8
ATOM      8  C   UNL     1       7.889  12.162   1.333  1.00  0.00     0.000 C 
BRANCH   8   9
ATOM      9  C   UNL     1       7.257  11.241   2.393  1.00  0.00     0.000 C 
BRANCH   9  10
ATOM     10  C   UNL     1       7.732   9.775   2.305  1.00  0.00     0.000 C 
BRANCH  10  11
ATOM     11  C   UNL     1       8.305   9.427   0.920  1.00  0.00     0.000 C 
BRANCH  11  12
ATOM     12  C   UNL     1       7.915   8.003   0.468  1.00  0.00     0.000 C 
BRANCH  12  13
ATOM     13  C   UNL     1       9.059   7.240  -0.222  1.00  0.00     0.006 C 
BRANCH  13  14
ATOM     14  C   UNL     1       8.561   6.227  -1.259  1.00  0.00     0.053 C 
BRANCH  14  15
ATOM     15  C   UNL     1       7.123   6.478  -1.586  1.00  0.00     0.041 C 
ATOM     16  O   UNL     1       6.261   5.582  -1.379  1.00  0.00    -0.550 OA
ATOM     17  O   UNL     1       6.743   7.676  -2.178  1.00  0.00    -0.550 OA
ENDBRANCH  14  15
ENDBRANCH  13  14
ENDBRANCH  12  13
ENDBRANCH  11  12
ENDBRANCH  10  11
ENDBRANCH   9  10
ENDBRANCH   8   9
ENDBRANCH   7   8
ENDBRANCH   6   7
ENDBRANCH   5   6
ENDBRANCH   4   5
ENDBRANCH   3   4
ENDBRANCH   2   3
ENDBRANCH   1   2
BRANCH   1  18
ATOM     18  C   UNL     1       3.886   9.844   3.242  1.00  0.00     0.000 C 
BRANCH  18  19
ATOM     19  C   UNL     1       3.754   8.567   2.381  1.00  0.00     0.000 C 
BRANCH  19  20
ATOM     20  C   UNL     1       4.783   8.477   1.237  1.00  0.00     0.000 C 
BRANCH  20  21
ATOM     21  C   UNL     1       4.189   8.536  -0.183  1.00  0.00     0.000 C 
BRANCH  21  22
ATOM     22  C   UNL     1       2.875   9.330  -0.305  1.00  0.00     0.000 C 
BRANCH  22  23
ATOM     23  C   UNL     1       2.957  10.460  -1.342  1.00  0.00     0.000 C 
BRANCH  23  24
ATOM     24  C   UNL     1       4.142  10.254  -2.297  1.00  0.00    -0.000 C 
BRANCH  24  25
ATOM     25  C   UNL     1       4.415  11.471  -3.200  1.00  0.00    -0.000 C 
BRANCH  25  26
ATOM     26  C   UNL     1       5.794  11.462  -3.894  1.00  0.00    -0.000 C 
BRANCH  26  27
ATOM     27  C   UNL     1       6.106  12.683  -4.789  1.00  0.00    -0.000 C 
BRANCH  27  28
ATOM     28  C   UNL     1       6.871  12.391  -6.094  1.00  0.00    -0.000 C 
BRANCH  28  29
ATOM     29  C   UNL     1       6.096  11.481  -7.063  1.00  0.00    -0.000 C 
BRANCH  29  30
ATOM     30  C   UNL     1       5.150  12.275  -7.979  1.00  0.00    -0.000 C 
BRANCH  30  31
ATOM     31  C   UNL     1       3.725  11.702  -8.002  1.00  0.00    -0.003 C 
ATOM     32  C   UNL     1       3.587  10.535  -7.028  1.00  0.00     0.004 C 
ENDBRANCH  30  31
ENDBRANCH  29  30
ENDBRANCH  28  29
ENDBRANCH  27  28
ENDBRANCH  26  27
ENDBRANCH  25  26
ENDBRANCH  24  25
ENDBRANCH  23  24
ENDBRANCH  22  23
ENDBRANCH  21  22
ENDBRANCH  20  21
ENDBRANCH  19  20
ENDBRANCH  18  19
ENDBRANCH   1  18
TORSDOF 28
ENDMDL
MODEL 6
REMARK VINA RESULT:    -0.773      1.927      6.642
REMARK INTER + INTRA:          -5.824
REMARK INTER:                  -2.496
REMARK INTRA:                  -3.328
REMARK UNBOUND:                -3.784
REMARK SMILES CCCCCCCCCCCCCCCCCCCCCCCCCCCCCC(=O)[O-]
REMARK SMILES IDX 16 1 17 2 18 3 19 4 20 5 21 6 22 7 23 8 24 9 25 10 26 11
REMARK SMILES IDX 27 12 28 13 29 14 30 15 31 16 32 17 15 18 14 19 13 20 12 21
REMARK SMILES IDX 11 22 10 23 9 24 8 25 7 26 6 27 5 28 4 29 3 30 2 31 1 32
REMARK H PARENT
REMARK Flexibility Score: inf
ROOT
ATOM      1  C   UNL     1       4.482  12.854   1.492  1.00  0.00     0.000 C 
ENDROOT
BRANCH   1   2
ATOM      2  C   UNL     1       5.808  13.125   0.746  1.00  0.00     0.000 C 
BRANCH   2   3
ATOM      3  C   UNL     1       6.541  11.842   0.316  1.00  0.00     0.000 C 
BRANCH   3   4
ATOM      4  C   UNL     1       7.683  12.122  -0.676  1.00  0.00     0.000 C 
BRANCH   4   5
ATOM      5  C   UNL     1       7.253  13.044  -1.828  1.00  0.00     0.000 C 
BRANCH   5   6
ATOM      6  C   UNL     1       8.183  12.952  -3.049  1.00  0.00     0.000 C 
BRANCH   6   7
ATOM      7  C   UNL     1       7.386  13.070  -4.354  1.00  0.00     0.000 C 
BRANCH   7   8
ATOM      8  C   UNL     1       6.864  11.700  -4.808  1.00  0.00     0.000 C 
BRANCH   8   9
ATOM      9  C   UNL     1       5.416  11.430  -4.360  1.00  0.00     0.000 C 
BRANCH   9  10
ATOM     10  C   UNL     1       4.394  12.445  -4.914  1.00  0.00     0.000 C 
BRANCH  10  11
ATOM     11  C   UNL     1       3.190  12.637  -3.974  1.00  0.00     0.000 C 
BRANCH  11  12
ATOM     12  C   UNL     1       3.622  12.799  -2.500  1.00  0.00     0.000 C 
BRANCH  12  13
ATOM     13  C   UNL     1       2.875  11.863  -1.533  1.00  0.00     0.006 C 
BRANCH  13  14
ATOM     14  C   UNL     1       2.891  10.399  -1.986  1.00  0.00     0.053 C 
BRANCH  14  15
ATOM     15  C   UNL     1       3.704   9.569  -1.044  1.00  0.00     0.041 C 
ATOM     16  O   UNL     1       4.962   9.568  -1.124  1.00  0.00    -0.550 OA
ATOM     17  O   UNL     1       3.073   8.748  -0.118  1.00  0.00    -0.550 OA
ENDBRANCH  14  15
ENDBRANCH  13  14
ENDBRANCH  12  13
ENDBRANCH  11  12
ENDBRANCH  10  11
ENDBRANCH   9  10
ENDBRANCH   8   9
ENDBRANCH   7   8
ENDBRANCH   6   7
ENDBRANCH   5   6
ENDBRANCH   4   5
ENDBRANCH   3   4
ENDBRANCH   2   3
ENDBRANCH   1   2
BRANCH   1  18
ATOM     18  C   UNL     1       4.325  11.370   1.866  1.00  0.00     0.000 C 
BRANCH  18  19
ATOM     19  C   UNL     1       3.321  11.153   3.020  1.00  0.00     0.000 C 
BRANCH  19  20
ATOM     20  C   UNL     1       2.875   9.687   3.192  1.00  0.00     0.000 C 
BRANCH  20  21
ATOM     21  C   UNL     1       3.701   8.866   4.200  1.00  0.00     0.000 C 
BRANCH  21  22
ATOM     22  C   UNL     1       4.846   8.041   3.583  1.00  0.00     0.000 C 
BRANCH  22  23
ATOM     23  C   UNL     1       6.057   8.901   3.194  1.00  0.00     0.000 C 
BRANCH  23  24
ATOM     24  C   UNL     1       7.142   8.056   2.509  1.00  0.00    -0.000 C 
BRANCH  24  25
ATOM     25  C   UNL     1       8.137   8.895   1.686  1.00  0.00    -0.000 C 
BRANCH  25  26
ATOM     26  C   UNL     1       8.034   8.699   0.157  1.00  0.00    -0.000 C 
BRANCH  26  27
ATOM     27  C   UNL     1       8.045   7.234  -0.336  1.00  0.00    -0.000 C 
BRANCH  27  28
ATOM     28  C   UNL     1       6.716   6.700  -0.904  1.00  0.00    -0.000 C 
BRANCH  28  29
ATOM     29  C   UNL     1       5.926   5.843   0.100  1.00  0.00    -0.000 C 
BRANCH  29  30
ATOM     30  C   UNL     1       6.841   5.150   1.124  1.00  0.00    -0.000 C 
BRANCH  30  31
ATOM     31  C   UNL     1       6.227   5.101   2.532  1.00  0.00    -0.003 C 
ATOM     32  C   UNL     1       6.818   3.956   3.349  1.00  0.00     0.004 C 
ENDBRANCH  30  31
ENDBRANCH  29  30
ENDBRANCH  28  29
ENDBRANCH  27  28
ENDBRANCH  26  27
ENDBRANCH  25  26
ENDBRANCH  24  25
ENDBRANCH  23  24
ENDBRANCH  22  23
ENDBRANCH  21  22
ENDBRANCH  20  21
ENDBRANCH  19  20
ENDBRANCH  18  19
ENDBRANCH   1  18
TORSDOF 28
ENDMDL
MODEL 7
REMARK VINA RESULT:    -0.483      3.430      7.148
REMARK INTER + INTRA:          -5.057
REMARK INTER:                  -3.306
REMARK INTRA:                  -1.751
REMARK UNBOUND:                -3.784
REMARK SMILES CCCCCCCCCCCCCCCCCCCCCCCCCCCCCC(=O)[O-]
REMARK SMILES IDX 16 1 17 2 18 3 19 4 20 5 21 6 22 7 23 8 24 9 25 10 26 11
REMARK SMILES IDX 27 12 28 13 29 14 30 15 31 16 32 17 15 18 14 19 13 20 12 21
REMARK SMILES IDX 11 22 10 23 9 24 8 25 7 26 6 27 5 28 4 29 3 30 2 31 1 32
REMARK H PARENT
REMARK Flexibility Score: inf
ROOT
ATOM      1  C   UNL     1       6.054   6.895   2.456  1.00  0.00     0.000 C 
ENDROOT
BRANCH   1   2
ATOM      2  C   UNL     1       5.479   7.155   1.045  1.00  0.00     0.000 C 
BRANCH   2   3
ATOM      3  C   UNL     1       6.163   6.326  -0.055  1.00  0.00     0.000 C 
BRANCH   3   4
ATOM      4  C   UNL     1       6.576   7.182  -1.265  1.00  0.00     0.000 C 
BRANCH   4   5
ATOM      5  C   UNL     1       5.869   8.546  -1.293  1.00  0.00     0.000 C 
BRANCH   5   6
ATOM      6  C   UNL     1       4.503   8.528  -0.588  1.00  0.00     0.000 C 
BRANCH   6   7
ATOM      7  C   UNL     1       3.801   9.885  -0.721  1.00  0.00     0.000 C 
BRANCH   7   8
ATOM      8  C   UNL     1       4.235  10.608  -2.004  1.00  0.00     0.000 C 
BRANCH   8   9
ATOM      9  C   UNL     1       4.100  12.139  -1.906  1.00  0.00     0.000 C 
BRANCH   9  10
ATOM     10  C   UNL     1       3.679  12.812  -3.229  1.00  0.00     0.000 C 
BRANCH  10  11
ATOM     11  C   UNL     1       4.799  12.779  -4.284  1.00  0.00     0.000 C 
BRANCH  11  12
ATOM     12  C   UNL     1       6.191  12.564  -3.651  1.00  0.00     0.000 C 
BRANCH  12  13
ATOM     13  C   UNL     1       7.227  11.975  -4.624  1.00  0.00     0.006 C 
BRANCH  13  14
ATOM     14  C   UNL     1       7.310  12.744  -5.947  1.00  0.00     0.053 C 
BRANCH  14  15
ATOM     15  C   UNL     1       6.967  11.848  -7.094  1.00  0.00     0.041 C 
ATOM     16  O   UNL     1       7.769  11.717  -8.058  1.00  0.00    -0.550 OA
ATOM     17  O   UNL     1       5.735  11.206  -7.132  1.00  0.00    -0.550 OA
ENDBRANCH  14  15
ENDBRANCH  13  14
ENDBRANCH  12  13
ENDBRANCH  11  12
ENDBRANCH  10  11
ENDBRANCH   9  10
ENDBRANCH   8   9
ENDBRANCH   7   8
ENDBRANCH   6   7
ENDBRANCH   5   6
ENDBRANCH   4   5
ENDBRANCH   3   4
ENDBRANCH   2   3
ENDBRANCH   1   2
BRANCH   1  18
ATOM     18  C   UNL     1       5.312   7.699   3.538  1.00  0.00     0.000 C 
BRANCH  18  19
ATOM     19  C   UNL     1       4.121   8.501   2.967  1.00  0.00     0.000 C 
BRANCH  19  20
ATOM     20  C   UNL     1       3.184   9.079   4.047  1.00  0.00     0.000 C 
BRANCH  20  21
ATOM     21  C   UNL     1       2.875  10.581   3.908  1.00  0.00     0.000 C 
BRANCH  21  22
ATOM     22  C   UNL     1       3.252  11.200   2.549  1.00  0.00     0.000 C 
BRANCH  22  23
ATOM     23  C   UNL     1       4.333  12.285   2.668  1.00  0.00     0.000 C 
BRANCH  23  24
ATOM     24  C   UNL     1       4.959  12.597   1.300  1.00  0.00    -0.000 C 
BRANCH  24  25
ATOM     25  C   UNL     1       6.498  12.542   1.309  1.00  0.00    -0.000 C 
BRANCH  25  26
ATOM     26  C   UNL     1       7.092  11.210   1.818  1.00  0.00    -0.000 C 
BRANCH  26  27
ATOM     27  C   UNL     1       7.837  10.360   0.765  1.00  0.00    -0.000 C 
BRANCH  27  28
ATOM     28  C   UNL     1       8.911   9.397   1.308  1.00  0.00    -0.000 C 
BRANCH  28  29
ATOM     29  C   UNL     1       8.893   8.019   0.624  1.00  0.00    -0.000 C 
BRANCH  29  30
ATOM     30  C   UNL     1      10.287   7.590   0.135  1.00  0.00    -0.000 C 
BRANCH  30  31
ATOM     31  C   UNL     1      10.264   6.256  -0.627  1.00  0.00    -0.003 C 
ATOM     32  C   UNL     1      11.464   5.390  -0.253  1.00  0.00     0.004 C 
ENDBRANCH  30  31
ENDBRANCH  29  30
ENDBRANCH  28  29
ENDBRANCH  27  28
ENDBRANCH  26  27
ENDBRANCH  25  26
ENDBRANCH  24  25
ENDBRANCH  23  24
ENDBRANCH  22  23
ENDBRANCH  21  22
ENDBRANCH  20  21
ENDBRANCH  19  20
ENDBRANCH  18  19
ENDBRANCH   1  18
TORSDOF 28
ENDMDL
MODEL 8
REMARK VINA RESULT:    -0.267      2.207      5.363
REMARK INTER + INTRA:          -4.489
REMARK INTER:                  -0.532
REMARK INTRA:                  -3.957
REMARK UNBOUND:                -3.784
REMARK SMILES CCCCCCCCCCCCCCCCCCCCCCCCCCCCCC(=O)[O-]
REMARK SMILES IDX 16 1 17 2 18 3 19 4 20 5 21 6 22 7 23 8 24 9 25 10 26 11
REMARK SMILES IDX 27 12 28 13 29 14 30 15 31 16 32 17 15 18 14 19 13 20 12 21
REMARK SMILES IDX 11 22 10 23 9 24 8 25 7 26 6 27 5 28 4 29 3 30 2 31 1 32
REMARK H PARENT
REMARK Flexibility Score: inf
ROOT
ATOM      1  C   UNL     1       5.082   8.999   4.072  1.00  0.00     0.000 C 
ENDROOT
BRANCH   1   2
ATOM      2  C   UNL     1       5.942   8.012   3.250  1.00  0.00     0.000 C 
BRANCH   2   3
ATOM      3  C   UNL     1       6.809   7.085   4.119  1.00  0.00     0.000 C 
BRANCH   3   4
ATOM      4  C   UNL     1       6.298   5.634   4.122  1.00  0.00     0.000 C 
BRANCH   4   5
ATOM      5  C   UNL     1       6.877   4.802   2.967  1.00  0.00     0.000 C 
BRANCH   5   6
ATOM      6  C   UNL     1       5.917   4.685   1.772  1.00  0.00     0.000 C 
BRANCH   6   7
ATOM      7  C   UNL     1       6.346   5.618   0.633  1.00  0.00     0.000 C 
BRANCH   7   8
ATOM      8  C   UNL     1       5.484   6.888   0.605  1.00  0.00     0.000 C 
BRANCH   8   9
ATOM      9  C   UNL     1       5.772   7.783  -0.615  1.00  0.00     0.000 C 
BRANCH   9  10
ATOM     10  C   UNL     1       6.135   9.237  -0.247  1.00  0.00     0.000 C 
BRANCH  10  11
ATOM     11  C   UNL     1       7.656   9.475  -0.233  1.00  0.00     0.000 C 
BRANCH  11  12
ATOM     12  C   UNL     1       8.366   8.646   0.860  1.00  0.00     0.000 C 
BRANCH  12  13
ATOM     13  C   UNL     1       9.649   7.952   0.372  1.00  0.00     0.006 C 
BRANCH  13  14
ATOM     14  C   UNL     1       9.423   6.491  -0.029  1.00  0.00     0.053 C 
BRANCH  14  15
ATOM     15  C   UNL     1       9.190   6.384  -1.503  1.00  0.00     0.041 C 
ATOM     16  O   UNL     1       8.015   6.390  -1.960  1.00  0.00    -0.550 OA
ATOM     17  O   UNL     1      10.264   6.213  -2.367  1.00  0.00    -0.550 OA
ENDBRANCH  14  15
ENDBRANCH  13  14
ENDBRANCH  12  13
ENDBRANCH  11  12
ENDBRANCH  10  11
ENDBRANCH   9  10
ENDBRANCH   8   9
ENDBRANCH   7   8
ENDBRANCH   6   7
ENDBRANCH   5   6
ENDBRANCH   4   5
ENDBRANCH   3   4
ENDBRANCH   2   3
ENDBRANCH   1   2
BRANCH   1  18
ATOM     18  C   UNL     1       3.631   9.058   3.566  1.00  0.00     0.000 C 
BRANCH  18  19
ATOM     19  C   UNL     1       3.539   9.444   2.073  1.00  0.00     0.000 C 
BRANCH  19  20
ATOM     20  C   UNL     1       2.900  10.825   1.824  1.00  0.00     0.000 C 
BRANCH  20  21
ATOM     21  C   UNL     1       3.825  11.864   1.163  1.00  0.00     0.000 C 
BRANCH  21  22
ATOM     22  C   UNL     1       4.135  13.101   2.027  1.00  0.00     0.000 C 
BRANCH  22  23
ATOM     23  C   UNL     1       5.471  12.984   2.776  1.00  0.00     0.000 C 
BRANCH  23  24
ATOM     24  C   UNL     1       6.448  12.063   2.031  1.00  0.00    -0.000 C 
BRANCH  24  25
ATOM     25  C   UNL     1       7.815  12.718   1.759  1.00  0.00    -0.000 C 
BRANCH  25  26
ATOM     26  C   UNL     1       8.070  13.086   0.281  1.00  0.00    -0.000 C 
BRANCH  26  27
ATOM     27  C   UNL     1       6.875  12.885  -0.679  1.00  0.00    -0.000 C 
BRANCH  27  28
ATOM     28  C   UNL     1       7.227  12.617  -2.155  1.00  0.00    -0.000 C 
BRANCH  28  29
ATOM     29  C   UNL     1       5.997  12.316  -3.028  1.00  0.00    -0.000 C 
BRANCH  29  30
ATOM     30  C   UNL     1       6.211  11.096  -3.940  1.00  0.00    -0.000 C 
BRANCH  30  31
ATOM     31  C   UNL     1       6.203  11.461  -5.432  1.00  0.00    -0.003 C 
ATOM     32  C   UNL     1       7.443  12.267  -5.807  1.00  0.00     0.004 C 
ENDBRANCH  30  31
ENDBRANCH  29  30
ENDBRANCH  28  29
ENDBRANCH  27  28
ENDBRANCH  26  27
ENDBRANCH  25  26
ENDBRANCH  24  25
ENDBRANCH  23  24
ENDBRANCH  22  23
ENDBRANCH  21  22
ENDBRANCH  20  21
ENDBRANCH  19  20
ENDBRANCH  18  19
ENDBRANCH   1  18
TORSDOF 28
ENDMDL
