MODEL 1
REMARK VINA RESULT:    -7.046      0.000      0.000
REMARK INTER + INTRA:         -12.171
REMARK INTER:                 -10.341
REMARK INTRA:                  -1.831
REMARK UNBOUND:                -1.831
REMARK SMILES O=c1c(O[C@@H]2O[C@@H](CO)[C@H](O)[C@H](O)[C@H]2O)c(-c2ccc(O)c(O)c2)oc2cc(O)cc(O)c12
REMARK SMILES IDX 4 1 3 2 16 3 25 4 2 5 26 6 1 7 33 8 27 9 31 10 28 11 30 12
REMARK SMILES IDX 17 13 18 14 19 15 20 16 24 17 22 18 21 19 23 21 32 23 29 25
REMARK SMILES IDX 5 27 14 28 6 29 12 30 7 31 10 32 15 33 13 35 8 37 9 38 11 40
REMARK H PARENT 21 20 23 22 32 24 29 26 15 34 13 36 9 39 11 41
REMARK Flexibility Score: inf
ROOT
ATOM      1  O   UNL     1      54.946   6.928  80.453  1.00  0.00    -0.454 OA
ENDROOT
BRANCH   1   2
ATOM      2  C   UNL     1      55.605   6.431  79.246  1.00  0.00     0.214 A 
ATOM      3  C   UNL     1      55.379   7.052  78.022  1.00  0.00     0.180 A 
ATOM      4  O   UNL     1      54.052   7.013  77.619  1.00  0.00    -0.452 OA
ATOM      5  C   UNL     1      55.400   5.124  78.998  1.00  0.00     0.239 A 
ATOM      6  C   UNL     1      53.361   5.878  78.010  1.00  0.00     0.146 A 
ATOM      7  O   UNL     1      56.328   4.293  79.257  1.00  0.00    -0.285 OA
ATOM      8  C   UNL     1      54.156   4.749  78.422  1.00  0.00     0.111 A 
ATOM      9  C   UNL     1      51.998   5.835  78.301  1.00  0.00     0.094 A 
ATOM     10  C   UNL     1      53.594   3.473  78.706  1.00  0.00     0.134 A 
ATOM     11  C   UNL     1      51.471   4.649  79.058  1.00  0.00     0.123 A 
ATOM     12  C   UNL     1      52.288   3.469  79.166  1.00  0.00     0.093 A 
BRANCH   3  13
ATOM     13  C   UNL     1      56.557   7.607  77.340  1.00  0.00     0.025 A 
ATOM     14  C   UNL     1      56.515   9.035  77.390  1.00  0.00     0.016 A 
ATOM     15  C   UNL     1      57.059   9.594  78.627  1.00  0.00     0.051 A 
ATOM     16  C   UNL     1      58.249   9.017  79.149  1.00  0.00     0.157 A 
ATOM     17  C   UNL     1      57.894   7.103  77.528  1.00  0.00     0.062 A 
ATOM     18  C   UNL     1      58.702   7.801  78.476  1.00  0.00     0.158 A 
BRANCH  16  19
ATOM     19  O   UNL     1      58.954   9.616  80.116  1.00  0.00    -0.504 OA
ATOM     20  H   UNL     1      59.964   9.800  79.986  1.00  0.00     0.293 HD
ENDBRANCH  16  19
BRANCH  18  21
ATOM     21  O   UNL     1      59.962   7.314  78.719  1.00  0.00    -0.504 OA
ATOM     22  H   UNL     1      60.850   7.842  78.504  1.00  0.00     0.293 HD
ENDBRANCH  18  21
ENDBRANCH   3  13
BRANCH  10  23
ATOM     23  O   UNL     1      54.373   2.264  78.608  1.00  0.00    -0.507 OA
ATOM     24  H   UNL     1      54.957   2.149  77.718  1.00  0.00     0.293 HD
ENDBRANCH  10  23
BRANCH  11  25
ATOM     25  O   UNL     1      50.348   4.703  79.859  1.00  0.00    -0.508 OA
ATOM     26  H   UNL     1      50.178   3.942  80.552  1.00  0.00     0.293 HD
ENDBRANCH  11  25
ENDBRANCH   1   2
BRANCH   1  27
ATOM     27  C   UNL     1      55.055   6.506  81.820  1.00  0.00     0.339 C 
ATOM     28  C   UNL     1      54.088   5.326  82.128  1.00  0.00     0.214 C 
ATOM     29  O   UNL     1      56.389   6.373  82.351  1.00  0.00    -0.332 OA
ATOM     30  C   UNL     1      54.328   4.913  83.552  1.00  0.00     0.180 C 
ATOM     31  C   UNL     1      56.815   5.020  82.733  1.00  0.00     0.179 C 
ATOM     32  C   UNL     1      55.766   4.349  83.720  1.00  0.00     0.177 C 
BRANCH  28  33
ATOM     33  O   UNL     1      52.740   5.660  81.909  1.00  0.00    -0.384 OA
ATOM     34  H   UNL     1      52.397   6.032  82.737  1.00  0.00     0.211 HD
ENDBRANCH  28  33
BRANCH  30  35
ATOM     35  O   UNL     1      53.335   4.104  84.055  1.00  0.00    -0.387 OA
ATOM     36  H   UNL     1      53.263   4.276  85.037  1.00  0.00     0.211 HD
ENDBRANCH  30  35
BRANCH  31  37
ATOM     37  C   UNL     1      58.307   4.861  83.201  1.00  0.00     0.191 C 
BRANCH  37  38
ATOM     38  O   UNL     1      58.842   3.522  83.033  1.00  0.00    -0.394 OA
ATOM     39  H   UNL     1      59.778   3.394  83.483  1.00  0.00     0.210 HD
ENDBRANCH  37  38
ENDBRANCH  31  37
BRANCH  32  40
ATOM     40  O   UNL     1      55.869   2.914  83.513  1.00  0.00    -0.387 OA
ATOM     41  H   UNL     1      54.957   2.460  83.653  1.00  0.00     0.211 HD
ENDBRANCH  32  40
ENDBRANCH   1  27
TORSDOF 12
ENDMDL
MODEL 2
REMARK VINA RESULT:    -6.881      1.716      6.246
REMARK INTER + INTRA:         -11.930
REMARK INTER:                 -10.169
REMARK INTRA:                  -1.761
REMARK UNBOUND:                -1.831
REMARK SMILES O=c1c(O[C@@H]2O[C@@H](CO)[C@H](O)[C@H](O)[C@H]2O)c(-c2ccc(O)c(O)c2)oc2cc(O)cc(O)c12
REMARK SMILES IDX 4 1 3 2 16 3 25 4 2 5 26 6 1 7 33 8 27 9 31 10 28 11 30 12
REMARK SMILES IDX 17 13 18 14 19 15 20 16 24 17 22 18 21 19 23 21 32 23 29 25
REMARK SMILES IDX 5 27 14 28 6 29 12 30 7 31 10 32 15 33 13 35 8 37 9 38 11 40
REMARK H PARENT 21 20 23 22 32 24 29 26 15 34 13 36 9 39 11 41
REMARK Flexibility Score: inf
ROOT
ATOM      1  O   UNL     1      55.939   4.744  78.661  1.00  0.00    -0.454 OA
ENDROOT
BRANCH   1   2
ATOM      2  C   UNL     1      56.524   4.986  79.979  1.00  0.00     0.214 A 
ATOM      3  C   UNL     1      55.800   5.670  80.949  1.00  0.00     0.180 A 
ATOM      4  O   UNL     1      55.467   6.965  80.580  1.00  0.00    -0.452 OA
ATOM      5  C   UNL     1      57.716   5.611  79.953  1.00  0.00     0.239 A 
ATOM      6  C   UNL     1      56.400   7.596  79.775  1.00  0.00     0.146 A 
ATOM      7  O   UNL     1      58.774   4.932  80.148  1.00  0.00    -0.285 OA
ATOM      8  C   UNL     1      57.720   7.016  79.742  1.00  0.00     0.111 A 
ATOM      9  C   UNL     1      56.101   8.548  78.802  1.00  0.00     0.094 A 
ATOM     10  C   UNL     1      58.817   7.636  79.080  1.00  0.00     0.134 A 
ATOM     11  C   UNL     1      57.147   8.864  77.771  1.00  0.00     0.123 A 
ATOM     12  C   UNL     1      58.503   8.441  78.000  1.00  0.00     0.093 A 
BRANCH   3  13
ATOM     13  C   UNL     1      55.536   4.948  82.203  1.00  0.00     0.025 A 
ATOM     14  C   UNL     1      54.619   5.695  83.006  1.00  0.00     0.016 A 
ATOM     15  C   UNL     1      53.217   5.464  82.663  1.00  0.00     0.051 A 
ATOM     16  C   UNL     1      52.812   4.129  82.389  1.00  0.00     0.157 A 
ATOM     17  C   UNL     1      55.271   3.533  82.264  1.00  0.00     0.062 A 
ATOM     18  C   UNL     1      53.896   3.151  82.307  1.00  0.00     0.158 A 
BRANCH  16  19
ATOM     19  O   UNL     1      51.520   3.787  82.322  1.00  0.00    -0.504 OA
ATOM     20  H   UNL     1      51.235   2.802  82.461  1.00  0.00     0.293 HD
ENDBRANCH  16  19
BRANCH  18  21
ATOM     21  O   UNL     1      53.607   1.810  82.311  1.00  0.00    -0.504 OA
ATOM     22  H   UNL     1      54.154   1.090  82.856  1.00  0.00     0.293 HD
ENDBRANCH  18  21
ENDBRANCH   3  13
BRANCH  10  23
ATOM     23  O   UNL     1      60.181   7.363  79.460  1.00  0.00    -0.507 OA
ATOM     24  H   UNL     1      60.361   6.419  79.932  1.00  0.00     0.293 HD
ENDBRANCH  10  23
BRANCH  11  25
ATOM     25  O   UNL     1      56.844   9.325  76.506  1.00  0.00    -0.508 OA
ATOM     26  H   UNL     1      57.360  10.148  76.125  1.00  0.00     0.293 HD
ENDBRANCH  11  25
ENDBRANCH   1   2
BRANCH   1  27
ATOM     27  C   UNL     1      54.571   4.740  78.230  1.00  0.00     0.339 C 
ATOM     28  C   UNL     1      53.689   3.847  79.153  1.00  0.00     0.214 C 
ATOM     29  O   UNL     1      54.002   6.015  77.870  1.00  0.00    -0.332 OA
ATOM     30  C   UNL     1      52.273   3.966  78.666  1.00  0.00     0.180 C 
ATOM     31  C   UNL     1      52.903   6.509  78.711  1.00  0.00     0.179 C 
ATOM     32  C   UNL     1      51.755   5.420  78.847  1.00  0.00     0.177 C 
BRANCH  28  33
ATOM     33  O   UNL     1      54.115   2.508  79.176  1.00  0.00    -0.384 OA
ATOM     34  H   UNL     1      54.547   2.358  80.032  1.00  0.00     0.211 HD
ENDBRANCH  28  33
BRANCH  30  35
ATOM     35  O   UNL     1      51.443   2.995  79.178  1.00  0.00    -0.387 OA
ATOM     36  H   UNL     1      51.933   2.523  79.910  1.00  0.00     0.211 HD
ENDBRANCH  30  35
BRANCH  31  37
ATOM     37  C   UNL     1      52.366   7.950  78.386  1.00  0.00     0.191 C 
BRANCH  37  38
ATOM     38  O   UNL     1      51.029   8.211  78.887  1.00  0.00    -0.394 OA
ATOM     39  H   UNL     1      50.951   8.106  79.925  1.00  0.00     0.210 HD
ENDBRANCH  37  38
ENDBRANCH  31  37
BRANCH  32  40
ATOM     40  O   UNL     1      51.108   5.664  80.126  1.00  0.00    -0.387 OA
ATOM     41  H   UNL     1      50.518   4.866  80.394  1.00  0.00     0.211 HD
ENDBRANCH  32  40
ENDBRANCH   1  27
TORSDOF 12
ENDMDL
MODEL 3
REMARK VINA RESULT:    -6.840      2.467      5.232
REMARK INTER + INTRA:         -11.870
REMARK INTER:                 -10.289
REMARK INTRA:                  -1.580
REMARK UNBOUND:                -1.831
REMARK SMILES O=c1c(O[C@@H]2O[C@@H](CO)[C@H](O)[C@H](O)[C@H]2O)c(-c2ccc(O)c(O)c2)oc2cc(O)cc(O)c12
REMARK SMILES IDX 4 1 3 2 16 3 25 4 2 5 26 6 1 7 33 8 27 9 31 10 28 11 30 12
REMARK SMILES IDX 17 13 18 14 19 15 20 16 24 17 22 18 21 19 23 21 32 23 29 25
REMARK SMILES IDX 5 27 14 28 6 29 12 30 7 31 10 32 15 33 13 35 8 37 9 38 11 40
REMARK H PARENT 21 20 23 22 32 24 29 26 15 34 13 36 9 39 11 41
REMARK Flexibility Score: inf
ROOT
ATOM      1  O   UNL     1      54.587   6.665  78.535  1.00  0.00    -0.454 OA
ENDROOT
BRANCH   1   2
ATOM      2  C   UNL     1      54.867   6.168  79.881  1.00  0.00     0.214 A 
ATOM      3  C   UNL     1      55.808   5.162  80.071  1.00  0.00     0.180 A 
ATOM      4  O   UNL     1      55.488   3.976  79.426  1.00  0.00    -0.452 OA
ATOM      5  C   UNL     1      53.782   5.739  80.552  1.00  0.00     0.239 A 
ATOM      6  C   UNL     1      54.131   3.711  79.341  1.00  0.00     0.146 A 
ATOM      7  O   UNL     1      53.283   6.480  81.459  1.00  0.00    -0.285 OA
ATOM      8  C   UNL     1      53.272   4.452  80.230  1.00  0.00     0.111 A 
ATOM      9  C   UNL     1      53.519   3.016  78.300  1.00  0.00     0.094 A 
ATOM     10  C   UNL     1      51.881   4.182  80.360  1.00  0.00     0.134 A 
ATOM     11  C   UNL     1      52.028   3.126  78.152  1.00  0.00     0.123 A 
ATOM     12  C   UNL     1      51.254   3.653  79.245  1.00  0.00     0.093 A 
BRANCH   3  13
ATOM     13  C   UNL     1      56.951   5.487  80.938  1.00  0.00     0.025 A 
ATOM     14  C   UNL     1      58.088   4.715  80.546  1.00  0.00     0.016 A 
ATOM     15  C   UNL     1      58.847   5.306  79.445  1.00  0.00     0.051 A 
ATOM     16  C   UNL     1      59.064   6.711  79.468  1.00  0.00     0.157 A 
ATOM     17  C   UNL     1      57.316   6.834  81.297  1.00  0.00     0.062 A 
ATOM     18  C   UNL     1      58.345   7.438  80.512  1.00  0.00     0.158 A 
BRANCH  16  19
ATOM     19  O   UNL     1      59.953   7.297  78.657  1.00  0.00    -0.504 OA
ATOM     20  H   UNL     1      59.658   7.646  77.729  1.00  0.00     0.293 HD
ENDBRANCH  16  19
BRANCH  18  21
ATOM     21  O   UNL     1      58.679   8.739  80.793  1.00  0.00    -0.504 OA
ATOM     22  H   UNL     1      58.475   9.216  81.712  1.00  0.00     0.293 HD
ENDBRANCH  18  21
ENDBRANCH   3  13
BRANCH  10  23
ATOM     23  O   UNL     1      51.152   4.528  81.555  1.00  0.00    -0.507 OA
ATOM     24  H   UNL     1      50.124   4.230  81.584  1.00  0.00     0.293 HD
ENDBRANCH  10  23
BRANCH  11  25
ATOM     25  O   UNL     1      51.376   2.977  76.945  1.00  0.00    -0.508 OA
ATOM     26  H   UNL     1      51.607   3.620  76.156  1.00  0.00     0.293 HD
ENDBRANCH  11  25
ENDBRANCH   1   2
BRANCH   1  27
ATOM     27  C   UNL     1      54.172   7.962  78.083  1.00  0.00     0.339 C 
ATOM     28  C   UNL     1      53.019   7.857  77.042  1.00  0.00     0.214 C 
ATOM     29  O   UNL     1      54.007   8.977  79.094  1.00  0.00    -0.332 OA
ATOM     30  C   UNL     1      52.610   9.259  76.689  1.00  0.00     0.180 C 
ATOM     31  C   UNL     1      52.645   9.491  79.298  1.00  0.00     0.179 C 
ATOM     32  C   UNL     1      52.010   9.980  77.927  1.00  0.00     0.177 C 
BRANCH  28  33
ATOM     33  O   UNL     1      53.387   7.125  75.899  1.00  0.00    -0.384 OA
ATOM     34  H   UNL     1      52.736   6.414  75.790  1.00  0.00     0.211 HD
ENDBRANCH  28  33
BRANCH  30  35
ATOM     35  O   UNL     1      51.831   9.325  75.556  1.00  0.00    -0.387 OA
ATOM     36  H   UNL     1      51.838   8.424  75.121  1.00  0.00     0.211 HD
ENDBRANCH  30  35
BRANCH  31  37
ATOM     37  C   UNL     1      52.451  10.509  80.479  1.00  0.00     0.191 C 
BRANCH  37  38
ATOM     38  O   UNL     1      52.795   9.977  81.784  1.00  0.00    -0.394 OA
ATOM     39  H   UNL     1      52.076  10.185  82.515  1.00  0.00     0.210 HD
ENDBRANCH  37  38
ENDBRANCH  31  37
BRANCH  32  40
ATOM     40  O   UNL     1      50.570   9.824  78.065  1.00  0.00    -0.387 OA
ATOM     41  H   UNL     1      50.253  10.173  78.978  1.00  0.00     0.211 HD
ENDBRANCH  32  40
ENDBRANCH   1  27
TORSDOF 12
ENDMDL
MODEL 4
REMARK VINA RESULT:    -6.789      2.680      5.993
REMARK INTER + INTRA:         -11.794
REMARK INTER:                 -10.254
REMARK INTRA:                  -1.541
REMARK UNBOUND:                -1.831
REMARK SMILES O=c1c(O[C@@H]2O[C@@H](CO)[C@H](O)[C@H](O)[C@H]2O)c(-c2ccc(O)c(O)c2)oc2cc(O)cc(O)c12
REMARK SMILES IDX 4 1 3 2 16 3 25 4 2 5 26 6 1 7 33 8 27 9 31 10 28 11 30 12
REMARK SMILES IDX 17 13 18 14 19 15 20 16 24 17 22 18 21 19 23 21 32 23 29 25
REMARK SMILES IDX 5 27 14 28 6 29 12 30 7 31 10 32 15 33 13 35 8 37 9 38 11 40
REMARK H PARENT 21 20 23 22 32 24 29 26 15 34 13 36 9 39 11 41
REMARK Flexibility Score: inf
ROOT
ATOM      1  O   UNL     1      52.867   6.620  78.486  1.00  0.00    -0.454 OA
ENDROOT
BRANCH   1   2
ATOM      2  C   UNL     1      53.472   5.848  79.571  1.00  0.00     0.214 A 
ATOM      3  C   UNL     1      54.432   4.882  79.289  1.00  0.00     0.180 A 
ATOM      4  O   UNL     1      53.963   3.857  78.481  1.00  0.00    -0.452 OA
ATOM      5  C   UNL     1      52.587   5.216  80.363  1.00  0.00     0.239 A 
ATOM      6  C   UNL     1      52.628   3.539  78.664  1.00  0.00     0.146 A 
ATOM      7  O   UNL     1      52.327   5.702  81.510  1.00  0.00    -0.285 OA
ATOM      8  C   UNL     1      52.015   4.007  79.881  1.00  0.00     0.111 A 
ATOM      9  C   UNL     1      51.778   3.062  77.667  1.00  0.00     0.094 A 
ATOM     10  C   UNL     1      50.700   3.634  80.274  1.00  0.00     0.134 A 
ATOM     11  C   UNL     1      50.296   3.116  77.912  1.00  0.00     0.123 A 
ATOM     12  C   UNL     1      49.817   3.335  79.251  1.00  0.00     0.093 A 
BRANCH   3  13
ATOM     13  C   UNL     1      55.753   5.070  79.906  1.00  0.00     0.025 A 
ATOM     14  C   UNL     1      56.777   4.747  78.962  1.00  0.00     0.016 A 
ATOM     15  C   UNL     1      57.119   5.852  78.068  1.00  0.00     0.051 A 
ATOM     16  C   UNL     1      57.221   7.153  78.630  1.00  0.00     0.157 A 
ATOM     17  C   UNL     1      56.102   6.219  80.702  1.00  0.00     0.062 A 
ATOM     18  C   UNL     1      56.794   7.268  80.024  1.00  0.00     0.158 A 
BRANCH  16  19
ATOM     19  O   UNL     1      57.774   8.168  77.955  1.00  0.00    -0.504 OA
ATOM     20  H   UNL     1      57.625   8.257  76.935  1.00  0.00     0.293 HD
ENDBRANCH  16  19
BRANCH  18  21
ATOM     21  O   UNL     1      57.093   8.400  80.739  1.00  0.00    -0.504 OA
ATOM     22  H   UNL     1      57.034   9.379  80.347  1.00  0.00     0.293 HD
ENDBRANCH  18  21
ENDBRANCH   3  13
BRANCH  10  23
ATOM     23  O   UNL     1      50.288   3.656  81.656  1.00  0.00    -0.507 OA
ATOM     24  H   UNL     1      49.272   3.938  81.843  1.00  0.00     0.293 HD
ENDBRANCH  10  23
BRANCH  11  25
ATOM     25  O   UNL     1      49.366   3.205  76.897  1.00  0.00    -0.508 OA
ATOM     26  H   UNL     1      48.353   3.104  77.122  1.00  0.00     0.293 HD
ENDBRANCH  11  25
ENDBRANCH   1   2
BRANCH   1  27
ATOM     27  C   UNL     1      53.046   7.990  78.099  1.00  0.00     0.339 C 
ATOM     28  C   UNL     1      53.363   8.112  76.579  1.00  0.00     0.214 C 
ATOM     29  O   UNL     1      52.090   8.938  78.613  1.00  0.00    -0.332 OA
ATOM     30  C   UNL     1      53.460   9.577  76.262  1.00  0.00     0.180 C 
ATOM     31  C   UNL     1      51.226   9.604  77.629  1.00  0.00     0.179 C 
ATOM     32  C   UNL     1      52.088  10.273  76.475  1.00  0.00     0.177 C 
BRANCH  28  33
ATOM     33  O   UNL     1      54.536   7.427  76.215  1.00  0.00    -0.384 OA
ATOM     34  H   UNL     1      55.262   7.802  76.736  1.00  0.00     0.211 HD
ENDBRANCH  28  33
BRANCH  30  35
ATOM     35  O   UNL     1      54.045   9.828  75.041  1.00  0.00    -0.387 OA
ATOM     36  H   UNL     1      54.252   8.950  74.610  1.00  0.00     0.211 HD
ENDBRANCH  30  35
BRANCH  31  37
ATOM     37  C   UNL     1      50.108  10.547  78.204  1.00  0.00     0.191 C 
BRANCH  37  38
ATOM     38  O   UNL     1      48.769   9.990  78.137  1.00  0.00    -0.394 OA
ATOM     39  H   UNL     1      48.742   8.963  78.335  1.00  0.00     0.210 HD
ENDBRANCH  37  38
ENDBRANCH  31  37
BRANCH  32  40
ATOM     40  O   UNL     1      51.242  10.293  75.292  1.00  0.00    -0.387 OA
ATOM     41  H   UNL     1      51.497  11.076  74.676  1.00  0.00     0.211 HD
ENDBRANCH  32  40
ENDBRANCH   1  27
TORSDOF 12
ENDMDL
MODEL 5
REMARK VINA RESULT:    -6.692      1.954      5.849
REMARK INTER + INTRA:         -11.653
REMARK INTER:                 -10.522
REMARK INTRA:                  -1.131
REMARK UNBOUND:                -1.831
REMARK SMILES O=c1c(O[C@@H]2O[C@@H](CO)[C@H](O)[C@H](O)[C@H]2O)c(-c2ccc(O)c(O)c2)oc2cc(O)cc(O)c12
REMARK SMILES IDX 4 1 3 2 16 3 25 4 2 5 26 6 1 7 33 8 27 9 31 10 28 11 30 12
REMARK SMILES IDX 17 13 18 14 19 15 20 16 24 17 22 18 21 19 23 21 32 23 29 25
REMARK SMILES IDX 5 27 14 28 6 29 12 30 7 31 10 32 15 33 13 35 8 37 9 38 11 40
REMARK H PARENT 21 20 23 22 32 24 29 26 15 34 13 36 9 39 11 41
REMARK Flexibility Score: inf
ROOT
ATOM      1  O   UNL     1      55.520   5.852  77.920  1.00  0.00    -0.454 OA
ENDROOT
BRANCH   1   2
ATOM      2  C   UNL     1      54.166   5.785  78.471  1.00  0.00     0.214 A 
ATOM      3  C   UNL     1      53.098   5.426  77.657  1.00  0.00     0.180 A 
ATOM      4  O   UNL     1      52.896   6.296  76.595  1.00  0.00    -0.452 OA
ATOM      5  C   UNL     1      53.757   6.915  79.077  1.00  0.00     0.239 A 
ATOM      6  C   UNL     1      53.208   7.619  76.862  1.00  0.00     0.146 A 
ATOM      7  O   UNL     1      53.746   6.965  80.349  1.00  0.00    -0.285 OA
ATOM      8  C   UNL     1      53.321   7.986  78.251  1.00  0.00     0.111 A 
ATOM      9  C   UNL     1      53.688   8.530  75.923  1.00  0.00     0.094 A 
ATOM     10  C   UNL     1      53.489   9.332  78.681  1.00  0.00     0.134 A 
ATOM     11  C   UNL     1      54.326   9.795  76.423  1.00  0.00     0.123 A 
ATOM     12  C   UNL     1      54.132  10.181  77.796  1.00  0.00     0.093 A 
BRANCH   3  13
ATOM     13  C   UNL     1      52.341   4.231  78.056  1.00  0.00     0.025 A 
ATOM     14  C   UNL     1      53.204   3.318  78.739  1.00  0.00     0.016 A 
ATOM     15  C   UNL     1      53.354   3.610  80.164  1.00  0.00     0.051 A 
ATOM     16  C   UNL     1      52.191   3.983  80.891  1.00  0.00     0.157 A 
ATOM     17  C   UNL     1      51.033   4.285  78.659  1.00  0.00     0.062 A 
ATOM     18  C   UNL     1      50.993   4.206  80.084  1.00  0.00     0.158 A 
BRANCH  16  19
ATOM     19  O   UNL     1      52.181   4.015  82.230  1.00  0.00    -0.504 OA
ATOM     20  H   UNL     1      52.209   3.134  82.771  1.00  0.00     0.293 HD
ENDBRANCH  16  19
BRANCH  18  21
ATOM     21  O   UNL     1      49.768   4.309  80.694  1.00  0.00    -0.504 OA
ATOM     22  H   UNL     1      49.385   5.204  81.101  1.00  0.00     0.293 HD
ENDBRANCH  18  21
ENDBRANCH   3  13
BRANCH  10  23
ATOM     23  O   UNL     1      53.094   9.761  79.999  1.00  0.00    -0.507 OA
ATOM     24  H   UNL     1      53.852   9.730  80.754  1.00  0.00     0.293 HD
ENDBRANCH  10  23
BRANCH  11  25
ATOM     25  O   UNL     1      55.284  10.490  75.712  1.00  0.00    -0.508 OA
ATOM     26  H   UNL     1      55.270  11.533  75.721  1.00  0.00     0.293 HD
ENDBRANCH  11  25
ENDBRANCH   1   2
BRANCH   1  27
ATOM     27  C   UNL     1      56.784   5.503  78.500  1.00  0.00     0.339 C 
ATOM     28  C   UNL     1      57.687   6.758  78.687  1.00  0.00     0.214 C 
ATOM     29  O   UNL     1      56.756   4.586  79.612  1.00  0.00    -0.332 OA
ATOM     30  C   UNL     1      58.949   6.302  79.362  1.00  0.00     0.180 C 
ATOM     31  C   UNL     1      57.205   5.107  80.910  1.00  0.00     0.179 C 
ATOM     32  C   UNL     1      58.642   5.772  80.790  1.00  0.00     0.177 C 
BRANCH  28  33
ATOM     33  O   UNL     1      57.960   7.414  77.474  1.00  0.00    -0.384 OA
ATOM     34  H   UNL     1      57.523   8.279  77.510  1.00  0.00     0.211 HD
ENDBRANCH  28  33
BRANCH  30  35
ATOM     35  O   UNL     1      59.960   7.234  79.303  1.00  0.00    -0.387 OA
ATOM     36  H   UNL     1      60.439   7.228  80.180  1.00  0.00     0.211 HD
ENDBRANCH  30  35
BRANCH  31  37
ATOM     37  C   UNL     1      57.061   4.141  82.141  1.00  0.00     0.191 C 
BRANCH  37  38
ATOM     38  O   UNL     1      58.324   3.754  82.743  1.00  0.00    -0.394 OA
ATOM     39  H   UNL     1      58.778   2.944  82.261  1.00  0.00     0.210 HD
ENDBRANCH  37  38
ENDBRANCH  31  37
BRANCH  32  40
ATOM     40  O   UNL     1      58.710   6.789  81.828  1.00  0.00    -0.387 OA
ATOM     41  H   UNL     1      58.933   6.366  82.738  1.00  0.00     0.211 HD
ENDBRANCH  32  40
ENDBRANCH   1  27
TORSDOF 12
ENDMDL
MODEL 6
REMARK VINA RESULT:    -6.555      1.961      5.090
REMARK INTER + INTRA:         -11.451
REMARK INTER:                  -9.316
REMARK INTRA:                  -2.135
REMARK UNBOUND:                -1.831
REMARK SMILES O=c1c(O[C@@H]2O[C@@H](CO)[C@H](O)[C@H](O)[C@H]2O)c(-c2ccc(O)c(O)c2)oc2cc(O)cc(O)c12
REMARK SMILES IDX 4 1 3 2 16 3 25 4 2 5 26 6 1 7 33 8 27 9 31 10 28 11 30 12
REMARK SMILES IDX 17 13 18 14 19 15 20 16 24 17 22 18 21 19 23 21 32 23 29 25
REMARK SMILES IDX 5 27 14 28 6 29 12 30 7 31 10 32 15 33 13 35 8 37 9 38 11 40
REMARK H PARENT 21 20 23 22 32 24 29 26 15 34 13 36 9 39 11 41
REMARK Flexibility Score: inf
ROOT
ATOM      1  O   UNL     1      54.336   7.183  80.088  1.00  0.00    -0.454 OA
ENDROOT
BRANCH   1   2
ATOM      2  C   UNL     1      54.946   6.408  81.169  1.00  0.00     0.214 A 
ATOM      3  C   UNL     1      55.836   5.382  80.874  1.00  0.00     0.180 A 
ATOM      4  O   UNL     1      55.275   4.363  80.119  1.00  0.00    -0.452 OA
ATOM      5  C   UNL     1      54.064   5.850  82.018  1.00  0.00     0.239 A 
ATOM      6  C   UNL     1      53.934   4.127  80.370  1.00  0.00     0.146 A 
ATOM      7  O   UNL     1      53.884   6.381  83.160  1.00  0.00    -0.285 OA
ATOM      8  C   UNL     1      53.404   4.663  81.598  1.00  0.00     0.111 A 
ATOM      9  C   UNL     1      53.014   3.672  79.426  1.00  0.00     0.094 A 
ATOM     10  C   UNL     1      52.089   4.376  82.060  1.00  0.00     0.134 A 
ATOM     11  C   UNL     1      51.551   3.817  79.734  1.00  0.00     0.123 A 
ATOM     12  C   UNL     1      51.145   4.100  81.086  1.00  0.00     0.093 A 
BRANCH   3  13
ATOM     13  C   UNL     1      57.193   5.511  81.427  1.00  0.00     0.025 A 
ATOM     14  C   UNL     1      58.089   4.659  80.709  1.00  0.00     0.016 A 
ATOM     15  C   UNL     1      58.611   5.259  79.482  1.00  0.00     0.051 A 
ATOM     16  C   UNL     1      58.999   6.626  79.525  1.00  0.00     0.157 A 
ATOM     17  C   UNL     1      57.801   6.776  81.752  1.00  0.00     0.062 A 
ATOM     18  C   UNL     1      58.663   7.333  80.759  1.00  0.00     0.158 A 
BRANCH  16  19
ATOM     19  O   UNL     1      59.718   7.182  78.542  1.00  0.00    -0.504 OA
ATOM     20  H   UNL     1      60.113   6.593  77.789  1.00  0.00     0.293 HD
ENDBRANCH  16  19
BRANCH  18  21
ATOM     21  O   UNL     1      59.216   8.563  81.014  1.00  0.00    -0.504 OA
ATOM     22  H   UNL     1      59.105   9.402  80.383  1.00  0.00     0.293 HD
ENDBRANCH  18  21
ENDBRANCH   3  13
BRANCH  10  23
ATOM     23  O   UNL     1      51.743   4.460  83.457  1.00  0.00    -0.507 OA
ATOM     24  H   UNL     1      51.748   3.538  84.002  1.00  0.00     0.293 HD
ENDBRANCH  10  23
BRANCH  11  25
ATOM     25  O   UNL     1      50.582   3.931  78.758  1.00  0.00    -0.508 OA
ATOM     26  H   UNL     1      50.765   4.531  77.925  1.00  0.00     0.293 HD
ENDBRANCH  11  25
ENDBRANCH   1   2
BRANCH   1  27
ATOM     27  C   UNL     1      54.746   7.375  78.727  1.00  0.00     0.339 C 
ATOM     28  C   UNL     1      53.534   7.725  77.814  1.00  0.00     0.214 C 
ATOM     29  O   UNL     1      55.933   8.165  78.514  1.00  0.00    -0.332 OA
ATOM     30  C   UNL     1      54.073   7.976  76.435  1.00  0.00     0.180 C 
ATOM     31  C   UNL     1      55.760   9.440  77.805  1.00  0.00     0.179 C 
ATOM     32  C   UNL     1      54.994   9.227  76.430  1.00  0.00     0.177 C 
BRANCH  28  33
ATOM     33  O   UNL     1      52.553   6.717  77.808  1.00  0.00    -0.384 OA
ATOM     34  H   UNL     1      52.651   6.225  76.979  1.00  0.00     0.211 HD
ENDBRANCH  28  33
BRANCH  30  35
ATOM     35  O   UNL     1      53.096   7.981  75.466  1.00  0.00    -0.387 OA
ATOM     36  H   UNL     1      53.253   8.769  74.872  1.00  0.00     0.211 HD
ENDBRANCH  30  35
BRANCH  31  37
ATOM     37  C   UNL     1      57.035  10.350  77.679  1.00  0.00     0.191 C 
BRANCH  37  38
ATOM     38  O   UNL     1      58.184   9.868  78.424  1.00  0.00    -0.394 OA
ATOM     39  H   UNL     1      58.605  10.595  79.046  1.00  0.00     0.210 HD
ENDBRANCH  37  38
ENDBRANCH  31  37
BRANCH  32  40
ATOM     40  O   UNL     1      54.300  10.474  76.152  1.00  0.00    -0.387 OA
ATOM     41  H   UNL     1      53.303  10.397  76.393  1.00  0.00     0.211 HD
ENDBRANCH  32  40
ENDBRANCH   1  27
TORSDOF 12
ENDMDL
MODEL 7
REMARK VINA RESULT:    -6.538      1.711      2.079
REMARK INTER + INTRA:         -11.427
REMARK INTER:                  -9.910
REMARK INTRA:                  -1.517
REMARK UNBOUND:                -1.831
REMARK SMILES O=c1c(O[C@@H]2O[C@@H](CO)[C@H](O)[C@H](O)[C@H]2O)c(-c2ccc(O)c(O)c2)oc2cc(O)cc(O)c12
REMARK SMILES IDX 4 1 3 2 16 3 25 4 2 5 26 6 1 7 33 8 27 9 31 10 28 11 30 12
REMARK SMILES IDX 17 13 18 14 19 15 20 16 24 17 22 18 21 19 23 21 32 23 29 25
REMARK SMILES IDX 5 27 14 28 6 29 12 30 7 31 10 32 15 33 13 35 8 37 9 38 11 40
REMARK H PARENT 21 20 23 22 32 24 29 26 15 34 13 36 9 39 11 41
REMARK Flexibility Score: inf
ROOT
ATOM      1  O   UNL     1      53.528   5.841  81.090  1.00  0.00    -0.454 OA
ENDROOT
BRANCH   1   2
ATOM      2  C   UNL     1      54.572   5.725  80.073  1.00  0.00     0.214 A 
ATOM      3  C   UNL     1      54.667   6.671  79.059  1.00  0.00     0.180 A 
ATOM      4  O   UNL     1      53.538   6.734  78.255  1.00  0.00    -0.452 OA
ATOM      5  C   UNL     1      54.592   4.543  79.429  1.00  0.00     0.239 A 
ATOM      6  C   UNL     1      52.884   5.526  78.079  1.00  0.00     0.146 A 
ATOM      7  O   UNL     1      55.478   3.685  79.738  1.00  0.00    -0.285 OA
ATOM      8  C   UNL     1      53.630   4.336  78.403  1.00  0.00     0.111 A 
ATOM      9  C   UNL     1      51.510   5.382  77.891  1.00  0.00     0.094 A 
ATOM     10  C   UNL     1      53.145   3.025  78.134  1.00  0.00     0.134 A 
ATOM     11  C   UNL     1      50.905   4.021  78.086  1.00  0.00     0.123 A 
ATOM     12  C   UNL     1      51.770   2.871  78.128  1.00  0.00     0.093 A 
BRANCH   3  13
ATOM     13  C   UNL     1      55.932   7.415  78.971  1.00  0.00     0.025 A 
ATOM     14  C   UNL     1      56.096   8.227  80.136  1.00  0.00     0.016 A 
ATOM     15  C   UNL     1      56.680   7.513  81.270  1.00  0.00     0.051 A 
ATOM     16  C   UNL     1      57.758   6.624  81.011  1.00  0.00     0.157 A 
ATOM     17  C   UNL     1      57.176   6.820  78.553  1.00  0.00     0.062 A 
ATOM     18  C   UNL     1      58.050   6.389  79.598  1.00  0.00     0.158 A 
BRANCH  16  19
ATOM     19  O   UNL     1      58.515   6.131  81.999  1.00  0.00    -0.504 OA
ATOM     20  H   UNL     1      58.623   6.658  82.883  1.00  0.00     0.293 HD
ENDBRANCH  16  19
BRANCH  18  21
ATOM     21  O   UNL     1      59.218   5.768  79.235  1.00  0.00    -0.504 OA
ATOM     22  H   UNL     1      60.159   5.986  79.661  1.00  0.00     0.293 HD
ENDBRANCH  18  21
ENDBRANCH   3  13
BRANCH  10  23
ATOM     23  O   UNL     1      54.040   1.907  77.968  1.00  0.00    -0.507 OA
ATOM     24  H   UNL     1      54.419   1.467  78.867  1.00  0.00     0.293 HD
ENDBRANCH  10  23
BRANCH  11  25
ATOM     25  O   UNL     1      49.592   3.826  78.465  1.00  0.00    -0.508 OA
ATOM     26  H   UNL     1      49.181   2.869  78.408  1.00  0.00     0.293 HD
ENDBRANCH  11  25
ENDBRANCH   1   2
BRANCH   1  27
ATOM     27  C   UNL     1      53.325   5.115  82.311  1.00  0.00     0.339 C 
ATOM     28  C   UNL     1      52.426   3.864  82.083  1.00  0.00     0.214 C 
ATOM     29  O   UNL     1      54.486   4.905  83.139  1.00  0.00    -0.332 OA
ATOM     30  C   UNL     1      52.334   3.138  83.395  1.00  0.00     0.180 C 
ATOM     31  C   UNL     1      54.926   3.514  83.319  1.00  0.00     0.179 C 
ATOM     32  C   UNL     1      53.728   2.598  83.818  1.00  0.00     0.177 C 
BRANCH  28  33
ATOM     33  O   UNL     1      51.152   4.197  81.588  1.00  0.00    -0.384 OA
ATOM     34  H   UNL     1      50.875   5.014  82.031  1.00  0.00     0.211 HD
ENDBRANCH  28  33
BRANCH  30  35
ATOM     35  O   UNL     1      51.325   2.202  83.425  1.00  0.00    -0.387 OA
ATOM     36  H   UNL     1      50.643   2.460  82.741  1.00  0.00     0.211 HD
ENDBRANCH  30  35
BRANCH  31  37
ATOM     37  C   UNL     1      56.258   3.300  84.125  1.00  0.00     0.191 C 
BRANCH  37  38
ATOM     38  O   UNL     1      57.463   3.545  83.355  1.00  0.00    -0.394 OA
ATOM     39  H   UNL     1      58.000   4.380  83.686  1.00  0.00     0.210 HD
ENDBRANCH  37  38
ENDBRANCH  31  37
BRANCH  32  40
ATOM     40  O   UNL     1      54.014   1.255  83.340  1.00  0.00    -0.387 OA
ATOM     41  H   UNL     1      53.239   0.617  83.563  1.00  0.00     0.211 HD
ENDBRANCH  32  40
ENDBRANCH   1  27
TORSDOF 12
ENDMDL
MODEL 8
REMARK VINA RESULT:    -6.473      2.311      4.489
REMARK INTER + INTRA:         -11.331
REMARK INTER:                  -9.504
REMARK INTRA:                  -1.827
REMARK UNBOUND:                -1.831
REMARK SMILES O=c1c(O[C@@H]2O[C@@H](CO)[C@H](O)[C@H](O)[C@H]2O)c(-c2ccc(O)c(O)c2)oc2cc(O)cc(O)c12
REMARK SMILES IDX 4 1 3 2 16 3 25 4 2 5 26 6 1 7 33 8 27 9 31 10 28 11 30 12
REMARK SMILES IDX 17 13 18 14 19 15 20 16 24 17 22 18 21 19 23 21 32 23 29 25
REMARK SMILES IDX 5 27 14 28 6 29 12 30 7 31 10 32 15 33 13 35 8 37 9 38 11 40
REMARK H PARENT 21 20 23 22 32 24 29 26 15 34 13 36 9 39 11 41
REMARK Flexibility Score: inf
ROOT
ATOM      1  O   UNL     1      54.287   7.041  80.013  1.00  0.00    -0.454 OA
ENDROOT
BRANCH   1   2
ATOM      2  C   UNL     1      55.341   7.473  79.095  1.00  0.00     0.214 A 
ATOM      3  C   UNL     1      56.032   8.655  79.333  1.00  0.00     0.180 A 
ATOM      4  O   UNL     1      55.220   9.780  79.332  1.00  0.00    -0.452 OA
ATOM      5  C   UNL     1      54.954   7.567  77.810  1.00  0.00     0.239 A 
ATOM      6  C   UNL     1      54.144   9.717  78.462  1.00  0.00     0.146 A 
ATOM      7  O   UNL     1      55.293   6.652  76.993  1.00  0.00    -0.285 OA
ATOM      8  C   UNL     1      54.210   8.716  77.427  1.00  0.00     0.111 A 
ATOM      9  C   UNL     1      52.911  10.331  78.673  1.00  0.00     0.094 A 
ATOM     10  C   UNL     1      53.254   8.630  76.377  1.00  0.00     0.134 A 
ATOM     11  C   UNL     1      51.740   9.878  77.848  1.00  0.00     0.123 A 
ATOM     12  C   UNL     1      51.980   9.087  76.670  1.00  0.00     0.093 A 
BRANCH   3  13
ATOM     13  C   UNL     1      57.488   8.542  79.508  1.00  0.00     0.025 A 
ATOM     14  C   UNL     1      57.830   8.785  80.874  1.00  0.00     0.016 A 
ATOM     15  C   UNL     1      57.709   7.604  81.728  1.00  0.00     0.051 A 
ATOM     16  C   UNL     1      58.172   6.363  81.213  1.00  0.00     0.157 A 
ATOM     17  C   UNL     1      58.274   7.476  78.940  1.00  0.00     0.062 A 
ATOM     18  C   UNL     1      58.561   6.376  79.804  1.00  0.00     0.158 A 
BRANCH  16  19
ATOM     19  O   UNL     1      58.340   5.294  82.002  1.00  0.00    -0.504 OA
ATOM     20  H   UNL     1      57.566   4.966  82.604  1.00  0.00     0.293 HD
ENDBRANCH  16  19
BRANCH  18  21
ATOM     21  O   UNL     1      59.261   5.319  79.278  1.00  0.00    -0.504 OA
ATOM     22  H   UNL     1      59.283   4.354  79.706  1.00  0.00     0.293 HD
ENDBRANCH  18  21
ENDBRANCH   3  13
BRANCH  10  23
ATOM     23  O   UNL     1      53.573   8.017  75.111  1.00  0.00    -0.507 OA
ATOM     24  H   UNL     1      53.095   8.435  74.249  1.00  0.00     0.293 HD
ENDBRANCH  10  23
BRANCH  11  25
ATOM     25  O   UNL     1      50.432   9.970  78.279  1.00  0.00    -0.508 OA
ATOM     26  H   UNL     1      50.229  10.406  79.205  1.00  0.00     0.293 HD
ENDBRANCH  11  25
ENDBRANCH   1   2
BRANCH   1  27
ATOM     27  C   UNL     1      53.522   5.829  80.057  1.00  0.00     0.339 C 
ATOM     28  C   UNL     1      52.206   5.959  79.235  1.00  0.00     0.214 C 
ATOM     29  O   UNL     1      54.250   4.598  79.874  1.00  0.00    -0.332 OA
ATOM     30  C   UNL     1      51.517   4.625  79.282  1.00  0.00     0.180 C 
ATOM     31  C   UNL     1      53.933   3.815  78.671  1.00  0.00     0.179 C 
ATOM     32  C   UNL     1      52.371   3.545  78.563  1.00  0.00     0.177 C 
BRANCH  28  33
ATOM     33  O   UNL     1      51.372   6.987  79.710  1.00  0.00    -0.384 OA
ATOM     34  H   UNL     1      50.903   7.354  78.945  1.00  0.00     0.211 HD
ENDBRANCH  28  33
BRANCH  30  35
ATOM     35  O   UNL     1      50.204   4.680  78.875  1.00  0.00    -0.387 OA
ATOM     36  H   UNL     1      50.020   5.605  78.543  1.00  0.00     0.211 HD
ENDBRANCH  30  35
BRANCH  31  37
ATOM     37  C   UNL     1      54.810   2.536  78.416  1.00  0.00     0.191 C 
BRANCH  37  38
ATOM     38  O   UNL     1      54.133   1.492  77.669  1.00  0.00    -0.394 OA
ATOM     39  H   UNL     1      53.539   0.876  78.270  1.00  0.00     0.210 HD
ENDBRANCH  37  38
ENDBRANCH  31  37
BRANCH  32  40
ATOM     40  O   UNL     1      52.078   3.405  77.145  1.00  0.00    -0.387 OA
ATOM     41  H   UNL     1      51.601   2.513  76.959  1.00  0.00     0.211 HD
ENDBRANCH  32  40
ENDBRANCH   1  27
TORSDOF 12
ENDMDL
MODEL 9
REMARK VINA RESULT:    -6.469      2.194      3.778
REMARK INTER + INTRA:         -11.325
REMARK INTER:                  -9.257
REMARK INTRA:                  -2.069
REMARK UNBOUND:                -1.831
REMARK SMILES O=c1c(O[C@@H]2O[C@@H](CO)[C@H](O)[C@H](O)[C@H]2O)c(-c2ccc(O)c(O)c2)oc2cc(O)cc(O)c12
REMARK SMILES IDX 4 1 3 2 16 3 25 4 2 5 26 6 1 7 33 8 27 9 31 10 28 11 30 12
REMARK SMILES IDX 17 13 18 14 19 15 20 16 24 17 22 18 21 19 23 21 32 23 29 25
REMARK SMILES IDX 5 27 14 28 6 29 12 30 7 31 10 32 15 33 13 35 8 37 9 38 11 40
REMARK H PARENT 21 20 23 22 32 24 29 26 15 34 13 36 9 39 11 41
REMARK Flexibility Score: inf
ROOT
ATOM      1  O   UNL     1      54.004   6.968  80.464  1.00  0.00    -0.454 OA
ENDROOT
BRANCH   1   2
ATOM      2  C   UNL     1      54.975   6.673  79.410  1.00  0.00     0.214 A 
ATOM      3  C   UNL     1      56.173   7.375  79.350  1.00  0.00     0.180 A 
ATOM      4  O   UNL     1      56.006   8.739  79.163  1.00  0.00    -0.452 OA
ATOM      5  C   UNL     1      54.480   6.751  78.162  1.00  0.00     0.239 A 
ATOM      6  C   UNL     1      54.906   9.089  78.397  1.00  0.00     0.146 A 
ATOM      7  O   UNL     1      54.208   5.677  77.536  1.00  0.00    -0.285 OA
ATOM      8  C   UNL     1      54.323   8.045  77.594  1.00  0.00     0.111 A 
ATOM      9  C   UNL     1      54.166  10.260  78.553  1.00  0.00     0.094 A 
ATOM     10  C   UNL     1      53.287   8.288  76.649  1.00  0.00     0.134 A 
ATOM     11  C   UNL     1      52.806  10.329  77.918  1.00  0.00     0.123 A 
ATOM     12  C   UNL     1      52.450   9.356  76.920  1.00  0.00     0.093 A 
BRANCH   3  13
ATOM     13  C   UNL     1      57.406   6.580  79.451  1.00  0.00     0.025 A 
ATOM     14  C   UNL     1      58.483   7.412  79.889  1.00  0.00     0.016 A 
ATOM     15  C   UNL     1      58.550   7.567  81.341  1.00  0.00     0.051 A 
ATOM     16  C   UNL     1      58.329   6.414  82.143  1.00  0.00     0.157 A 
ATOM     17  C   UNL     1      57.460   5.273  80.055  1.00  0.00     0.062 A 
ATOM     18  C   UNL     1      57.880   5.226  81.419  1.00  0.00     0.158 A 
BRANCH  16  19
ATOM     19  O   UNL     1      58.621   6.400  83.449  1.00  0.00    -0.504 OA
ATOM     20  H   UNL     1      59.224   7.137  83.854  1.00  0.00     0.293 HD
ENDBRANCH  16  19
BRANCH  18  21
ATOM     21  O   UNL     1      57.891   4.002  82.040  1.00  0.00    -0.504 OA
ATOM     22  H   UNL     1      57.092   3.628  82.621  1.00  0.00     0.293 HD
ENDBRANCH  18  21
ENDBRANCH   3  13
BRANCH  10  23
ATOM     23  O   UNL     1      53.070   7.413  75.523  1.00  0.00    -0.507 OA
ATOM     24  H   UNL     1      52.618   6.467  75.739  1.00  0.00     0.293 HD
ENDBRANCH  10  23
BRANCH  11  25
ATOM     25  O   UNL     1      51.787  11.124  78.402  1.00  0.00    -0.508 OA
ATOM     26  H   UNL     1      51.312  11.794  77.759  1.00  0.00     0.293 HD
ENDBRANCH  11  25
ENDBRANCH   1   2
BRANCH   1  27
ATOM     27  C   UNL     1      53.311   6.097  81.369  1.00  0.00     0.339 C 
ATOM     28  C   UNL     1      52.672   4.892  80.617  1.00  0.00     0.214 C 
ATOM     29  O   UNL     1      53.985   5.774  82.601  1.00  0.00    -0.332 OA
ATOM     30  C   UNL     1      52.036   4.008  81.652  1.00  0.00     0.180 C 
ATOM     31  C   UNL     1      54.365   4.368  82.798  1.00  0.00     0.179 C 
ATOM     32  C   UNL     1      53.117   3.407  82.593  1.00  0.00     0.177 C 
BRANCH  28  33
ATOM     33  O   UNL     1      51.742   5.295  79.642  1.00  0.00    -0.384 OA
ATOM     34  H   UNL     1      51.095   5.869  80.081  1.00  0.00     0.211 HD
ENDBRANCH  28  33
BRANCH  30  35
ATOM     35  O   UNL     1      51.169   3.085  81.114  1.00  0.00    -0.387 OA
ATOM     36  H   UNL     1      50.332   3.563  80.850  1.00  0.00     0.211 HD
ENDBRANCH  30  35
BRANCH  31  37
ATOM     37  C   UNL     1      55.202   4.043  84.087  1.00  0.00     0.191 C 
BRANCH  37  38
ATOM     38  O   UNL     1      56.044   2.867  83.967  1.00  0.00    -0.394 OA
ATOM     39  H   UNL     1      57.065   3.093  83.942  1.00  0.00     0.210 HD
ENDBRANCH  37  38
ENDBRANCH  31  37
BRANCH  32  40
ATOM     40  O   UNL     1      53.652   2.132  82.144  1.00  0.00    -0.387 OA
ATOM     41  H   UNL     1      54.396   1.807  82.775  1.00  0.00     0.211 HD
ENDBRANCH  32  40
ENDBRANCH   1  27
TORSDOF 12
ENDMDL
