MODEL 1
REMARK VINA RESULT:    -7.525      0.000      0.000
REMARK INTER + INTRA:         -12.387
REMARK INTER:                 -11.045
REMARK INTRA:                  -1.342
REMARK UNBOUND:                -1.342
REMARK SMILES O=c1c(O[C@H]2O[C@H](CO)[C@@H](O)[C@@H](O)[C@@H]2O)c(-c2ccc(O)c(O)c2)oc2cc(O)cc(O)c12
REMARK SMILES IDX 4 1 3 2 16 3 25 4 2 5 26 6 1 7 33 8 27 9 31 10 28 11 30 12
REMARK SMILES IDX 17 13 18 14 19 15 20 16 24 17 22 18 21 19 23 21 32 23 29 25
REMARK SMILES IDX 5 27 14 28 6 29 12 30 7 31 10 32 15 33 13 35 8 37 9 38 11 40
REMARK H PARENT 21 20 23 22 32 24 29 26 15 34 13 36 9 39 11 41
REMARK Flexibility Score: inf
ROOT
ATOM      1  O   UNL     1      -6.333 -19.100  -7.755  1.00  0.00    -0.454 OA
ENDROOT
BRANCH   1   2
ATOM      2  C   UNL     1      -7.559 -19.503  -7.201  1.00  0.00     0.214 A 
ATOM      3  C   UNL     1      -7.622 -20.656  -6.394  1.00  0.00     0.180 A 
ATOM      4  O   UNL     1      -8.770 -21.007  -5.823  1.00  0.00    -0.452 OA
ATOM      5  C   UNL     1      -8.747 -18.791  -7.447  1.00  0.00     0.239 A 
ATOM      6  C   UNL     1      -9.904 -20.341  -5.993  1.00  0.00     0.146 A 
ATOM      7  O   UNL     1      -8.739 -17.821  -8.250  1.00  0.00    -0.285 OA
ATOM      8  C   UNL     1      -9.946 -19.196  -6.820  1.00  0.00     0.111 A 
ATOM      9  C   UNL     1     -11.062 -20.794  -5.355  1.00  0.00     0.094 A 
ATOM     10  C   UNL     1     -11.176 -18.516  -6.991  1.00  0.00     0.134 A 
ATOM     11  C   UNL     1     -12.274 -20.127  -5.538  1.00  0.00     0.123 A 
ATOM     12  C   UNL     1     -12.327 -18.994  -6.351  1.00  0.00     0.093 A 
BRANCH   3  13
ATOM     13  C   UNL     1      -6.430 -21.488  -6.132  1.00  0.00     0.025 A 
ATOM     14  C   UNL     1      -6.308 -22.735  -6.762  1.00  0.00     0.016 A 
ATOM     15  C   UNL     1      -5.206 -23.552  -6.500  1.00  0.00     0.051 A 
ATOM     16  C   UNL     1      -4.206 -23.129  -5.614  1.00  0.00     0.157 A 
ATOM     17  C   UNL     1      -5.411 -21.051  -5.269  1.00  0.00     0.062 A 
ATOM     18  C   UNL     1      -4.306 -21.868  -5.001  1.00  0.00     0.158 A 
BRANCH  16  19
ATOM     19  O   UNL     1      -3.116 -23.954  -5.345  1.00  0.00    -0.504 OA
ATOM     20  H   UNL     1      -2.373 -23.663  -4.717  1.00  0.00     0.293 HD
ENDBRANCH  16  19
BRANCH  18  21
ATOM     21  O   UNL     1      -3.321 -21.413  -4.128  1.00  0.00    -0.504 OA
ATOM     22  H   UNL     1      -2.553 -22.002  -3.826  1.00  0.00     0.293 HD
ENDBRANCH  18  21
ENDBRANCH   3  13
BRANCH  10  23
ATOM     23  O   UNL     1     -11.262 -17.373  -7.788  1.00  0.00    -0.507 OA
ATOM     24  H   UNL     1     -10.542 -16.658  -7.776  1.00  0.00     0.293 HD
ENDBRANCH  10  23
BRANCH  11  25
ATOM     25  O   UNL     1     -13.433 -20.580  -4.915  1.00  0.00    -0.508 OA
ATOM     26  H   UNL     1     -13.474 -21.486  -4.464  1.00  0.00     0.293 HD
ENDBRANCH  11  25
ENDBRANCH   1   2
BRANCH   1  27
ATOM     27  C   UNL     1      -5.831 -17.757  -7.702  1.00  0.00     0.339 C 
ATOM     28  C   UNL     1      -4.515 -17.635  -8.495  1.00  0.00     0.214 C 
ATOM     29  O   UNL     1      -5.678 -17.317  -6.363  1.00  0.00    -0.332 OA
ATOM     30  C   UNL     1      -3.374 -18.382  -7.787  1.00  0.00     0.180 C 
ATOM     31  C   UNL     1      -4.727 -18.091  -5.649  1.00  0.00     0.179 C 
ATOM     32  C   UNL     1      -3.322 -17.975  -6.298  1.00  0.00     0.177 C 
BRANCH  28  33
ATOM     33  O   UNL     1      -4.190 -16.273  -8.628  1.00  0.00    -0.384 OA
ATOM     34  H   UNL     1      -3.557 -16.200  -9.388  1.00  0.00     0.211 HD
ENDBRANCH  28  33
BRANCH  30  35
ATOM     35  O   UNL     1      -3.576 -19.767  -7.922  1.00  0.00    -0.387 OA
ATOM     36  H   UNL     1      -2.774 -20.219  -7.548  1.00  0.00     0.211 HD
ENDBRANCH  30  35
BRANCH  31  37
ATOM     37  C   UNL     1      -4.715 -17.600  -4.197  1.00  0.00     0.191 C 
BRANCH  37  38
ATOM     38  O   UNL     1      -4.058 -18.521  -3.371  1.00  0.00    -0.394 OA
ATOM     39  H   UNL     1      -4.570 -19.366  -3.441  1.00  0.00     0.210 HD
ENDBRANCH  37  38
ENDBRANCH  31  37
BRANCH  32  40
ATOM     40  O   UNL     1      -2.354 -18.731  -5.610  1.00  0.00    -0.387 OA
ATOM     41  H   UNL     1      -1.619 -18.119  -5.352  1.00  0.00     0.211 HD
ENDBRANCH  32  40
ENDBRANCH   1  27
TORSDOF 12
ENDMDL
MODEL 2
REMARK VINA RESULT:    -5.872      1.683      4.336
REMARK INTER + INTRA:          -9.960
REMARK INTER:                  -8.935
REMARK INTRA:                  -1.025
REMARK UNBOUND:                -1.342
REMARK SMILES O=c1c(O[C@H]2O[C@H](CO)[C@@H](O)[C@@H](O)[C@@H]2O)c(-c2ccc(O)c(O)c2)oc2cc(O)cc(O)c12
REMARK SMILES IDX 4 1 3 2 16 3 25 4 2 5 26 6 1 7 33 8 27 9 31 10 28 11 30 12
REMARK SMILES IDX 17 13 18 14 19 15 20 16 24 17 22 18 21 19 23 21 32 23 29 25
REMARK SMILES IDX 5 27 14 28 6 29 12 30 7 31 10 32 15 33 13 35 8 37 9 38 11 40
REMARK H PARENT 21 20 23 22 32 24 29 26 15 34 13 36 9 39 11 41
REMARK Flexibility Score: inf
ROOT
ATOM      1  O   UNL     1      -5.485 -20.706  -6.515  1.00  0.00    -0.454 OA
ENDROOT
BRANCH   1   2
ATOM      2  C   UNL     1      -6.697 -20.048  -6.776  1.00  0.00     0.214 A 
ATOM      3  C   UNL     1      -6.714 -18.903  -7.597  1.00  0.00     0.180 A 
ATOM      4  O   UNL     1      -7.867 -18.311  -7.891  1.00  0.00    -0.452 OA
ATOM      5  C   UNL     1      -7.910 -20.490  -6.218  1.00  0.00     0.239 A 
ATOM      6  C   UNL     1      -9.039 -18.720  -7.422  1.00  0.00     0.146 A 
ATOM      7  O   UNL     1      -7.908 -21.443  -5.396  1.00  0.00    -0.285 OA
ATOM      8  C   UNL     1      -9.114 -19.835  -6.556  1.00  0.00     0.111 A 
ATOM      9  C   UNL     1     -10.197 -18.026  -7.783  1.00  0.00     0.094 A 
ATOM     10  C   UNL     1     -10.379 -20.236  -6.062  1.00  0.00     0.134 A 
ATOM     11  C   UNL     1     -11.439 -18.420  -7.283  1.00  0.00     0.123 A 
ATOM     12  C   UNL     1     -11.526 -19.520  -6.428  1.00  0.00     0.093 A 
BRANCH   3  13
ATOM     13  C   UNL     1      -5.476 -18.343  -8.178  1.00  0.00     0.025 A 
ATOM     14  C   UNL     1      -4.840 -19.022  -9.227  1.00  0.00     0.016 A 
ATOM     15  C   UNL     1      -3.650 -18.527  -9.766  1.00  0.00     0.051 A 
ATOM     16  C   UNL     1      -3.087 -17.344  -9.271  1.00  0.00     0.157 A 
ATOM     17  C   UNL     1      -4.929 -17.138  -7.704  1.00  0.00     0.062 A 
ATOM     18  C   UNL     1      -3.735 -16.642  -8.239  1.00  0.00     0.158 A 
BRANCH  16  19
ATOM     19  O   UNL     1      -1.891 -16.862  -9.802  1.00  0.00    -0.504 OA
ATOM     20  H   UNL     1      -1.191 -17.489 -10.185  1.00  0.00     0.293 HD
ENDBRANCH  16  19
BRANCH  18  21
ATOM     21  O   UNL     1      -3.208 -15.453  -7.738  1.00  0.00    -0.504 OA
ATOM     22  H   UNL     1      -3.514 -15.056  -6.857  1.00  0.00     0.293 HD
ENDBRANCH  18  21
ENDBRANCH   3  13
BRANCH  10  23
ATOM     23  O   UNL     1     -10.504 -21.339  -5.216  1.00  0.00    -0.507 OA
ATOM     24  H   UNL     1     -10.067 -21.363  -4.300  1.00  0.00     0.293 HD
ENDBRANCH  10  23
BRANCH  11  25
ATOM     25  O   UNL     1     -12.595 -17.726  -7.629  1.00  0.00    -0.508 OA
ATOM     26  H   UNL     1     -12.610 -16.715  -7.684  1.00  0.00     0.293 HD
ENDBRANCH  11  25
ENDBRANCH   1   2
BRANCH   1  27
ATOM     27  C   UNL     1      -4.457 -20.185  -5.659  1.00  0.00     0.339 C 
ATOM     28  C   UNL     1      -3.099 -20.167  -6.387  1.00  0.00     0.214 C 
ATOM     29  O   UNL     1      -4.389 -20.904  -4.440  1.00  0.00    -0.332 OA
ATOM     30  C   UNL     1      -2.574 -21.595  -6.607  1.00  0.00     0.180 C 
ATOM     31  C   UNL     1      -4.044 -22.266  -4.638  1.00  0.00     0.179 C 
ATOM     32  C   UNL     1      -2.638 -22.389  -5.284  1.00  0.00     0.177 C 
BRANCH  28  33
ATOM     33  O   UNL     1      -2.181 -19.430  -5.617  1.00  0.00    -0.384 OA
ATOM     34  H   UNL     1      -2.708 -18.908  -4.960  1.00  0.00     0.211 HD
ENDBRANCH  28  33
BRANCH  30  35
ATOM     35  O   UNL     1      -3.342 -22.219  -7.606  1.00  0.00    -0.387 OA
ATOM     36  H   UNL     1      -2.779 -22.264  -8.424  1.00  0.00     0.211 HD
ENDBRANCH  30  35
BRANCH  31  37
ATOM     37  C   UNL     1      -4.097 -22.969  -3.277  1.00  0.00     0.191 C 
BRANCH  37  38
ATOM     38  O   UNL     1      -3.517 -22.168  -2.286  1.00  0.00    -0.394 OA
ATOM     39  H   UNL     1      -2.624 -21.912  -2.627  1.00  0.00     0.210 HD
ENDBRANCH  37  38
ENDBRANCH  31  37
BRANCH  32  40
ATOM     40  O   UNL     1      -2.264 -23.731  -5.492  1.00  0.00    -0.387 OA
ATOM     41  H   UNL     1      -2.478 -24.236  -4.667  1.00  0.00     0.211 HD
ENDBRANCH  32  40
ENDBRANCH   1  27
TORSDOF 12
ENDMDL
MODEL 3
REMARK VINA RESULT:    -5.839      1.379      2.015
REMARK INTER + INTRA:          -9.912
REMARK INTER:                  -9.140
REMARK INTRA:                  -0.772
REMARK UNBOUND:                -1.342
REMARK SMILES O=c1c(O[C@H]2O[C@H](CO)[C@@H](O)[C@@H](O)[C@@H]2O)c(-c2ccc(O)c(O)c2)oc2cc(O)cc(O)c12
REMARK SMILES IDX 4 1 3 2 16 3 25 4 2 5 26 6 1 7 33 8 27 9 31 10 28 11 30 12
REMARK SMILES IDX 17 13 18 14 19 15 20 16 24 17 22 18 21 19 23 21 32 23 29 25
REMARK SMILES IDX 5 27 14 28 6 29 12 30 7 31 10 32 15 33 13 35 8 37 9 38 11 40
REMARK H PARENT 21 20 23 22 32 24 29 26 15 34 13 36 9 39 11 41
REMARK Flexibility Score: inf
ROOT
ATOM      1  O   UNL     1      -6.250 -19.257  -7.628  1.00  0.00    -0.454 OA
ENDROOT
BRANCH   1   2
ATOM      2  C   UNL     1      -7.496 -19.616  -7.089  1.00  0.00     0.214 A 
ATOM      3  C   UNL     1      -7.605 -20.750  -6.259  1.00  0.00     0.180 A 
ATOM      4  O   UNL     1      -8.771 -21.059  -5.702  1.00  0.00    -0.452 OA
ATOM      5  C   UNL     1      -8.661 -18.881  -7.373  1.00  0.00     0.239 A 
ATOM      6  C   UNL     1      -9.884 -20.368  -5.909  1.00  0.00     0.146 A 
ATOM      7  O   UNL     1      -8.613 -17.929  -8.197  1.00  0.00    -0.285 OA
ATOM      8  C   UNL     1      -9.881 -19.241  -6.761  1.00  0.00     0.111 A 
ATOM      9  C   UNL     1     -11.065 -20.778  -5.284  1.00  0.00     0.094 A 
ATOM     10  C   UNL     1     -11.091 -18.535  -6.971  1.00  0.00     0.134 A 
ATOM     11  C   UNL     1     -12.257 -20.085  -5.504  1.00  0.00     0.123 A 
ATOM     12  C   UNL     1     -12.265 -18.969  -6.343  1.00  0.00     0.093 A 
BRANCH   3  13
ATOM     13  C   UNL     1      -6.439 -21.606  -5.956  1.00  0.00     0.025 A 
ATOM     14  C   UNL     1      -6.350 -22.879  -6.537  1.00  0.00     0.016 A 
ATOM     15  C   UNL     1      -5.273 -23.717  -6.235  1.00  0.00     0.051 A 
ATOM     16  C   UNL     1      -4.268 -23.289  -5.358  1.00  0.00     0.157 A 
ATOM     17  C   UNL     1      -5.414 -21.165  -5.102  1.00  0.00     0.062 A 
ATOM     18  C   UNL     1      -4.335 -22.003  -4.795  1.00  0.00     0.158 A 
BRANCH  16  19
ATOM     19  O   UNL     1      -3.204 -24.135  -5.049  1.00  0.00    -0.504 OA
ATOM     20  H   UNL     1      -3.334 -25.136  -4.949  1.00  0.00     0.293 HD
ENDBRANCH  16  19
BRANCH  18  21
ATOM     21  O   UNL     1      -3.342 -21.544  -3.932  1.00  0.00    -0.504 OA
ATOM     22  H   UNL     1      -2.380 -21.427  -4.229  1.00  0.00     0.293 HD
ENDBRANCH  18  21
ENDBRANCH   3  13
BRANCH  10  23
ATOM     23  O   UNL     1     -11.132 -17.408  -7.793  1.00  0.00    -0.507 OA
ATOM     24  H   UNL     1     -10.290 -16.906  -8.056  1.00  0.00     0.293 HD
ENDBRANCH  10  23
BRANCH  11  25
ATOM     25  O   UNL     1     -13.438 -20.494  -4.894  1.00  0.00    -0.508 OA
ATOM     26  H   UNL     1     -14.319 -20.500  -5.394  1.00  0.00     0.293 HD
ENDBRANCH  11  25
ENDBRANCH   1   2
BRANCH   1  27
ATOM     27  C   UNL     1      -6.050 -18.867  -8.994  1.00  0.00     0.339 C 
ATOM     28  C   UNL     1      -5.422 -20.018  -9.803  1.00  0.00     0.214 C 
ATOM     29  O   UNL     1      -5.278 -17.682  -9.084  1.00  0.00    -0.332 OA
ATOM     30  C   UNL     1      -3.967 -20.263  -9.373  1.00  0.00     0.180 C 
ATOM     31  C   UNL     1      -3.972 -17.852  -8.557  1.00  0.00     0.179 C 
ATOM     32  C   UNL     1      -3.191 -18.928  -9.355  1.00  0.00     0.177 C 
BRANCH  28  33
ATOM     33  O   UNL     1      -5.470 -19.692 -11.171  1.00  0.00    -0.384 OA
ATOM     34  H   UNL     1      -4.561 -19.841 -11.536  1.00  0.00     0.211 HD
ENDBRANCH  28  33
BRANCH  30  35
ATOM     35  O   UNL     1      -3.958 -20.867  -8.102  1.00  0.00    -0.387 OA
ATOM     36  H   UNL     1      -3.111 -20.599  -7.656  1.00  0.00     0.211 HD
ENDBRANCH  30  35
BRANCH  31  37
ATOM     37  C   UNL     1      -3.263 -16.493  -8.609  1.00  0.00     0.191 C 
BRANCH  37  38
ATOM     38  O   UNL     1      -4.156 -15.459  -8.301  1.00  0.00    -0.394 OA
ATOM     39  H   UNL     1      -4.279 -14.945  -9.137  1.00  0.00     0.210 HD
ENDBRANCH  37  38
ENDBRANCH  31  37
BRANCH  32  40
ATOM     40  O   UNL     1      -1.887 -19.118  -8.858  1.00  0.00    -0.387 OA
ATOM     41  H   UNL     1      -1.531 -19.954  -9.253  1.00  0.00     0.211 HD
ENDBRANCH  32  40
ENDBRANCH   1  27
TORSDOF 12
ENDMDL
MODEL 4
REMARK VINA RESULT:    -5.831      1.625      4.677
REMARK INTER + INTRA:          -9.900
REMARK INTER:                  -8.197
REMARK INTRA:                  -1.704
REMARK UNBOUND:                -1.342
REMARK SMILES O=c1c(O[C@H]2O[C@H](CO)[C@@H](O)[C@@H](O)[C@@H]2O)c(-c2ccc(O)c(O)c2)oc2cc(O)cc(O)c12
REMARK SMILES IDX 4 1 3 2 16 3 25 4 2 5 26 6 1 7 33 8 27 9 31 10 28 11 30 12
REMARK SMILES IDX 17 13 18 14 19 15 20 16 24 17 22 18 21 19 23 21 32 23 29 25
REMARK SMILES IDX 5 27 14 28 6 29 12 30 7 31 10 32 15 33 13 35 8 37 9 38 11 40
REMARK H PARENT 21 20 23 22 32 24 29 26 15 34 13 36 9 39 11 41
REMARK Flexibility Score: inf
ROOT
ATOM      1  O   UNL     1      -6.068 -20.819  -5.938  1.00  0.00    -0.454 OA
ENDROOT
BRANCH   1   2
ATOM      2  C   UNL     1      -7.189 -20.089  -6.364  1.00  0.00     0.214 A 
ATOM      3  C   UNL     1      -7.017 -18.909  -7.116  1.00  0.00     0.180 A 
ATOM      4  O   UNL     1      -8.077 -18.247  -7.568  1.00  0.00    -0.452 OA
ATOM      5  C   UNL     1      -8.497 -20.492  -6.041  1.00  0.00     0.239 A 
ATOM      6  C   UNL     1      -9.327 -18.616  -7.323  1.00  0.00     0.146 A 
ATOM      7  O   UNL     1      -8.675 -21.479  -5.280  1.00  0.00    -0.285 OA
ATOM      8  C   UNL     1      -9.597 -19.761  -6.541  1.00  0.00     0.111 A 
ATOM      9  C   UNL     1     -10.376 -17.848  -7.836  1.00  0.00     0.094 A 
ATOM     10  C   UNL     1     -10.943 -20.119  -6.287  1.00  0.00     0.134 A 
ATOM     11  C   UNL     1     -11.701 -18.199  -7.572  1.00  0.00     0.123 A 
ATOM     12  C   UNL     1     -11.979 -19.329  -6.802  1.00  0.00     0.093 A 
BRANCH   3  13
ATOM     13  C   UNL     1      -5.675 -18.389  -7.451  1.00  0.00     0.025 A 
ATOM     14  C   UNL     1      -5.008 -17.562  -6.536  1.00  0.00     0.016 A 
ATOM     15  C   UNL     1      -3.754 -17.033  -6.849  1.00  0.00     0.051 A 
ATOM     16  C   UNL     1      -3.146 -17.331  -8.076  1.00  0.00     0.157 A 
ATOM     17  C   UNL     1      -5.050 -18.715  -8.667  1.00  0.00     0.062 A 
ATOM     18  C   UNL     1      -3.795 -18.183  -8.986  1.00  0.00     0.158 A 
BRANCH  16  19
ATOM     19  O   UNL     1      -1.902 -16.788  -8.390  1.00  0.00    -0.504 OA
ATOM     20  H   UNL     1      -1.738 -16.313  -9.271  1.00  0.00     0.293 HD
ENDBRANCH  16  19
BRANCH  18  21
ATOM     21  O   UNL     1      -3.209 -18.511 -10.207  1.00  0.00    -0.504 OA
ATOM     22  H   UNL     1      -3.593 -19.225 -10.816  1.00  0.00     0.293 HD
ENDBRANCH  18  21
ENDBRANCH   3  13
BRANCH  10  23
ATOM     23  O   UNL     1     -11.257 -21.250  -5.532  1.00  0.00    -0.507 OA
ATOM     24  H   UNL     1     -10.643 -21.592  -4.800  1.00  0.00     0.293 HD
ENDBRANCH  10  23
BRANCH  11  25
ATOM     25  O   UNL     1     -12.750 -17.432  -8.070  1.00  0.00    -0.508 OA
ATOM     26  H   UNL     1     -13.301 -16.831  -7.469  1.00  0.00     0.293 HD
ENDBRANCH  11  25
ENDBRANCH   1   2
BRANCH   1  27
ATOM     27  C   UNL     1      -5.593 -22.010  -6.584  1.00  0.00     0.339 C 
ATOM     28  C   UNL     1      -5.369 -23.135  -5.556  1.00  0.00     0.214 C 
ATOM     29  O   UNL     1      -4.425 -21.753  -7.344  1.00  0.00    -0.332 OA
ATOM     30  C   UNL     1      -4.169 -22.820  -4.648  1.00  0.00     0.180 C 
ATOM     31  C   UNL     1      -3.343 -21.321  -6.534  1.00  0.00     0.179 C 
ATOM     32  C   UNL     1      -2.951 -22.416  -5.507  1.00  0.00     0.177 C 
BRANCH  28  33
ATOM     33  O   UNL     1      -5.148 -24.342  -6.243  1.00  0.00    -0.384 OA
ATOM     34  H   UNL     1      -5.742 -25.021  -5.833  1.00  0.00     0.211 HD
ENDBRANCH  28  33
BRANCH  30  35
ATOM     35  O   UNL     1      -4.522 -21.788  -3.760  1.00  0.00    -0.387 OA
ATOM     36  H   UNL     1      -5.469 -21.550  -3.946  1.00  0.00     0.211 HD
ENDBRANCH  30  35
BRANCH  31  37
ATOM     37  C   UNL     1      -2.170 -20.976  -7.459  1.00  0.00     0.191 C 
BRANCH  37  38
ATOM     38  O   UNL     1      -2.495 -21.260  -8.792  1.00  0.00    -0.394 OA
ATOM     39  H   UNL     1      -1.644 -21.498  -9.237  1.00  0.00     0.210 HD
ENDBRANCH  37  38
ENDBRANCH  31  37
BRANCH  32  40
ATOM     40  O   UNL     1      -1.876 -22.018  -4.689  1.00  0.00    -0.387 OA
ATOM     41  H   UNL     1      -2.073 -22.315  -3.765  1.00  0.00     0.211 HD
ENDBRANCH  32  40
ENDBRANCH   1  27
TORSDOF 12
ENDMDL
MODEL 5
REMARK VINA RESULT:    -5.564      1.014      2.399
REMARK INTER + INTRA:          -9.508
REMARK INTER:                  -9.112
REMARK INTRA:                  -0.397
REMARK UNBOUND:                -1.342
REMARK SMILES O=c1c(O[C@H]2O[C@H](CO)[C@@H](O)[C@@H](O)[C@@H]2O)c(-c2ccc(O)c(O)c2)oc2cc(O)cc(O)c12
REMARK SMILES IDX 4 1 3 2 16 3 25 4 2 5 26 6 1 7 33 8 27 9 31 10 28 11 30 12
REMARK SMILES IDX 17 13 18 14 19 15 20 16 24 17 22 18 21 19 23 21 32 23 29 25
REMARK SMILES IDX 5 27 14 28 6 29 12 30 7 31 10 32 15 33 13 35 8 37 9 38 11 40
REMARK H PARENT 21 20 23 22 32 24 29 26 15 34 13 36 9 39 11 41
REMARK Flexibility Score: inf
ROOT
ATOM      1  O   UNL     1      -5.663 -19.398  -7.687  1.00  0.00    -0.454 OA
ENDROOT
BRANCH   1   2
ATOM      2  C   UNL     1      -6.929 -19.720  -7.173  1.00  0.00     0.214 A 
ATOM      3  C   UNL     1      -7.095 -20.871  -6.378  1.00  0.00     0.180 A 
ATOM      4  O   UNL     1      -8.280 -21.147  -5.844  1.00  0.00    -0.452 OA
ATOM      5  C   UNL     1      -8.058 -18.927  -7.448  1.00  0.00     0.239 A 
ATOM      6  C   UNL     1      -9.361 -20.404  -6.042  1.00  0.00     0.146 A 
ATOM      7  O   UNL     1      -7.960 -17.955  -8.242  1.00  0.00    -0.285 OA
ATOM      8  C   UNL     1      -9.300 -19.253  -6.860  1.00  0.00     0.111 A 
ATOM      9  C   UNL     1     -10.566 -20.781  -5.442  1.00  0.00     0.094 A 
ATOM     10  C   UNL     1     -10.476 -18.490  -7.062  1.00  0.00     0.134 A 
ATOM     11  C   UNL     1     -11.724 -20.032  -5.655  1.00  0.00     0.123 A 
ATOM     12  C   UNL     1     -11.675 -18.892  -6.460  1.00  0.00     0.093 A 
BRANCH   3  13
ATOM     13  C   UNL     1      -5.971 -21.785  -6.088  1.00  0.00     0.025 A 
ATOM     14  C   UNL     1      -5.693 -22.838  -6.971  1.00  0.00     0.016 A 
ATOM     15  C   UNL     1      -4.657 -23.733  -6.696  1.00  0.00     0.051 A 
ATOM     16  C   UNL     1      -3.877 -23.580  -5.542  1.00  0.00     0.157 A 
ATOM     17  C   UNL     1      -5.168 -21.613  -4.947  1.00  0.00     0.062 A 
ATOM     18  C   UNL     1      -4.130 -22.509  -4.667  1.00  0.00     0.158 A 
BRANCH  16  19
ATOM     19  O   UNL     1      -2.854 -24.485  -5.264  1.00  0.00    -0.504 OA
ATOM     20  H   UNL     1      -2.648 -25.260  -5.885  1.00  0.00     0.293 HD
ENDBRANCH  16  19
BRANCH  18  21
ATOM     21  O   UNL     1      -3.362 -22.322  -3.520  1.00  0.00    -0.504 OA
ATOM     22  H   UNL     1      -3.113 -21.399  -3.181  1.00  0.00     0.293 HD
ENDBRANCH  18  21
ENDBRANCH   3  13
BRANCH  10  23
ATOM     23  O   UNL     1     -10.460 -17.339  -7.850  1.00  0.00    -0.507 OA
ATOM     24  H   UNL     1      -9.595 -16.950  -8.212  1.00  0.00     0.293 HD
ENDBRANCH  10  23
BRANCH  11  25
ATOM     25  O   UNL     1     -12.929 -20.408  -5.070  1.00  0.00    -0.508 OA
ATOM     26  H   UNL     1     -13.640 -19.727  -4.832  1.00  0.00     0.293 HD
ENDBRANCH  11  25
ENDBRANCH   1   2
BRANCH   1  27
ATOM     27  C   UNL     1      -4.448 -19.462  -6.926  1.00  0.00     0.339 C 
ATOM     28  C   UNL     1      -4.464 -18.423  -5.788  1.00  0.00     0.214 C 
ATOM     29  O   UNL     1      -3.310 -19.310  -7.757  1.00  0.00    -0.332 OA
ATOM     30  C   UNL     1      -4.363 -16.995  -6.344  1.00  0.00     0.180 C 
ATOM     31  C   UNL     1      -3.277 -18.043  -8.395  1.00  0.00     0.179 C 
ATOM     32  C   UNL     1      -3.193 -16.901  -7.348  1.00  0.00     0.177 C 
BRANCH  28  33
ATOM     33  O   UNL     1      -3.384 -18.680  -4.923  1.00  0.00    -0.384 OA
ATOM     34  H   UNL     1      -2.808 -17.873  -4.933  1.00  0.00     0.211 HD
ENDBRANCH  28  33
BRANCH  30  35
ATOM     35  O   UNL     1      -5.581 -16.653  -6.960  1.00  0.00    -0.387 OA
ATOM     36  H   UNL     1      -5.428 -15.813  -7.469  1.00  0.00     0.211 HD
ENDBRANCH  30  35
BRANCH  31  37
ATOM     37  C   UNL     1      -2.070 -18.023  -9.341  1.00  0.00     0.191 C 
BRANCH  37  38
ATOM     38  O   UNL     1      -2.246 -17.061 -10.343  1.00  0.00    -0.394 OA
ATOM     39  H   UNL     1      -1.424 -17.084 -10.893  1.00  0.00     0.210 HD
ENDBRANCH  37  38
ENDBRANCH  31  37
BRANCH  32  40
ATOM     40  O   UNL     1      -3.155 -15.629  -7.949  1.00  0.00    -0.387 OA
ATOM     41  H   UNL     1      -3.021 -15.758  -8.922  1.00  0.00     0.211 HD
ENDBRANCH  32  40
ENDBRANCH   1  27
TORSDOF 12
ENDMDL
MODEL 6
REMARK VINA RESULT:    -5.481      2.129      2.591
REMARK INTER + INTRA:          -9.386
REMARK INTER:                  -8.110
REMARK INTRA:                  -1.276
REMARK UNBOUND:                -1.342
REMARK SMILES O=c1c(O[C@H]2O[C@H](CO)[C@@H](O)[C@@H](O)[C@@H]2O)c(-c2ccc(O)c(O)c2)oc2cc(O)cc(O)c12
REMARK SMILES IDX 4 1 3 2 16 3 25 4 2 5 26 6 1 7 33 8 27 9 31 10 28 11 30 12
REMARK SMILES IDX 17 13 18 14 19 15 20 16 24 17 22 18 21 19 23 21 32 23 29 25
REMARK SMILES IDX 5 27 14 28 6 29 12 30 7 31 10 32 15 33 13 35 8 37 9 38 11 40
REMARK H PARENT 21 20 23 22 32 24 29 26 15 34 13 36 9 39 11 41
REMARK Flexibility Score: inf
ROOT
ATOM      1  O   UNL     1      -6.592 -19.014  -7.231  1.00  0.00    -0.454 OA
ENDROOT
BRANCH   1   2
ATOM      2  C   UNL     1      -7.887 -19.396  -7.616  1.00  0.00     0.214 A 
ATOM      3  C   UNL     1      -8.068 -20.476  -8.503  1.00  0.00     0.180 A 
ATOM      4  O   UNL     1      -9.294 -20.876  -8.825  1.00  0.00    -0.452 OA
ATOM      5  C   UNL     1      -9.025 -18.710  -7.155  1.00  0.00     0.239 A 
ATOM      6  C   UNL     1     -10.394 -20.285  -8.379  1.00  0.00     0.146 A 
ATOM      7  O   UNL     1      -8.887 -17.676  -6.450  1.00  0.00    -0.285 OA
ATOM      8  C   UNL     1     -10.310 -19.166  -7.520  1.00  0.00     0.111 A 
ATOM      9  C   UNL     1     -11.640 -20.774  -8.781  1.00  0.00     0.094 A 
ATOM     10  C   UNL     1     -11.505 -18.551  -7.074  1.00  0.00     0.134 A 
ATOM     11  C   UNL     1     -12.814 -20.156  -8.348  1.00  0.00     0.123 A 
ATOM     12  C   UNL     1     -12.743 -19.051  -7.498  1.00  0.00     0.093 A 
BRANCH   3  13
ATOM     13  C   UNL     1      -6.922 -21.214  -9.074  1.00  0.00     0.025 A 
ATOM     14  C   UNL     1      -6.439 -20.861 -10.342  1.00  0.00     0.016 A 
ATOM     15  C   UNL     1      -5.379 -21.569 -10.914  1.00  0.00     0.051 A 
ATOM     16  C   UNL     1      -4.783 -22.631 -10.222  1.00  0.00     0.157 A 
ATOM     17  C   UNL     1      -6.302 -22.258  -8.367  1.00  0.00     0.062 A 
ATOM     18  C   UNL     1      -5.242 -22.972  -8.938  1.00  0.00     0.158 A 
BRANCH  16  19
ATOM     19  O   UNL     1      -3.736 -23.345 -10.804  1.00  0.00    -0.504 OA
ATOM     20  H   UNL     1      -3.444 -23.173 -11.760  1.00  0.00     0.293 HD
ENDBRANCH  16  19
BRANCH  18  21
ATOM     21  O   UNL     1      -4.658 -24.013  -8.219  1.00  0.00    -0.504 OA
ATOM     22  H   UNL     1      -4.992 -24.290  -7.303  1.00  0.00     0.293 HD
ENDBRANCH  18  21
ENDBRANCH   3  13
BRANCH  10  23
ATOM     23  O   UNL     1     -11.471 -17.452  -6.213  1.00  0.00    -0.507 OA
ATOM     24  H   UNL     1     -11.492 -16.499  -6.561  1.00  0.00     0.293 HD
ENDBRANCH  10  23
BRANCH  11  25
ATOM     25  O   UNL     1     -14.057 -20.631  -8.754  1.00  0.00    -0.508 OA
ATOM     26  H   UNL     1     -14.667 -21.133  -8.120  1.00  0.00     0.293 HD
ENDBRANCH  11  25
ENDBRANCH   1   2
BRANCH   1  27
ATOM     27  C   UNL     1      -6.062 -17.691  -7.401  1.00  0.00     0.339 C 
ATOM     28  C   UNL     1      -4.868 -17.703  -8.375  1.00  0.00     0.214 C 
ATOM     29  O   UNL     1      -5.716 -17.111  -6.155  1.00  0.00    -0.332 OA
ATOM     30  C   UNL     1      -3.653 -18.405  -7.748  1.00  0.00     0.180 C 
ATOM     31  C   UNL     1      -4.690 -17.833  -5.493  1.00  0.00     0.179 C 
ATOM     32  C   UNL     1      -3.387 -17.838  -6.336  1.00  0.00     0.177 C 
BRANCH  28  33
ATOM     33  O   UNL     1      -4.538 -16.376  -8.706  1.00  0.00    -0.384 OA
ATOM     34  H   UNL     1      -5.388 -15.912  -8.919  1.00  0.00     0.211 HD
ENDBRANCH  28  33
BRANCH  30  35
ATOM     35  O   UNL     1      -3.898 -19.790  -7.695  1.00  0.00    -0.387 OA
ATOM     36  H   UNL     1      -4.740 -19.959  -8.196  1.00  0.00     0.211 HD
ENDBRANCH  30  35
BRANCH  31  37
ATOM     37  C   UNL     1      -4.466 -17.185  -4.122  1.00  0.00     0.191 C 
BRANCH  37  38
ATOM     38  O   UNL     1      -3.790 -18.064  -3.266  1.00  0.00    -0.394 OA
ATOM     39  H   UNL     1      -4.464 -18.721  -2.960  1.00  0.00     0.210 HD
ENDBRANCH  37  38
ENDBRANCH  31  37
BRANCH  32  40
ATOM     40  O   UNL     1      -2.347 -18.546  -5.704  1.00  0.00    -0.387 OA
ATOM     41  H   UNL     1      -1.869 -19.066  -6.398  1.00  0.00     0.211 HD
ENDBRANCH  32  40
ENDBRANCH   1  27
TORSDOF 12
ENDMDL
MODEL 7
REMARK VINA RESULT:    -5.467      3.165      6.886
REMARK INTER + INTRA:          -9.365
REMARK INTER:                  -8.050
REMARK INTRA:                  -1.315
REMARK UNBOUND:                -1.342
REMARK SMILES O=c1c(O[C@H]2O[C@H](CO)[C@@H](O)[C@@H](O)[C@@H]2O)c(-c2ccc(O)c(O)c2)oc2cc(O)cc(O)c12
REMARK SMILES IDX 4 1 3 2 16 3 25 4 2 5 26 6 1 7 33 8 27 9 31 10 28 11 30 12
REMARK SMILES IDX 17 13 18 14 19 15 20 16 24 17 22 18 21 19 23 21 32 23 29 25
REMARK SMILES IDX 5 27 14 28 6 29 12 30 7 31 10 32 15 33 13 35 8 37 9 38 11 40
REMARK H PARENT 21 20 23 22 32 24 29 26 15 34 13 36 9 39 11 41
REMARK Flexibility Score: inf
ROOT
ATOM      1  O   UNL     1      -8.255 -20.382  -7.677  1.00  0.00    -0.454 OA
ENDROOT
BRANCH   1   2
ATOM      2  C   UNL     1      -7.217 -20.676  -8.576  1.00  0.00     0.214 A 
ATOM      3  C   UNL     1      -5.902 -20.255  -8.295  1.00  0.00     0.180 A 
ATOM      4  O   UNL     1      -4.908 -20.580  -9.115  1.00  0.00    -0.452 OA
ATOM      5  C   UNL     1      -7.456 -21.370  -9.776  1.00  0.00     0.239 A 
ATOM      6  C   UNL     1      -5.082 -21.270 -10.235  1.00  0.00     0.146 A 
ATOM      7  O   UNL     1      -8.636 -21.662 -10.103  1.00  0.00    -0.285 OA
ATOM      8  C   UNL     1      -6.373 -21.697 -10.621  1.00  0.00     0.111 A 
ATOM      9  C   UNL     1      -3.975 -21.556 -11.037  1.00  0.00     0.094 A 
ATOM     10  C   UNL     1      -6.526 -22.419 -11.829  1.00  0.00     0.134 A 
ATOM     11  C   UNL     1      -4.133 -22.257 -12.234  1.00  0.00     0.123 A 
ATOM     12  C   UNL     1      -5.403 -22.686 -12.624  1.00  0.00     0.093 A 
BRANCH   3  13
ATOM     13  C   UNL     1      -5.577 -19.476  -7.082  1.00  0.00     0.025 A 
ATOM     14  C   UNL     1      -5.593 -18.074  -7.139  1.00  0.00     0.016 A 
ATOM     15  C   UNL     1      -5.255 -17.320  -6.013  1.00  0.00     0.051 A 
ATOM     16  C   UNL     1      -4.908 -17.955  -4.814  1.00  0.00     0.157 A 
ATOM     17  C   UNL     1      -5.260 -20.112  -5.870  1.00  0.00     0.062 A 
ATOM     18  C   UNL     1      -4.918 -19.359  -4.740  1.00  0.00     0.158 A 
BRANCH  16  19
ATOM     19  O   UNL     1      -4.557 -17.198  -3.698  1.00  0.00    -0.504 OA
ATOM     20  H   UNL     1      -3.687 -16.676  -3.663  1.00  0.00     0.293 HD
ENDBRANCH  16  19
BRANCH  18  21
ATOM     21  O   UNL     1      -4.593 -20.019  -3.557  1.00  0.00    -0.504 OA
ATOM     22  H   UNL     1      -5.256 -20.124  -2.797  1.00  0.00     0.293 HD
ENDBRANCH  18  21
ENDBRANCH   3  13
BRANCH  10  23
ATOM     23  O   UNL     1      -7.779 -22.873 -12.243  1.00  0.00    -0.507 OA
ATOM     24  H   UNL     1      -8.267 -23.615 -11.753  1.00  0.00     0.293 HD
ENDBRANCH  10  23
BRANCH  11  25
ATOM     25  O   UNL     1      -3.036 -22.536 -13.043  1.00  0.00    -0.508 OA
ATOM     26  H   UNL     1      -2.798 -23.484 -13.307  1.00  0.00     0.293 HD
ENDBRANCH  11  25
ENDBRANCH   1   2
BRANCH   1  27
ATOM     27  C   UNL     1      -9.162 -19.280  -7.831  1.00  0.00     0.339 C 
ATOM     28  C   UNL     1      -9.588 -18.730  -6.457  1.00  0.00     0.214 C 
ATOM     29  O   UNL     1     -10.281 -19.640  -8.622  1.00  0.00    -0.332 OA
ATOM     30  C   UNL     1     -10.495 -19.729  -5.721  1.00  0.00     0.180 C 
ATOM     31  C   UNL     1     -11.054 -20.668  -8.021  1.00  0.00     0.179 C 
ATOM     32  C   UNL     1     -11.629 -20.200  -6.658  1.00  0.00     0.177 C 
BRANCH  28  33
ATOM     33  O   UNL     1     -10.267 -17.512  -6.646  1.00  0.00    -0.384 OA
ATOM     34  H   UNL     1      -9.609 -16.868  -7.012  1.00  0.00     0.211 HD
ENDBRANCH  28  33
BRANCH  30  35
ATOM     35  O   UNL     1      -9.721 -20.818  -5.282  1.00  0.00    -0.387 OA
ATOM     36  H   UNL     1      -9.919 -20.949  -4.317  1.00  0.00     0.211 HD
ENDBRANCH  30  35
BRANCH  31  37
ATOM     37  C   UNL     1     -12.172 -21.049  -8.999  1.00  0.00     0.191 C 
BRANCH  37  38
ATOM     38  O   UNL     1     -11.637 -21.403 -10.244  1.00  0.00    -0.394 OA
ATOM     39  H   UNL     1     -12.038 -20.781 -10.902  1.00  0.00     0.210 HD
ENDBRANCH  37  38
ENDBRANCH  31  37
BRANCH  32  40
ATOM     40  O   UNL     1     -12.405 -21.198  -6.037  1.00  0.00    -0.387 OA
ATOM     41  H   UNL     1     -11.816 -21.975  -5.865  1.00  0.00     0.211 HD
ENDBRANCH  32  40
ENDBRANCH   1  27
TORSDOF 12
ENDMDL
MODEL 8
REMARK VINA RESULT:    -5.289      4.036      6.916
REMARK INTER + INTRA:          -9.105
REMARK INTER:                  -7.784
REMARK INTRA:                  -1.321
REMARK UNBOUND:                -1.342
REMARK SMILES O=c1c(O[C@H]2O[C@H](CO)[C@@H](O)[C@@H](O)[C@@H]2O)c(-c2ccc(O)c(O)c2)oc2cc(O)cc(O)c12
REMARK SMILES IDX 4 1 3 2 16 3 25 4 2 5 26 6 1 7 33 8 27 9 31 10 28 11 30 12
REMARK SMILES IDX 17 13 18 14 19 15 20 16 24 17 22 18 21 19 23 21 32 23 29 25
REMARK SMILES IDX 5 27 14 28 6 29 12 30 7 31 10 32 15 33 13 35 8 37 9 38 11 40
REMARK H PARENT 21 20 23 22 32 24 29 26 15 34 13 36 9 39 11 41
REMARK Flexibility Score: inf
ROOT
ATOM      1  O   UNL     1      -4.691 -23.412  -4.875  1.00  0.00    -0.454 OA
ENDROOT
BRANCH   1   2
ATOM      2  C   UNL     1      -4.588 -22.187  -5.553  1.00  0.00     0.214 A 
ATOM      3  C   UNL     1      -4.559 -22.162  -6.962  1.00  0.00     0.180 A 
ATOM      4  O   UNL     1      -4.519 -21.001  -7.607  1.00  0.00    -0.452 OA
ATOM      5  C   UNL     1      -4.489 -20.967  -4.860  1.00  0.00     0.239 A 
ATOM      6  C   UNL     1      -4.469 -19.826  -6.994  1.00  0.00     0.146 A 
ATOM      7  O   UNL     1      -4.403 -20.968  -3.604  1.00  0.00    -0.285 OA
ATOM      8  C   UNL     1      -4.449 -19.754  -5.582  1.00  0.00     0.111 A 
ATOM      9  C   UNL     1      -4.420 -18.659  -7.760  1.00  0.00     0.094 A 
ATOM     10  C   UNL     1      -4.380 -18.484  -4.959  1.00  0.00     0.134 A 
ATOM     11  C   UNL     1      -4.340 -17.411  -7.141  1.00  0.00     0.123 A 
ATOM     12  C   UNL     1      -4.322 -17.328  -5.747  1.00  0.00     0.093 A 
BRANCH   3  13
ATOM     13  C   UNL     1      -4.604 -23.403  -7.763  1.00  0.00     0.025 A 
ATOM     14  C   UNL     1      -3.404 -24.006  -8.166  1.00  0.00     0.016 A 
ATOM     15  C   UNL     1      -3.426 -25.160  -8.953  1.00  0.00     0.051 A 
ATOM     16  C   UNL     1      -4.646 -25.732  -9.337  1.00  0.00     0.157 A 
ATOM     17  C   UNL     1      -5.827 -23.995  -8.121  1.00  0.00     0.062 A 
ATOM     18  C   UNL     1      -5.853 -25.150  -8.912  1.00  0.00     0.158 A 
BRANCH  16  19
ATOM     19  O   UNL     1      -4.662 -26.874 -10.135  1.00  0.00    -0.504 OA
ATOM     20  H   UNL     1      -4.331 -27.768  -9.788  1.00  0.00     0.293 HD
ENDBRANCH  16  19
BRANCH  18  21
ATOM     21  O   UNL     1      -7.081 -25.705  -9.264  1.00  0.00    -0.504 OA
ATOM     22  H   UNL     1      -7.341 -26.650  -9.007  1.00  0.00     0.293 HD
ENDBRANCH  18  21
ENDBRANCH   3  13
BRANCH  10  23
ATOM     23  O   UNL     1      -4.373 -18.365  -3.569  1.00  0.00    -0.507 OA
ATOM     24  H   UNL     1      -3.569 -18.002  -3.068  1.00  0.00     0.293 HD
ENDBRANCH  10  23
BRANCH  11  25
ATOM     25  O   UNL     1      -4.281 -16.245  -7.899  1.00  0.00    -0.508 OA
ATOM     26  H   UNL     1      -4.776 -15.406  -7.622  1.00  0.00     0.293 HD
ENDBRANCH  11  25
ENDBRANCH   1   2
BRANCH   1  27
ATOM     27  C   UNL     1      -3.565 -24.148  -4.374  1.00  0.00     0.339 C 
ATOM     28  C   UNL     1      -3.836 -25.664  -4.435  1.00  0.00     0.214 C 
ATOM     29  O   UNL     1      -3.217 -23.731  -3.065  1.00  0.00    -0.332 OA
ATOM     30  C   UNL     1      -4.907 -26.073  -3.413  1.00  0.00     0.180 C 
ATOM     31  C   UNL     1      -4.257 -23.972  -2.131  1.00  0.00     0.179 C 
ATOM     32  C   UNL     1      -4.563 -25.489  -2.025  1.00  0.00     0.177 C 
BRANCH  28  33
ATOM     33  O   UNL     1      -2.636 -26.351  -4.175  1.00  0.00    -0.384 OA
ATOM     34  H   UNL     1      -2.883 -27.268  -3.891  1.00  0.00     0.211 HD
ENDBRANCH  28  33
BRANCH  30  35
ATOM     35  O   UNL     1      -6.163 -25.616  -3.853  1.00  0.00    -0.387 OA
ATOM     36  H   UNL     1      -6.637 -26.395  -4.249  1.00  0.00     0.211 HD
ENDBRANCH  30  35
BRANCH  31  37
ATOM     37  C   UNL     1      -3.820 -23.394  -0.779  1.00  0.00     0.191 C 
BRANCH  37  38
ATOM     38  O   UNL     1      -4.925 -22.903  -0.073  1.00  0.00    -0.394 OA
ATOM     39  H   UNL     1      -4.564 -22.270   0.596  1.00  0.00     0.210 HD
ENDBRANCH  37  38
ENDBRANCH  31  37
BRANCH  32  40
ATOM     40  O   UNL     1      -5.590 -25.762  -1.102  1.00  0.00    -0.387 OA
ATOM     41  H   UNL     1      -6.397 -25.266  -1.391  1.00  0.00     0.211 HD
ENDBRANCH  32  40
ENDBRANCH   1  27
TORSDOF 12
ENDMDL
MODEL 9
REMARK VINA RESULT:    -5.208      2.466      6.697
REMARK INTER + INTRA:          -8.985
REMARK INTER:                  -7.559
REMARK INTRA:                  -1.426
REMARK UNBOUND:                -1.342
REMARK SMILES O=c1c(O[C@H]2O[C@H](CO)[C@@H](O)[C@@H](O)[C@@H]2O)c(-c2ccc(O)c(O)c2)oc2cc(O)cc(O)c12
REMARK SMILES IDX 4 1 3 2 16 3 25 4 2 5 26 6 1 7 33 8 27 9 31 10 28 11 30 12
REMARK SMILES IDX 17 13 18 14 19 15 20 16 24 17 22 18 21 19 23 21 32 23 29 25
REMARK SMILES IDX 5 27 14 28 6 29 12 30 7 31 10 32 15 33 13 35 8 37 9 38 11 40
REMARK H PARENT 21 20 23 22 32 24 29 26 15 34 13 36 9 39 11 41
REMARK Flexibility Score: inf
ROOT
ATOM      1  O   UNL     1      -4.633 -22.205  -7.330  1.00  0.00    -0.454 OA
ENDROOT
BRANCH   1   2
ATOM      2  C   UNL     1      -4.384 -22.389  -5.960  1.00  0.00     0.214 A 
ATOM      3  C   UNL     1      -3.981 -21.299  -5.164  1.00  0.00     0.180 A 
ATOM      4  O   UNL     1      -3.800 -21.459  -3.858  1.00  0.00    -0.452 OA
ATOM      5  C   UNL     1      -4.506 -23.653  -5.353  1.00  0.00     0.239 A 
ATOM      6  C   UNL     1      -3.946 -22.622  -3.237  1.00  0.00     0.146 A 
ATOM      7  O   UNL     1      -4.759 -24.663  -6.061  1.00  0.00    -0.285 OA
ATOM      8  C   UNL     1      -4.306 -23.781  -3.962  1.00  0.00     0.111 A 
ATOM      9  C   UNL     1      -3.724 -22.691  -1.859  1.00  0.00     0.094 A 
ATOM     10  C   UNL     1      -4.439 -25.010  -3.271  1.00  0.00     0.134 A 
ATOM     11  C   UNL     1      -3.845 -23.908  -1.186  1.00  0.00     0.123 A 
ATOM     12  C   UNL     1      -4.202 -25.058  -1.891  1.00  0.00     0.093 A 
BRANCH   3  13
ATOM     13  C   UNL     1      -3.778 -19.952  -5.736  1.00  0.00     0.025 A 
ATOM     14  C   UNL     1      -2.540 -19.626  -6.308  1.00  0.00     0.016 A 
ATOM     15  C   UNL     1      -2.317 -18.346  -6.823  1.00  0.00     0.051 A 
ATOM     16  C   UNL     1      -3.331 -17.380  -6.782  1.00  0.00     0.157 A 
ATOM     17  C   UNL     1      -4.805 -18.993  -5.725  1.00  0.00     0.062 A 
ATOM     18  C   UNL     1      -4.585 -17.709  -6.237  1.00  0.00     0.158 A 
BRANCH  16  19
ATOM     19  O   UNL     1      -3.098 -16.101  -7.283  1.00  0.00    -0.504 OA
ATOM     20  H   UNL     1      -2.854 -15.948  -8.255  1.00  0.00     0.293 HD
ENDBRANCH  16  19
BRANCH  18  21
ATOM     21  O   UNL     1      -5.618 -16.775  -6.197  1.00  0.00    -0.504 OA
ATOM     22  H   UNL     1      -6.564 -17.003  -6.482  1.00  0.00     0.293 HD
ENDBRANCH  18  21
ENDBRANCH   3  13
BRANCH  10  23
ATOM     23  O   UNL     1      -4.807 -26.176  -3.943  1.00  0.00    -0.507 OA
ATOM     24  H   UNL     1      -5.317 -26.151  -4.819  1.00  0.00     0.293 HD
ENDBRANCH  10  23
BRANCH  11  25
ATOM     25  O   UNL     1      -3.615 -23.986   0.184  1.00  0.00    -0.508 OA
ATOM     26  H   UNL     1      -3.876 -24.804   0.721  1.00  0.00     0.293 HD
ENDBRANCH  11  25
ENDBRANCH   1   2
BRANCH   1  27
ATOM     27  C   UNL     1      -5.822 -22.654  -7.997  1.00  0.00     0.339 C 
ATOM     28  C   UNL     1      -5.645 -22.591  -9.526  1.00  0.00     0.214 C 
ATOM     29  O   UNL     1      -6.959 -21.924  -7.571  1.00  0.00    -0.332 OA
ATOM     30  C   UNL     1      -5.591 -21.136 -10.015  1.00  0.00     0.180 C 
ATOM     31  C   UNL     1      -6.861 -20.545  -7.888  1.00  0.00     0.179 C 
ATOM     32  C   UNL     1      -6.774 -20.337  -9.424  1.00  0.00     0.177 C 
BRANCH  28  33
ATOM     33  O   UNL     1      -6.719 -23.264 -10.136  1.00  0.00    -0.384 OA
ATOM     34  H   UNL     1      -7.504 -22.662 -10.084  1.00  0.00     0.211 HD
ENDBRANCH  28  33
BRANCH  30  35
ATOM     35  O   UNL     1      -4.361 -20.567  -9.636  1.00  0.00    -0.387 OA
ATOM     36  H   UNL     1      -3.933 -21.194  -8.993  1.00  0.00     0.211 HD
ENDBRANCH  30  35
BRANCH  31  37
ATOM     37  C   UNL     1      -8.086 -19.837  -7.297  1.00  0.00     0.191 C 
BRANCH  37  38
ATOM     38  O   UNL     1      -7.920 -18.447  -7.343  1.00  0.00    -0.394 OA
ATOM     39  H   UNL     1      -8.829 -18.065  -7.430  1.00  0.00     0.210 HD
ENDBRANCH  37  38
ENDBRANCH  31  37
BRANCH  32  40
ATOM     40  O   UNL     1      -6.678 -18.976  -9.772  1.00  0.00    -0.387 OA
ATOM     41  H   UNL     1      -6.620 -18.453  -8.934  1.00  0.00     0.211 HD
ENDBRANCH  32  40
ENDBRANCH   1  27
TORSDOF 12
ENDMDL
