MODEL 1
REMARK VINA RESULT:    -4.593      0.000      0.000
REMARK INTER + INTRA:          -7.907
REMARK INTER:                  -7.278
REMARK INTRA:                  -0.629
REMARK UNBOUND:                -0.629
REMARK SMILES CCCCCCCCCCCC(=O)[O-]
REMARK SMILES IDX 7 1 8 2 9 3 10 4 11 5 12 6 13 7 14 8 6 9 5 10 4 11 3 12 2 13
REMARK SMILES IDX 1 14
REMARK H PARENT
REMARK Flexibility Score: inf
ROOT
ATOM      1  C   UNL     1     114.726 104.485 113.313  1.00  0.00     0.000 C 
ENDROOT
BRANCH   1   2
ATOM      2  C   UNL     1     114.335 104.588 111.829  1.00  0.00     0.000 C 
BRANCH   2   3
ATOM      3  C   UNL     1     114.486 103.251 111.086  1.00  0.00     0.000 C 
BRANCH   3   4
ATOM      4  C   UNL     1     113.854 102.076 111.853  1.00  0.00     0.006 C 
BRANCH   4   5
ATOM      5  C   UNL     1     112.465 101.712 111.312  1.00  0.00     0.053 C 
BRANCH   5   6
ATOM      6  C   UNL     1     111.389 102.541 111.943  1.00  0.00     0.041 C 
ATOM      7  O   UNL     1     111.361 102.700 113.191  1.00  0.00    -0.550 OA
ATOM      8  O   UNL     1     110.437 103.165 111.147  1.00  0.00    -0.550 OA
ENDBRANCH   5   6
ENDBRANCH   4   5
ENDBRANCH   3   4
ENDBRANCH   2   3
ENDBRANCH   1   2
BRANCH   1   9
ATOM      9  C   UNL     1     116.017 105.254 113.639  1.00  0.00     0.000 C 
BRANCH   9  10
ATOM     10  C   UNL     1     117.240 104.698 112.894  1.00  0.00    -0.000 C 
BRANCH  10  11
ATOM     11  C   UNL     1     118.364 105.744 112.828  1.00  0.00    -0.000 C 
BRANCH  11  12
ATOM     12  C   UNL     1     119.541 105.409 113.758  1.00  0.00    -0.000 C 
BRANCH  12  13
ATOM     13  C   UNL     1     119.204 104.294 114.759  1.00  0.00    -0.003 C 
ATOM     14  C   UNL     1     119.534 104.721 116.187  1.00  0.00     0.004 C 
ENDBRANCH  12  13
ENDBRANCH  11  12
ENDBRANCH  10  11
ENDBRANCH   9  10
ENDBRANCH   1   9
TORSDOF 10
ENDMDL
MODEL 2
REMARK VINA RESULT:    -4.489      0.877      1.912
REMARK INTER + INTRA:          -7.743
REMARK INTER:                  -7.078
REMARK INTRA:                  -0.666
REMARK UNBOUND:                -0.629
REMARK SMILES CCCCCCCCCCCC(=O)[O-]
REMARK SMILES IDX 7 1 8 2 9 3 10 4 11 5 12 6 13 7 14 8 6 9 5 10 4 11 3 12 2 13
REMARK SMILES IDX 1 14
REMARK H PARENT
REMARK Flexibility Score: inf
ROOT
ATOM      1  C   UNL     1     114.542 104.485 113.096  1.00  0.00     0.000 C 
ENDROOT
BRANCH   1   2
ATOM      2  C   UNL     1     114.550 104.532 111.558  1.00  0.00     0.000 C 
BRANCH   2   3
ATOM      3  C   UNL     1     114.452 103.135 110.925  1.00  0.00     0.000 C 
BRANCH   3   4
ATOM      4  C   UNL     1     113.827 102.099 111.875  1.00  0.00     0.006 C 
BRANCH   4   5
ATOM      5  C   UNL     1     112.440 101.645 111.403  1.00  0.00     0.053 C 
BRANCH   5   6
ATOM      6  C   UNL     1     111.356 102.539 111.921  1.00  0.00     0.041 C 
ATOM      7  O   UNL     1     110.565 103.106 111.123  1.00  0.00    -0.550 OA
ATOM      8  O   UNL     1     111.200 102.719 113.290  1.00  0.00    -0.550 OA
ENDBRANCH   5   6
ENDBRANCH   4   5
ENDBRANCH   3   4
ENDBRANCH   2   3
ENDBRANCH   1   2
BRANCH   1   9
ATOM      9  C   UNL     1     115.874 104.951 113.708  1.00  0.00     0.000 C 
BRANCH   9  10
ATOM     10  C   UNL     1     117.090 104.522 112.874  1.00  0.00    -0.000 C 
BRANCH  10  11
ATOM     11  C   UNL     1     118.330 104.345 113.764  1.00  0.00    -0.000 C 
BRANCH  11  12
ATOM     12  C   UNL     1     119.381 105.444 113.542  1.00  0.00    -0.000 C 
BRANCH  12  13
ATOM     13  C   UNL     1     118.929 106.495 112.518  1.00  0.00    -0.003 C 
ATOM     14  C   UNL     1     119.713 106.364 111.215  1.00  0.00     0.004 C 
ENDBRANCH  12  13
ENDBRANCH  11  12
ENDBRANCH  10  11
ENDBRANCH   9  10
ENDBRANCH   1   9
TORSDOF 10
ENDMDL
MODEL 3
REMARK VINA RESULT:    -4.444      3.410      6.922
REMARK INTER + INTRA:          -7.671
REMARK INTER:                  -7.176
REMARK INTRA:                  -0.495
REMARK UNBOUND:                -0.629
REMARK SMILES CCCCCCCCCCCC(=O)[O-]
REMARK SMILES IDX 7 1 8 2 9 3 10 4 11 5 12 6 13 7 14 8 6 9 5 10 4 11 3 12 2 13
REMARK SMILES IDX 1 14
REMARK H PARENT
REMARK Flexibility Score: inf
ROOT
ATOM      1  C   UNL     1     114.443 104.585 112.123  1.00  0.00     0.000 C 
ENDROOT
BRANCH   1   2
ATOM      2  C   UNL     1     115.295 104.637 113.403  1.00  0.00     0.000 C 
BRANCH   2   3
ATOM      3  C   UNL     1     116.150 105.911 113.491  1.00  0.00     0.000 C 
BRANCH   3   4
ATOM      4  C   UNL     1     117.553 105.723 112.887  1.00  0.00     0.006 C 
BRANCH   4   5
ATOM      5  C   UNL     1     118.098 104.308 113.120  1.00  0.00     0.053 C 
BRANCH   5   6
ATOM      6  C   UNL     1     118.990 104.248 114.322  1.00  0.00     0.041 C 
ATOM      7  O   UNL     1     119.022 103.212 115.036  1.00  0.00    -0.550 OA
ATOM      8  O   UNL     1     119.810 105.325 114.632  1.00  0.00    -0.550 OA
ENDBRANCH   5   6
ENDBRANCH   4   5
ENDBRANCH   3   4
ENDBRANCH   2   3
ENDBRANCH   1   2
BRANCH   1   9
ATOM      9  C   UNL     1     114.907 103.491 111.148  1.00  0.00     0.000 C 
BRANCH   9  10
ATOM     10  C   UNL     1     114.018 102.239 111.198  1.00  0.00    -0.000 C 
BRANCH  10  11
ATOM     11  C   UNL     1     113.292 102.138 112.548  1.00  0.00    -0.000 C 
BRANCH  11  12
ATOM     12  C   UNL     1     111.788 102.438 112.436  1.00  0.00    -0.000 C 
BRANCH  12  13
ATOM     13  C   UNL     1     111.221 102.106 111.048  1.00  0.00    -0.003 C 
ATOM     14  C   UNL     1     110.321 100.875 111.104  1.00  0.00     0.004 C 
ENDBRANCH  12  13
ENDBRANCH  11  12
ENDBRANCH  10  11
ENDBRANCH   9  10
ENDBRANCH   1   9
TORSDOF 10
ENDMDL
MODEL 4
REMARK VINA RESULT:    -4.280      3.743      7.563
REMARK INTER + INTRA:          -7.412
REMARK INTER:                  -7.056
REMARK INTRA:                  -0.356
REMARK UNBOUND:                -0.629
REMARK SMILES CCCCCCCCCCCC(=O)[O-]
REMARK SMILES IDX 7 1 8 2 9 3 10 4 11 5 12 6 13 7 14 8 6 9 5 10 4 11 3 12 2 13
REMARK SMILES IDX 1 14
REMARK H PARENT
REMARK Flexibility Score: inf
ROOT
ATOM      1  C   UNL     1     112.974 101.977 111.695  1.00  0.00     0.000 C 
ENDROOT
BRANCH   1   2
ATOM      2  C   UNL     1     113.910 103.145 111.342  1.00  0.00     0.000 C 
BRANCH   2   3
ATOM      3  C   UNL     1     114.634 103.713 112.573  1.00  0.00     0.000 C 
BRANCH   3   4
ATOM      4  C   UNL     1     116.045 104.230 112.241  1.00  0.00     0.006 C 
BRANCH   4   5
ATOM      5  C   UNL     1     116.671 104.997 113.413  1.00  0.00     0.053 C 
BRANCH   5   6
ATOM      6  C   UNL     1     118.167 105.016 113.328  1.00  0.00     0.041 C 
ATOM      7  O   UNL     1     118.854 104.293 114.096  1.00  0.00    -0.550 OA
ATOM      8  O   UNL     1     118.798 105.806 112.378  1.00  0.00    -0.550 OA
ENDBRANCH   5   6
ENDBRANCH   4   5
ENDBRANCH   3   4
ENDBRANCH   2   3
ENDBRANCH   1   2
BRANCH   1   9
ATOM      9  C   UNL     1     111.618 102.450 112.244  1.00  0.00     0.000 C 
BRANCH   9  10
ATOM     10  C   UNL     1     110.623 102.808 111.131  1.00  0.00    -0.000 C 
BRANCH  10  11
ATOM     11  C   UNL     1     110.367 104.323 111.092  1.00  0.00    -0.000 C 
BRANCH  11  12
ATOM     12  C   UNL     1     108.914 104.670 110.732  1.00  0.00    -0.000 C 
BRANCH  12  13
ATOM     13  C   UNL     1     108.558 106.130 111.050  1.00  0.00    -0.003 C 
ATOM     14  C   UNL     1     108.062 106.272 112.486  1.00  0.00     0.004 C 
ENDBRANCH  12  13
ENDBRANCH  11  12
ENDBRANCH  10  11
ENDBRANCH   9  10
ENDBRANCH   1   9
TORSDOF 10
ENDMDL
MODEL 5
REMARK VINA RESULT:    -4.275      3.594      7.439
REMARK INTER + INTRA:          -7.403
REMARK INTER:                  -6.913
REMARK INTRA:                  -0.490
REMARK UNBOUND:                -0.629
REMARK SMILES CCCCCCCCCCCC(=O)[O-]
REMARK SMILES IDX 7 1 8 2 9 3 10 4 11 5 12 6 13 7 14 8 6 9 5 10 4 11 3 12 2 13
REMARK SMILES IDX 1 14
REMARK H PARENT
REMARK Flexibility Score: inf
ROOT
ATOM      1  C   UNL     1     113.797 102.879 111.128  1.00  0.00     0.000 C 
ENDROOT
BRANCH   1   2
ATOM      2  C   UNL     1     115.080 103.527 111.677  1.00  0.00     0.000 C 
BRANCH   2   3
ATOM      3  C   UNL     1     114.847 104.262 113.007  1.00  0.00     0.000 C 
BRANCH   3   4
ATOM      4  C   UNL     1     116.113 104.973 113.517  1.00  0.00     0.006 C 
BRANCH   4   5
ATOM      5  C   UNL     1     117.342 104.652 112.657  1.00  0.00     0.053 C 
BRANCH   5   6
ATOM      6  C   UNL     1     118.605 105.157 113.284  1.00  0.00     0.041 C 
ATOM      7  O   UNL     1     119.023 104.656 114.361  1.00  0.00    -0.550 OA
ATOM      8  O   UNL     1     119.338 106.158 112.661  1.00  0.00    -0.550 OA
ENDBRANCH   5   6
ENDBRANCH   4   5
ENDBRANCH   3   4
ENDBRANCH   2   3
ENDBRANCH   1   2
BRANCH   1   9
ATOM      9  C   UNL     1     112.840 102.425 112.243  1.00  0.00     0.000 C 
BRANCH   9  10
ATOM     10  C   UNL     1     111.544 101.810 111.695  1.00  0.00    -0.000 C 
BRANCH  10  11
ATOM     11  C   UNL     1     110.848 102.775 110.723  1.00  0.00    -0.000 C 
BRANCH  11  12
ATOM     12  C   UNL     1     110.146 103.937 111.443  1.00  0.00    -0.000 C 
BRANCH  12  13
ATOM     13  C   UNL     1     109.002 104.541 110.615  1.00  0.00    -0.003 C 
ATOM     14  C   UNL     1     108.690 105.965 111.067  1.00  0.00     0.004 C 
ENDBRANCH  12  13
ENDBRANCH  11  12
ENDBRANCH  10  11
ENDBRANCH   9  10
ENDBRANCH   1   9
TORSDOF 10
ENDMDL
MODEL 6
REMARK VINA RESULT:    -4.177      3.674      6.960
REMARK INTER + INTRA:          -7.248
REMARK INTER:                  -6.710
REMARK INTRA:                  -0.538
REMARK UNBOUND:                -0.629
REMARK SMILES CCCCCCCCCCCC(=O)[O-]
REMARK SMILES IDX 7 1 8 2 9 3 10 4 11 5 12 6 13 7 14 8 6 9 5 10 4 11 3 12 2 13
REMARK SMILES IDX 1 14
REMARK H PARENT
REMARK Flexibility Score: inf
ROOT
ATOM      1  C   UNL     1     114.522 104.744 111.938  1.00  0.00     0.000 C 
ENDROOT
BRANCH   1   2
ATOM      2  C   UNL     1     114.859 104.661 113.437  1.00  0.00     0.000 C 
BRANCH   2   3
ATOM      3  C   UNL     1     116.105 105.481 113.806  1.00  0.00     0.000 C 
BRANCH   3   4
ATOM      4  C   UNL     1     117.379 104.619 113.876  1.00  0.00     0.006 C 
BRANCH   4   5
ATOM      5  C   UNL     1     118.147 104.615 112.548  1.00  0.00     0.053 C 
BRANCH   5   6
ATOM      6  C   UNL     1     119.139 105.735 112.478  1.00  0.00     0.041 C 
ATOM      7  O   UNL     1     119.257 106.412 111.423  1.00  0.00    -0.550 OA
ATOM      8  O   UNL     1     119.908 106.052 113.590  1.00  0.00    -0.550 OA
ENDBRANCH   5   6
ENDBRANCH   4   5
ENDBRANCH   3   4
ENDBRANCH   2   3
ENDBRANCH   1   2
BRANCH   1   9
ATOM      9  C   UNL     1     115.009 103.514 111.154  1.00  0.00     0.000 C 
BRANCH   9  10
ATOM     10  C   UNL     1     113.905 102.464 110.955  1.00  0.00    -0.000 C 
BRANCH  10  11
ATOM     11  C   UNL     1     113.373 101.967 112.308  1.00  0.00    -0.000 C 
BRANCH  11  12
ATOM     12  C   UNL     1     111.892 102.316 112.527  1.00  0.00    -0.000 C 
BRANCH  12  13
ATOM     13  C   UNL     1     111.032 102.050 111.283  1.00  0.00    -0.003 C 
ATOM     14  C   UNL     1     110.257 103.300 110.876  1.00  0.00     0.004 C 
ENDBRANCH  12  13
ENDBRANCH  11  12
ENDBRANCH  10  11
ENDBRANCH   9  10
ENDBRANCH   1   9
TORSDOF 10
ENDMDL
MODEL 7
REMARK VINA RESULT:    -4.072      2.467      4.089
REMARK INTER + INTRA:          -7.082
REMARK INTER:                  -6.551
REMARK INTRA:                  -0.531
REMARK UNBOUND:                -0.629
REMARK SMILES CCCCCCCCCCCC(=O)[O-]
REMARK SMILES IDX 7 1 8 2 9 3 10 4 11 5 12 6 13 7 14 8 6 9 5 10 4 11 3 12 2 13
REMARK SMILES IDX 1 14
REMARK H PARENT
REMARK Flexibility Score: inf
ROOT
ATOM      1  C   UNL     1     112.397 102.697 112.152  1.00  0.00     0.000 C 
ENDROOT
BRANCH   1   2
ATOM      2  C   UNL     1     111.240 101.956 111.461  1.00  0.00     0.000 C 
BRANCH   2   3
ATOM      3  C   UNL     1     110.363 102.893 110.614  1.00  0.00     0.000 C 
BRANCH   3   4
ATOM      4  C   UNL     1     110.062 104.223 111.327  1.00  0.00     0.006 C 
BRANCH   4   5
ATOM      5  C   UNL     1     108.864 104.953 110.706  1.00  0.00     0.053 C 
BRANCH   5   6
ATOM      6  C   UNL     1     108.514 106.194 111.469  1.00  0.00     0.041 C 
ATOM      7  O   UNL     1     108.849 107.325 111.029  1.00  0.00    -0.550 OA
ATOM      8  O   UNL     1     107.788 106.101 112.650  1.00  0.00    -0.550 OA
ENDBRANCH   5   6
ENDBRANCH   4   5
ENDBRANCH   3   4
ENDBRANCH   2   3
ENDBRANCH   1   2
BRANCH   1   9
ATOM      9  C   UNL     1     113.767 102.354 111.543  1.00  0.00     0.000 C 
BRANCH   9  10
ATOM     10  C   UNL     1     114.768 103.514 111.648  1.00  0.00    -0.000 C 
BRANCH  10  11
ATOM     11  C   UNL     1     114.589 104.273 112.972  1.00  0.00    -0.000 C 
BRANCH  11  12
ATOM     12  C   UNL     1     115.898 104.900 113.478  1.00  0.00    -0.000 C 
BRANCH  12  13
ATOM     13  C   UNL     1     117.119 104.462 112.656  1.00  0.00    -0.003 C 
ATOM     14  C   UNL     1     118.419 104.811 113.376  1.00  0.00     0.004 C 
ENDBRANCH  12  13
ENDBRANCH  11  12
ENDBRANCH  10  11
ENDBRANCH   9  10
ENDBRANCH   1   9
TORSDOF 10
ENDMDL
MODEL 8
REMARK VINA RESULT:    -3.769      3.720      7.600
REMARK INTER + INTRA:          -6.601
REMARK INTER:                  -6.177
REMARK INTRA:                  -0.425
REMARK UNBOUND:                -0.629
REMARK SMILES CCCCCCCCCCCC(=O)[O-]
REMARK SMILES IDX 7 1 8 2 9 3 10 4 11 5 12 6 13 7 14 8 6 9 5 10 4 11 3 12 2 13
REMARK SMILES IDX 1 14
REMARK H PARENT
REMARK Flexibility Score: inf
ROOT
ATOM      1  C   UNL     1     111.321 102.611 111.945  1.00  0.00     0.000 C 
ENDROOT
BRANCH   1   2
ATOM      2  C   UNL     1     112.579 102.032 111.276  1.00  0.00     0.000 C 
BRANCH   2   3
ATOM      3  C   UNL     1     113.827 102.147 112.166  1.00  0.00     0.000 C 
BRANCH   3   4
ATOM      4  C   UNL     1     114.213 103.608 112.454  1.00  0.00     0.006 C 
BRANCH   4   5
ATOM      5  C   UNL     1     115.643 103.929 111.998  1.00  0.00     0.053 C 
BRANCH   5   6
ATOM      6  C   UNL     1     116.415 104.651 113.059  1.00  0.00     0.041 C 
ATOM      7  O   UNL     1     117.650 104.450 113.192  1.00  0.00    -0.550 OA
ATOM      8  O   UNL     1     115.774 105.572 113.877  1.00  0.00    -0.550 OA
ENDBRANCH   5   6
ENDBRANCH   4   5
ENDBRANCH   3   4
ENDBRANCH   2   3
ENDBRANCH   1   2
BRANCH   1   9
ATOM      9  C   UNL     1     110.393 103.321 110.946  1.00  0.00     0.000 C 
BRANCH   9  10
ATOM     10  C   UNL     1     109.485 104.361 111.619  1.00  0.00    -0.000 C 
BRANCH  10  11
ATOM     11  C   UNL     1     108.872 105.310 110.577  1.00  0.00    -0.000 C 
BRANCH  11  12
ATOM     12  C   UNL     1     108.354 106.617 111.198  1.00  0.00    -0.000 C 
BRANCH  12  13
ATOM     13  C   UNL     1     108.108 106.497 112.709  1.00  0.00    -0.003 C 
ATOM     14  C   UNL     1     106.614 106.492 113.022  1.00  0.00     0.004 C 
ENDBRANCH  12  13
ENDBRANCH  11  12
ENDBRANCH  10  11
ENDBRANCH   9  10
ENDBRANCH   1   9
TORSDOF 10
ENDMDL
MODEL 9
REMARK VINA RESULT:    -2.876      4.532      8.412
REMARK INTER + INTRA:          -5.187
REMARK INTER:                  -4.794
REMARK INTRA:                  -0.392
REMARK UNBOUND:                -0.629
REMARK SMILES CCCCCCCCCCCC(=O)[O-]
REMARK SMILES IDX 7 1 8 2 9 3 10 4 11 5 12 6 13 7 14 8 6 9 5 10 4 11 3 12 2 13
REMARK SMILES IDX 1 14
REMARK H PARENT
REMARK Flexibility Score: inf
ROOT
ATOM      1  C   UNL     1     109.824 104.722 110.719  1.00  0.00     0.000 C 
ENDROOT
BRANCH   1   2
ATOM      2  C   UNL     1     110.029 103.231 111.038  1.00  0.00     0.000 C 
BRANCH   2   3
ATOM      3  C   UNL     1     111.223 102.988 111.975  1.00  0.00     0.000 C 
BRANCH   3   4
ATOM      4  C   UNL     1     112.267 102.036 111.366  1.00  0.00     0.006 C 
BRANCH   4   5
ATOM      5  C   UNL     1     113.561 101.994 112.188  1.00  0.00     0.053 C 
BRANCH   5   6
ATOM      6  C   UNL     1     114.371 103.242 112.012  1.00  0.00     0.041 C 
ATOM      7  O   UNL     1     114.611 103.684 110.858  1.00  0.00    -0.550 OA
ATOM      8  O   UNL     1     114.830 103.934 113.125  1.00  0.00    -0.550 OA
ENDBRANCH   5   6
ENDBRANCH   4   5
ENDBRANCH   3   4
ENDBRANCH   2   3
ENDBRANCH   1   2
BRANCH   1   9
ATOM      9  C   UNL     1     108.610 105.321 111.450  1.00  0.00     0.000 C 
BRANCH   9  10
ATOM     10  C   UNL     1     108.461 106.831 111.208  1.00  0.00    -0.000 C 
BRANCH  10  11
ATOM     11  C   UNL     1     107.289 107.402 112.021  1.00  0.00    -0.000 C 
BRANCH  11  12
ATOM     12  C   UNL     1     106.703 106.384 113.012  1.00  0.00    -0.000 C 
BRANCH  12  13
ATOM     13  C   UNL     1     105.476 106.925 113.759  1.00  0.00    -0.003 C 
ATOM     14  C   UNL     1     104.308 105.946 113.676  1.00  0.00     0.004 C 
ENDBRANCH  12  13
ENDBRANCH  11  12
ENDBRANCH  10  11
ENDBRANCH   9  10
ENDBRANCH   1   9
TORSDOF 10
ENDMDL
