MODEL 1
REMARK VINA RESULT:    49.514      0.000      0.000
REMARK INTER + INTRA:          68.244
REMARK INTER:                  68.329
REMARK INTRA:                  -0.086
REMARK UNBOUND:                -0.086
REMARK SMILES CC[C@H](CC[C@@H](C)[C@H]1CC[C@H]2[C@H]3CC=C4C[C@@H](O)CC[C@@]4(C)[C@@H]3CC[C@@]12C)C(C)C
REMARK SMILES IDX 5 1 4 2 3 3 2 4 1 5 28 6 29 7 30 8 6 9 7 10 8 11 9 12 26 13
REMARK SMILES IDX 10 14 11 15 25 16 27 17 12 18 24 19 23 20 13 21 21 22 14 23
REMARK SMILES IDX 15 24 20 25 22 26 16 27 19 28 17 29 18 30
REMARK H PARENT 18 31
REMARK Flexibility Score: inf
ROOT
ATOM      1  C   UNL     1     -31.685  26.268   7.321  1.00  0.00     0.004 C 
ENDROOT
BRANCH   1   2
ATOM      2  C   UNL     1     -30.451  25.933   6.459  1.00  0.00     0.004 C 
BRANCH   2   3
ATOM      3  C   UNL     1     -29.737  27.195   5.892  1.00  0.00    -0.009 C 
BRANCH   3   4
ATOM      4  C   UNL     1     -28.634  26.884   4.833  1.00  0.00     0.000 C 
ATOM      5  C   UNL     1     -27.210  27.301   5.200  1.00  0.00     0.004 C 
ENDBRANCH   3   4
BRANCH   3   6
ATOM      6  C   UNL     1     -30.756  28.320   5.502  1.00  0.00    -0.014 C 
ATOM      7  C   UNL     1     -30.623  29.579   6.371  1.00  0.00     0.007 C 
ATOM      8  C   UNL     1     -30.775  28.701   4.010  1.00  0.00     0.007 C 
ENDBRANCH   3   6
ENDBRANCH   2   3
ENDBRANCH   1   2
BRANCH   1   9
ATOM      9  C   UNL     1     -32.702  25.099   7.448  1.00  0.00    -0.011 C 
ATOM     10  C   UNL     1     -33.195  24.993   8.911  1.00  0.00     0.008 C 
BRANCH   9  11
ATOM     11  C   UNL     1     -33.823  25.104   6.344  1.00  0.00    -0.002 C 
ATOM     12  C   UNL     1     -33.906  23.776   5.552  1.00  0.00     0.005 C 
ATOM     13  C   UNL     1     -35.305  25.515   6.688  1.00  0.00    -0.026 C 
ATOM     14  C   UNL     1     -35.383  23.463   5.364  1.00  0.00     0.005 C 
ATOM     15  C   UNL     1     -36.107  24.795   5.573  1.00  0.00    -0.001 C 
ATOM     16  C   UNL     1     -35.764  24.994   8.081  1.00  0.00     0.007 C 
ATOM     17  C   UNL     1     -35.505  27.061   6.597  1.00  0.00     0.012 C 
ATOM     18  C   UNL     1     -37.654  24.694   5.811  1.00  0.00     0.000 C 
ATOM     19  C   UNL     1     -37.278  25.099   8.282  1.00  0.00     0.005 C 
ATOM     20  C   UNL     1     -38.042  24.245   7.241  1.00  0.00     0.003 C 
ATOM     21  C   UNL     1     -38.318  23.772   4.779  1.00  0.00     0.031 C 
ATOM     22  C   UNL     1     -39.614  24.246   7.460  1.00  0.00    -0.008 C 
ATOM     23  C   UNL     1     -39.788  23.622   5.008  1.00  0.00    -0.027 C 
ATOM     24  C   UNL     1     -40.357  23.686   6.231  1.00  0.00    -0.065 C 
ATOM     25  C   UNL     1     -39.950  23.339   8.687  1.00  0.00     0.014 C 
ATOM     26  C   UNL     1     -40.144  25.686   7.721  1.00  0.00     0.016 C 
ATOM     27  C   UNL     1     -41.833  23.352   6.355  1.00  0.00     0.063 C 
ATOM     28  C   UNL     1     -41.455  23.067   8.871  1.00  0.00     0.033 C 
ATOM     29  C   UNL     1     -42.125  22.503   7.604  1.00  0.00     0.118 C 
BRANCH  29  30
ATOM     30  O   UNL     1     -41.786  21.153   7.403  1.00  0.00    -0.393 OA
ATOM     31  H   UNL     1     -42.518  20.592   7.767  1.00  0.00     0.210 HD
ENDBRANCH  29  30
ENDBRANCH   9  11
ENDBRANCH   1   9
TORSDOF 7
ENDMDL
