MODEL 1
REMARK VINA RESULT:    -3.703      0.000      0.000
REMARK INTER + INTRA:         -11.650
REMARK INTER:                  -8.032
REMARK INTRA:                  -3.618
REMARK UNBOUND:                -3.618
REMARK SMILES CCCCCCCCCCCCCCCCCCCCCC(=O)[O-]
REMARK SMILES IDX 12 1 11 2 10 3 9 4 8 5 7 6 6 7 5 8 4 9 3 10 2 11 1 12 13 13
REMARK SMILES IDX 14 14 15 15 16 16 17 17 18 18 19 19 20 20 21 21 22 22 23 23
REMARK SMILES IDX 24 24
REMARK H PARENT
REMARK Flexibility Score: inf
ROOT
ATOM      1  C   UNL     1      31.492  33.149  22.998  1.00  0.00     0.000 C 
ENDROOT
BRANCH   1   2
ATOM      2  C   UNL     1      31.036  34.537  23.467  1.00  0.00     0.000 C 
BRANCH   2   3
ATOM      3  C   UNL     1      29.528  34.550  23.753  1.00  0.00     0.000 C 
BRANCH   3   4
ATOM      4  C   UNL     1      28.801  33.333  23.157  1.00  0.00    -0.000 C 
BRANCH   4   5
ATOM      5  C   UNL     1      28.029  33.678  21.872  1.00  0.00    -0.000 C 
BRANCH   5   6
ATOM      6  C   UNL     1      28.401  32.769  20.686  1.00  0.00    -0.000 C 
BRANCH   6   7
ATOM      7  C   UNL     1      29.691  33.157  19.944  1.00  0.00    -0.000 C 
BRANCH   7   8
ATOM      8  C   UNL     1      29.969  34.671  19.970  1.00  0.00    -0.000 C 
BRANCH   8   9
ATOM      9  C   UNL     1      31.383  35.016  19.452  1.00  0.00    -0.000 C 
BRANCH   9  10
ATOM     10  C   UNL     1      31.822  36.461  19.760  1.00  0.00    -0.000 C 
BRANCH  10  11
ATOM     11  C   UNL     1      30.972  37.182  20.819  1.00  0.00    -0.003 C 
ATOM     12  C   UNL     1      31.816  37.841  21.911  1.00  0.00     0.004 C 
ENDBRANCH  10  11
ENDBRANCH   9  10
ENDBRANCH   8   9
ENDBRANCH   7   8
ENDBRANCH   6   7
ENDBRANCH   5   6
ENDBRANCH   4   5
ENDBRANCH   3   4
ENDBRANCH   2   3
ENDBRANCH   1   2
BRANCH   1  13
ATOM     13  C   UNL     1      32.930  33.191  22.467  1.00  0.00     0.000 C 
BRANCH  13  14
ATOM     14  C   UNL     1      33.492  34.620  22.514  1.00  0.00     0.000 C 
BRANCH  14  15
ATOM     15  C   UNL     1      35.030  34.664  22.431  1.00  0.00     0.000 C 
BRANCH  15  16
ATOM     16  C   UNL     1      35.729  33.296  22.530  1.00  0.00     0.000 C 
BRANCH  16  17
ATOM     17  C   UNL     1      36.800  33.091  21.445  1.00  0.00     0.000 C 
BRANCH  17  18
ATOM     18  C   UNL     1      36.348  32.119  20.343  1.00  0.00     0.000 C 
BRANCH  18  19
ATOM     19  C   UNL     1      35.728  32.836  19.134  1.00  0.00     0.000 C 
BRANCH  19  20
ATOM     20  C   UNL     1      34.239  32.483  18.992  1.00  0.00     0.006 C 
BRANCH  20  21
ATOM     21  C   UNL     1      34.007  31.319  18.021  1.00  0.00     0.053 C 
BRANCH  21  22
ATOM     22  C   UNL     1      34.148  31.747  16.592  1.00  0.00     0.041 C 
ATOM     23  O   UNL     1      34.573  30.937  15.728  1.00  0.00    -0.550 OA
ATOM     24  O   UNL     1      33.849  33.053  16.224  1.00  0.00    -0.550 OA
ENDBRANCH  21  22
ENDBRANCH  20  21
ENDBRANCH  19  20
ENDBRANCH  18  19
ENDBRANCH  17  18
ENDBRANCH  16  17
ENDBRANCH  15  16
ENDBRANCH  14  15
ENDBRANCH  13  14
ENDBRANCH   1  13
TORSDOF 20
ENDMDL
MODEL 2
REMARK VINA RESULT:    -3.623      2.508      5.179
REMARK INTER + INTRA:         -11.476
REMARK INTER:                  -7.202
REMARK INTRA:                  -4.274
REMARK UNBOUND:                -3.618
REMARK SMILES CCCCCCCCCCCCCCCCCCCCCC(=O)[O-]
REMARK SMILES IDX 12 1 11 2 10 3 9 4 8 5 7 6 6 7 5 8 4 9 3 10 2 11 1 12 13 13
REMARK SMILES IDX 14 14 15 15 16 16 17 17 18 18 19 19 20 20 21 21 22 22 23 23
REMARK SMILES IDX 24 24
REMARK H PARENT
REMARK Flexibility Score: inf
ROOT
ATOM      1  C   UNL     1      29.648  32.296  22.849  1.00  0.00     0.000 C 
ENDROOT
BRANCH   1   2
ATOM      2  C   UNL     1      30.992  32.963  23.167  1.00  0.00     0.000 C 
BRANCH   2   3
ATOM      3  C   UNL     1      30.793  34.432  23.571  1.00  0.00     0.000 C 
BRANCH   3   4
ATOM      4  C   UNL     1      32.096  35.246  23.502  1.00  0.00    -0.000 C 
BRANCH   4   5
ATOM      5  C   UNL     1      31.995  36.439  22.535  1.00  0.00    -0.000 C 
BRANCH   5   6
ATOM      6  C   UNL     1      31.373  37.688  23.186  1.00  0.00    -0.000 C 
BRANCH   6   7
ATOM      7  C   UNL     1      30.149  38.265  22.454  1.00  0.00    -0.000 C 
BRANCH   7   8
ATOM      8  C   UNL     1      28.874  37.428  22.658  1.00  0.00    -0.000 C 
BRANCH   8   9
ATOM      9  C   UNL     1      28.216  37.688  24.031  1.00  0.00    -0.000 C 
BRANCH   9  10
ATOM     10  C   UNL     1      27.550  36.443  24.648  1.00  0.00    -0.000 C 
BRANCH  10  11
ATOM     11  C   UNL     1      28.269  35.871  25.881  1.00  0.00    -0.003 C 
ATOM     12  C   UNL     1      29.502  36.682  26.279  1.00  0.00     0.004 C 
ENDBRANCH  10  11
ENDBRANCH   9  10
ENDBRANCH   8   9
ENDBRANCH   7   8
ENDBRANCH   6   7
ENDBRANCH   5   6
ENDBRANCH   4   5
ENDBRANCH   3   4
ENDBRANCH   2   3
ENDBRANCH   1   2
BRANCH   1  13
ATOM     13  C   UNL     1      28.508  33.321  22.857  1.00  0.00     0.000 C 
BRANCH  13  14
ATOM     14  C   UNL     1      27.815  33.383  21.487  1.00  0.00     0.000 C 
BRANCH  14  15
ATOM     15  C   UNL     1      28.810  33.463  20.314  1.00  0.00     0.000 C 
BRANCH  15  16
ATOM     16  C   UNL     1      29.526  34.817  20.155  1.00  0.00     0.000 C 
BRANCH  16  17
ATOM     17  C   UNL     1      30.904  34.691  19.482  1.00  0.00     0.000 C 
BRANCH  17  18
ATOM     18  C   UNL     1      31.209  33.255  19.026  1.00  0.00     0.000 C 
BRANCH  18  19
ATOM     19  C   UNL     1      32.690  32.880  19.189  1.00  0.00     0.000 C 
BRANCH  19  20
ATOM     20  C   UNL     1      33.361  33.751  20.262  1.00  0.00     0.006 C 
BRANCH  20  21
ATOM     21  C   UNL     1      34.122  32.915  21.299  1.00  0.00     0.053 C 
BRANCH  21  22
ATOM     22  C   UNL     1      35.378  33.594  21.750  1.00  0.00     0.041 C 
ATOM     23  O   UNL     1      35.342  34.780  22.166  1.00  0.00    -0.550 OA
ATOM     24  O   UNL     1      36.596  32.928  21.672  1.00  0.00    -0.550 OA
ENDBRANCH  21  22
ENDBRANCH  20  21
ENDBRANCH  19  20
ENDBRANCH  18  19
ENDBRANCH  17  18
ENDBRANCH  16  17
ENDBRANCH  15  16
ENDBRANCH  14  15
ENDBRANCH  13  14
ENDBRANCH   1  13
TORSDOF 20
ENDMDL
MODEL 3
REMARK VINA RESULT:    -3.616      2.408      7.178
REMARK INTER + INTRA:         -11.461
REMARK INTER:                  -8.591
REMARK INTRA:                  -2.870
REMARK UNBOUND:                -3.618
REMARK SMILES CCCCCCCCCCCCCCCCCCCCCC(=O)[O-]
REMARK SMILES IDX 12 1 11 2 10 3 9 4 8 5 7 6 6 7 5 8 4 9 3 10 2 11 1 12 13 13
REMARK SMILES IDX 14 14 15 15 16 16 17 17 18 18 19 19 20 20 21 21 22 22 23 23
REMARK SMILES IDX 24 24
REMARK H PARENT
REMARK Flexibility Score: inf
ROOT
ATOM      1  C   UNL     1      32.823  35.195  17.518  1.00  0.00     0.000 C 
ENDROOT
BRANCH   1   2
ATOM      2  C   UNL     1      32.116  34.208  16.579  1.00  0.00     0.000 C 
BRANCH   2   3
ATOM      3  C   UNL     1      32.597  34.389  15.132  1.00  0.00     0.000 C 
BRANCH   3   4
ATOM      4  C   UNL     1      32.819  33.049  14.411  1.00  0.00    -0.000 C 
BRANCH   4   5
ATOM      5  C   UNL     1      34.302  32.642  14.367  1.00  0.00    -0.000 C 
BRANCH   5   6
ATOM      6  C   UNL     1      34.635  31.487  15.330  1.00  0.00    -0.000 C 
BRANCH   6   7
ATOM      7  C   UNL     1      34.947  31.911  16.776  1.00  0.00    -0.000 C 
BRANCH   7   8
ATOM      8  C   UNL     1      33.972  31.309  17.803  1.00  0.00    -0.000 C 
BRANCH   8   9
ATOM      9  C   UNL     1      34.248  31.813  19.237  1.00  0.00    -0.000 C 
BRANCH   9  10
ATOM     10  C   UNL     1      35.512  32.687  19.357  1.00  0.00    -0.000 C 
BRANCH  10  11
ATOM     11  C   UNL     1      36.584  32.142  20.314  1.00  0.00    -0.003 C 
ATOM     12  C   UNL     1      37.997  32.233  19.738  1.00  0.00     0.004 C 
ENDBRANCH  10  11
ENDBRANCH   9  10
ENDBRANCH   8   9
ENDBRANCH   7   8
ENDBRANCH   6   7
ENDBRANCH   5   6
ENDBRANCH   4   5
ENDBRANCH   3   4
ENDBRANCH   2   3
ENDBRANCH   1   2
BRANCH   1  13
ATOM     13  C   UNL     1      32.113  35.270  18.875  1.00  0.00     0.000 C 
BRANCH  13  14
ATOM     14  C   UNL     1      31.325  33.981  19.155  1.00  0.00     0.000 C 
BRANCH  14  15
ATOM     15  C   UNL     1      29.976  34.241  19.853  1.00  0.00     0.000 C 
BRANCH  15  16
ATOM     16  C   UNL     1      29.112  32.988  20.091  1.00  0.00     0.000 C 
BRANCH  16  17
ATOM     17  C   UNL     1      27.897  33.263  20.994  1.00  0.00     0.000 C 
BRANCH  17  18
ATOM     18  C   UNL     1      28.178  34.343  22.052  1.00  0.00     0.000 C 
BRANCH  18  19
ATOM     19  C   UNL     1      28.761  33.767  23.351  1.00  0.00     0.000 C 
BRANCH  19  20
ATOM     20  C   UNL     1      30.226  34.193  23.530  1.00  0.00     0.006 C 
BRANCH  20  21
ATOM     21  C   UNL     1      31.209  33.110  23.065  1.00  0.00     0.053 C 
BRANCH  21  22
ATOM     22  C   UNL     1      32.522  33.693  22.641  1.00  0.00     0.041 C 
ATOM     23  O   UNL     1      32.634  34.933  22.458  1.00  0.00    -0.550 OA
ATOM     24  O   UNL     1      33.611  32.862  22.411  1.00  0.00    -0.550 OA
ENDBRANCH  21  22
ENDBRANCH  20  21
ENDBRANCH  19  20
ENDBRANCH  18  19
ENDBRANCH  17  18
ENDBRANCH  16  17
ENDBRANCH  15  16
ENDBRANCH  14  15
ENDBRANCH  13  14
ENDBRANCH   1  13
TORSDOF 20
ENDMDL
MODEL 4
REMARK VINA RESULT:    -3.570      2.301      5.425
REMARK INTER + INTRA:         -11.363
REMARK INTER:                  -8.187
REMARK INTRA:                  -3.176
REMARK UNBOUND:                -3.618
REMARK SMILES CCCCCCCCCCCCCCCCCCCCCC(=O)[O-]
REMARK SMILES IDX 12 1 11 2 10 3 9 4 8 5 7 6 6 7 5 8 4 9 3 10 2 11 1 12 13 13
REMARK SMILES IDX 14 14 15 15 16 16 17 17 18 18 19 19 20 20 21 21 22 22 23 23
REMARK SMILES IDX 24 24
REMARK H PARENT
REMARK Flexibility Score: inf
ROOT
ATOM      1  C   UNL     1      28.904  32.550  22.020  1.00  0.00     0.000 C 
ENDROOT
BRANCH   1   2
ATOM      2  C   UNL     1      28.856  33.461  20.787  1.00  0.00     0.000 C 
BRANCH   2   3
ATOM      3  C   UNL     1      29.971  33.100  19.795  1.00  0.00     0.000 C 
BRANCH   3   4
ATOM      4  C   UNL     1      30.888  34.292  19.474  1.00  0.00    -0.000 C 
BRANCH   4   5
ATOM      5  C   UNL     1      31.740  34.058  18.215  1.00  0.00    -0.000 C 
BRANCH   5   6
ATOM      6  C   UNL     1      33.144  33.511  18.534  1.00  0.00    -0.000 C 
BRANCH   6   7
ATOM      7  C   UNL     1      33.255  31.977  18.569  1.00  0.00    -0.000 C 
BRANCH   7   8
ATOM      8  C   UNL     1      34.221  31.419  17.508  1.00  0.00    -0.000 C 
BRANCH   8   9
ATOM      9  C   UNL     1      35.035  32.533  16.814  1.00  0.00    -0.000 C 
BRANCH   9  10
ATOM     10  C   UNL     1      35.060  32.419  15.277  1.00  0.00    -0.000 C 
BRANCH  10  11
ATOM     11  C   UNL     1      33.683  32.222  14.622  1.00  0.00    -0.003 C 
ATOM     12  C   UNL     1      32.776  33.445  14.767  1.00  0.00     0.004 C 
ENDBRANCH  10  11
ENDBRANCH   9  10
ENDBRANCH   8   9
ENDBRANCH   7   8
ENDBRANCH   6   7
ENDBRANCH   5   6
ENDBRANCH   4   5
ENDBRANCH   3   4
ENDBRANCH   2   3
ENDBRANCH   1   2
BRANCH   1  13
ATOM     13  C   UNL     1      28.311  33.252  23.248  1.00  0.00     0.000 C 
BRANCH  13  14
ATOM     14  C   UNL     1      28.512  34.773  23.162  1.00  0.00     0.000 C 
BRANCH  14  15
ATOM     15  C   UNL     1      29.785  35.252  23.884  1.00  0.00     0.000 C 
BRANCH  15  16
ATOM     16  C   UNL     1      31.003  35.494  22.972  1.00  0.00     0.000 C 
BRANCH  16  17
ATOM     17  C   UNL     1      32.246  34.702  23.411  1.00  0.00     0.000 C 
BRANCH  17  18
ATOM     18  C   UNL     1      32.329  33.317  22.749  1.00  0.00     0.000 C 
BRANCH  18  19
ATOM     19  C   UNL     1      33.635  33.106  21.969  1.00  0.00     0.000 C 
BRANCH  19  20
ATOM     20  C   UNL     1      34.434  34.415  21.875  1.00  0.00     0.006 C 
BRANCH  20  21
ATOM     21  C   UNL     1      35.741  34.244  21.088  1.00  0.00     0.053 C 
BRANCH  21  22
ATOM     22  C   UNL     1      36.638  33.220  21.712  1.00  0.00     0.041 C 
ATOM     23  O   UNL     1      37.088  32.269  21.022  1.00  0.00    -0.550 OA
ATOM     24  O   UNL     1      36.944  33.293  23.066  1.00  0.00    -0.550 OA
ENDBRANCH  21  22
ENDBRANCH  20  21
ENDBRANCH  19  20
ENDBRANCH  18  19
ENDBRANCH  17  18
ENDBRANCH  16  17
ENDBRANCH  15  16
ENDBRANCH  14  15
ENDBRANCH  13  14
ENDBRANCH   1  13
TORSDOF 20
ENDMDL
MODEL 5
REMARK VINA RESULT:    -3.570      2.169      3.990
REMARK INTER + INTRA:         -11.362
REMARK INTER:                  -7.878
REMARK INTRA:                  -3.484
REMARK UNBOUND:                -3.618
REMARK SMILES CCCCCCCCCCCCCCCCCCCCCC(=O)[O-]
REMARK SMILES IDX 12 1 11 2 10 3 9 4 8 5 7 6 6 7 5 8 4 9 3 10 2 11 1 12 13 13
REMARK SMILES IDX 14 14 15 15 16 16 17 17 18 18 19 19 20 20 21 21 22 22 23 23
REMARK SMILES IDX 24 24
REMARK H PARENT
REMARK Flexibility Score: inf
ROOT
ATOM      1  C   UNL     1      29.502  33.571  23.378  1.00  0.00     0.000 C 
ENDROOT
BRANCH   1   2
ATOM      2  C   UNL     1      28.287  33.082  22.580  1.00  0.00     0.000 C 
BRANCH   2   3
ATOM      3  C   UNL     1      28.691  32.696  21.149  1.00  0.00     0.000 C 
BRANCH   3   4
ATOM      4  C   UNL     1      28.569  33.869  20.162  1.00  0.00    -0.000 C 
BRANCH   4   5
ATOM      5  C   UNL     1      27.109  34.299  19.936  1.00  0.00    -0.000 C 
BRANCH   5   6
ATOM      6  C   UNL     1      26.872  35.792  20.225  1.00  0.00    -0.000 C 
BRANCH   6   7
ATOM      7  C   UNL     1      27.901  36.448  21.161  1.00  0.00    -0.000 C 
BRANCH   7   8
ATOM      8  C   UNL     1      27.277  36.985  22.462  1.00  0.00    -0.000 C 
BRANCH   8   9
ATOM      9  C   UNL     1      28.231  36.850  23.669  1.00  0.00    -0.000 C 
BRANCH   9  10
ATOM     10  C   UNL     1      27.530  36.416  24.971  1.00  0.00    -0.000 C 
BRANCH  10  11
ATOM     11  C   UNL     1      28.478  35.986  26.101  1.00  0.00    -0.003 C 
ATOM     12  C   UNL     1      29.923  36.427  25.865  1.00  0.00     0.004 C 
ENDBRANCH  10  11
ENDBRANCH   9  10
ENDBRANCH   8   9
ENDBRANCH   7   8
ENDBRANCH   6   7
ENDBRANCH   5   6
ENDBRANCH   4   5
ENDBRANCH   3   4
ENDBRANCH   2   3
ENDBRANCH   1   2
BRANCH   1  13
ATOM     13  C   UNL     1      30.757  32.765  23.023  1.00  0.00     0.000 C 
BRANCH  13  14
ATOM     14  C   UNL     1      31.988  33.679  22.923  1.00  0.00     0.000 C 
BRANCH  14  15
ATOM     15  C   UNL     1      31.621  35.171  22.817  1.00  0.00     0.000 C 
BRANCH  15  16
ATOM     16  C   UNL     1      31.498  35.714  21.381  1.00  0.00     0.000 C 
BRANCH  16  17
ATOM     17  C   UNL     1      32.472  35.038  20.401  1.00  0.00     0.000 C 
BRANCH  17  18
ATOM     18  C   UNL     1      31.940  35.016  18.958  1.00  0.00     0.000 C 
BRANCH  18  19
ATOM     19  C   UNL     1      31.758  33.592  18.412  1.00  0.00     0.000 C 
BRANCH  19  20
ATOM     20  C   UNL     1      32.981  33.159  17.590  1.00  0.00     0.006 C 
BRANCH  20  21
ATOM     21  C   UNL     1      33.727  31.982  18.232  1.00  0.00     0.053 C 
BRANCH  21  22
ATOM     22  C   UNL     1      34.940  32.434  18.986  1.00  0.00     0.041 C 
ATOM     23  O   UNL     1      35.430  33.573  18.772  1.00  0.00    -0.550 OA
ATOM     24  O   UNL     1      35.553  31.581  19.895  1.00  0.00    -0.550 OA
ENDBRANCH  21  22
ENDBRANCH  20  21
ENDBRANCH  19  20
ENDBRANCH  18  19
ENDBRANCH  17  18
ENDBRANCH  16  17
ENDBRANCH  15  16
ENDBRANCH  14  15
ENDBRANCH  13  14
ENDBRANCH   1  13
TORSDOF 20
ENDMDL
MODEL 6
REMARK VINA RESULT:    -3.560      1.900      3.994
REMARK INTER + INTRA:         -11.340
REMARK INTER:                  -8.358
REMARK INTRA:                  -2.981
REMARK UNBOUND:                -3.618
REMARK SMILES CCCCCCCCCCCCCCCCCCCCCC(=O)[O-]
REMARK SMILES IDX 12 1 11 2 10 3 9 4 8 5 7 6 6 7 5 8 4 9 3 10 2 11 1 12 13 13
REMARK SMILES IDX 14 14 15 15 16 16 17 17 18 18 19 19 20 20 21 21 22 22 23 23
REMARK SMILES IDX 24 24
REMARK H PARENT
REMARK Flexibility Score: inf
ROOT
ATOM      1  C   UNL     1      32.790  33.216  18.627  1.00  0.00     0.000 C 
ENDROOT
BRANCH   1   2
ATOM      2  C   UNL     1      31.571  33.529  19.505  1.00  0.00     0.000 C 
BRANCH   2   3
ATOM      3  C   UNL     1      31.999  34.213  20.812  1.00  0.00     0.000 C 
BRANCH   3   4
ATOM      4  C   UNL     1      32.027  33.244  22.005  1.00  0.00    -0.000 C 
BRANCH   4   5
ATOM      5  C   UNL     1      30.937  33.558  23.045  1.00  0.00    -0.000 C 
BRANCH   5   6
ATOM      6  C   UNL     1      29.650  32.742  22.830  1.00  0.00    -0.000 C 
BRANCH   6   7
ATOM      7  C   UNL     1      28.341  33.490  23.140  1.00  0.00    -0.000 C 
BRANCH   7   8
ATOM      8  C   UNL     1      28.279  34.886  22.494  1.00  0.00    -0.000 C 
BRANCH   8   9
ATOM      9  C   UNL     1      28.157  34.814  20.955  1.00  0.00    -0.000 C 
BRANCH   9  10
ATOM     10  C   UNL     1      26.712  34.625  20.454  1.00  0.00    -0.000 C 
BRANCH  10  11
ATOM     11  C   UNL     1      26.361  33.191  20.026  1.00  0.00    -0.003 C 
ATOM     12  C   UNL     1      24.875  32.869  20.188  1.00  0.00     0.004 C 
ENDBRANCH  10  11
ENDBRANCH   9  10
ENDBRANCH   8   9
ENDBRANCH   7   8
ENDBRANCH   6   7
ENDBRANCH   5   6
ENDBRANCH   4   5
ENDBRANCH   3   4
ENDBRANCH   2   3
ENDBRANCH   1   2
BRANCH   1  13
ATOM     13  C   UNL     1      33.204  31.746  18.763  1.00  0.00     0.000 C 
BRANCH  13  14
ATOM     14  C   UNL     1      34.713  31.622  19.020  1.00  0.00     0.000 C 
BRANCH  14  15
ATOM     15  C   UNL     1      35.208  32.542  20.152  1.00  0.00     0.000 C 
BRANCH  15  16
ATOM     16  C   UNL     1      36.391  33.456  19.783  1.00  0.00     0.000 C 
BRANCH  16  17
ATOM     17  C   UNL     1      35.944  34.793  19.166  1.00  0.00     0.000 C 
BRANCH  17  18
ATOM     18  C   UNL     1      36.114  34.826  17.638  1.00  0.00     0.000 C 
BRANCH  18  19
ATOM     19  C   UNL     1      37.128  33.790  17.129  1.00  0.00     0.000 C 
BRANCH  19  20
ATOM     20  C   UNL     1      36.476  32.839  16.114  1.00  0.00     0.006 C 
BRANCH  20  21
ATOM     21  C   UNL     1      35.121  33.357  15.617  1.00  0.00     0.053 C 
BRANCH  21  22
ATOM     22  C   UNL     1      34.208  32.239  15.218  1.00  0.00     0.041 C 
ATOM     23  O   UNL     1      33.095  32.489  14.687  1.00  0.00    -0.550 OA
ATOM     24  O   UNL     1      34.569  30.921  15.471  1.00  0.00    -0.550 OA
ENDBRANCH  21  22
ENDBRANCH  20  21
ENDBRANCH  19  20
ENDBRANCH  18  19
ENDBRANCH  17  18
ENDBRANCH  16  17
ENDBRANCH  15  16
ENDBRANCH  14  15
ENDBRANCH  13  14
ENDBRANCH   1  13
TORSDOF 20
ENDMDL
MODEL 7
REMARK VINA RESULT:    -3.528      1.847      3.780
REMARK INTER + INTRA:         -11.272
REMARK INTER:                  -8.171
REMARK INTRA:                  -3.101
REMARK UNBOUND:                -3.618
REMARK SMILES CCCCCCCCCCCCCCCCCCCCCC(=O)[O-]
REMARK SMILES IDX 12 1 11 2 10 3 9 4 8 5 7 6 6 7 5 8 4 9 3 10 2 11 1 12 13 13
REMARK SMILES IDX 14 14 15 15 16 16 17 17 18 18 19 19 20 20 21 21 22 22 23 23
REMARK SMILES IDX 24 24
REMARK H PARENT
REMARK Flexibility Score: inf
ROOT
ATOM      1  C   UNL     1      31.069  35.344  20.021  1.00  0.00     0.000 C 
ENDROOT
BRANCH   1   2
ATOM      2  C   UNL     1      29.655  34.749  20.016  1.00  0.00     0.000 C 
BRANCH   2   3
ATOM      3  C   UNL     1      29.707  33.214  20.056  1.00  0.00     0.000 C 
BRANCH   3   4
ATOM      4  C   UNL     1      28.628  32.610  20.970  1.00  0.00    -0.000 C 
BRANCH   4   5
ATOM      5  C   UNL     1      29.047  32.598  22.450  1.00  0.00    -0.000 C 
BRANCH   5   6
ATOM      6  C   UNL     1      28.217  33.564  23.316  1.00  0.00    -0.000 C 
BRANCH   6   7
ATOM      7  C   UNL     1      29.033  34.611  24.094  1.00  0.00    -0.000 C 
BRANCH   7   8
ATOM      8  C   UNL     1      28.391  36.010  24.076  1.00  0.00    -0.000 C 
BRANCH   8   9
ATOM      9  C   UNL     1      27.583  36.299  25.361  1.00  0.00    -0.000 C 
BRANCH   9  10
ATOM     10  C   UNL     1      28.377  36.062  26.660  1.00  0.00    -0.000 C 
BRANCH  10  11
ATOM     11  C   UNL     1      29.624  36.945  26.825  1.00  0.00    -0.003 C 
ATOM     12  C   UNL     1      30.566  36.445  27.921  1.00  0.00     0.004 C 
ENDBRANCH  10  11
ENDBRANCH   9  10
ENDBRANCH   8   9
ENDBRANCH   7   8
ENDBRANCH   6   7
ENDBRANCH   5   6
ENDBRANCH   4   5
ENDBRANCH   3   4
ENDBRANCH   2   3
ENDBRANCH   1   2
BRANCH   1  13
ATOM     13  C   UNL     1      31.411  35.944  21.390  1.00  0.00     0.000 C 
BRANCH  13  14
ATOM     14  C   UNL     1      32.682  35.306  21.968  1.00  0.00     0.000 C 
BRANCH  14  15
ATOM     15  C   UNL     1      32.399  34.024  22.774  1.00  0.00     0.000 C 
BRANCH  15  16
ATOM     16  C   UNL     1      32.963  32.728  22.162  1.00  0.00     0.000 C 
BRANCH  16  17
ATOM     17  C   UNL     1      34.183  32.976  21.257  1.00  0.00     0.000 C 
BRANCH  17  18
ATOM     18  C   UNL     1      34.206  32.051  20.030  1.00  0.00     0.000 C 
BRANCH  18  19
ATOM     19  C   UNL     1      33.094  32.372  19.020  1.00  0.00     0.000 C 
BRANCH  19  20
ATOM     20  C   UNL     1      33.582  33.378  17.967  1.00  0.00     0.006 C 
BRANCH  20  21
ATOM     21  C   UNL     1      34.683  32.796  17.071  1.00  0.00     0.053 C 
BRANCH  21  22
ATOM     22  C   UNL     1      34.115  32.034  15.914  1.00  0.00     0.041 C 
ATOM     23  O   UNL     1      34.483  30.852  15.692  1.00  0.00    -0.550 OA
ATOM     24  O   UNL     1      33.209  32.645  15.055  1.00  0.00    -0.550 OA
ENDBRANCH  21  22
ENDBRANCH  20  21
ENDBRANCH  19  20
ENDBRANCH  18  19
ENDBRANCH  17  18
ENDBRANCH  16  17
ENDBRANCH  15  16
ENDBRANCH  14  15
ENDBRANCH  13  14
ENDBRANCH   1  13
TORSDOF 20
ENDMDL
MODEL 8
REMARK VINA RESULT:    -3.519      1.599      4.395
REMARK INTER + INTRA:         -11.251
REMARK INTER:                  -7.757
REMARK INTRA:                  -3.494
REMARK UNBOUND:                -3.618
REMARK SMILES CCCCCCCCCCCCCCCCCCCCCC(=O)[O-]
REMARK SMILES IDX 12 1 11 2 10 3 9 4 8 5 7 6 6 7 5 8 4 9 3 10 2 11 1 12 13 13
REMARK SMILES IDX 14 14 15 15 16 16 17 17 18 18 19 19 20 20 21 21 22 22 23 23
REMARK SMILES IDX 24 24
REMARK H PARENT
REMARK Flexibility Score: inf
ROOT
ATOM      1  C   UNL     1      28.673  33.110  23.020  1.00  0.00     0.000 C 
ENDROOT
BRANCH   1   2
ATOM      2  C   UNL     1      30.031  32.396  23.039  1.00  0.00     0.000 C 
BRANCH   2   3
ATOM      3  C   UNL     1      31.183  33.410  23.103  1.00  0.00     0.000 C 
BRANCH   3   4
ATOM      4  C   UNL     1      32.510  32.833  22.583  1.00  0.00    -0.000 C 
BRANCH   4   5
ATOM      5  C   UNL     1      33.579  33.917  22.366  1.00  0.00    -0.000 C 
BRANCH   5   6
ATOM      6  C   UNL     1      32.986  35.335  22.279  1.00  0.00    -0.000 C 
BRANCH   6   7
ATOM      7  C   UNL     1      33.341  36.266  23.452  1.00  0.00    -0.000 C 
BRANCH   7   8
ATOM      8  C   UNL     1      32.102  36.809  24.186  1.00  0.00    -0.000 C 
BRANCH   8   9
ATOM      9  C   UNL     1      30.963  37.183  23.212  1.00  0.00    -0.000 C 
BRANCH   9  10
ATOM     10  C   UNL     1      29.552  36.936  23.782  1.00  0.00    -0.000 C 
BRANCH  10  11
ATOM     11  C   UNL     1      29.514  36.092  25.067  1.00  0.00    -0.003 C 
ATOM     12  C   UNL     1      28.092  35.738  25.503  1.00  0.00     0.004 C 
ENDBRANCH  10  11
ENDBRANCH   9  10
ENDBRANCH   8   9
ENDBRANCH   7   8
ENDBRANCH   6   7
ENDBRANCH   5   6
ENDBRANCH   4   5
ENDBRANCH   3   4
ENDBRANCH   2   3
ENDBRANCH   1   2
BRANCH   1  13
ATOM     13  C   UNL     1      28.136  33.235  21.589  1.00  0.00     0.000 C 
BRANCH  13  14
ATOM     14  C   UNL     1      28.129  34.700  21.131  1.00  0.00     0.000 C 
BRANCH  14  15
ATOM     15  C   UNL     1      29.442  35.120  20.442  1.00  0.00     0.000 C 
BRANCH  15  16
ATOM     16  C   UNL     1      30.166  33.998  19.675  1.00  0.00     0.000 C 
BRANCH  16  17
ATOM     17  C   UNL     1      31.493  34.461  19.050  1.00  0.00     0.000 C 
BRANCH  17  18
ATOM     18  C   UNL     1      32.158  33.368  18.196  1.00  0.00     0.000 C 
BRANCH  18  19
ATOM     19  C   UNL     1      33.114  32.478  19.005  1.00  0.00     0.000 C 
BRANCH  19  20
ATOM     20  C   UNL     1      33.964  31.601  18.075  1.00  0.00     0.006 C 
BRANCH  20  21
ATOM     21  C   UNL     1      35.083  32.394  17.388  1.00  0.00     0.053 C 
BRANCH  21  22
ATOM     22  C   UNL     1      34.955  32.362  15.896  1.00  0.00     0.041 C 
ATOM     23  O   UNL     1      34.592  33.391  15.269  1.00  0.00    -0.550 OA
ATOM     24  O   UNL     1      35.197  31.183  15.201  1.00  0.00    -0.550 OA
ENDBRANCH  21  22
ENDBRANCH  20  21
ENDBRANCH  19  20
ENDBRANCH  18  19
ENDBRANCH  17  18
ENDBRANCH  16  17
ENDBRANCH  15  16
ENDBRANCH  14  15
ENDBRANCH  13  14
ENDBRANCH   1  13
TORSDOF 20
ENDMDL
MODEL 9
REMARK VINA RESULT:    -3.516      4.294      7.100
REMARK INTER + INTRA:         -11.244
REMARK INTER:                  -7.638
REMARK INTRA:                  -3.606
REMARK UNBOUND:                -3.618
REMARK SMILES CCCCCCCCCCCCCCCCCCCCCC(=O)[O-]
REMARK SMILES IDX 12 1 11 2 10 3 9 4 8 5 7 6 6 7 5 8 4 9 3 10 2 11 1 12 13 13
REMARK SMILES IDX 14 14 15 15 16 16 17 17 18 18 19 19 20 20 21 21 22 22 23 23
REMARK SMILES IDX 24 24
REMARK H PARENT
REMARK Flexibility Score: inf
ROOT
ATOM      1  C   UNL     1      31.020  32.704  23.081  1.00  0.00     0.000 C 
ENDROOT
BRANCH   1   2
ATOM      2  C   UNL     1      29.623  32.071  23.090  1.00  0.00     0.000 C 
BRANCH   2   3
ATOM      3  C   UNL     1      28.540  33.130  22.832  1.00  0.00     0.000 C 
BRANCH   3   4
ATOM      4  C   UNL     1      28.017  33.102  21.386  1.00  0.00    -0.000 C 
BRANCH   4   5
ATOM      5  C   UNL     1      28.760  34.092  20.472  1.00  0.00    -0.000 C 
BRANCH   5   6
ATOM      6  C   UNL     1      29.922  33.439  19.701  1.00  0.00    -0.000 C 
BRANCH   6   7
ATOM      7  C   UNL     1      31.064  34.393  19.308  1.00  0.00    -0.000 C 
BRANCH   7   8
ATOM      8  C   UNL     1      31.876  33.894  18.100  1.00  0.00    -0.000 C 
BRANCH   8   9
ATOM      9  C   UNL     1      33.267  33.361  18.510  1.00  0.00    -0.000 C 
BRANCH   9  10
ATOM     10  C   UNL     1      33.677  33.734  19.948  1.00  0.00    -0.000 C 
BRANCH  10  11
ATOM     11  C   UNL     1      34.432  32.632  20.709  1.00  0.00    -0.003 C 
ATOM     12  C   UNL     1      35.266  31.739  19.790  1.00  0.00     0.004 C 
ENDBRANCH  10  11
ENDBRANCH   9  10
ENDBRANCH   8   9
ENDBRANCH   7   8
ENDBRANCH   6   7
ENDBRANCH   5   6
ENDBRANCH   4   5
ENDBRANCH   3   4
ENDBRANCH   2   3
ENDBRANCH   1   2
BRANCH   1  13
ATOM     13  C   UNL     1      30.951  34.198  23.419  1.00  0.00     0.000 C 
BRANCH  13  14
ATOM     14  C   UNL     1      32.266  34.905  23.056  1.00  0.00     0.000 C 
BRANCH  14  15
ATOM     15  C   UNL     1      32.048  36.302  22.443  1.00  0.00     0.000 C 
BRANCH  15  16
ATOM     16  C   UNL     1      30.579  36.676  22.175  1.00  0.00     0.000 C 
BRANCH  16  17
ATOM     17  C   UNL     1      30.194  38.046  22.760  1.00  0.00     0.000 C 
BRANCH  17  18
ATOM     18  C   UNL     1      28.995  37.965  23.719  1.00  0.00     0.000 C 
BRANCH  18  19
ATOM     19  C   UNL     1      28.136  36.711  23.494  1.00  0.00     0.000 C 
BRANCH  19  20
ATOM     20  C   UNL     1      27.853  35.995  24.823  1.00  0.00     0.006 C 
BRANCH  20  21
ATOM     21  C   UNL     1      29.009  36.141  25.821  1.00  0.00     0.053 C 
BRANCH  21  22
ATOM     22  C   UNL     1      28.522  36.169  27.238  1.00  0.00     0.041 C 
ATOM     23  O   UNL     1      29.345  36.204  28.189  1.00  0.00    -0.550 OA
ATOM     24  O   UNL     1      27.160  36.117  27.508  1.00  0.00    -0.550 OA
ENDBRANCH  21  22
ENDBRANCH  20  21
ENDBRANCH  19  20
ENDBRANCH  18  19
ENDBRANCH  17  18
ENDBRANCH  16  17
ENDBRANCH  15  16
ENDBRANCH  14  15
ENDBRANCH  13  14
ENDBRANCH   1  13
TORSDOF 20
ENDMDL
