MODEL 1
REMARK VINA RESULT:    -3.332      0.000      0.000
REMARK INTER + INTRA:         -11.231
REMARK INTER:                  -7.617
REMARK INTRA:                  -3.614
REMARK UNBOUND:                -3.614
REMARK SMILES CCCCCCCCCCCCCCCCCCCCCCCC(=O)[O-]
REMARK SMILES IDX 13 1 14 2 15 3 16 4 17 5 18 6 19 7 20 8 21 9 22 10 23 11
REMARK SMILES IDX 24 12 25 13 26 14 12 15 11 16 10 17 9 18 8 19 7 20 6 21 5 22
REMARK SMILES IDX 4 23 3 24 2 25 1 26
REMARK H PARENT
REMARK Flexibility Score: inf
ROOT
ATOM      1  C   UNL     1      28.788  48.612   9.290  1.00  0.00     0.000 C 
ENDROOT
BRANCH   1   2
ATOM      2  C   UNL     1      27.378  48.438   8.703  1.00  0.00     0.000 C 
BRANCH   2   3
ATOM      3  C   UNL     1      27.336  48.674   7.181  1.00  0.00     0.000 C 
BRANCH   3   4
ATOM      4  C   UNL     1      26.170  49.597   6.766  1.00  0.00     0.000 C 
BRANCH   4   5
ATOM      5  C   UNL     1      25.480  50.292   7.953  1.00  0.00     0.000 C 
BRANCH   5   6
ATOM      6  C   UNL     1      25.610  51.822   7.905  1.00  0.00     0.000 C 
BRANCH   6   7
ATOM      7  C   UNL     1      27.059  52.303   8.087  1.00  0.00     0.000 C 
BRANCH   7   8
ATOM      8  C   UNL     1      27.610  53.012   6.838  1.00  0.00     0.000 C 
BRANCH   8   9
ATOM      9  C   UNL     1      28.916  52.376   6.325  1.00  0.00     0.000 C 
BRANCH   9  10
ATOM     10  C   UNL     1      29.736  51.654   7.412  1.00  0.00     0.006 C 
BRANCH  10  11
ATOM     11  C   UNL     1      30.623  50.539   6.842  1.00  0.00     0.053 C 
BRANCH  11  12
ATOM     12  C   UNL     1      32.054  50.768   7.215  1.00  0.00     0.041 C 
ATOM     13  O   UNL     1      32.749  49.821   7.670  1.00  0.00    -0.550 OA
ATOM     14  O   UNL     1      32.635  52.014   7.014  1.00  0.00    -0.550 OA
ENDBRANCH  11  12
ENDBRANCH  10  11
ENDBRANCH   9  10
ENDBRANCH   8   9
ENDBRANCH   7   8
ENDBRANCH   6   7
ENDBRANCH   5   6
ENDBRANCH   4   5
ENDBRANCH   3   4
ENDBRANCH   2   3
ENDBRANCH   1   2
BRANCH   1  15
ATOM     15  C   UNL     1      29.448  47.271   9.648  1.00  0.00     0.000 C 
BRANCH  15  16
ATOM     16  C   UNL     1      30.909  47.174   9.169  1.00  0.00     0.000 C 
BRANCH  16  17
ATOM     17  C   UNL     1      31.178  46.105   8.095  1.00  0.00     0.000 C 
BRANCH  17  18
ATOM     18  C   UNL     1      30.081  46.043   7.021  1.00  0.00    -0.000 C 
BRANCH  18  19
ATOM     19  C   UNL     1      29.729  44.586   6.685  1.00  0.00    -0.000 C 
BRANCH  19  20
ATOM     20  C   UNL     1      28.213  44.339   6.635  1.00  0.00    -0.000 C 
BRANCH  20  21
ATOM     21  C   UNL     1      27.497  44.787   7.921  1.00  0.00    -0.000 C 
BRANCH  21  22
ATOM     22  C   UNL     1      26.654  43.655   8.546  1.00  0.00    -0.000 C 
BRANCH  22  23
ATOM     23  C   UNL     1      25.848  42.837   7.517  1.00  0.00    -0.000 C 
BRANCH  23  24
ATOM     24  C   UNL     1      26.207  41.341   7.444  1.00  0.00    -0.000 C 
BRANCH  24  25
ATOM     25  C   UNL     1      27.512  40.955   8.165  1.00  0.00    -0.003 C 
ATOM     26  C   UNL     1      28.667  40.685   7.201  1.00  0.00     0.004 C 
ENDBRANCH  24  25
ENDBRANCH  23  24
ENDBRANCH  22  23
ENDBRANCH  21  22
ENDBRANCH  20  21
ENDBRANCH  19  20
ENDBRANCH  18  19
ENDBRANCH  17  18
ENDBRANCH  16  17
ENDBRANCH  15  16
ENDBRANCH   1  15
TORSDOF 22
ENDMDL
MODEL 2
REMARK VINA RESULT:    -3.324      3.146      7.887
REMARK INTER + INTRA:         -11.212
REMARK INTER:                  -7.491
REMARK INTRA:                  -3.721
REMARK UNBOUND:                -3.614
REMARK SMILES CCCCCCCCCCCCCCCCCCCCCCCC(=O)[O-]
REMARK SMILES IDX 13 1 14 2 15 3 16 4 17 5 18 6 19 7 20 8 21 9 22 10 23 11
REMARK SMILES IDX 24 12 25 13 26 14 12 15 11 16 10 17 9 18 8 19 7 20 6 21 5 22
REMARK SMILES IDX 4 23 3 24 2 25 1 26
REMARK H PARENT
REMARK Flexibility Score: inf
ROOT
ATOM      1  C   UNL     1      30.379  47.289   9.150  1.00  0.00     0.000 C 
ENDROOT
BRANCH   1   2
ATOM      2  C   UNL     1      29.326  48.375   8.878  1.00  0.00     0.000 C 
BRANCH   2   3
ATOM      3  C   UNL     1      27.895  47.911   9.213  1.00  0.00     0.000 C 
BRANCH   3   4
ATOM      4  C   UNL     1      26.889  48.273   8.100  1.00  0.00     0.000 C 
BRANCH   4   5
ATOM      5  C   UNL     1      27.450  48.099   6.678  1.00  0.00     0.000 C 
BRANCH   5   6
ATOM      6  C   UNL     1      27.162  46.708   6.091  1.00  0.00     0.000 C 
BRANCH   6   7
ATOM      7  C   UNL     1      28.435  45.868   5.896  1.00  0.00     0.000 C 
BRANCH   7   8
ATOM      8  C   UNL     1      28.719  44.937   7.088  1.00  0.00     0.000 C 
BRANCH   8   9
ATOM      9  C   UNL     1      27.431  44.455   7.781  1.00  0.00     0.000 C 
BRANCH   9  10
ATOM     10  C   UNL     1      26.874  43.130   7.226  1.00  0.00     0.006 C 
BRANCH  10  11
ATOM     11  C   UNL     1      27.106  41.946   8.175  1.00  0.00     0.053 C 
BRANCH  11  12
ATOM     12  C   UNL     1      27.852  40.854   7.476  1.00  0.00     0.041 C 
ATOM     13  O   UNL     1      27.330  39.715   7.344  1.00  0.00    -0.550 OA
ATOM     14  O   UNL     1      29.103  41.107   6.927  1.00  0.00    -0.550 OA
ENDBRANCH  11  12
ENDBRANCH  10  11
ENDBRANCH   9  10
ENDBRANCH   8   9
ENDBRANCH   7   8
ENDBRANCH   6   7
ENDBRANCH   5   6
ENDBRANCH   4   5
ENDBRANCH   3   4
ENDBRANCH   2   3
ENDBRANCH   1   2
BRANCH   1  15
ATOM     15  C   UNL     1      31.634  47.452   8.277  1.00  0.00     0.000 C 
BRANCH  15  16
ATOM     16  C   UNL     1      31.306  47.820   6.818  1.00  0.00     0.000 C 
BRANCH  16  17
ATOM     17  C   UNL     1      31.609  49.278   6.426  1.00  0.00     0.000 C 
BRANCH  17  18
ATOM     18  C   UNL     1      32.388  50.042   7.507  1.00  0.00    -0.000 C 
BRANCH  18  19
ATOM     19  C   UNL     1      32.490  51.533   7.154  1.00  0.00    -0.000 C 
BRANCH  19  20
ATOM     20  C   UNL     1      31.559  51.933   5.998  1.00  0.00    -0.000 C 
BRANCH  20  21
ATOM     21  C   UNL     1      30.845  53.273   6.250  1.00  0.00    -0.000 C 
BRANCH  21  22
ATOM     22  C   UNL     1      29.326  53.096   6.465  1.00  0.00    -0.000 C 
BRANCH  22  23
ATOM     23  C   UNL     1      28.941  51.753   7.115  1.00  0.00    -0.000 C 
BRANCH  23  24
ATOM     24  C   UNL     1      28.110  51.865   8.407  1.00  0.00    -0.000 C 
BRANCH  24  25
ATOM     25  C   UNL     1      26.729  52.522   8.230  1.00  0.00    -0.003 C 
ATOM     26  C   UNL     1      25.794  51.713   7.333  1.00  0.00     0.004 C 
ENDBRANCH  24  25
ENDBRANCH  23  24
ENDBRANCH  22  23
ENDBRANCH  21  22
ENDBRANCH  20  21
ENDBRANCH  19  20
ENDBRANCH  18  19
ENDBRANCH  17  18
ENDBRANCH  16  17
ENDBRANCH  15  16
ENDBRANCH   1  15
TORSDOF 22
ENDMDL
MODEL 3
REMARK VINA RESULT:    -3.120      1.283      2.521
REMARK INTER + INTRA:         -10.746
REMARK INTER:                  -7.266
REMARK INTRA:                  -3.480
REMARK UNBOUND:                -3.614
REMARK SMILES CCCCCCCCCCCCCCCCCCCCCCCC(=O)[O-]
REMARK SMILES IDX 13 1 14 2 15 3 16 4 17 5 18 6 19 7 20 8 21 9 22 10 23 11
REMARK SMILES IDX 24 12 25 13 26 14 12 15 11 16 10 17 9 18 8 19 7 20 6 21 5 22
REMARK SMILES IDX 4 23 3 24 2 25 1 26
REMARK H PARENT
REMARK Flexibility Score: inf
ROOT
ATOM      1  C   UNL     1      30.509  47.895   8.559  1.00  0.00     0.000 C 
ENDROOT
BRANCH   1   2
ATOM      2  C   UNL     1      29.264  47.702   9.438  1.00  0.00     0.000 C 
BRANCH   2   3
ATOM      3  C   UNL     1      28.087  48.598   9.005  1.00  0.00     0.000 C 
BRANCH   3   4
ATOM      4  C   UNL     1      27.833  48.531   7.484  1.00  0.00     0.000 C 
BRANCH   4   5
ATOM      5  C   UNL     1      26.682  49.436   7.009  1.00  0.00     0.000 C 
BRANCH   5   6
ATOM      6  C   UNL     1      26.185  50.392   8.106  1.00  0.00     0.000 C 
BRANCH   6   7
ATOM      7  C   UNL     1      26.840  51.781   8.026  1.00  0.00     0.000 C 
BRANCH   7   8
ATOM      8  C   UNL     1      27.329  52.126   6.608  1.00  0.00     0.000 C 
BRANCH   8   9
ATOM      9  C   UNL     1      28.644  52.928   6.617  1.00  0.00     0.000 C 
BRANCH   9  10
ATOM     10  C   UNL     1      29.879  52.123   6.170  1.00  0.00     0.006 C 
BRANCH  10  11
ATOM     11  C   UNL     1      30.490  51.295   7.307  1.00  0.00     0.053 C 
BRANCH  11  12
ATOM     12  C   UNL     1      31.984  51.384   7.275  1.00  0.00     0.041 C 
ATOM     13  O   UNL     1      32.684  50.453   7.753  1.00  0.00    -0.550 OA
ATOM     14  O   UNL     1      32.603  52.472   6.672  1.00  0.00    -0.550 OA
ENDBRANCH  11  12
ENDBRANCH  10  11
ENDBRANCH   9  10
ENDBRANCH   8   9
ENDBRANCH   7   8
ENDBRANCH   6   7
ENDBRANCH   5   6
ENDBRANCH   4   5
ENDBRANCH   3   4
ENDBRANCH   2   3
ENDBRANCH   1   2
BRANCH   1  15
ATOM     15  C   UNL     1      31.369  46.623   8.466  1.00  0.00     0.000 C 
BRANCH  15  16
ATOM     16  C   UNL     1      30.715  45.518   7.616  1.00  0.00     0.000 C 
BRANCH  16  17
ATOM     17  C   UNL     1      30.075  45.996   6.299  1.00  0.00     0.000 C 
BRANCH  17  18
ATOM     18  C   UNL     1      28.867  45.147   5.876  1.00  0.00    -0.000 C 
BRANCH  18  19
ATOM     19  C   UNL     1      29.066  43.678   6.278  1.00  0.00    -0.000 C 
BRANCH  19  20
ATOM     20  C   UNL     1      27.790  42.839   6.109  1.00  0.00    -0.000 C 
BRANCH  20  21
ATOM     21  C   UNL     1      27.377  42.121   7.406  1.00  0.00    -0.000 C 
BRANCH  21  22
ATOM     22  C   UNL     1      26.913  43.109   8.499  1.00  0.00    -0.000 C 
BRANCH  22  23
ATOM     23  C   UNL     1      25.742  44.013   8.066  1.00  0.00    -0.000 C 
BRANCH  23  24
ATOM     24  C   UNL     1      26.008  45.526   8.178  1.00  0.00    -0.000 C 
BRANCH  24  25
ATOM     25  C   UNL     1      25.023  46.288   9.085  1.00  0.00    -0.003 C 
ATOM     26  C   UNL     1      25.250  46.015  10.571  1.00  0.00     0.004 C 
ENDBRANCH  24  25
ENDBRANCH  23  24
ENDBRANCH  22  23
ENDBRANCH  21  22
ENDBRANCH  20  21
ENDBRANCH  19  20
ENDBRANCH  18  19
ENDBRANCH  17  18
ENDBRANCH  16  17
ENDBRANCH  15  16
ENDBRANCH   1  15
TORSDOF 22
ENDMDL
MODEL 4
REMARK VINA RESULT:    -3.092      3.086      7.647
REMARK INTER + INTRA:         -10.683
REMARK INTER:                  -6.826
REMARK INTRA:                  -3.856
REMARK UNBOUND:                -3.614
REMARK SMILES CCCCCCCCCCCCCCCCCCCCCCCC(=O)[O-]
REMARK SMILES IDX 13 1 14 2 15 3 16 4 17 5 18 6 19 7 20 8 21 9 22 10 23 11
REMARK SMILES IDX 24 12 25 13 26 14 12 15 11 16 10 17 9 18 8 19 7 20 6 21 5 22
REMARK SMILES IDX 4 23 3 24 2 25 1 26
REMARK H PARENT
REMARK Flexibility Score: inf
ROOT
ATOM      1  C   UNL     1      29.791  46.829   8.118  1.00  0.00     0.000 C 
ENDROOT
BRANCH   1   2
ATOM      2  C   UNL     1      29.125  47.501   9.329  1.00  0.00     0.000 C 
BRANCH   2   3
ATOM      3  C   UNL     1      28.268  48.720   8.934  1.00  0.00     0.000 C 
BRANCH   3   4
ATOM      4  C   UNL     1      26.757  48.444   9.088  1.00  0.00     0.000 C 
BRANCH   4   5
ATOM      5  C   UNL     1      25.893  49.111   8.003  1.00  0.00     0.000 C 
BRANCH   5   6
ATOM      6  C   UNL     1      26.196  48.582   6.592  1.00  0.00     0.000 C 
BRANCH   6   7
ATOM      7  C   UNL     1      25.388  47.322   6.242  1.00  0.00     0.000 C 
BRANCH   7   8
ATOM      8  C   UNL     1      26.214  46.030   6.381  1.00  0.00     0.000 C 
BRANCH   8   9
ATOM      9  C   UNL     1      25.859  45.237   7.652  1.00  0.00     0.000 C 
BRANCH   9  10
ATOM     10  C   UNL     1      27.010  44.370   8.198  1.00  0.00     0.006 C 
BRANCH  10  11
ATOM     11  C   UNL     1      27.920  43.827   7.088  1.00  0.00     0.053 C 
BRANCH  11  12
ATOM     12  C   UNL     1      27.819  42.336   7.012  1.00  0.00     0.041 C 
ATOM     13  O   UNL     1      28.777  41.660   6.550  1.00  0.00    -0.550 OA
ATOM     14  O   UNL     1      26.689  41.689   7.496  1.00  0.00    -0.550 OA
ENDBRANCH  11  12
ENDBRANCH  10  11
ENDBRANCH   9  10
ENDBRANCH   8   9
ENDBRANCH   7   8
ENDBRANCH   6   7
ENDBRANCH   5   6
ENDBRANCH   4   5
ENDBRANCH   3   4
ENDBRANCH   2   3
ENDBRANCH   1   2
BRANCH   1  15
ATOM     15  C   UNL     1      29.700  47.685   6.844  1.00  0.00     0.000 C 
BRANCH  15  16
ATOM     16  C   UNL     1      31.071  48.200   6.367  1.00  0.00     0.000 C 
BRANCH  16  17
ATOM     17  C   UNL     1      32.024  48.659   7.486  1.00  0.00     0.000 C 
BRANCH  17  18
ATOM     18  C   UNL     1      31.794  50.116   7.911  1.00  0.00    -0.000 C 
BRANCH  18  19
ATOM     19  C   UNL     1      31.724  51.037   6.683  1.00  0.00    -0.000 C 
BRANCH  19  20
ATOM     20  C   UNL     1      30.589  52.068   6.779  1.00  0.00    -0.000 C 
BRANCH  20  21
ATOM     21  C   UNL     1      29.194  51.418   6.744  1.00  0.00    -0.000 C 
BRANCH  21  22
ATOM     22  C   UNL     1      28.061  52.457   6.887  1.00  0.00    -0.000 C 
BRANCH  22  23
ATOM     23  C   UNL     1      27.410  52.481   8.285  1.00  0.00    -0.000 C 
BRANCH  23  24
ATOM     24  C   UNL     1      25.932  52.914   8.311  1.00  0.00    -0.000 C 
BRANCH  24  25
ATOM     25  C   UNL     1      25.699  54.388   8.692  1.00  0.00    -0.003 C 
ATOM     26  C   UNL     1      26.096  54.700  10.134  1.00  0.00     0.004 C 
ENDBRANCH  24  25
ENDBRANCH  23  24
ENDBRANCH  22  23
ENDBRANCH  21  22
ENDBRANCH  20  21
ENDBRANCH  19  20
ENDBRANCH  18  19
ENDBRANCH  17  18
ENDBRANCH  16  17
ENDBRANCH  15  16
ENDBRANCH   1  15
TORSDOF 22
ENDMDL
MODEL 5
REMARK VINA RESULT:    -3.011      3.151      5.278
REMARK INTER + INTRA:         -10.497
REMARK INTER:                  -8.278
REMARK INTRA:                  -2.219
REMARK UNBOUND:                -3.614
REMARK SMILES CCCCCCCCCCCCCCCCCCCCCCCC(=O)[O-]
REMARK SMILES IDX 13 1 14 2 15 3 16 4 17 5 18 6 19 7 20 8 21 9 22 10 23 11
REMARK SMILES IDX 24 12 25 13 26 14 12 15 11 16 10 17 9 18 8 19 7 20 6 21 5 22
REMARK SMILES IDX 4 23 3 24 2 25 1 26
REMARK H PARENT
REMARK Flexibility Score: inf
ROOT
ATOM      1  C   UNL     1      29.909  45.405   7.379  1.00  0.00     0.000 C 
ENDROOT
BRANCH   1   2
ATOM      2  C   UNL     1      31.254  45.744   8.040  1.00  0.00     0.000 C 
BRANCH   2   3
ATOM      3  C   UNL     1      31.221  47.086   8.797  1.00  0.00     0.000 C 
BRANCH   3   4
ATOM      4  C   UNL     1      32.036  48.181   8.077  1.00  0.00     0.000 C 
BRANCH   4   5
ATOM      5  C   UNL     1      31.642  48.376   6.603  1.00  0.00     0.000 C 
BRANCH   5   6
ATOM      6  C   UNL     1      31.464  49.855   6.225  1.00  0.00     0.000 C 
BRANCH   6   7
ATOM      7  C   UNL     1      30.017  50.346   6.401  1.00  0.00     0.000 C 
BRANCH   7   8
ATOM      8  C   UNL     1      29.813  51.134   7.707  1.00  0.00     0.000 C 
BRANCH   8   9
ATOM      9  C   UNL     1      29.050  50.324   8.771  1.00  0.00     0.000 C 
BRANCH   9  10
ATOM     10  C   UNL     1      28.212  49.164   8.202  1.00  0.00     0.006 C 
BRANCH  10  11
ATOM     11  C   UNL     1      27.936  48.067   9.239  1.00  0.00     0.053 C 
BRANCH  11  12
ATOM     12  C   UNL     1      26.548  47.532   9.078  1.00  0.00     0.041 C 
ATOM     13  O   UNL     1      26.269  46.367   9.467  1.00  0.00    -0.550 OA
ATOM     14  O   UNL     1      25.549  48.338   8.545  1.00  0.00    -0.550 OA
ENDBRANCH  11  12
ENDBRANCH  10  11
ENDBRANCH   9  10
ENDBRANCH   8   9
ENDBRANCH   7   8
ENDBRANCH   6   7
ENDBRANCH   5   6
ENDBRANCH   4   5
ENDBRANCH   3   4
ENDBRANCH   2   3
ENDBRANCH   1   2
BRANCH   1  15
ATOM     15  C   UNL     1      30.023  44.253   6.367  1.00  0.00     0.000 C 
BRANCH  15  16
ATOM     16  C   UNL     1      28.748  43.392   6.293  1.00  0.00     0.000 C 
BRANCH  16  17
ATOM     17  C   UNL     1      27.701  43.674   7.386  1.00  0.00     0.000 C 
BRANCH  17  18
ATOM     18  C   UNL     1      26.844  42.447   7.728  1.00  0.00    -0.000 C 
BRANCH  18  19
ATOM     19  C   UNL     1      27.718  41.189   7.849  1.00  0.00    -0.000 C 
BRANCH  19  20
ATOM     20  C   UNL     1      27.026  39.931   7.300  1.00  0.00    -0.000 C 
BRANCH  20  21
ATOM     21  C   UNL     1      25.578  39.786   7.801  1.00  0.00    -0.000 C 
BRANCH  21  22
ATOM     22  C   UNL     1      25.252  38.342   8.237  1.00  0.00    -0.000 C 
BRANCH  22  23
ATOM     23  C   UNL     1      26.012  37.884   9.498  1.00  0.00    -0.000 C 
BRANCH  23  24
ATOM     24  C   UNL     1      26.020  36.364   9.742  1.00  0.00    -0.000 C 
BRANCH  24  25
ATOM     25  C   UNL     1      27.152  35.602   9.028  1.00  0.00    -0.003 C 
ATOM     26  C   UNL     1      26.680  34.876   7.769  1.00  0.00     0.004 C 
ENDBRANCH  24  25
ENDBRANCH  23  24
ENDBRANCH  22  23
ENDBRANCH  21  22
ENDBRANCH  20  21
ENDBRANCH  19  20
ENDBRANCH  18  19
ENDBRANCH  17  18
ENDBRANCH  16  17
ENDBRANCH  15  16
ENDBRANCH   1  15
TORSDOF 22
ENDMDL
MODEL 6
REMARK VINA RESULT:    -3.004      3.087      7.907
REMARK INTER + INTRA:         -10.482
REMARK INTER:                  -7.469
REMARK INTRA:                  -3.013
REMARK UNBOUND:                -3.614
REMARK SMILES CCCCCCCCCCCCCCCCCCCCCCCC(=O)[O-]
REMARK SMILES IDX 13 1 14 2 15 3 16 4 17 5 18 6 19 7 20 8 21 9 22 10 23 11
REMARK SMILES IDX 24 12 25 13 26 14 12 15 11 16 10 17 9 18 8 19 7 20 6 21 5 22
REMARK SMILES IDX 4 23 3 24 2 25 1 26
REMARK H PARENT
REMARK Flexibility Score: inf
ROOT
ATOM      1  C   UNL     1      31.496  46.173   8.446  1.00  0.00     0.000 C 
ENDROOT
BRANCH   1   2
ATOM      2  C   UNL     1      30.484  45.623   7.428  1.00  0.00     0.000 C 
BRANCH   2   3
ATOM      3  C   UNL     1      29.023  45.849   7.863  1.00  0.00     0.000 C 
BRANCH   3   4
ATOM      4  C   UNL     1      28.051  45.846   6.664  1.00  0.00     0.000 C 
BRANCH   4   5
ATOM      5  C   UNL     1      26.677  45.233   6.984  1.00  0.00     0.000 C 
BRANCH   5   6
ATOM      6  C   UNL     1      26.701  44.336   8.231  1.00  0.00     0.000 C 
BRANCH   6   7
ATOM      7  C   UNL     1      26.942  42.854   7.896  1.00  0.00     0.000 C 
BRANCH   7   8
ATOM      8  C   UNL     1      25.676  42.149   7.380  1.00  0.00     0.000 C 
BRANCH   8   9
ATOM      9  C   UNL     1      25.828  40.617   7.340  1.00  0.00     0.000 C 
BRANCH   9  10
ATOM     10  C   UNL     1      27.245  40.114   7.676  1.00  0.00     0.006 C 
BRANCH  10  11
ATOM     11  C   UNL     1      27.959  39.501   6.463  1.00  0.00     0.053 C 
BRANCH  11  12
ATOM     12  C   UNL     1      29.349  40.042   6.347  1.00  0.00     0.041 C 
ATOM     13  O   UNL     1      30.335  39.257   6.339  1.00  0.00    -0.550 OA
ATOM     14  O   UNL     1      29.554  41.408   6.196  1.00  0.00    -0.550 OA
ENDBRANCH  11  12
ENDBRANCH  10  11
ENDBRANCH   9  10
ENDBRANCH   8   9
ENDBRANCH   7   8
ENDBRANCH   6   7
ENDBRANCH   5   6
ENDBRANCH   4   5
ENDBRANCH   3   4
ENDBRANCH   2   3
ENDBRANCH   1   2
BRANCH   1  15
ATOM     15  C   UNL     1      31.852  47.646   8.187  1.00  0.00     0.000 C 
BRANCH  15  16
ATOM     16  C   UNL     1      31.662  48.059   6.715  1.00  0.00     0.000 C 
BRANCH  16  17
ATOM     17  C   UNL     1      30.772  49.296   6.491  1.00  0.00     0.000 C 
BRANCH  17  18
ATOM     18  C   UNL     1      29.830  49.579   7.669  1.00  0.00    -0.000 C 
BRANCH  18  19
ATOM     19  C   UNL     1      29.842  51.072   8.029  1.00  0.00    -0.000 C 
BRANCH  19  20
ATOM     20  C   UNL     1      28.605  51.497   8.837  1.00  0.00    -0.000 C 
BRANCH  20  21
ATOM     21  C   UNL     1      27.543  52.197   7.971  1.00  0.00    -0.000 C 
BRANCH  21  22
ATOM     22  C   UNL     1      26.229  51.392   7.891  1.00  0.00    -0.000 C 
BRANCH  22  23
ATOM     23  C   UNL     1      26.323  50.129   7.013  1.00  0.00    -0.000 C 
BRANCH  23  24
ATOM     24  C   UNL     1      25.808  48.835   7.670  1.00  0.00    -0.000 C 
BRANCH  24  25
ATOM     25  C   UNL     1      26.585  48.395   8.924  1.00  0.00    -0.003 C 
ATOM     26  C   UNL     1      25.793  47.434   9.809  1.00  0.00     0.004 C 
ENDBRANCH  24  25
ENDBRANCH  23  24
ENDBRANCH  22  23
ENDBRANCH  21  22
ENDBRANCH  20  21
ENDBRANCH  19  20
ENDBRANCH  18  19
ENDBRANCH  17  18
ENDBRANCH  16  17
ENDBRANCH  15  16
ENDBRANCH   1  15
TORSDOF 22
ENDMDL
MODEL 7
REMARK VINA RESULT:    -2.982      3.511      8.338
REMARK INTER + INTRA:         -10.430
REMARK INTER:                  -7.833
REMARK INTRA:                  -2.597
REMARK UNBOUND:                -3.614
REMARK SMILES CCCCCCCCCCCCCCCCCCCCCCCC(=O)[O-]
REMARK SMILES IDX 13 1 14 2 15 3 16 4 17 5 18 6 19 7 20 8 21 9 22 10 23 11
REMARK SMILES IDX 24 12 25 13 26 14 12 15 11 16 10 17 9 18 8 19 7 20 6 21 5 22
REMARK SMILES IDX 4 23 3 24 2 25 1 26
REMARK H PARENT
REMARK Flexibility Score: inf
ROOT
ATOM      1  C   UNL     1      30.303  47.176   8.891  1.00  0.00     0.000 C 
ENDROOT
BRANCH   1   2
ATOM      2  C   UNL     1      29.253  46.508   7.990  1.00  0.00     0.000 C 
BRANCH   2   3
ATOM      3  C   UNL     1      28.157  47.489   7.530  1.00  0.00     0.000 C 
BRANCH   3   4
ATOM      4  C   UNL     1      27.505  48.233   8.715  1.00  0.00     0.000 C 
BRANCH   4   5
ATOM      5  C   UNL     1      26.085  47.742   9.047  1.00  0.00     0.000 C 
BRANCH   5   6
ATOM      6  C   UNL     1      26.073  46.622  10.100  1.00  0.00     0.000 C 
BRANCH   6   7
ATOM      7  C   UNL     1      25.651  45.262   9.520  1.00  0.00     0.000 C 
BRANCH   7   8
ATOM      8  C   UNL     1      25.505  45.290   7.988  1.00  0.00     0.000 C 
BRANCH   8   9
ATOM      9  C   UNL     1      26.322  44.182   7.298  1.00  0.00     0.000 C 
BRANCH   9  10
ATOM     10  C   UNL     1      26.813  43.073   8.248  1.00  0.00     0.006 C 
BRANCH  10  11
ATOM     11  C   UNL     1      26.980  41.720   7.544  1.00  0.00     0.053 C 
BRANCH  11  12
ATOM     12  C   UNL     1      27.196  40.631   8.548  1.00  0.00     0.041 C 
ATOM     13  O   UNL     1      27.889  40.847   9.577  1.00  0.00    -0.550 OA
ATOM     14  O   UNL     1      26.591  39.393   8.372  1.00  0.00    -0.550 OA
ENDBRANCH  11  12
ENDBRANCH  10  11
ENDBRANCH   9  10
ENDBRANCH   8   9
ENDBRANCH   7   8
ENDBRANCH   6   7
ENDBRANCH   5   6
ENDBRANCH   4   5
ENDBRANCH   3   4
ENDBRANCH   2   3
ENDBRANCH   1   2
BRANCH   1  15
ATOM     15  C   UNL     1      31.682  47.274   8.217  1.00  0.00     0.000 C 
BRANCH  15  16
ATOM     16  C   UNL     1      31.865  48.573   7.412  1.00  0.00     0.000 C 
BRANCH  16  17
ATOM     17  C   UNL     1      31.122  49.801   7.970  1.00  0.00     0.000 C 
BRANCH  17  18
ATOM     18  C   UNL     1      31.534  51.114   7.286  1.00  0.00    -0.000 C 
BRANCH  18  19
ATOM     19  C   UNL     1      30.302  51.982   6.988  1.00  0.00    -0.000 C 
BRANCH  19  20
ATOM     20  C   UNL     1      29.066  51.553   7.794  1.00  0.00    -0.000 C 
BRANCH  20  21
ATOM     21  C   UNL     1      27.803  52.342   7.405  1.00  0.00    -0.000 C 
BRANCH  21  22
ATOM     22  C   UNL     1      26.514  51.514   7.597  1.00  0.00    -0.000 C 
BRANCH  22  23
ATOM     23  C   UNL     1      25.307  52.343   8.081  1.00  0.00    -0.000 C 
BRANCH  23  24
ATOM     24  C   UNL     1      25.549  53.861   8.167  1.00  0.00    -0.000 C 
BRANCH  24  25
ATOM     25  C   UNL     1      25.048  54.522   9.465  1.00  0.00    -0.003 C 
ATOM     26  C   UNL     1      26.184  54.927  10.403  1.00  0.00     0.004 C 
ENDBRANCH  24  25
ENDBRANCH  23  24
ENDBRANCH  22  23
ENDBRANCH  21  22
ENDBRANCH  20  21
ENDBRANCH  19  20
ENDBRANCH  18  19
ENDBRANCH  17  18
ENDBRANCH  16  17
ENDBRANCH  15  16
ENDBRANCH   1  15
TORSDOF 22
ENDMDL
MODEL 8
REMARK VINA RESULT:    -2.976      3.245      5.211
REMARK INTER + INTRA:         -10.418
REMARK INTER:                  -8.240
REMARK INTRA:                  -2.178
REMARK UNBOUND:                -3.614
REMARK SMILES CCCCCCCCCCCCCCCCCCCCCCCC(=O)[O-]
REMARK SMILES IDX 13 1 14 2 15 3 16 4 17 5 18 6 19 7 20 8 21 9 22 10 23 11
REMARK SMILES IDX 24 12 25 13 26 14 12 15 11 16 10 17 9 18 8 19 7 20 6 21 5 22
REMARK SMILES IDX 4 23 3 24 2 25 1 26
REMARK H PARENT
REMARK Flexibility Score: inf
ROOT
ATOM      1  C   UNL     1      30.678  46.794   8.676  1.00  0.00     0.000 C 
ENDROOT
BRANCH   1   2
ATOM      2  C   UNL     1      31.969  47.598   8.453  1.00  0.00     0.000 C 
BRANCH   2   3
ATOM      3  C   UNL     1      31.879  48.538   7.235  1.00  0.00     0.000 C 
BRANCH   3   4
ATOM      4  C   UNL     1      32.265  49.990   7.589  1.00  0.00     0.000 C 
BRANCH   4   5
ATOM      5  C   UNL     1      31.066  50.872   7.977  1.00  0.00     0.000 C 
BRANCH   5   6
ATOM      6  C   UNL     1      29.733  50.340   7.425  1.00  0.00     0.000 C 
BRANCH   6   7
ATOM      7  C   UNL     1      28.690  50.089   8.526  1.00  0.00     0.000 C 
BRANCH   7   8
ATOM      8  C   UNL     1      27.806  48.862   8.237  1.00  0.00     0.000 C 
BRANCH   8   9
ATOM      9  C   UNL     1      26.307  49.214   8.185  1.00  0.00     0.000 C 
BRANCH   9  10
ATOM     10  C   UNL     1      25.373  48.062   8.602  1.00  0.00     0.006 C 
BRANCH  10  11
ATOM     11  C   UNL     1      25.997  46.680   8.368  1.00  0.00     0.053 C 
BRANCH  11  12
ATOM     12  C   UNL     1      25.800  45.808   9.568  1.00  0.00     0.041 C 
ATOM     13  O   UNL     1      26.100  44.585   9.518  1.00  0.00    -0.550 OA
ATOM     14  O   UNL     1      25.333  46.355  10.757  1.00  0.00    -0.550 OA
ENDBRANCH  11  12
ENDBRANCH  10  11
ENDBRANCH   9  10
ENDBRANCH   8   9
ENDBRANCH   7   8
ENDBRANCH   6   7
ENDBRANCH   5   6
ENDBRANCH   4   5
ENDBRANCH   3   4
ENDBRANCH   2   3
ENDBRANCH   1   2
BRANCH   1  15
ATOM     15  C   UNL     1      30.515  45.648   7.665  1.00  0.00     0.000 C 
BRANCH  15  16
ATOM     16  C   UNL     1      29.042  45.295   7.390  1.00  0.00     0.000 C 
BRANCH  16  17
ATOM     17  C   UNL     1      28.813  43.971   6.638  1.00  0.00     0.000 C 
BRANCH  17  18
ATOM     18  C   UNL     1      27.327  43.616   6.486  1.00  0.00    -0.000 C 
BRANCH  18  19
ATOM     19  C   UNL     1      27.096  42.118   6.736  1.00  0.00    -0.000 C 
BRANCH  19  20
ATOM     20  C   UNL     1      27.571  41.670   8.127  1.00  0.00    -0.000 C 
BRANCH  20  21
ATOM     21  C   UNL     1      26.998  40.302   8.537  1.00  0.00    -0.000 C 
BRANCH  21  22
ATOM     22  C   UNL     1      26.806  39.362   7.327  1.00  0.00    -0.000 C 
BRANCH  22  23
ATOM     23  C   UNL     1      26.389  37.929   7.711  1.00  0.00    -0.000 C 
BRANCH  23  24
ATOM     24  C   UNL     1      25.844  37.767   9.142  1.00  0.00    -0.000 C 
BRANCH  24  25
ATOM     25  C   UNL     1      26.266  36.466   9.850  1.00  0.00    -0.003 C 
ATOM     26  C   UNL     1      27.048  35.520   8.940  1.00  0.00     0.004 C 
ENDBRANCH  24  25
ENDBRANCH  23  24
ENDBRANCH  22  23
ENDBRANCH  21  22
ENDBRANCH  20  21
ENDBRANCH  19  20
ENDBRANCH  18  19
ENDBRANCH  17  18
ENDBRANCH  16  17
ENDBRANCH  15  16
ENDBRANCH   1  15
TORSDOF 22
ENDMDL
MODEL 9
REMARK VINA RESULT:    -2.962      3.801      8.028
REMARK INTER + INTRA:         -10.385
REMARK INTER:                  -7.084
REMARK INTRA:                  -3.301
REMARK UNBOUND:                -3.614
REMARK SMILES CCCCCCCCCCCCCCCCCCCCCCCC(=O)[O-]
REMARK SMILES IDX 13 1 14 2 15 3 16 4 17 5 18 6 19 7 20 8 21 9 22 10 23 11
REMARK SMILES IDX 24 12 25 13 26 14 12 15 11 16 10 17 9 18 8 19 7 20 6 21 5 22
REMARK SMILES IDX 4 23 3 24 2 25 1 26
REMARK H PARENT
REMARK Flexibility Score: inf
ROOT
ATOM      1  C   UNL     1      28.800  47.347   9.225  1.00  0.00     0.000 C 
ENDROOT
BRANCH   1   2
ATOM      2  C   UNL     1      27.545  48.156   8.860  1.00  0.00     0.000 C 
BRANCH   2   3
ATOM      3  C   UNL     1      26.272  47.612   9.537  1.00  0.00     0.000 C 
BRANCH   3   4
ATOM      4  C   UNL     1      25.204  47.181   8.510  1.00  0.00     0.000 C 
BRANCH   4   5
ATOM      5  C   UNL     1      25.774  46.887   7.111  1.00  0.00     0.000 C 
BRANCH   5   6
ATOM      6  C   UNL     1      25.648  45.407   6.716  1.00  0.00     0.000 C 
BRANCH   6   7
ATOM      7  C   UNL     1      25.375  44.490   7.920  1.00  0.00     0.000 C 
BRANCH   7   8
ATOM      8  C   UNL     1      26.621  43.701   8.359  1.00  0.00     0.000 C 
BRANCH   8   9
ATOM      9  C   UNL     1      27.516  43.302   7.171  1.00  0.00     0.000 C 
BRANCH   9  10
ATOM     10  C   UNL     1      27.484  41.799   6.832  1.00  0.00     0.006 C 
BRANCH  10  11
ATOM     11  C   UNL     1      26.332  41.060   7.526  1.00  0.00     0.053 C 
BRANCH  11  12
ATOM     12  C   UNL     1      26.677  39.617   7.718  1.00  0.00     0.041 C 
ATOM     13  O   UNL     1      27.384  39.016   6.866  1.00  0.00    -0.550 OA
ATOM     14  O   UNL     1      26.260  38.948   8.862  1.00  0.00    -0.550 OA
ENDBRANCH  11  12
ENDBRANCH  10  11
ENDBRANCH   9  10
ENDBRANCH   8   9
ENDBRANCH   7   8
ENDBRANCH   6   7
ENDBRANCH   5   6
ENDBRANCH   4   5
ENDBRANCH   3   4
ENDBRANCH   2   3
ENDBRANCH   1   2
BRANCH   1  15
ATOM     15  C   UNL     1      29.283  46.454   8.071  1.00  0.00     0.000 C 
BRANCH  15  16
ATOM     16  C   UNL     1      30.788  46.138   8.145  1.00  0.00     0.000 C 
BRANCH  16  17
ATOM     17  C   UNL     1      31.693  47.335   8.494  1.00  0.00     0.000 C 
BRANCH  17  18
ATOM     18  C   UNL     1      32.029  48.208   7.277  1.00  0.00    -0.000 C 
BRANCH  18  19
ATOM     19  C   UNL     1      31.676  49.679   7.548  1.00  0.00    -0.000 C 
BRANCH  19  20
ATOM     20  C   UNL     1      30.267  50.050   7.059  1.00  0.00    -0.000 C 
BRANCH  20  21
ATOM     21  C   UNL     1      29.639  51.192   7.877  1.00  0.00    -0.000 C 
BRANCH  21  22
ATOM     22  C   UNL     1      28.954  52.246   6.980  1.00  0.00    -0.000 C 
BRANCH  22  23
ATOM     23  C   UNL     1      27.417  52.265   7.103  1.00  0.00    -0.000 C 
BRANCH  23  24
ATOM     24  C   UNL     1      26.700  51.027   6.533  1.00  0.00    -0.000 C 
BRANCH  24  25
ATOM     25  C   UNL     1      25.339  50.714   7.182  1.00  0.00    -0.003 C 
ATOM     26  C   UNL     1      24.875  51.805   8.147  1.00  0.00     0.004 C 
ENDBRANCH  24  25
ENDBRANCH  23  24
ENDBRANCH  22  23
ENDBRANCH  21  22
ENDBRANCH  20  21
ENDBRANCH  19  20
ENDBRANCH  18  19
ENDBRANCH  17  18
ENDBRANCH  16  17
ENDBRANCH  15  16
ENDBRANCH   1  15
TORSDOF 22
ENDMDL
