MODEL 1
REMARK VINA RESULT:    -5.768      0.000      0.000
REMARK INTER + INTRA:          -7.095
REMARK INTER:                  -6.779
REMARK INTRA:                  -0.316
REMARK UNBOUND:                -0.316
REMARK SMILES O=c1cc(-c2ccc(O)c(O)c2)oc2cc(O)cc(O)c12
REMARK SMILES IDX 4 1 3 2 2 3 1 4 21 5 19 6 18 7 16 8 15 9 14 10 13 11 5 12
REMARK SMILES IDX 6 13 7 14 8 15 12 16 10 17 9 18 11 20 20 22 17 24
REMARK H PARENT 9 19 11 21 20 23 17 25
REMARK Flexibility Score: inf
ROOT
ATOM      1  C   UNL     1      29.147  22.934 -13.730  1.00  0.00     0.138 A 
ATOM      2  C   UNL     1      28.502  21.821 -13.167  1.00  0.00     0.100 A 
ATOM      3  C   UNL     1      27.642  22.000 -12.082  1.00  0.00     0.197 A 
ATOM      4  O   UNL     1      27.069  20.994 -11.583  1.00  0.00    -0.289 OA
ATOM      5  C   UNL     1      27.436  23.295 -11.565  1.00  0.00     0.107 A 
ATOM      6  C   UNL     1      26.581  23.565 -10.471  1.00  0.00     0.134 A 
ATOM      7  C   UNL     1      26.434  24.882 -10.011  1.00  0.00     0.093 A 
ATOM      8  C   UNL     1      27.123  25.932 -10.625  1.00  0.00     0.123 A 
ATOM      9  C   UNL     1      27.970  25.670 -11.707  1.00  0.00     0.094 A 
ATOM     10  C   UNL     1      28.129  24.365 -12.180  1.00  0.00     0.146 A 
ATOM     11  O   UNL     1      28.938  24.142 -13.212  1.00  0.00    -0.456 OA
ENDROOT
BRANCH   1  12
ATOM     12  C   UNL     1      30.073  22.802 -14.883  1.00  0.00     0.021 A 
ATOM     13  C   UNL     1      30.521  21.527 -15.268  1.00  0.00     0.016 A 
ATOM     14  C   UNL     1      31.397  21.376 -16.344  1.00  0.00     0.051 A 
ATOM     15  C   UNL     1      31.851  22.498 -17.049  1.00  0.00     0.157 A 
ATOM     16  C   UNL     1      30.542  23.928 -15.588  1.00  0.00     0.062 A 
ATOM     17  C   UNL     1      31.422  23.779 -16.666  1.00  0.00     0.158 A 
BRANCH  15  18
ATOM     18  O   UNL     1      32.724  22.344 -18.125  1.00  0.00    -0.504 OA
ATOM     19  H   UNL     1      33.588  21.822 -18.036  1.00  0.00     0.293 HD
ENDBRANCH  15  18
BRANCH  17  20
ATOM     20  O   UNL     1      31.864  24.917 -17.341  1.00  0.00    -0.504 OA
ATOM     21  H   UNL     1      32.574  24.874 -18.062  1.00  0.00     0.293 HD
ENDBRANCH  17  20
ENDBRANCH   1  12
BRANCH   6  22
ATOM     22  O   UNL     1      25.880  22.537  -9.837  1.00  0.00    -0.507 OA
ATOM     23  H   UNL     1      25.659  22.573  -8.848  1.00  0.00     0.293 HD
ENDBRANCH   6  22
BRANCH   8  24
ATOM     24  O   UNL     1      26.960  27.231 -10.149  1.00  0.00    -0.508 OA
ATOM     25  H   UNL     1      26.166  27.798 -10.419  1.00  0.00     0.293 HD
ENDBRANCH   8  24
TORSDOF 5
ENDMDL
MODEL 2
REMARK VINA RESULT:    -5.410      2.436      6.991
REMARK INTER + INTRA:          -6.675
REMARK INTER:                  -6.411
REMARK INTRA:                  -0.264
REMARK UNBOUND:                -0.316
REMARK SMILES O=c1cc(-c2ccc(O)c(O)c2)oc2cc(O)cc(O)c12
REMARK SMILES IDX 4 1 3 2 2 3 1 4 21 5 19 6 18 7 16 8 15 9 14 10 13 11 5 12
REMARK SMILES IDX 6 13 7 14 8 15 12 16 10 17 9 18 11 20 20 22 17 24
REMARK H PARENT 9 19 11 21 20 23 17 25
REMARK Flexibility Score: inf
ROOT
ATOM      1  C   UNL     1      28.136  23.546 -13.795  1.00  0.00     0.138 A 
ATOM      2  C   UNL     1      29.386  23.616 -14.431  1.00  0.00     0.100 A 
ATOM      3  C   UNL     1      29.713  22.675 -15.408  1.00  0.00     0.197 A 
ATOM      4  O   UNL     1      30.839  22.745 -15.972  1.00  0.00    -0.289 OA
ATOM      5  C   UNL     1      28.786  21.668 -15.742  1.00  0.00     0.107 A 
ATOM      6  C   UNL     1      29.037  20.677 -16.721  1.00  0.00     0.134 A 
ATOM      7  C   UNL     1      28.064  19.704 -16.991  1.00  0.00     0.093 A 
ATOM      8  C   UNL     1      26.848  19.702 -16.304  1.00  0.00     0.123 A 
ATOM      9  C   UNL     1      26.595  20.679 -15.334  1.00  0.00     0.094 A 
ATOM     10  C   UNL     1      27.551  21.658 -15.051  1.00  0.00     0.146 A 
ATOM     11  O   UNL     1      27.286  22.576 -14.127  1.00  0.00    -0.456 OA
ENDROOT
BRANCH   1  12
ATOM     12  C   UNL     1      27.734  24.519 -12.747  1.00  0.00     0.021 A 
ATOM     13  C   UNL     1      27.015  25.671 -13.113  1.00  0.00     0.016 A 
ATOM     14  C   UNL     1      26.632  26.604 -12.148  1.00  0.00     0.051 A 
ATOM     15  C   UNL     1      26.969  26.411 -10.803  1.00  0.00     0.157 A 
ATOM     16  C   UNL     1      28.082  24.336 -11.395  1.00  0.00     0.062 A 
ATOM     17  C   UNL     1      27.700  25.272 -10.427  1.00  0.00     0.158 A 
BRANCH  15  18
ATOM     18  O   UNL     1      26.584  27.344  -9.841  1.00  0.00    -0.504 OA
ATOM     19  H   UNL     1      27.220  28.062  -9.515  1.00  0.00     0.293 HD
ENDBRANCH  15  18
BRANCH  17  20
ATOM     20  O   UNL     1      28.061  25.056  -9.097  1.00  0.00    -0.504 OA
ATOM     21  H   UNL     1      27.380  24.821  -8.385  1.00  0.00     0.293 HD
ENDBRANCH  17  20
ENDBRANCH   1  12
BRANCH   6  22
ATOM     22  O   UNL     1      30.243  20.653 -17.424  1.00  0.00    -0.507 OA
ATOM     23  H   UNL     1      30.538  21.432 -18.003  1.00  0.00     0.293 HD
ENDBRANCH   6  22
BRANCH   8  24
ATOM     24  O   UNL     1      25.898  18.725 -16.590  1.00  0.00    -0.508 OA
ATOM     25  H   UNL     1      25.829  17.876 -16.042  1.00  0.00     0.293 HD
ENDBRANCH   8  24
TORSDOF 5
ENDMDL
MODEL 3
REMARK VINA RESULT:    -5.356      1.571      6.969
REMARK INTER + INTRA:          -6.612
REMARK INTER:                  -6.316
REMARK INTRA:                  -0.296
REMARK UNBOUND:                -0.316
REMARK SMILES O=c1cc(-c2ccc(O)c(O)c2)oc2cc(O)cc(O)c12
REMARK SMILES IDX 4 1 3 2 2 3 1 4 21 5 19 6 18 7 16 8 15 9 14 10 13 11 5 12
REMARK SMILES IDX 6 13 7 14 8 15 12 16 10 17 9 18 11 20 20 22 17 24
REMARK H PARENT 9 19 11 21 20 23 17 25
REMARK Flexibility Score: inf
ROOT
ATOM      1  C   UNL     1      28.709  23.271 -13.854  1.00  0.00     0.138 A 
ATOM      2  C   UNL     1      28.244  22.033 -14.326  1.00  0.00     0.100 A 
ATOM      3  C   UNL     1      28.813  21.477 -15.473  1.00  0.00     0.197 A 
ATOM      4  O   UNL     1      28.387  20.365 -15.889  1.00  0.00    -0.289 OA
ATOM      5  C   UNL     1      29.842  22.167 -16.143  1.00  0.00     0.107 A 
ATOM      6  C   UNL     1      30.473  21.675 -17.310  1.00  0.00     0.134 A 
ATOM      7  C   UNL     1      31.487  22.426 -17.922  1.00  0.00     0.093 A 
ATOM      8  C   UNL     1      31.882  23.656 -17.390  1.00  0.00     0.123 A 
ATOM      9  C   UNL     1      31.261  24.148 -16.237  1.00  0.00     0.094 A 
ATOM     10  C   UNL     1      30.249  23.414 -15.612  1.00  0.00     0.146 A 
ATOM     11  O   UNL     1      29.676  23.902 -14.516  1.00  0.00    -0.456 OA
ENDROOT
BRANCH   1  12
ATOM     12  C   UNL     1      28.140  23.910 -12.640  1.00  0.00     0.021 A 
ATOM     13  C   UNL     1      28.500  25.232 -12.322  1.00  0.00     0.016 A 
ATOM     14  C   UNL     1      27.986  25.854 -11.183  1.00  0.00     0.051 A 
ATOM     15  C   UNL     1      27.111  25.163 -10.335  1.00  0.00     0.157 A 
ATOM     16  C   UNL     1      27.271  23.217 -11.777  1.00  0.00     0.062 A 
ATOM     17  C   UNL     1      26.755  23.838 -10.633  1.00  0.00     0.158 A 
BRANCH  15  18
ATOM     18  O   UNL     1      26.597  25.787  -9.199  1.00  0.00    -0.504 OA
ATOM     19  H   UNL     1      26.125  25.261  -8.473  1.00  0.00     0.293 HD
ENDBRANCH  15  18
BRANCH  17  20
ATOM     20  O   UNL     1      25.895  23.120  -9.802  1.00  0.00    -0.504 OA
ATOM     21  H   UNL     1      25.073  23.540  -9.385  1.00  0.00     0.293 HD
ENDBRANCH  17  20
ENDBRANCH   1  12
BRANCH   6  22
ATOM     22  O   UNL     1      30.100  20.449 -17.864  1.00  0.00    -0.507 OA
ATOM     23  H   UNL     1      30.096  19.596 -17.317  1.00  0.00     0.293 HD
ENDBRANCH   6  22
BRANCH   8  24
ATOM     24  O   UNL     1      32.892  24.383 -18.017  1.00  0.00    -0.508 OA
ATOM     25  H   UNL     1      33.233  24.132 -18.937  1.00  0.00     0.293 HD
ENDBRANCH   8  24
TORSDOF 5
ENDMDL
MODEL 4
REMARK VINA RESULT:    -5.226      2.207      6.785
REMARK INTER + INTRA:          -6.459
REMARK INTER:                  -6.194
REMARK INTRA:                  -0.265
REMARK UNBOUND:                -0.316
REMARK SMILES O=c1cc(-c2ccc(O)c(O)c2)oc2cc(O)cc(O)c12
REMARK SMILES IDX 4 1 3 2 2 3 1 4 21 5 19 6 18 7 16 8 15 9 14 10 13 11 5 12
REMARK SMILES IDX 6 13 7 14 8 15 12 16 10 17 9 18 11 20 20 22 17 24
REMARK H PARENT 9 19 11 21 20 23 17 25
REMARK Flexibility Score: inf
ROOT
ATOM      1  C   UNL     1      27.417  23.131 -13.561  1.00  0.00     0.138 A 
ATOM      2  C   UNL     1      26.484  22.091 -13.704  1.00  0.00     0.100 A 
ATOM      3  C   UNL     1      26.719  21.082 -14.640  1.00  0.00     0.197 A 
ATOM      4  O   UNL     1      25.875  20.153 -14.761  1.00  0.00    -0.289 OA
ATOM      5  C   UNL     1      27.886  21.122 -15.428  1.00  0.00     0.107 A 
ATOM      6  C   UNL     1      28.201  20.140 -16.397  1.00  0.00     0.134 A 
ATOM      7  C   UNL     1      29.380  20.256 -17.147  1.00  0.00     0.093 A 
ATOM      8  C   UNL     1      30.249  21.332 -16.946  1.00  0.00     0.123 A 
ATOM      9  C   UNL     1      29.943  22.306 -15.990  1.00  0.00     0.094 A 
ATOM     10  C   UNL     1      28.772  22.208 -15.232  1.00  0.00     0.146 A 
ATOM     11  O   UNL     1      28.504  23.145 -14.329  1.00  0.00    -0.456 OA
ENDROOT
BRANCH   1  12
ATOM     12  C   UNL     1      27.219  24.232 -12.584  1.00  0.00     0.021 A 
ATOM     13  C   UNL     1      26.506  25.380 -12.971  1.00  0.00     0.016 A 
ATOM     14  C   UNL     1      26.312  26.432 -12.074  1.00  0.00     0.051 A 
ATOM     15  C   UNL     1      26.835  26.361 -10.778  1.00  0.00     0.157 A 
ATOM     16  C   UNL     1      27.753  24.172 -11.283  1.00  0.00     0.062 A 
ATOM     17  C   UNL     1      27.562  25.226 -10.382  1.00  0.00     0.158 A 
BRANCH  15  18
ATOM     18  O   UNL     1      26.638  27.412  -9.883  1.00  0.00    -0.504 OA
ATOM     19  H   UNL     1      27.001  28.340 -10.068  1.00  0.00     0.293 HD
ENDBRANCH  15  18
BRANCH  17  20
ATOM     20  O   UNL     1      28.105  25.130  -9.101  1.00  0.00    -0.504 OA
ATOM     21  H   UNL     1      29.069  24.861  -8.944  1.00  0.00     0.293 HD
ENDBRANCH  17  20
ENDBRANCH   1  12
BRANCH   6  22
ATOM     22  O   UNL     1      27.352  19.055 -16.620  1.00  0.00    -0.507 OA
ATOM     23  H   UNL     1      27.610  18.112 -16.349  1.00  0.00     0.293 HD
ENDBRANCH   6  22
BRANCH   8  24
ATOM     24  O   UNL     1      31.414  21.424 -17.704  1.00  0.00    -0.508 OA
ATOM     25  H   UNL     1      32.330  21.314 -17.284  1.00  0.00     0.293 HD
ENDBRANCH   8  24
TORSDOF 5
ENDMDL
MODEL 5
REMARK VINA RESULT:    -4.844     10.408     13.484
REMARK INTER + INTRA:          -6.009
REMARK INTER:                  -5.737
REMARK INTRA:                  -0.273
REMARK UNBOUND:                -0.316
REMARK SMILES O=c1cc(-c2ccc(O)c(O)c2)oc2cc(O)cc(O)c12
REMARK SMILES IDX 4 1 3 2 2 3 1 4 21 5 19 6 18 7 16 8 15 9 14 10 13 11 5 12
REMARK SMILES IDX 6 13 7 14 8 15 12 16 10 17 9 18 11 20 20 22 17 24
REMARK H PARENT 9 19 11 21 20 23 17 25
REMARK Flexibility Score: inf
ROOT
ATOM      1  C   UNL     1      30.544  34.905 -10.752  1.00  0.00     0.138 A 
ATOM      2  C   UNL     1      29.726  35.607 -11.652  1.00  0.00     0.100 A 
ATOM      3  C   UNL     1      29.897  35.421 -13.025  1.00  0.00     0.197 A 
ATOM      4  O   UNL     1      29.159  36.057 -13.824  1.00  0.00    -0.289 OA
ATOM      5  C   UNL     1      30.890  34.535 -13.488  1.00  0.00     0.107 A 
ATOM      6  C   UNL     1      31.129  34.288 -14.860  1.00  0.00     0.134 A 
ATOM      7  C   UNL     1      32.141  33.395 -15.241  1.00  0.00     0.093 A 
ATOM      8  C   UNL     1      32.917  32.746 -14.278  1.00  0.00     0.123 A 
ATOM      9  C   UNL     1      32.686  32.986 -12.919  1.00  0.00     0.094 A 
ATOM     10  C   UNL     1      31.681  33.872 -12.519  1.00  0.00     0.146 A 
ATOM     11  O   UNL     1      31.479  34.082 -11.223  1.00  0.00    -0.456 OA
ENDROOT
BRANCH   1  12
ATOM     12  C   UNL     1      30.407  35.063  -9.282  1.00  0.00     0.021 A 
ATOM     13  C   UNL     1      30.716  36.300  -8.688  1.00  0.00     0.016 A 
ATOM     14  C   UNL     1      30.603  36.473  -7.308  1.00  0.00     0.051 A 
ATOM     15  C   UNL     1      30.191  35.412  -6.493  1.00  0.00     0.157 A 
ATOM     16  C   UNL     1      30.005  33.996  -8.456  1.00  0.00     0.062 A 
ATOM     17  C   UNL     1      29.893  34.167  -7.071  1.00  0.00     0.158 A 
BRANCH  15  18
ATOM     18  O   UNL     1      30.077  35.588  -5.115  1.00  0.00    -0.504 OA
ATOM     19  H   UNL     1      29.191  35.820  -4.682  1.00  0.00     0.293 HD
ENDBRANCH  15  18
BRANCH  17  20
ATOM     20  O   UNL     1      29.491  33.086  -6.286  1.00  0.00    -0.504 OA
ATOM     21  H   UNL     1      28.515  32.843  -6.164  1.00  0.00     0.293 HD
ENDBRANCH  17  20
ENDBRANCH   1  12
BRANCH   6  22
ATOM     22  O   UNL     1      30.370  34.923 -15.846  1.00  0.00    -0.507 OA
ATOM     23  H   UNL     1      30.766  35.172 -16.746  1.00  0.00     0.293 HD
ENDBRANCH   6  22
BRANCH   8  24
ATOM     24  O   UNL     1      33.916  31.864 -14.681  1.00  0.00    -0.508 OA
ATOM     25  H   UNL     1      34.884  32.001 -14.414  1.00  0.00     0.293 HD
ENDBRANCH   8  24
TORSDOF 5
ENDMDL
MODEL 6
REMARK VINA RESULT:    -4.627      3.139      6.293
REMARK INTER + INTRA:          -5.755
REMARK INTER:                  -5.441
REMARK INTRA:                  -0.314
REMARK UNBOUND:                -0.316
REMARK SMILES O=c1cc(-c2ccc(O)c(O)c2)oc2cc(O)cc(O)c12
REMARK SMILES IDX 4 1 3 2 2 3 1 4 21 5 19 6 18 7 16 8 15 9 14 10 13 11 5 12
REMARK SMILES IDX 6 13 7 14 8 15 12 16 10 17 9 18 11 20 20 22 17 24
REMARK H PARENT 9 19 11 21 20 23 17 25
REMARK Flexibility Score: inf
ROOT
ATOM      1  C   UNL     1      28.897  25.581 -15.125  1.00  0.00     0.138 A 
ATOM      2  C   UNL     1      29.628  25.081 -16.215  1.00  0.00     0.100 A 
ATOM      3  C   UNL     1      30.224  23.822 -16.122  1.00  0.00     0.197 A 
ATOM      4  O   UNL     1      30.880  23.382 -17.106  1.00  0.00    -0.289 OA
ATOM      5  C   UNL     1      30.087  23.073 -14.937  1.00  0.00     0.107 A 
ATOM      6  C   UNL     1      30.657  21.790 -14.761  1.00  0.00     0.134 A 
ATOM      7  C   UNL     1      30.480  21.111 -13.546  1.00  0.00     0.093 A 
ATOM      8  C   UNL     1      29.745  21.688 -12.508  1.00  0.00     0.123 A 
ATOM      9  C   UNL     1      29.180  22.957 -12.676  1.00  0.00     0.094 A 
ATOM     10  C   UNL     1      29.344  23.649 -13.879  1.00  0.00     0.146 A 
ATOM     11  O   UNL     1      28.795  24.852 -14.016  1.00  0.00    -0.456 OA
ENDROOT
BRANCH   1  12
ATOM     12  C   UNL     1      28.243  26.914 -15.166  1.00  0.00     0.021 A 
ATOM     13  C   UNL     1      28.040  27.545 -16.405  1.00  0.00     0.016 A 
ATOM     14  C   UNL     1      27.433  28.801 -16.471  1.00  0.00     0.051 A 
ATOM     15  C   UNL     1      27.029  29.454 -15.300  1.00  0.00     0.157 A 
ATOM     16  C   UNL     1      27.846  27.580 -13.991  1.00  0.00     0.062 A 
ATOM     17  C   UNL     1      27.240  28.840 -14.054  1.00  0.00     0.158 A 
BRANCH  15  18
ATOM     18  O   UNL     1      26.422  30.707 -15.369  1.00  0.00    -0.504 OA
ATOM     19  H   UNL     1      26.610  31.425 -14.679  1.00  0.00     0.293 HD
ENDBRANCH  15  18
BRANCH  17  20
ATOM     20  O   UNL     1      26.859  29.469 -12.869  1.00  0.00    -0.504 OA
ATOM     21  H   UNL     1      25.897  29.481 -12.551  1.00  0.00     0.293 HD
ENDBRANCH  17  20
ENDBRANCH   1  12
BRANCH   6  22
ATOM     22  O   UNL     1      31.397  21.188 -15.780  1.00  0.00    -0.507 OA
ATOM     23  H   UNL     1      32.149  20.537 -15.580  1.00  0.00     0.293 HD
ENDBRANCH   6  22
BRANCH   8  24
ATOM     24  O   UNL     1      29.584  20.993 -11.312  1.00  0.00    -0.508 OA
ATOM     25  H   UNL     1      29.666  19.984 -11.269  1.00  0.00     0.293 HD
ENDBRANCH   8  24
TORSDOF 5
ENDMDL
MODEL 7
REMARK VINA RESULT:    -4.567      1.689      6.859
REMARK INTER + INTRA:          -5.684
REMARK INTER:                  -5.387
REMARK INTRA:                  -0.297
REMARK UNBOUND:                -0.316
REMARK SMILES O=c1cc(-c2ccc(O)c(O)c2)oc2cc(O)cc(O)c12
REMARK SMILES IDX 4 1 3 2 2 3 1 4 21 5 19 6 18 7 16 8 15 9 14 10 13 11 5 12
REMARK SMILES IDX 6 13 7 14 8 15 12 16 10 17 9 18 11 20 20 22 17 24
REMARK H PARENT 9 19 11 21 20 23 17 25
REMARK Flexibility Score: inf
ROOT
ATOM      1  C   UNL     1      28.869  23.842 -12.604  1.00  0.00     0.138 A 
ATOM      2  C   UNL     1      29.249  22.622 -12.021  1.00  0.00     0.100 A 
ATOM      3  C   UNL     1      29.987  21.704 -12.769  1.00  0.00     0.197 A 
ATOM      4  O   UNL     1      30.322  20.611 -12.237  1.00  0.00    -0.289 OA
ATOM      5  C   UNL     1      30.337  22.012 -14.098  1.00  0.00     0.107 A 
ATOM      6  C   UNL     1      31.084  21.139 -14.925  1.00  0.00     0.134 A 
ATOM      7  C   UNL     1      31.387  21.517 -16.241  1.00  0.00     0.093 A 
ATOM      8  C   UNL     1      30.960  22.748 -16.745  1.00  0.00     0.123 A 
ATOM      9  C   UNL     1      30.220  23.614 -15.933  1.00  0.00     0.094 A 
ATOM     10  C   UNL     1      29.909  23.257 -14.618  1.00  0.00     0.146 A 
ATOM     11  O   UNL     1      29.208  24.098 -13.865  1.00  0.00    -0.456 OA
ENDROOT
BRANCH   1  12
ATOM     12  C   UNL     1      28.082  24.856 -11.856  1.00  0.00     0.021 A 
ATOM     13  C   UNL     1      27.672  26.031 -12.509  1.00  0.00     0.016 A 
ATOM     14  C   UNL     1      26.938  27.004 -11.827  1.00  0.00     0.051 A 
ATOM     15  C   UNL     1      26.610  26.825 -10.478  1.00  0.00     0.157 A 
ATOM     16  C   UNL     1      27.761  24.688 -10.495  1.00  0.00     0.062 A 
ATOM     17  C   UNL     1      27.027  25.662  -9.809  1.00  0.00     0.158 A 
BRANCH  15  18
ATOM     18  O   UNL     1      25.876  27.797  -9.799  1.00  0.00    -0.504 OA
ATOM     19  H   UNL     1      24.889  27.674  -9.604  1.00  0.00     0.293 HD
ENDBRANCH  15  18
BRANCH  17  20
ATOM     20  O   UNL     1      26.726  25.460  -8.462  1.00  0.00    -0.504 OA
ATOM     21  H   UNL     1      26.223  24.641  -8.140  1.00  0.00     0.293 HD
ENDBRANCH  17  20
ENDBRANCH   1  12
BRANCH   6  22
ATOM     22  O   UNL     1      31.524  19.902 -14.449  1.00  0.00    -0.507 OA
ATOM     23  H   UNL     1      32.238  19.830 -13.732  1.00  0.00     0.293 HD
ENDBRANCH   6  22
BRANCH   8  24
ATOM     24  O   UNL     1      31.273  23.099 -18.056  1.00  0.00    -0.508 OA
ATOM     25  H   UNL     1      32.182  23.474 -18.302  1.00  0.00     0.293 HD
ENDBRANCH   8  24
TORSDOF 5
ENDMDL
MODEL 8
REMARK VINA RESULT:    -4.543     10.746     12.182
REMARK INTER + INTRA:          -5.656
REMARK INTER:                  -5.391
REMARK INTRA:                  -0.264
REMARK UNBOUND:                -0.316
REMARK SMILES O=c1cc(-c2ccc(O)c(O)c2)oc2cc(O)cc(O)c12
REMARK SMILES IDX 4 1 3 2 2 3 1 4 21 5 19 6 18 7 16 8 15 9 14 10 13 11 5 12
REMARK SMILES IDX 6 13 7 14 8 15 12 16 10 17 9 18 11 20 20 22 17 24
REMARK H PARENT 9 19 11 21 20 23 17 25
REMARK Flexibility Score: inf
ROOT
ATOM      1  C   UNL     1      30.726  34.993 -11.126  1.00  0.00     0.138 A 
ATOM      2  C   UNL     1      31.514  35.985 -10.521  1.00  0.00     0.100 A 
ATOM      3  C   UNL     1      31.559  36.074  -9.129  1.00  0.00     0.197 A 
ATOM      4  O   UNL     1      32.268  36.970  -8.596  1.00  0.00    -0.289 OA
ATOM      5  C   UNL     1      30.811  35.169  -8.350  1.00  0.00     0.107 A 
ATOM      6  C   UNL     1      30.801  35.188  -6.936  1.00  0.00     0.134 A 
ATOM      7  C   UNL     1      30.024  34.256  -6.233  1.00  0.00     0.093 A 
ATOM      8  C   UNL     1      29.260  33.306  -6.915  1.00  0.00     0.123 A 
ATOM      9  C   UNL     1      29.266  33.282  -8.314  1.00  0.00     0.094 A 
ATOM     10  C   UNL     1      30.034  34.203  -9.033  1.00  0.00     0.146 A 
ATOM     11  O   UNL     1      30.024  34.159 -10.361  1.00  0.00    -0.456 OA
ENDROOT
BRANCH   1  12
ATOM     12  C   UNL     1      30.640  34.852 -12.602  1.00  0.00     0.021 A 
ATOM     13  C   UNL     1      29.473  35.265 -13.268  1.00  0.00     0.016 A 
ATOM     14  C   UNL     1      29.363  35.137 -14.654  1.00  0.00     0.051 A 
ATOM     15  C   UNL     1      30.412  34.584 -15.398  1.00  0.00     0.157 A 
ATOM     16  C   UNL     1      31.686  34.285 -13.354  1.00  0.00     0.062 A 
ATOM     17  C   UNL     1      31.578  34.153 -14.743  1.00  0.00     0.158 A 
BRANCH  15  18
ATOM     18  O   UNL     1      30.301  34.459 -16.782  1.00  0.00    -0.504 OA
ATOM     19  H   UNL     1      29.709  35.077 -17.324  1.00  0.00     0.293 HD
ENDBRANCH  15  18
BRANCH  17  20
ATOM     20  O   UNL     1      32.636  33.588 -15.455  1.00  0.00    -0.504 OA
ATOM     21  H   UNL     1      32.545  33.309 -16.425  1.00  0.00     0.293 HD
ENDBRANCH  17  20
ENDBRANCH   1  12
BRANCH   6  22
ATOM     22  O   UNL     1      31.554  36.125  -6.226  1.00  0.00    -0.507 OA
ATOM     23  H   UNL     1      31.182  36.601  -5.411  1.00  0.00     0.293 HD
ENDBRANCH   6  22
BRANCH   8  24
ATOM     24  O   UNL     1      28.497  32.391  -6.194  1.00  0.00    -0.508 OA
ATOM     25  H   UNL     1      27.863  31.749  -6.655  1.00  0.00     0.293 HD
ENDBRANCH   8  24
TORSDOF 5
ENDMDL
