MODEL 1
REMARK VINA RESULT:    -6.235      0.000      0.000
REMARK INTER + INTRA:         -15.963
REMARK INTER:                 -13.525
REMARK INTRA:                  -2.438
REMARK UNBOUND:                -2.438
REMARK SMILES CCCCCCCCCCCCCCCCCCCCCC(=O)[O-]
REMARK SMILES IDX 12 1 11 2 10 3 9 4 8 5 7 6 6 7 5 8 4 9 3 10 2 11 1 12 13 13
REMARK SMILES IDX 14 14 15 15 16 16 17 17 18 18 19 19 20 20 21 21 22 22 23 23
REMARK SMILES IDX 24 24
REMARK H PARENT
REMARK Flexibility Score: inf
ROOT
ATOM      1  C   UNL     1      19.872  12.435  -0.943  1.00  0.00     0.000 C 
ENDROOT
BRANCH   1   2
ATOM      2  C   UNL     1      19.163  13.210   0.184  1.00  0.00     0.000 C 
BRANCH   2   3
ATOM      3  C   UNL     1      19.553  14.697   0.227  1.00  0.00     0.000 C 
BRANCH   3   4
ATOM      4  C   UNL     1      21.075  14.919   0.143  1.00  0.00    -0.000 C 
BRANCH   4   5
ATOM      5  C   UNL     1      21.591  16.206   0.819  1.00  0.00    -0.000 C 
BRANCH   5   6
ATOM      6  C   UNL     1      22.490  15.985   2.053  1.00  0.00    -0.000 C 
BRANCH   6   7
ATOM      7  C   UNL     1      21.814  15.248   3.224  1.00  0.00    -0.000 C 
BRANCH   7   8
ATOM      8  C   UNL     1      22.801  14.410   4.048  1.00  0.00    -0.000 C 
BRANCH   8   9
ATOM      9  C   UNL     1      23.250  13.167   3.269  1.00  0.00    -0.000 C 
BRANCH   9  10
ATOM     10  C   UNL     1      22.047  12.417   2.687  1.00  0.00    -0.000 C 
BRANCH  10  11
ATOM     11  C   UNL     1      22.457  11.579   1.470  1.00  0.00    -0.003 C 
ATOM     12  C   UNL     1      23.458  12.329   0.596  1.00  0.00     0.004 C 
ENDBRANCH  10  11
ENDBRANCH   9  10
ENDBRANCH   8   9
ENDBRANCH   7   8
ENDBRANCH   6   7
ENDBRANCH   5   6
ENDBRANCH   4   5
ENDBRANCH   3   4
ENDBRANCH   2   3
ENDBRANCH   1   2
BRANCH   1  13
ATOM     13  C   UNL     1      19.651  12.987  -2.362  1.00  0.00     0.000 C 
BRANCH  13  14
ATOM     14  C   UNL     1      20.687  12.469  -3.375  1.00  0.00     0.000 C 
BRANCH  14  15
ATOM     15  C   UNL     1      22.044  12.155  -2.723  1.00  0.00     0.000 C 
BRANCH  15  16
ATOM     16  C   UNL     1      23.235  12.526  -3.622  1.00  0.00     0.000 C 
BRANCH  16  17
ATOM     17  C   UNL     1      22.896  12.297  -5.099  1.00  0.00     0.000 C 
BRANCH  17  18
ATOM     18  C   UNL     1      23.953  11.412  -5.778  1.00  0.00     0.000 C 
BRANCH  18  19
ATOM     19  C   UNL     1      23.539  10.993  -7.206  1.00  0.00     0.000 C 
BRANCH  19  20
ATOM     20  C   UNL     1      24.678  11.110  -8.238  1.00  0.00     0.006 C 
BRANCH  20  21
ATOM     21  C   UNL     1      26.025  10.558  -7.749  1.00  0.00     0.053 C 
BRANCH  21  22
ATOM     22  C   UNL     1      26.225   9.131  -8.159  1.00  0.00     0.041 C 
ATOM     23  O   UNL     1      26.988   8.844  -9.118  1.00  0.00    -0.550 OA
ATOM     24  O   UNL     1      25.537   8.117  -7.502  1.00  0.00    -0.550 OA
ENDBRANCH  21  22
ENDBRANCH  20  21
ENDBRANCH  19  20
ENDBRANCH  18  19
ENDBRANCH  17  18
ENDBRANCH  16  17
ENDBRANCH  15  16
ENDBRANCH  14  15
ENDBRANCH  13  14
ENDBRANCH   1  13
TORSDOF 20
ENDMDL
MODEL 2
REMARK VINA RESULT:    -6.184      1.490      3.232
REMARK INTER + INTRA:         -15.852
REMARK INTER:                 -13.264
REMARK INTRA:                  -2.588
REMARK UNBOUND:                -2.438
REMARK SMILES CCCCCCCCCCCCCCCCCCCCCC(=O)[O-]
REMARK SMILES IDX 12 1 11 2 10 3 9 4 8 5 7 6 6 7 5 8 4 9 3 10 2 11 1 12 13 13
REMARK SMILES IDX 14 14 15 15 16 16 17 17 18 18 19 19 20 20 21 21 22 22 23 23
REMARK SMILES IDX 24 24
REMARK H PARENT
REMARK Flexibility Score: inf
ROOT
ATOM      1  C   UNL     1      23.137  13.197  -1.239  1.00  0.00     0.000 C 
ENDROOT
BRANCH   1   2
ATOM      2  C   UNL     1      23.745  12.661   0.071  1.00  0.00     0.000 C 
BRANCH   2   3
ATOM      3  C   UNL     1      22.866  11.597   0.749  1.00  0.00     0.000 C 
BRANCH   3   4
ATOM      4  C   UNL     1      21.927  12.187   1.817  1.00  0.00    -0.000 C 
BRANCH   4   5
ATOM      5  C   UNL     1      22.618  12.659   3.113  1.00  0.00    -0.000 C 
BRANCH   5   6
ATOM      6  C   UNL     1      22.283  14.101   3.549  1.00  0.00    -0.000 C 
BRANCH   6   7
ATOM      7  C   UNL     1      22.986  15.203   2.736  1.00  0.00    -0.000 C 
BRANCH   7   8
ATOM      8  C   UNL     1      22.000  16.195   2.102  1.00  0.00    -0.000 C 
BRANCH   8   9
ATOM      9  C   UNL     1      21.561  15.719   0.711  1.00  0.00    -0.000 C 
BRANCH   9  10
ATOM     10  C   UNL     1      20.117  15.206   0.735  1.00  0.00    -0.000 C 
BRANCH  10  11
ATOM     11  C   UNL     1      19.793  14.412  -0.536  1.00  0.00    -0.003 C 
ATOM     12  C   UNL     1      19.096  13.097  -0.203  1.00  0.00     0.004 C 
ENDBRANCH  10  11
ENDBRANCH   9  10
ENDBRANCH   8   9
ENDBRANCH   7   8
ENDBRANCH   6   7
ENDBRANCH   5   6
ENDBRANCH   4   5
ENDBRANCH   3   4
ENDBRANCH   2   3
ENDBRANCH   1   2
BRANCH   1  13
ATOM     13  C   UNL     1      22.515  12.132  -2.160  1.00  0.00     0.000 C 
BRANCH  13  14
ATOM     14  C   UNL     1      21.783  12.741  -3.370  1.00  0.00     0.000 C 
BRANCH  14  15
ATOM     15  C   UNL     1      22.510  12.473  -4.698  1.00  0.00     0.000 C 
BRANCH  15  16
ATOM     16  C   UNL     1      23.955  11.991  -4.497  1.00  0.00     0.000 C 
BRANCH  16  17
ATOM     17  C   UNL     1      24.425  11.156  -5.694  1.00  0.00     0.000 C 
BRANCH  17  18
ATOM     18  C   UNL     1      23.469  11.313  -6.887  1.00  0.00     0.000 C 
BRANCH  18  19
ATOM     19  C   UNL     1      24.218  11.349  -8.237  1.00  0.00     0.000 C 
BRANCH  19  20
ATOM     20  C   UNL     1      25.507  10.504  -8.251  1.00  0.00     0.006 C 
BRANCH  20  21
ATOM     21  C   UNL     1      26.530  10.941  -9.310  1.00  0.00     0.053 C 
BRANCH  21  22
ATOM     22  C   UNL     1      27.547  11.886  -8.746  1.00  0.00     0.041 C 
ATOM     23  O   UNL     1      28.063  11.669  -7.619  1.00  0.00    -0.550 OA
ATOM     24  O   UNL     1      27.898  13.030  -9.454  1.00  0.00    -0.550 OA
ENDBRANCH  21  22
ENDBRANCH  20  21
ENDBRANCH  19  20
ENDBRANCH  18  19
ENDBRANCH  17  18
ENDBRANCH  16  17
ENDBRANCH  15  16
ENDBRANCH  14  15
ENDBRANCH  13  14
ENDBRANCH   1  13
TORSDOF 20
ENDMDL
MODEL 3
REMARK VINA RESULT:    -6.160      4.000      8.975
REMARK INTER + INTRA:         -15.800
REMARK INTER:                 -13.404
REMARK INTRA:                  -2.396
REMARK UNBOUND:                -2.438
REMARK SMILES CCCCCCCCCCCCCCCCCCCCCC(=O)[O-]
REMARK SMILES IDX 12 1 11 2 10 3 9 4 8 5 7 6 6 7 5 8 4 9 3 10 2 11 1 12 13 13
REMARK SMILES IDX 14 14 15 15 16 16 17 17 18 18 19 19 20 20 21 21 22 22 23 23
REMARK SMILES IDX 24 24
REMARK H PARENT
REMARK Flexibility Score: inf
ROOT
ATOM      1  C   UNL     1      21.457  10.965  -0.402  1.00  0.00     0.000 C 
ENDROOT
BRANCH   1   2
ATOM      2  C   UNL     1      21.978  11.443  -1.770  1.00  0.00     0.000 C 
BRANCH   2   3
ATOM      3  C   UNL     1      22.930  12.646  -1.663  1.00  0.00     0.000 C 
BRANCH   3   4
ATOM      4  C   UNL     1      23.245  13.283  -3.028  1.00  0.00    -0.000 C 
BRANCH   4   5
ATOM      5  C   UNL     1      22.334  12.837  -4.190  1.00  0.00    -0.000 C 
BRANCH   5   6
ATOM      6  C   UNL     1      23.063  12.195  -5.388  1.00  0.00    -0.000 C 
BRANCH   6   7
ATOM      7  C   UNL     1      24.355  11.438  -5.030  1.00  0.00    -0.000 C 
BRANCH   7   8
ATOM      8  C   UNL     1      24.894  10.597  -6.196  1.00  0.00    -0.000 C 
BRANCH   8   9
ATOM      9  C   UNL     1      23.995  10.732  -7.432  1.00  0.00    -0.000 C 
BRANCH   9  10
ATOM     10  C   UNL     1      24.786  11.262  -8.633  1.00  0.00    -0.000 C 
BRANCH  10  11
ATOM     11  C   UNL     1      26.241  10.779  -8.590  1.00  0.00    -0.003 C 
ATOM     12  C   UNL     1      27.199  11.871  -9.057  1.00  0.00     0.004 C 
ENDBRANCH  10  11
ENDBRANCH   9  10
ENDBRANCH   8   9
ENDBRANCH   7   8
ENDBRANCH   6   7
ENDBRANCH   5   6
ENDBRANCH   4   5
ENDBRANCH   3   4
ENDBRANCH   2   3
ENDBRANCH   1   2
BRANCH   1  13
ATOM     13  C   UNL     1      20.635  11.999   0.388  1.00  0.00     0.000 C 
BRANCH  13  14
ATOM     14  C   UNL     1      19.306  12.360  -0.301  1.00  0.00     0.000 C 
BRANCH  14  15
ATOM     15  C   UNL     1      19.008  13.867  -0.256  1.00  0.00     0.000 C 
BRANCH  15  16
ATOM     16  C   UNL     1      20.273  14.728  -0.397  1.00  0.00     0.000 C 
BRANCH  16  17
ATOM     17  C   UNL     1      20.243  15.908   0.581  1.00  0.00     0.000 C 
BRANCH  17  18
ATOM     18  C   UNL     1      21.393  15.814   1.596  1.00  0.00     0.000 C 
BRANCH  18  19
ATOM     19  C   UNL     1      22.688  15.255   0.967  1.00  0.00     0.000 C 
BRANCH  19  20
ATOM     20  C   UNL     1      23.386  14.189   1.834  1.00  0.00     0.006 C 
BRANCH  20  21
ATOM     21  C   UNL     1      22.938  14.188   3.304  1.00  0.00     0.053 C 
BRANCH  21  22
ATOM     22  C   UNL     1      22.656  12.803   3.800  1.00  0.00     0.041 C 
ATOM     23  O   UNL     1      21.634  12.182   3.411  1.00  0.00    -0.550 OA
ATOM     24  O   UNL     1      23.509  12.210   4.725  1.00  0.00    -0.550 OA
ENDBRANCH  21  22
ENDBRANCH  20  21
ENDBRANCH  19  20
ENDBRANCH  18  19
ENDBRANCH  17  18
ENDBRANCH  16  17
ENDBRANCH  15  16
ENDBRANCH  14  15
ENDBRANCH  13  14
ENDBRANCH   1  13
TORSDOF 20
ENDMDL
MODEL 4
REMARK VINA RESULT:    -6.115      3.938      5.937
REMARK INTER + INTRA:         -15.703
REMARK INTER:                 -12.802
REMARK INTRA:                  -2.901
REMARK UNBOUND:                -2.438
REMARK SMILES CCCCCCCCCCCCCCCCCCCCCC(=O)[O-]
REMARK SMILES IDX 12 1 11 2 10 3 9 4 8 5 7 6 6 7 5 8 4 9 3 10 2 11 1 12 13 13
REMARK SMILES IDX 14 14 15 15 16 16 17 17 18 18 19 19 20 20 21 21 22 22 23 23
REMARK SMILES IDX 24 24
REMARK H PARENT
REMARK Flexibility Score: inf
ROOT
ATOM      1  C   UNL     1      21.092  12.123  -2.686  1.00  0.00     0.000 C 
ENDROOT
BRANCH   1   2
ATOM      2  C   UNL     1      19.964  13.143  -2.930  1.00  0.00     0.000 C 
BRANCH   2   3
ATOM      3  C   UNL     1      18.826  13.035  -1.901  1.00  0.00     0.000 C 
BRANCH   3   4
ATOM      4  C   UNL     1      19.287  12.439  -0.559  1.00  0.00    -0.000 C 
BRANCH   4   5
ATOM      5  C   UNL     1      19.493  13.460   0.579  1.00  0.00    -0.000 C 
BRANCH   5   6
ATOM      6  C   UNL     1      19.610  14.931   0.130  1.00  0.00    -0.000 C 
BRANCH   6   7
ATOM      7  C   UNL     1      20.953  15.605   0.463  1.00  0.00    -0.000 C 
BRANCH   7   8
ATOM      8  C   UNL     1      21.368  15.413   1.928  1.00  0.00    -0.000 C 
BRANCH   8   9
ATOM      9  C   UNL     1      22.895  15.428   2.073  1.00  0.00    -0.000 C 
BRANCH   9  10
ATOM     10  C   UNL     1      23.379  14.246   2.921  1.00  0.00    -0.000 C 
BRANCH  10  11
ATOM     11  C   UNL     1      22.444  14.004   4.112  1.00  0.00    -0.003 C 
ATOM     12  C   UNL     1      22.948  12.858   4.984  1.00  0.00     0.004 C 
ENDBRANCH  10  11
ENDBRANCH   9  10
ENDBRANCH   8   9
ENDBRANCH   7   8
ENDBRANCH   6   7
ENDBRANCH   5   6
ENDBRANCH   4   5
ENDBRANCH   3   4
ENDBRANCH   2   3
ENDBRANCH   1   2
BRANCH   1  13
ATOM     13  C   UNL     1      22.449  12.477  -3.322  1.00  0.00     0.000 C 
BRANCH  13  14
ATOM     14  C   UNL     1      23.452  13.056  -2.309  1.00  0.00     0.000 C 
BRANCH  14  15
ATOM     15  C   UNL     1      22.892  13.092  -0.877  1.00  0.00     0.000 C 
BRANCH  15  16
ATOM     16  C   UNL     1      23.561  12.063   0.048  1.00  0.00     0.000 C 
BRANCH  16  17
ATOM     17  C   UNL     1      22.509  11.220   0.779  1.00  0.00     0.000 C 
BRANCH  17  18
ATOM     18  C   UNL     1      22.170   9.949  -0.014  1.00  0.00     0.000 C 
BRANCH  18  19
ATOM     19  C   UNL     1      22.620   8.664   0.715  1.00  0.00     0.000 C 
BRANCH  19  20
ATOM     20  C   UNL     1      22.177   7.367   0.010  1.00  0.00     0.006 C 
BRANCH  20  21
ATOM     21  C   UNL     1      22.600   6.083   0.739  1.00  0.00     0.053 C 
BRANCH  21  22
ATOM     22  C   UNL     1      21.619   4.971   0.525  1.00  0.00     0.041 C 
ATOM     23  O   UNL     1      20.804   5.015  -0.433  1.00  0.00    -0.550 OA
ATOM     24  O   UNL     1      21.581   3.899   1.411  1.00  0.00    -0.550 OA
ENDBRANCH  21  22
ENDBRANCH  20  21
ENDBRANCH  19  20
ENDBRANCH  18  19
ENDBRANCH  17  18
ENDBRANCH  16  17
ENDBRANCH  15  16
ENDBRANCH  14  15
ENDBRANCH  13  14
ENDBRANCH   1  13
TORSDOF 20
ENDMDL
MODEL 5
REMARK VINA RESULT:    -6.095      1.037      3.060
REMARK INTER + INTRA:         -15.659
REMARK INTER:                 -12.988
REMARK INTRA:                  -2.671
REMARK UNBOUND:                -2.438
REMARK SMILES CCCCCCCCCCCCCCCCCCCCCC(=O)[O-]
REMARK SMILES IDX 12 1 11 2 10 3 9 4 8 5 7 6 6 7 5 8 4 9 3 10 2 11 1 12 13 13
REMARK SMILES IDX 14 14 15 15 16 16 17 17 18 18 19 19 20 20 21 21 22 22 23 23
REMARK SMILES IDX 24 24
REMARK H PARENT
REMARK Flexibility Score: inf
ROOT
ATOM      1  C   UNL     1      22.444  11.699   0.923  1.00  0.00     0.000 C 
ENDROOT
BRANCH   1   2
ATOM      2  C   UNL     1      21.624  12.278   2.091  1.00  0.00     0.000 C 
BRANCH   2   3
ATOM      3  C   UNL     1      22.462  12.495   3.363  1.00  0.00     0.000 C 
BRANCH   3   4
ATOM      4  C   UNL     1      23.183  13.855   3.379  1.00  0.00    -0.000 C 
BRANCH   4   5
ATOM      5  C   UNL     1      22.282  15.076   3.658  1.00  0.00    -0.000 C 
BRANCH   5   6
ATOM      6  C   UNL     1      22.421  16.238   2.654  1.00  0.00    -0.000 C 
BRANCH   6   7
ATOM      7  C   UNL     1      22.977  15.840   1.275  1.00  0.00    -0.000 C 
BRANCH   7   8
ATOM      8  C   UNL     1      21.888  15.344   0.314  1.00  0.00    -0.000 C 
BRANCH   8   9
ATOM      9  C   UNL     1      20.562  16.074   0.564  1.00  0.00    -0.000 C 
BRANCH   9  10
ATOM     10  C   UNL     1      19.382  15.095   0.543  1.00  0.00    -0.000 C 
BRANCH  10  11
ATOM     11  C   UNL     1      19.534  14.074  -0.592  1.00  0.00    -0.003 C 
ATOM     12  C   UNL     1      18.753  12.798  -0.293  1.00  0.00     0.004 C 
ENDBRANCH  10  11
ENDBRANCH   9  10
ENDBRANCH   8   9
ENDBRANCH   7   8
ENDBRANCH   6   7
ENDBRANCH   5   6
ENDBRANCH   4   5
ENDBRANCH   3   4
ENDBRANCH   2   3
ENDBRANCH   1   2
BRANCH   1  13
ATOM     13  C   UNL     1      21.687  10.719   0.009  1.00  0.00     0.000 C 
BRANCH  13  14
ATOM     14  C   UNL     1      21.799  11.084  -1.483  1.00  0.00     0.000 C 
BRANCH  14  15
ATOM     15  C   UNL     1      22.555  12.403  -1.713  1.00  0.00     0.000 C 
BRANCH  15  16
ATOM     16  C   UNL     1      22.393  12.939  -3.144  1.00  0.00     0.000 C 
BRANCH  16  17
ATOM     17  C   UNL     1      23.587  12.535  -4.017  1.00  0.00     0.000 C 
BRANCH  17  18
ATOM     18  C   UNL     1      23.120  12.013  -5.385  1.00  0.00     0.000 C 
BRANCH  18  19
ATOM     19  C   UNL     1      24.217  11.203  -6.110  1.00  0.00     0.000 C 
BRANCH  19  20
ATOM     20  C   UNL     1      23.816  10.753  -7.529  1.00  0.00     0.006 C 
BRANCH  20  21
ATOM     21  C   UNL     1      24.812  11.168  -8.621  1.00  0.00     0.053 C 
BRANCH  21  22
ATOM     22  C   UNL     1      26.147  10.513  -8.437  1.00  0.00     0.041 C 
ATOM     23  O   UNL     1      26.272   9.269  -8.574  1.00  0.00    -0.550 OA
ATOM     24  O   UNL     1      27.251  11.278  -8.075  1.00  0.00    -0.550 OA
ENDBRANCH  21  22
ENDBRANCH  20  21
ENDBRANCH  19  20
ENDBRANCH  18  19
ENDBRANCH  17  18
ENDBRANCH  16  17
ENDBRANCH  15  16
ENDBRANCH  14  15
ENDBRANCH  13  14
ENDBRANCH   1  13
TORSDOF 20
ENDMDL
MODEL 6
REMARK VINA RESULT:    -6.060      1.120      1.796
REMARK INTER + INTRA:         -15.584
REMARK INTER:                 -13.197
REMARK INTRA:                  -2.388
REMARK UNBOUND:                -2.438
REMARK SMILES CCCCCCCCCCCCCCCCCCCCCC(=O)[O-]
REMARK SMILES IDX 12 1 11 2 10 3 9 4 8 5 7 6 6 7 5 8 4 9 3 10 2 11 1 12 13 13
REMARK SMILES IDX 14 14 15 15 16 16 17 17 18 18 19 19 20 20 21 21 22 22 23 23
REMARK SMILES IDX 24 24
REMARK H PARENT
REMARK Flexibility Score: inf
ROOT
ATOM      1  C   UNL     1      19.870  12.218  -1.082  1.00  0.00     0.000 C 
ENDROOT
BRANCH   1   2
ATOM      2  C   UNL     1      19.310  13.085   0.062  1.00  0.00     0.000 C 
BRANCH   2   3
ATOM      3  C   UNL     1      19.602  14.584  -0.123  1.00  0.00     0.000 C 
BRANCH   3   4
ATOM      4  C   UNL     1      20.333  15.204   1.082  1.00  0.00    -0.000 C 
BRANCH   4   5
ATOM      5  C   UNL     1      21.498  16.151   0.729  1.00  0.00    -0.000 C 
BRANCH   5   6
ATOM      6  C   UNL     1      22.903  15.630   1.095  1.00  0.00    -0.000 C 
BRANCH   6   7
ATOM      7  C   UNL     1      23.302  14.309   0.413  1.00  0.00    -0.000 C 
BRANCH   7   8
ATOM      8  C   UNL     1      23.675  13.209   1.418  1.00  0.00    -0.000 C 
BRANCH   8   9
ATOM      9  C   UNL     1      22.525  12.209   1.588  1.00  0.00    -0.000 C 
BRANCH   9  10
ATOM     10  C   UNL     1      21.814  12.409   2.931  1.00  0.00    -0.000 C 
BRANCH  10  11
ATOM     11  C   UNL     1      22.569  13.417   3.808  1.00  0.00    -0.003 C 
ATOM     12  C   UNL     1      22.748  12.887   5.227  1.00  0.00     0.004 C 
ENDBRANCH  10  11
ENDBRANCH   9  10
ENDBRANCH   8   9
ENDBRANCH   7   8
ENDBRANCH   6   7
ENDBRANCH   5   6
ENDBRANCH   4   5
ENDBRANCH   3   4
ENDBRANCH   2   3
ENDBRANCH   1   2
BRANCH   1  13
ATOM     13  C   UNL     1      19.838  12.868  -2.477  1.00  0.00     0.000 C 
BRANCH  13  14
ATOM     14  C   UNL     1      20.984  12.390  -3.387  1.00  0.00     0.000 C 
BRANCH  14  15
ATOM     15  C   UNL     1      22.371  12.666  -2.784  1.00  0.00     0.000 C 
BRANCH  15  16
ATOM     16  C   UNL     1      23.453  12.877  -3.854  1.00  0.00     0.000 C 
BRANCH  16  17
ATOM     17  C   UNL     1      22.870  12.705  -5.262  1.00  0.00     0.000 C 
BRANCH  17  18
ATOM     18  C   UNL     1      23.619  11.613  -6.041  1.00  0.00     0.000 C 
BRANCH  18  19
ATOM     19  C   UNL     1      23.642  11.886  -7.561  1.00  0.00     0.000 C 
BRANCH  19  20
ATOM     20  C   UNL     1      24.444  10.843  -8.364  1.00  0.00     0.006 C 
BRANCH  20  21
ATOM     21  C   UNL     1      25.909  11.234  -8.608  1.00  0.00     0.053 C 
BRANCH  21  22
ATOM     22  C   UNL     1      26.848  10.436  -7.756  1.00  0.00     0.041 C 
ATOM     23  O   UNL     1      27.244   9.303  -8.132  1.00  0.00    -0.550 OA
ATOM     24  O   UNL     1      27.259  10.933  -6.523  1.00  0.00    -0.550 OA
ENDBRANCH  21  22
ENDBRANCH  20  21
ENDBRANCH  19  20
ENDBRANCH  18  19
ENDBRANCH  17  18
ENDBRANCH  16  17
ENDBRANCH  15  16
ENDBRANCH  14  15
ENDBRANCH  13  14
ENDBRANCH   1  13
TORSDOF 20
ENDMDL
MODEL 7
REMARK VINA RESULT:    -5.981      3.361      8.977
REMARK INTER + INTRA:         -15.413
REMARK INTER:                 -13.211
REMARK INTRA:                  -2.202
REMARK UNBOUND:                -2.438
REMARK SMILES CCCCCCCCCCCCCCCCCCCCCC(=O)[O-]
REMARK SMILES IDX 12 1 11 2 10 3 9 4 8 5 7 6 6 7 5 8 4 9 3 10 2 11 1 12 13 13
REMARK SMILES IDX 14 14 15 15 16 16 17 17 18 18 19 19 20 20 21 21 22 22 23 23
REMARK SMILES IDX 24 24
REMARK H PARENT
REMARK Flexibility Score: inf
ROOT
ATOM      1  C   UNL     1      23.794  12.873   0.524  1.00  0.00     0.000 C 
ENDROOT
BRANCH   1   2
ATOM      2  C   UNL     1      23.669  12.918  -1.011  1.00  0.00     0.000 C 
BRANCH   2   3
ATOM      3  C   UNL     1      22.421  12.188  -1.533  1.00  0.00     0.000 C 
BRANCH   3   4
ATOM      4  C   UNL     1      21.933  12.731  -2.888  1.00  0.00    -0.000 C 
BRANCH   4   5
ATOM      5  C   UNL     1      23.046  13.129  -3.878  1.00  0.00    -0.000 C 
BRANCH   5   6
ATOM      6  C   UNL     1      22.902  12.547  -5.300  1.00  0.00    -0.000 C 
BRANCH   6   7
ATOM      7  C   UNL     1      23.958  11.492  -5.677  1.00  0.00    -0.000 C 
BRANCH   7   8
ATOM      8  C   UNL     1      23.710  10.870  -7.058  1.00  0.00    -0.000 C 
BRANCH   8   9
ATOM      9  C   UNL     1      24.823   9.878  -7.421  1.00  0.00    -0.000 C 
BRANCH   9  10
ATOM     10  C   UNL     1      26.191  10.569  -7.440  1.00  0.00    -0.000 C 
BRANCH  10  11
ATOM     11  C   UNL     1      26.348  11.445  -8.688  1.00  0.00    -0.003 C 
ATOM     12  C   UNL     1      27.543  11.002  -9.527  1.00  0.00     0.004 C 
ENDBRANCH  10  11
ENDBRANCH   9  10
ENDBRANCH   8   9
ENDBRANCH   7   8
ENDBRANCH   6   7
ENDBRANCH   5   6
ENDBRANCH   4   5
ENDBRANCH   3   4
ENDBRANCH   2   3
ENDBRANCH   1   2
BRANCH   1  13
ATOM     13  C   UNL     1      22.857  11.878   1.232  1.00  0.00     0.000 C 
BRANCH  13  14
ATOM     14  C   UNL     1      22.146  12.490   2.452  1.00  0.00     0.000 C 
BRANCH  14  15
ATOM     15  C   UNL     1      23.132  13.019   3.507  1.00  0.00     0.000 C 
BRANCH  15  16
ATOM     16  C   UNL     1      23.097  14.549   3.639  1.00  0.00     0.000 C 
BRANCH  16  17
ATOM     17  C   UNL     1      21.805  15.120   3.042  1.00  0.00     0.000 C 
BRANCH  17  18
ATOM     18  C   UNL     1      22.107  16.267   2.066  1.00  0.00     0.000 C 
BRANCH  18  19
ATOM     19  C   UNL     1      21.176  16.250   0.834  1.00  0.00     0.000 C 
BRANCH  19  20
ATOM     20  C   UNL     1      20.803  14.831   0.362  1.00  0.00     0.006 C 
BRANCH  20  21
ATOM     21  C   UNL     1      19.294  14.607   0.185  1.00  0.00     0.053 C 
BRANCH  21  22
ATOM     22  C   UNL     1      19.002  13.342  -0.563  1.00  0.00     0.041 C 
ATOM     23  O   UNL     1      19.252  12.223  -0.047  1.00  0.00    -0.550 OA
ATOM     24  O   UNL     1      18.485  13.403  -1.853  1.00  0.00    -0.550 OA
ENDBRANCH  21  22
ENDBRANCH  20  21
ENDBRANCH  19  20
ENDBRANCH  18  19
ENDBRANCH  17  18
ENDBRANCH  16  17
ENDBRANCH  15  16
ENDBRANCH  14  15
ENDBRANCH  13  14
ENDBRANCH   1  13
TORSDOF 20
ENDMDL
MODEL 8
REMARK VINA RESULT:    -5.913      1.349      2.386
REMARK INTER + INTRA:         -15.264
REMARK INTER:                 -12.655
REMARK INTRA:                  -2.609
REMARK UNBOUND:                -2.438
REMARK SMILES CCCCCCCCCCCCCCCCCCCCCC(=O)[O-]
REMARK SMILES IDX 12 1 11 2 10 3 9 4 8 5 7 6 6 7 5 8 4 9 3 10 2 11 1 12 13 13
REMARK SMILES IDX 14 14 15 15 16 16 17 17 18 18 19 19 20 20 21 21 22 22 23 23
REMARK SMILES IDX 24 24
REMARK H PARENT
REMARK Flexibility Score: inf
ROOT
ATOM      1  C   UNL     1      22.275  11.946  -1.794  1.00  0.00     0.000 C 
ENDROOT
BRANCH   1   2
ATOM      2  C   UNL     1      20.982  12.100  -0.972  1.00  0.00     0.000 C 
BRANCH   2   3
ATOM      3  C   UNL     1      20.170  13.348  -1.359  1.00  0.00     0.000 C 
BRANCH   3   4
ATOM      4  C   UNL     1      19.120  13.731  -0.300  1.00  0.00    -0.000 C 
BRANCH   4   5
ATOM      5  C   UNL     1      19.619  14.675   0.813  1.00  0.00    -0.000 C 
BRANCH   5   6
ATOM      6  C   UNL     1      20.297  15.970   0.321  1.00  0.00    -0.000 C 
BRANCH   6   7
ATOM      7  C   UNL     1      21.783  16.107   0.701  1.00  0.00    -0.000 C 
BRANCH   7   8
ATOM      8  C   UNL     1      22.002  16.223   2.216  1.00  0.00    -0.000 C 
BRANCH   8   9
ATOM      9  C   UNL     1      22.876  15.073   2.733  1.00  0.00    -0.000 C 
BRANCH   9  10
ATOM     10  C   UNL     1      23.583  14.356   1.578  1.00  0.00    -0.000 C 
BRANCH  10  11
ATOM     11  C   UNL     1      23.384  12.838   1.668  1.00  0.00    -0.003 C 
ATOM     12  C   UNL     1      22.194  12.490   2.557  1.00  0.00     0.004 C 
ENDBRANCH  10  11
ENDBRANCH   9  10
ENDBRANCH   8   9
ENDBRANCH   7   8
ENDBRANCH   6   7
ENDBRANCH   5   6
ENDBRANCH   4   5
ENDBRANCH   3   4
ENDBRANCH   2   3
ENDBRANCH   1   2
BRANCH   1  13
ATOM     13  C   UNL     1      23.032  13.255  -2.082  1.00  0.00     0.000 C 
BRANCH  13  14
ATOM     14  C   UNL     1      23.484  13.375  -3.549  1.00  0.00     0.000 C 
BRANCH  14  15
ATOM     15  C   UNL     1      22.560  12.615  -4.515  1.00  0.00     0.000 C 
BRANCH  15  16
ATOM     16  C   UNL     1      23.171  12.450  -5.915  1.00  0.00     0.000 C 
BRANCH  16  17
ATOM     17  C   UNL     1      23.934  11.124  -6.026  1.00  0.00     0.000 C 
BRANCH  17  18
ATOM     18  C   UNL     1      23.806  10.529  -7.437  1.00  0.00     0.000 C 
BRANCH  18  19
ATOM     19  C   UNL     1      24.501  11.399  -8.507  1.00  0.00     0.000 C 
BRANCH  19  20
ATOM     20  C   UNL     1      25.752  10.741  -9.121  1.00  0.00     0.006 C 
BRANCH  20  21
ATOM     21  C   UNL     1      27.076  11.384  -8.681  1.00  0.00     0.053 C 
BRANCH  21  22
ATOM     22  C   UNL     1      27.744  10.598  -7.595  1.00  0.00     0.041 C 
ATOM     23  O   UNL     1      28.486   9.622  -7.877  1.00  0.00    -0.550 OA
ATOM     24  O   UNL     1      27.515  10.923  -6.262  1.00  0.00    -0.550 OA
ENDBRANCH  21  22
ENDBRANCH  20  21
ENDBRANCH  19  20
ENDBRANCH  18  19
ENDBRANCH  17  18
ENDBRANCH  16  17
ENDBRANCH  15  16
ENDBRANCH  14  15
ENDBRANCH  13  14
ENDBRANCH   1  13
TORSDOF 20
ENDMDL
MODEL 9
REMARK VINA RESULT:    -5.910      1.025      2.636
REMARK INTER + INTRA:         -15.259
REMARK INTER:                 -12.951
REMARK INTRA:                  -2.308
REMARK UNBOUND:                -2.438
REMARK SMILES CCCCCCCCCCCCCCCCCCCCCC(=O)[O-]
REMARK SMILES IDX 12 1 11 2 10 3 9 4 8 5 7 6 6 7 5 8 4 9 3 10 2 11 1 12 13 13
REMARK SMILES IDX 14 14 15 15 16 16 17 17 18 18 19 19 20 20 21 21 22 22 23 23
REMARK SMILES IDX 24 24
REMARK H PARENT
REMARK Flexibility Score: inf
ROOT
ATOM      1  C   UNL     1      19.964  13.697  -1.779  1.00  0.00     0.000 C 
ENDROOT
BRANCH   1   2
ATOM      2  C   UNL     1      19.307  13.225  -0.469  1.00  0.00     0.000 C 
BRANCH   2   3
ATOM      3  C   UNL     1      20.268  12.430   0.431  1.00  0.00     0.000 C 
BRANCH   3   4
ATOM      4  C   UNL     1      20.627  11.050  -0.149  1.00  0.00    -0.000 C 
BRANCH   4   5
ATOM      5  C   UNL     1      22.099  10.623   0.029  1.00  0.00    -0.000 C 
BRANCH   5   6
ATOM      6  C   UNL     1      22.944  11.540   0.937  1.00  0.00    -0.000 C 
BRANCH   6   7
ATOM      7  C   UNL     1      23.856  12.529   0.189  1.00  0.00    -0.000 C 
BRANCH   7   8
ATOM      8  C   UNL     1      24.572  13.508   1.132  1.00  0.00    -0.000 C 
BRANCH   8   9
ATOM      9  C   UNL     1      23.807  14.833   1.230  1.00  0.00    -0.000 C 
BRANCH   9  10
ATOM     10  C   UNL     1      22.837  14.823   2.418  1.00  0.00    -0.000 C 
BRANCH  10  11
ATOM     11  C   UNL     1      21.738  15.877   2.240  1.00  0.00    -0.003 C 
ATOM     12  C   UNL     1      21.400  16.079   0.766  1.00  0.00     0.004 C 
ENDBRANCH  10  11
ENDBRANCH   9  10
ENDBRANCH   8   9
ENDBRANCH   7   8
ENDBRANCH   6   7
ENDBRANCH   5   6
ENDBRANCH   4   5
ENDBRANCH   3   4
ENDBRANCH   2   3
ENDBRANCH   1   2
BRANCH   1  13
ATOM     13  C   UNL     1      19.790  12.752  -2.982  1.00  0.00     0.000 C 
BRANCH  13  14
ATOM     14  C   UNL     1      21.120  12.143  -3.462  1.00  0.00     0.000 C 
BRANCH  14  15
ATOM     15  C   UNL     1      22.344  12.926  -2.958  1.00  0.00     0.000 C 
BRANCH  15  16
ATOM     16  C   UNL     1      23.456  13.033  -4.013  1.00  0.00     0.000 C 
BRANCH  16  17
ATOM     17  C   UNL     1      22.899  12.798  -5.422  1.00  0.00     0.000 C 
BRANCH  17  18
ATOM     18  C   UNL     1      23.568  11.585  -6.086  1.00  0.00     0.000 C 
BRANCH  18  19
ATOM     19  C   UNL     1      23.727  11.766  -7.612  1.00  0.00     0.000 C 
BRANCH  19  20
ATOM     20  C   UNL     1      24.933  11.007  -8.201  1.00  0.00     0.006 C 
BRANCH  20  21
ATOM     21  C   UNL     1      25.621  10.059  -7.207  1.00  0.00     0.053 C 
BRANCH  21  22
ATOM     22  C   UNL     1      26.066   8.789  -7.865  1.00  0.00     0.041 C 
ATOM     23  O   UNL     1      26.622   8.816  -8.994  1.00  0.00    -0.550 OA
ATOM     24  O   UNL     1      25.832   7.567  -7.244  1.00  0.00    -0.550 OA
ENDBRANCH  21  22
ENDBRANCH  20  21
ENDBRANCH  19  20
ENDBRANCH  18  19
ENDBRANCH  17  18
ENDBRANCH  16  17
ENDBRANCH  15  16
ENDBRANCH  14  15
ENDBRANCH  13  14
ENDBRANCH   1  13
TORSDOF 20
ENDMDL
