MODEL 1
REMARK VINA RESULT:    -3.556      0.000      0.000
REMARK INTER + INTRA:          -5.116
REMARK INTER:                  -4.388
REMARK INTRA:                  -0.728
REMARK UNBOUND:                -0.728
REMARK SMILES C=CC(=C)CCC=C(C)C
REMARK SMILES IDX 5 1 6 2 7 3 9 4 8 5 10 6 3 7 4 8 2 9 1 10
REMARK H PARENT
REMARK Flexibility Score: inf
ROOT
ATOM      1  C   UNL     1     139.462 139.688 135.785  1.00  0.00     0.039 C 
ENDROOT
BRANCH   1   2
ATOM      2  C   UNL     1     138.227 139.361 134.937  1.00  0.00     0.032 C 
BRANCH   2   3
ATOM      3  C   UNL     1     137.066 140.252 135.305  1.00  0.00    -0.028 C 
ATOM      4  C   UNL     1     135.775 138.408 136.407  1.00  0.00     0.039 C 
ATOM      5  C   UNL     1     135.953 139.836 135.951  1.00  0.00    -0.080 C 
ATOM      6  C   UNL     1     134.871 140.846 136.235  1.00  0.00     0.039 C 
ENDBRANCH   2   3
ENDBRANCH   1   2
BRANCH   1   7
ATOM      7  C   UNL     1     139.897 138.481 136.589  1.00  0.00    -0.055 C 
ATOM      8  C   UNL     1     140.954 137.773 136.179  1.00  0.00     0.012 C 
BRANCH   7   9
ATOM      9  C   UNL     1     139.216 138.081 137.849  1.00  0.00    -0.005 C 
ATOM     10  C   UNL     1     138.651 138.939 138.697  1.00  0.00     0.009 C 
ENDBRANCH   7   9
ENDBRANCH   1   7
TORSDOF 4
ENDMDL
MODEL 2
REMARK VINA RESULT:    -3.537      5.556      7.851
REMARK INTER + INTRA:          -5.091
REMARK INTER:                  -4.310
REMARK INTRA:                  -0.782
REMARK UNBOUND:                -0.728
REMARK SMILES C=CC(=C)CCC=C(C)C
REMARK SMILES IDX 5 1 6 2 7 3 9 4 8 5 10 6 3 7 4 8 2 9 1 10
REMARK H PARENT
REMARK Flexibility Score: inf
ROOT
ATOM      1  C   UNL     1     133.024 132.978 135.749  1.00  0.00     0.039 C 
ENDROOT
BRANCH   1   2
ATOM      2  C   UNL     1     134.174 133.163 134.752  1.00  0.00     0.032 C 
BRANCH   2   3
ATOM      3  C   UNL     1     135.372 132.334 135.147  1.00  0.00    -0.028 C 
ATOM      4  C   UNL     1     136.655 134.295 136.035  1.00  0.00     0.039 C 
ATOM      5  C   UNL     1     136.497 132.829 135.710  1.00  0.00    -0.080 C 
ATOM      6  C   UNL     1     137.616 131.872 136.034  1.00  0.00     0.039 C 
ENDBRANCH   2   3
ENDBRANCH   1   2
BRANCH   1   7
ATOM      7  C   UNL     1     132.748 134.266 136.495  1.00  0.00    -0.055 C 
ATOM      8  C   UNL     1     131.898 135.154 135.969  1.00  0.00     0.012 C 
BRANCH   7   9
ATOM      9  C   UNL     1     133.356 134.561 137.819  1.00  0.00    -0.005 C 
ATOM     10  C   UNL     1     133.995 133.659 138.564  1.00  0.00     0.009 C 
ENDBRANCH   7   9
ENDBRANCH   1   7
TORSDOF 4
ENDMDL
MODEL 3
REMARK VINA RESULT:    -3.522      4.098      5.569
REMARK INTER + INTRA:          -5.073
REMARK INTER:                  -4.361
REMARK INTRA:                  -0.712
REMARK UNBOUND:                -0.728
REMARK SMILES C=CC(=C)CCC=C(C)C
REMARK SMILES IDX 5 1 6 2 7 3 9 4 8 5 10 6 3 7 4 8 2 9 1 10
REMARK H PARENT
REMARK Flexibility Score: inf
ROOT
ATOM      1  C   UNL     1     132.903 139.443 135.919  1.00  0.00     0.039 C 
ENDROOT
BRANCH   1   2
ATOM      2  C   UNL     1     133.213 138.281 134.967  1.00  0.00     0.032 C 
BRANCH   2   3
ATOM      3  C   UNL     1     132.361 137.078 135.285  1.00  0.00    -0.028 C 
ATOM      4  C   UNL     1     134.237 135.818 136.369  1.00  0.00     0.039 C 
ATOM      5  C   UNL     1     132.808 135.960 135.900  1.00  0.00    -0.080 C 
ATOM      6  C   UNL     1     131.834 134.833 136.135  1.00  0.00     0.039 C 
ENDBRANCH   2   3
ENDBRANCH   1   2
BRANCH   1   7
ATOM      7  C   UNL     1     134.137 139.845 136.697  1.00  0.00    -0.055 C 
ATOM      8  C   UNL     1     134.838 140.912 136.300  1.00  0.00     0.012 C 
BRANCH   7   9
ATOM      9  C   UNL     1     134.576 139.120 137.918  1.00  0.00    -0.005 C 
ATOM     10  C   UNL     1     133.741 138.629 138.834  1.00  0.00     0.009 C 
ENDBRANCH   7   9
ENDBRANCH   1   7
TORSDOF 4
ENDMDL
MODEL 4
REMARK VINA RESULT:    -3.514      2.515      4.607
REMARK INTER + INTRA:          -5.064
REMARK INTER:                  -4.145
REMARK INTRA:                  -0.919
REMARK UNBOUND:                -0.728
REMARK SMILES C=CC(=C)CCC=C(C)C
REMARK SMILES IDX 5 1 6 2 7 3 9 4 8 5 10 6 3 7 4 8 2 9 1 10
REMARK H PARENT
REMARK Flexibility Score: inf
ROOT
ATOM      1  C   UNL     1     134.822 140.760 136.493  1.00  0.00     0.039 C 
ENDROOT
BRANCH   1   2
ATOM      2  C   UNL     1     133.915 139.661 137.060  1.00  0.00     0.032 C 
BRANCH   2   3
ATOM      3  C   UNL     1     132.940 139.171 136.017  1.00  0.00    -0.028 C 
ATOM      4  C   UNL     1     134.048 136.936 135.778  1.00  0.00     0.039 C 
ATOM      5  C   UNL     1     132.995 137.959 135.423  1.00  0.00    -0.080 C 
ATOM      6  C   UNL     1     131.953 137.621 134.386  1.00  0.00     0.039 C 
ENDBRANCH   2   3
ENDBRANCH   1   2
BRANCH   1   7
ATOM      7  C   UNL     1     135.980 140.158 135.726  1.00  0.00    -0.055 C 
ATOM      8  C   UNL     1     136.822 139.334 136.359  1.00  0.00     0.012 C 
BRANCH   7   9
ATOM      9  C   UNL     1     136.191 140.416 134.277  1.00  0.00    -0.005 C 
ATOM     10  C   UNL     1     135.354 140.018 133.319  1.00  0.00     0.009 C 
ENDBRANCH   7   9
ENDBRANCH   1   7
TORSDOF 4
ENDMDL
MODEL 5
REMARK VINA RESULT:    -3.512      4.174      6.269
REMARK INTER + INTRA:          -5.061
REMARK INTER:                  -4.590
REMARK INTRA:                  -0.470
REMARK UNBOUND:                -0.728
REMARK SMILES C=CC(=C)CCC=C(C)C
REMARK SMILES IDX 5 1 6 2 7 3 9 4 8 5 10 6 3 7 4 8 2 9 1 10
REMARK H PARENT
REMARK Flexibility Score: inf
ROOT
ATOM      1  C   UNL     1     132.555 137.376 133.910  1.00  0.00     0.039 C 
ENDROOT
BRANCH   1   2
ATOM      2  C   UNL     1     132.226 138.351 135.047  1.00  0.00     0.032 C 
BRANCH   2   3
ATOM      3  C   UNL     1     133.290 139.413 135.175  1.00  0.00    -0.028 C 
ATOM      4  C   UNL     1     133.695 138.960 137.607  1.00  0.00     0.039 C 
ATOM      5  C   UNL     1     133.947 139.708 136.319  1.00  0.00    -0.080 C 
ATOM      6  C   UNL     1     134.976 140.810 136.290  1.00  0.00     0.039 C 
ENDBRANCH   2   3
ENDBRANCH   1   2
BRANCH   1   7
ATOM      7  C   UNL     1     132.585 135.950 134.417  1.00  0.00    -0.055 C 
ATOM      8  C   UNL     1     132.743 134.952 133.541  1.00  0.00     0.012 C 
BRANCH   7   9
ATOM      9  C   UNL     1     132.488 135.620 135.863  1.00  0.00    -0.005 C 
ATOM     10  C   UNL     1     131.703 134.664 136.360  1.00  0.00     0.009 C 
ENDBRANCH   7   9
ENDBRANCH   1   7
TORSDOF 4
ENDMDL
MODEL 6
REMARK VINA RESULT:    -3.502      5.628      8.049
REMARK INTER + INTRA:          -5.049
REMARK INTER:                  -4.120
REMARK INTRA:                  -0.929
REMARK UNBOUND:                -0.728
REMARK SMILES C=CC(=C)CCC=C(C)C
REMARK SMILES IDX 5 1 6 2 7 3 9 4 8 5 10 6 3 7 4 8 2 9 1 10
REMARK H PARENT
REMARK Flexibility Score: inf
ROOT
ATOM      1  C   UNL     1     131.893 134.539 136.222  1.00  0.00     0.039 C 
ENDROOT
BRANCH   1   2
ATOM      2  C   UNL     1     133.018 133.676 136.805  1.00  0.00     0.032 C 
BRANCH   2   3
ATOM      3  C   UNL     1     133.555 132.716 135.772  1.00  0.00    -0.028 C 
ATOM      4  C   UNL     1     135.762 133.887 135.578  1.00  0.00     0.039 C 
ATOM      5  C   UNL     1     134.777 132.806 135.202  1.00  0.00    -0.080 C 
ATOM      6  C   UNL     1     135.165 131.775 134.172  1.00  0.00     0.039 C 
ENDBRANCH   2   3
ENDBRANCH   1   2
BRANCH   1   7
ATOM      7  C   UNL     1     132.458 135.742 135.497  1.00  0.00    -0.055 C 
ATOM      8  C   UNL     1     133.202 136.621 136.177  1.00  0.00     0.012 C 
BRANCH   7   9
ATOM      9  C   UNL     1     132.253 135.959 134.041  1.00  0.00    -0.005 C 
ATOM     10  C   UNL     1     132.806 135.207 133.089  1.00  0.00     0.009 C 
ENDBRANCH   7   9
ENDBRANCH   1   7
TORSDOF 4
ENDMDL
MODEL 7
REMARK VINA RESULT:    -3.492      6.661      7.092
REMARK INTER + INTRA:          -5.036
REMARK INTER:                  -4.542
REMARK INTRA:                  -0.494
REMARK UNBOUND:                -0.728
REMARK SMILES C=CC(=C)CCC=C(C)C
REMARK SMILES IDX 5 1 6 2 7 3 9 4 8 5 10 6 3 7 4 8 2 9 1 10
REMARK H PARENT
REMARK Flexibility Score: inf
ROOT
ATOM      1  C   UNL     1     135.407 132.814 133.825  1.00  0.00     0.039 C 
ENDROOT
BRANCH   1   2
ATOM      2  C   UNL     1     134.444 132.267 134.886  1.00  0.00     0.032 C 
BRANCH   2   3
ATOM      3  C   UNL     1     133.283 133.206 135.099  1.00  0.00    -0.028 C 
ATOM      4  C   UNL     1     133.879 133.681 137.486  1.00  0.00     0.039 C 
ATOM      5  C   UNL     1     133.008 133.836 136.263  1.00  0.00    -0.080 C 
ATOM      6  C   UNL     1     131.798 134.735 136.322  1.00  0.00     0.039 C 
ENDBRANCH   2   3
ENDBRANCH   1   2
BRANCH   1   7
ATOM      7  C   UNL     1     136.842 132.705 134.294  1.00  0.00    -0.055 C 
ATOM      8  C   UNL     1     137.822 132.658 133.385  1.00  0.00     0.012 C 
BRANCH   7   9
ATOM      9  C   UNL     1     137.206 132.694 135.735  1.00  0.00    -0.005 C 
ATOM     10  C   UNL     1     137.842 131.688 136.336  1.00  0.00     0.009 C 
ENDBRANCH   7   9
ENDBRANCH   1   7
TORSDOF 4
ENDMDL
MODEL 8
REMARK VINA RESULT:    -3.452      2.366      4.326
REMARK INTER + INTRA:          -4.987
REMARK INTER:                  -4.192
REMARK INTRA:                  -0.795
REMARK UNBOUND:                -0.728
REMARK SMILES C=CC(=C)CCC=C(C)C
REMARK SMILES IDX 5 1 6 2 7 3 9 4 8 5 10 6 3 7 4 8 2 9 1 10
REMARK H PARENT
REMARK Flexibility Score: inf
ROOT
ATOM      1  C   UNL     1     140.870 137.870 136.104  1.00  0.00     0.039 C 
ENDROOT
BRANCH   1   2
ATOM      2  C   UNL     1     140.355 137.115 134.872  1.00  0.00     0.032 C 
BRANCH   2   3
ATOM      3  C   UNL     1     140.412 135.623 135.088  1.00  0.00    -0.028 C 
ATOM      4  C   UNL     1     138.007 135.455 135.772  1.00  0.00     0.039 C 
ATOM      5  C   UNL     1     139.373 134.867 135.505  1.00  0.00    -0.080 C 
ATOM      6  C   UNL     1     139.591 133.386 135.688  1.00  0.00     0.039 C 
ENDBRANCH   2   3
ENDBRANCH   1   2
BRANCH   1   7
ATOM      7  C   UNL     1     139.760 138.675 136.744  1.00  0.00    -0.055 C 
ATOM      8  C   UNL     1     139.259 139.728 136.090  1.00  0.00     0.012 C 
BRANCH   7   9
ATOM      9  C   UNL     1     139.172 138.308 138.059  1.00  0.00    -0.005 C 
ATOM     10  C   UNL     1     139.501 137.213 138.744  1.00  0.00     0.009 C 
ENDBRANCH   7   9
ENDBRANCH   1   7
TORSDOF 4
ENDMDL
MODEL 9
REMARK VINA RESULT:    -3.449      3.856      5.611
REMARK INTER + INTRA:          -4.984
REMARK INTER:                  -4.482
REMARK INTRA:                  -0.501
REMARK UNBOUND:                -0.728
REMARK SMILES C=CC(=C)CCC=C(C)C
REMARK SMILES IDX 5 1 6 2 7 3 9 4 8 5 10 6 3 7 4 8 2 9 1 10
REMARK H PARENT
REMARK Flexibility Score: inf
ROOT
ATOM      1  C   UNL     1     140.024 135.425 133.810  1.00  0.00     0.039 C 
ENDROOT
BRANCH   1   2
ATOM      2  C   UNL     1     140.445 134.482 134.943  1.00  0.00     0.032 C 
BRANCH   2   3
ATOM      3  C   UNL     1     139.455 133.354 135.106  1.00  0.00    -0.028 C 
ATOM      4  C   UNL     1     139.007 133.865 137.519  1.00  0.00     0.039 C 
ATOM      5  C   UNL     1     138.813 133.057 136.258  1.00  0.00    -0.080 C 
ATOM      6  C   UNL     1     137.861 131.887 136.265  1.00  0.00     0.039 C 
ENDBRANCH   2   3
ENDBRANCH   1   2
BRANCH   1   7
ATOM      7  C   UNL     1     139.879 136.844 134.317  1.00  0.00    -0.055 C 
ATOM      8  C   UNL     1     139.651 137.828 133.442  1.00  0.00     0.012 C 
BRANCH   7   9
ATOM      9  C   UNL     1     139.935 137.177 135.765  1.00  0.00    -0.005 C 
ATOM     10  C   UNL     1     140.929 137.856 136.336  1.00  0.00     0.009 C 
ENDBRANCH   7   9
ENDBRANCH   1   7
TORSDOF 4
ENDMDL
