MODEL 1
REMARK VINA RESULT:    -3.873      0.000      0.000
REMARK INTER + INTRA:         -10.558
REMARK INTER:                  -7.496
REMARK INTRA:                  -3.062
REMARK UNBOUND:                -3.062
REMARK SMILES CCCCCCCCCCCCCCCCCC(=O)[O-]
REMARK SMILES IDX 10 1 11 2 12 3 13 4 14 5 15 6 16 7 17 8 18 9 19 10 20 11
REMARK SMILES IDX 9 12 8 13 7 14 6 15 5 16 4 17 3 18 2 19 1 20
REMARK H PARENT
REMARK Flexibility Score: inf
ROOT
ATOM      1  C   UNL     1     177.105 177.121 180.424  1.00  0.00     0.000 C 
ENDROOT
BRANCH   1   2
ATOM      2  C   UNL     1     175.905 177.581 179.583  1.00  0.00     0.000 C 
BRANCH   2   3
ATOM      3  C   UNL     1     175.136 176.407 178.955  1.00  0.00     0.000 C 
BRANCH   3   4
ATOM      4  C   UNL     1     174.002 175.890 179.857  1.00  0.00     0.000 C 
BRANCH   4   5
ATOM      5  C   UNL     1     173.169 177.041 180.460  1.00  0.00     0.000 C 
BRANCH   5   6
ATOM      6  C   UNL     1     173.344 177.195 181.981  1.00  0.00     0.000 C 
BRANCH   6   7
ATOM      7  C   UNL     1     172.126 177.845 182.659  1.00  0.00     0.006 C 
BRANCH   7   8
ATOM      8  C   UNL     1     170.850 177.703 181.819  1.00  0.00     0.053 C 
BRANCH   8   9
ATOM      9  C   UNL     1     169.664 177.353 182.664  1.00  0.00     0.041 C 
ATOM     10  O   UNL     1     169.810 177.095 183.888  1.00  0.00    -0.550 OA
ATOM     11  O   UNL     1     168.392 177.340 182.106  1.00  0.00    -0.550 OA
ENDBRANCH   8   9
ENDBRANCH   7   8
ENDBRANCH   6   7
ENDBRANCH   5   6
ENDBRANCH   4   5
ENDBRANCH   3   4
ENDBRANCH   2   3
ENDBRANCH   1   2
BRANCH   1  12
ATOM     12  C   UNL     1     177.118 177.815 181.791  1.00  0.00     0.000 C 
BRANCH  12  13
ATOM     13  C   UNL     1     176.728 176.837 182.909  1.00  0.00    -0.000 C 
BRANCH  13  14
ATOM     14  C   UNL     1     176.781 175.369 182.457  1.00  0.00    -0.000 C 
BRANCH  14  15
ATOM     15  C   UNL     1     175.581 174.550 182.955  1.00  0.00    -0.000 C 
BRANCH  15  16
ATOM     16  C   UNL     1     175.249 173.413 181.980  1.00  0.00    -0.000 C 
BRANCH  16  17
ATOM     17  C   UNL     1     173.798 172.942 182.157  1.00  0.00    -0.000 C 
BRANCH  17  18
ATOM     18  C   UNL     1     173.079 173.682 183.306  1.00  0.00    -0.000 C 
BRANCH  18  19
ATOM     19  C   UNL     1     171.687 174.210 182.923  1.00  0.00    -0.003 C 
ATOM     20  C   UNL     1     171.268 173.822 181.507  1.00  0.00     0.004 C 
ENDBRANCH  18  19
ENDBRANCH  17  18
ENDBRANCH  16  17
ENDBRANCH  15  16
ENDBRANCH  14  15
ENDBRANCH  13  14
ENDBRANCH  12  13
ENDBRANCH   1  12
TORSDOF 16
ENDMDL
MODEL 2
REMARK VINA RESULT:    -3.851      2.623      4.903
REMARK INTER + INTRA:         -10.515
REMARK INTER:                  -7.495
REMARK INTRA:                  -3.020
REMARK UNBOUND:                -3.062
REMARK SMILES CCCCCCCCCCCCCCCCCC(=O)[O-]
REMARK SMILES IDX 10 1 11 2 12 3 13 4 14 5 15 6 16 7 17 8 18 9 19 10 20 11
REMARK SMILES IDX 9 12 8 13 7 14 6 15 5 16 4 17 3 18 2 19 1 20
REMARK H PARENT
REMARK Flexibility Score: inf
ROOT
ATOM      1  C   UNL     1     175.838 173.980 182.300  1.00  0.00     0.000 C 
ENDROOT
BRANCH   1   2
ATOM      2  C   UNL     1     176.998 174.984 182.223  1.00  0.00     0.000 C 
BRANCH   2   3
ATOM      3  C   UNL     1     176.687 176.306 182.942  1.00  0.00     0.000 C 
BRANCH   3   4
ATOM      4  C   UNL     1     176.983 177.539 182.072  1.00  0.00     0.000 C 
BRANCH   4   5
ATOM      5  C   UNL     1     177.012 177.195 180.567  1.00  0.00     0.000 C 
BRANCH   5   6
ATOM      6  C   UNL     1     175.734 177.607 179.817  1.00  0.00     0.000 C 
BRANCH   6   7
ATOM      7  C   UNL     1     175.475 176.753 178.565  1.00  0.00     0.006 C 
BRANCH   7   8
ATOM      8  C   UNL     1     175.819 175.274 178.790  1.00  0.00     0.053 C 
BRANCH   8   9
ATOM      9  C   UNL     1     174.631 174.388 178.574  1.00  0.00     0.041 C 
ATOM     10  O   UNL     1     173.611 174.826 177.980  1.00  0.00    -0.550 OA
ATOM     11  O   UNL     1     174.662 173.067 179.005  1.00  0.00    -0.550 OA
ENDBRANCH   8   9
ENDBRANCH   7   8
ENDBRANCH   6   7
ENDBRANCH   5   6
ENDBRANCH   4   5
ENDBRANCH   3   4
ENDBRANCH   2   3
ENDBRANCH   1   2
BRANCH   1  12
ATOM     12  C   UNL     1     174.681 174.539 183.139  1.00  0.00     0.000 C 
BRANCH  12  13
ATOM     13  C   UNL     1     173.372 174.543 182.336  1.00  0.00    -0.000 C 
BRANCH  13  14
ATOM     14  C   UNL     1     173.133 175.870 181.599  1.00  0.00    -0.000 C 
BRANCH  14  15
ATOM     15  C   UNL     1     173.178 177.086 182.536  1.00  0.00    -0.000 C 
BRANCH  15  16
ATOM     16  C   UNL     1     172.017 178.046 182.248  1.00  0.00    -0.000 C 
BRANCH  16  17
ATOM     17  C   UNL     1     170.691 177.281 182.108  1.00  0.00    -0.000 C 
BRANCH  17  18
ATOM     18  C   UNL     1     170.129 176.834 183.474  1.00  0.00    -0.000 C 
BRANCH  18  19
ATOM     19  C   UNL     1     169.899 175.318 183.579  1.00  0.00    -0.003 C 
ATOM     20  C   UNL     1     169.627 174.658 182.229  1.00  0.00     0.004 C 
ENDBRANCH  18  19
ENDBRANCH  17  18
ENDBRANCH  16  17
ENDBRANCH  15  16
ENDBRANCH  14  15
ENDBRANCH  13  14
ENDBRANCH  12  13
ENDBRANCH   1  12
TORSDOF 16
ENDMDL
MODEL 3
REMARK VINA RESULT:    -3.839      1.495      2.901
REMARK INTER + INTRA:         -10.493
REMARK INTER:                  -8.022
REMARK INTRA:                  -2.471
REMARK UNBOUND:                -3.062
REMARK SMILES CCCCCCCCCCCCCCCCCC(=O)[O-]
REMARK SMILES IDX 10 1 11 2 12 3 13 4 14 5 15 6 16 7 17 8 18 9 19 10 20 11
REMARK SMILES IDX 9 12 8 13 7 14 6 15 5 16 4 17 3 18 2 19 1 20
REMARK H PARENT
REMARK Flexibility Score: inf
ROOT
ATOM      1  C   UNL     1     175.159 177.534 179.269  1.00  0.00     0.000 C 
ENDROOT
BRANCH   1   2
ATOM      2  C   UNL     1     174.392 176.349 179.872  1.00  0.00     0.000 C 
BRANCH   2   3
ATOM      3  C   UNL     1     173.055 176.767 180.505  1.00  0.00     0.000 C 
BRANCH   3   4
ATOM      4  C   UNL     1     173.219 177.301 181.939  1.00  0.00     0.000 C 
BRANCH   4   5
ATOM      5  C   UNL     1     171.952 178.030 182.436  1.00  0.00     0.000 C 
BRANCH   5   6
ATOM      6  C   UNL     1     170.648 177.272 182.135  1.00  0.00     0.000 C 
BRANCH   6   7
ATOM      7  C   UNL     1     169.978 176.711 183.400  1.00  0.00     0.006 C 
BRANCH   7   8
ATOM      8  C   UNL     1     170.203 175.201 183.555  1.00  0.00     0.053 C 
BRANCH   8   9
ATOM      9  C   UNL     1     169.565 174.428 182.442  1.00  0.00     0.041 C 
ATOM     10  O   UNL     1     170.276 173.795 181.618  1.00  0.00    -0.550 OA
ATOM     11  O   UNL     1     168.181 174.384 182.331  1.00  0.00    -0.550 OA
ENDBRANCH   8   9
ENDBRANCH   7   8
ENDBRANCH   6   7
ENDBRANCH   5   6
ENDBRANCH   4   5
ENDBRANCH   3   4
ENDBRANCH   2   3
ENDBRANCH   1   2
BRANCH   1  12
ATOM     12  C   UNL     1     176.667 177.394 179.512  1.00  0.00     0.000 C 
BRANCH  12  13
ATOM     13  C   UNL     1     176.947 176.549 180.764  1.00  0.00    -0.000 C 
BRANCH  13  14
ATOM     14  C   UNL     1     176.994 177.391 182.048  1.00  0.00    -0.000 C 
BRANCH  14  15
ATOM     15  C   UNL     1     176.513 176.615 183.284  1.00  0.00    -0.000 C 
BRANCH  15  16
ATOM     16  C   UNL     1     176.476 175.108 183.005  1.00  0.00    -0.000 C 
BRANCH  16  17
ATOM     17  C   UNL     1     175.043 174.563 183.110  1.00  0.00    -0.000 C 
BRANCH  17  18
ATOM     18  C   UNL     1     174.731 173.524 182.011  1.00  0.00    -0.000 C 
BRANCH  18  19
ATOM     19  C   UNL     1     175.984 172.988 181.297  1.00  0.00    -0.003 C 
ATOM     20  C   UNL     1     175.803 172.858 179.787  1.00  0.00     0.004 C 
ENDBRANCH  18  19
ENDBRANCH  17  18
ENDBRANCH  16  17
ENDBRANCH  15  16
ENDBRANCH  14  15
ENDBRANCH  13  14
ENDBRANCH  12  13
ENDBRANCH   1  12
TORSDOF 16
ENDMDL
MODEL 4
REMARK VINA RESULT:    -3.818      1.390      3.471
REMARK INTER + INTRA:         -10.452
REMARK INTER:                  -7.701
REMARK INTRA:                  -2.751
REMARK UNBOUND:                -3.062
REMARK SMILES CCCCCCCCCCCCCCCCCC(=O)[O-]
REMARK SMILES IDX 10 1 11 2 12 3 13 4 14 5 15 6 16 7 17 8 18 9 19 10 20 11
REMARK SMILES IDX 9 12 8 13 7 14 6 15 5 16 4 17 3 18 2 19 1 20
REMARK H PARENT
REMARK Flexibility Score: inf
ROOT
ATOM      1  C   UNL     1     173.518 176.728 178.795  1.00  0.00     0.000 C 
ENDROOT
BRANCH   1   2
ATOM      2  C   UNL     1     173.080 176.156 180.151  1.00  0.00     0.000 C 
BRANCH   2   3
ATOM      3  C   UNL     1     172.505 177.229 181.089  1.00  0.00     0.000 C 
BRANCH   3   4
ATOM      4  C   UNL     1     172.419 176.756 182.551  1.00  0.00     0.000 C 
BRANCH   4   5
ATOM      5  C   UNL     1     172.238 175.226 182.656  1.00  0.00     0.000 C 
BRANCH   5   6
ATOM      6  C   UNL     1     170.885 174.807 183.254  1.00  0.00     0.000 C 
BRANCH   6   7
ATOM      7  C   UNL     1     169.847 175.941 183.239  1.00  0.00     0.006 C 
BRANCH   7   8
ATOM      8  C   UNL     1     168.875 175.822 182.058  1.00  0.00     0.053 C 
BRANCH   8   9
ATOM      9  C   UNL     1     168.502 177.164 181.507  1.00  0.00     0.041 C 
ATOM     10  O   UNL     1     169.143 177.654 180.540  1.00  0.00    -0.550 OA
ATOM     11  O   UNL     1     167.428 177.863 182.045  1.00  0.00    -0.550 OA
ENDBRANCH   8   9
ENDBRANCH   7   8
ENDBRANCH   6   7
ENDBRANCH   5   6
ENDBRANCH   4   5
ENDBRANCH   3   4
ENDBRANCH   2   3
ENDBRANCH   1   2
BRANCH   1  12
ATOM     12  C   UNL     1     175.046 176.733 178.667  1.00  0.00     0.000 C 
BRANCH  12  13
ATOM     13  C   UNL     1     175.678 177.722 179.658  1.00  0.00    -0.000 C 
BRANCH  13  14
ATOM     14  C   UNL     1     177.108 177.328 180.058  1.00  0.00    -0.000 C 
BRANCH  14  15
ATOM     15  C   UNL     1     177.324 177.344 181.579  1.00  0.00    -0.000 C 
BRANCH  15  16
ATOM     16  C   UNL     1     175.992 177.197 182.325  1.00  0.00    -0.000 C 
BRANCH  16  17
ATOM     17  C   UNL     1     176.021 175.987 183.271  1.00  0.00    -0.000 C 
BRANCH  17  18
ATOM     18  C   UNL     1     176.632 174.737 182.602  1.00  0.00    -0.000 C 
BRANCH  18  19
ATOM     19  C   UNL     1     175.636 173.957 181.728  1.00  0.00    -0.003 C 
ATOM     20  C   UNL     1     176.182 173.636 180.339  1.00  0.00     0.004 C 
ENDBRANCH  18  19
ENDBRANCH  17  18
ENDBRANCH  16  17
ENDBRANCH  15  16
ENDBRANCH  14  15
ENDBRANCH  13  14
ENDBRANCH  12  13
ENDBRANCH   1  12
TORSDOF 16
ENDMDL
MODEL 5
REMARK VINA RESULT:    -3.815      2.393      4.628
REMARK INTER + INTRA:         -10.446
REMARK INTER:                  -7.782
REMARK INTRA:                  -2.664
REMARK UNBOUND:                -3.062
REMARK SMILES CCCCCCCCCCCCCCCCCC(=O)[O-]
REMARK SMILES IDX 10 1 11 2 12 3 13 4 14 5 15 6 16 7 17 8 18 9 19 10 20 11
REMARK SMILES IDX 9 12 8 13 7 14 6 15 5 16 4 17 3 18 2 19 1 20
REMARK H PARENT
REMARK Flexibility Score: inf
ROOT
ATOM      1  C   UNL     1     175.255 174.899 183.040  1.00  0.00     0.000 C 
ENDROOT
BRANCH   1   2
ATOM      2  C   UNL     1     176.736 175.241 182.824  1.00  0.00     0.000 C 
BRANCH   2   3
ATOM      3  C   UNL     1     177.051 175.620 181.369  1.00  0.00     0.000 C 
BRANCH   3   4
ATOM      4  C   UNL     1     177.208 177.138 181.171  1.00  0.00     0.000 C 
BRANCH   4   5
ATOM      5  C   UNL     1     176.468 177.639 179.912  1.00  0.00     0.000 C 
BRANCH   5   6
ATOM      6  C   UNL     1     176.363 176.583 178.799  1.00  0.00     0.000 C 
BRANCH   6   7
ATOM      7  C   UNL     1     174.922 176.380 178.303  1.00  0.00     0.006 C 
BRANCH   7   8
ATOM      8  C   UNL     1     174.019 177.575 178.638  1.00  0.00     0.053 C 
BRANCH   8   9
ATOM      9  C   UNL     1     172.907 177.727 177.646  1.00  0.00     0.041 C 
ATOM     10  O   UNL     1     171.772 178.124 178.019  1.00  0.00    -0.550 OA
ATOM     11  O   UNL     1     173.132 177.454 176.302  1.00  0.00    -0.550 OA
ENDBRANCH   8   9
ENDBRANCH   7   8
ENDBRANCH   6   7
ENDBRANCH   5   6
ENDBRANCH   4   5
ENDBRANCH   3   4
ENDBRANCH   2   3
ENDBRANCH   1   2
BRANCH   1  12
ATOM     12  C   UNL     1     174.526 174.737 181.699  1.00  0.00     0.000 C 
BRANCH  12  13
ATOM     13  C   UNL     1     173.283 175.636 181.638  1.00  0.00    -0.000 C 
BRANCH  13  14
ATOM     14  C   UNL     1     173.526 177.027 182.244  1.00  0.00    -0.000 C 
BRANCH  14  15
ATOM     15  C   UNL     1     172.221 177.777 182.549  1.00  0.00    -0.000 C 
BRANCH  15  16
ATOM     16  C   UNL     1     171.123 177.400 181.547  1.00  0.00    -0.000 C 
BRANCH  16  17
ATOM     17  C   UNL     1     169.787 177.143 182.262  1.00  0.00    -0.000 C 
BRANCH  17  18
ATOM     18  C   UNL     1     169.957 176.255 183.513  1.00  0.00    -0.000 C 
BRANCH  18  19
ATOM     19  C   UNL     1     170.082 174.756 183.191  1.00  0.00    -0.003 C 
ATOM     20  C   UNL     1     170.628 173.937 184.359  1.00  0.00     0.004 C 
ENDBRANCH  18  19
ENDBRANCH  17  18
ENDBRANCH  16  17
ENDBRANCH  15  16
ENDBRANCH  14  15
ENDBRANCH  13  14
ENDBRANCH  12  13
ENDBRANCH   1  12
TORSDOF 16
ENDMDL
MODEL 6
REMARK VINA RESULT:    -3.763      3.160      5.313
REMARK INTER + INTRA:         -10.345
REMARK INTER:                  -7.838
REMARK INTRA:                  -2.507
REMARK UNBOUND:                -3.062
REMARK SMILES CCCCCCCCCCCCCCCCCC(=O)[O-]
REMARK SMILES IDX 10 1 11 2 12 3 13 4 14 5 15 6 16 7 17 8 18 9 19 10 20 11
REMARK SMILES IDX 9 12 8 13 7 14 6 15 5 16 4 17 3 18 2 19 1 20
REMARK H PARENT
REMARK Flexibility Score: inf
ROOT
ATOM      1  C   UNL     1     176.695 176.207 179.737  1.00  0.00     0.000 C 
ENDROOT
BRANCH   1   2
ATOM      2  C   UNL     1     176.938 177.572 180.398  1.00  0.00     0.000 C 
BRANCH   2   3
ATOM      3  C   UNL     1     177.199 177.461 181.908  1.00  0.00     0.000 C 
BRANCH   3   4
ATOM      4  C   UNL     1     175.936 177.087 182.703  1.00  0.00     0.000 C 
BRANCH   4   5
ATOM      5  C   UNL     1     176.006 175.650 183.264  1.00  0.00     0.000 C 
BRANCH   5   6
ATOM      6  C   UNL     1     174.732 174.827 183.009  1.00  0.00     0.000 C 
BRANCH   6   7
ATOM      7  C   UNL     1     174.995 173.562 182.175  1.00  0.00     0.006 C 
BRANCH   7   8
ATOM      8  C   UNL     1     176.488 173.365 181.876  1.00  0.00     0.053 C 
BRANCH   8   9
ATOM      9  C   UNL     1     176.708 172.369 180.779  1.00  0.00     0.041 C 
ATOM     10  O   UNL     1     177.409 171.344 180.982  1.00  0.00    -0.550 OA
ATOM     11  O   UNL     1     176.115 172.561 179.536  1.00  0.00    -0.550 OA
ENDBRANCH   8   9
ENDBRANCH   7   8
ENDBRANCH   6   7
ENDBRANCH   5   6
ENDBRANCH   4   5
ENDBRANCH   3   4
ENDBRANCH   2   3
ENDBRANCH   1   2
BRANCH   1  12
ATOM     12  C   UNL     1     175.508 176.269 178.767  1.00  0.00     0.000 C 
BRANCH  12  13
ATOM     13  C   UNL     1     174.213 175.814 179.455  1.00  0.00    -0.000 C 
BRANCH  13  14
ATOM     14  C   UNL     1     173.394 176.988 180.013  1.00  0.00    -0.000 C 
BRANCH  14  15
ATOM     15  C   UNL     1     171.910 176.640 180.203  1.00  0.00    -0.000 C 
BRANCH  15  16
ATOM     16  C   UNL     1     171.240 177.610 181.184  1.00  0.00    -0.000 C 
BRANCH  16  17
ATOM     17  C   UNL     1     171.476 177.174 182.639  1.00  0.00    -0.000 C 
BRANCH  17  18
ATOM     18  C   UNL     1     170.160 176.807 183.359  1.00  0.00    -0.000 C 
BRANCH  18  19
ATOM     19  C   UNL     1     169.887 175.294 183.410  1.00  0.00    -0.003 C 
ATOM     20  C   UNL     1     171.163 174.455 183.421  1.00  0.00     0.004 C 
ENDBRANCH  18  19
ENDBRANCH  17  18
ENDBRANCH  16  17
ENDBRANCH  15  16
ENDBRANCH  14  15
ENDBRANCH  13  14
ENDBRANCH  12  13
ENDBRANCH   1  12
TORSDOF 16
ENDMDL
MODEL 7
REMARK VINA RESULT:    -3.757      1.587      3.730
REMARK INTER + INTRA:         -10.334
REMARK INTER:                  -7.679
REMARK INTRA:                  -2.655
REMARK UNBOUND:                -3.062
REMARK SMILES CCCCCCCCCCCCCCCCCC(=O)[O-]
REMARK SMILES IDX 10 1 11 2 12 3 13 4 14 5 15 6 16 7 17 8 18 9 19 10 20 11
REMARK SMILES IDX 9 12 8 13 7 14 6 15 5 16 4 17 3 18 2 19 1 20
REMARK H PARENT
REMARK Flexibility Score: inf
ROOT
ATOM      1  C   UNL     1     175.496 174.719 182.675  1.00  0.00     0.000 C 
ENDROOT
BRANCH   1   2
ATOM      2  C   UNL     1     173.973 174.821 182.839  1.00  0.00     0.000 C 
BRANCH   2   3
ATOM      3  C   UNL     1     173.321 175.719 181.775  1.00  0.00     0.000 C 
BRANCH   3   4
ATOM      4  C   UNL     1     173.213 177.187 182.223  1.00  0.00     0.000 C 
BRANCH   4   5
ATOM      5  C   UNL     1     171.797 177.760 181.997  1.00  0.00     0.000 C 
BRANCH   5   6
ATOM      6  C   UNL     1     170.863 177.589 183.207  1.00  0.00     0.000 C 
BRANCH   6   7
ATOM      7  C   UNL     1     169.496 176.995 182.828  1.00  0.00     0.006 C 
BRANCH   7   8
ATOM      8  C   UNL     1     169.541 176.246 181.489  1.00  0.00     0.053 C 
BRANCH   8   9
ATOM      9  C   UNL     1     168.595 176.837 180.490  1.00  0.00     0.041 C 
ATOM     10  O   UNL     1     168.559 176.396 179.311  1.00  0.00    -0.550 OA
ATOM     11  O   UNL     1     167.732 177.858 180.868  1.00  0.00    -0.550 OA
ENDBRANCH   8   9
ENDBRANCH   7   8
ENDBRANCH   6   7
ENDBRANCH   5   6
ENDBRANCH   4   5
ENDBRANCH   3   4
ENDBRANCH   2   3
ENDBRANCH   1   2
BRANCH   1  12
ATOM     12  C   UNL     1     176.217 175.692 183.617  1.00  0.00     0.000 C 
BRANCH  12  13
ATOM     13  C   UNL     1     176.815 176.872 182.836  1.00  0.00    -0.000 C 
BRANCH  13  14
ATOM     14  C   UNL     1     177.060 176.540 181.356  1.00  0.00    -0.000 C 
BRANCH  14  15
ATOM     15  C   UNL     1     177.008 177.781 180.453  1.00  0.00    -0.000 C 
BRANCH  15  16
ATOM     16  C   UNL     1     175.839 177.693 179.464  1.00  0.00    -0.000 C 
BRANCH  16  17
ATOM     17  C   UNL     1     175.636 176.249 178.977  1.00  0.00    -0.000 C 
BRANCH  17  18
ATOM     18  C   UNL     1     174.287 176.063 178.251  1.00  0.00    -0.000 C 
BRANCH  18  19
ATOM     19  C   UNL     1     173.425 177.336 178.214  1.00  0.00    -0.003 C 
ATOM     20  C   UNL     1     171.935 177.057 178.391  1.00  0.00     0.004 C 
ENDBRANCH  18  19
ENDBRANCH  17  18
ENDBRANCH  16  17
ENDBRANCH  15  16
ENDBRANCH  14  15
ENDBRANCH  13  14
ENDBRANCH  12  13
ENDBRANCH   1  12
TORSDOF 16
ENDMDL
MODEL 8
REMARK VINA RESULT:    -3.750      2.057      4.291
REMARK INTER + INTRA:         -10.319
REMARK INTER:                  -7.903
REMARK INTRA:                  -2.416
REMARK UNBOUND:                -3.062
REMARK SMILES CCCCCCCCCCCCCCCCCC(=O)[O-]
REMARK SMILES IDX 10 1 11 2 12 3 13 4 14 5 15 6 16 7 17 8 18 9 19 10 20 11
REMARK SMILES IDX 9 12 8 13 7 14 6 15 5 16 4 17 3 18 2 19 1 20
REMARK H PARENT
REMARK Flexibility Score: inf
ROOT
ATOM      1  C   UNL     1     173.528 175.649 182.347  1.00  0.00     0.000 C 
ENDROOT
BRANCH   1   2
ATOM      2  C   UNL     1     173.502 177.179 182.476  1.00  0.00     0.000 C 
BRANCH   2   3
ATOM      3  C   UNL     1     172.078 177.735 182.642  1.00  0.00     0.000 C 
BRANCH   3   4
ATOM      4  C   UNL     1     171.278 177.718 181.328  1.00  0.00     0.000 C 
BRANCH   4   5
ATOM      5  C   UNL     1     169.911 177.020 181.491  1.00  0.00     0.000 C 
BRANCH   5   6
ATOM      6  C   UNL     1     169.985 175.488 181.377  1.00  0.00     0.000 C 
BRANCH   6   7
ATOM      7  C   UNL     1     169.369 174.768 182.588  1.00  0.00     0.006 C 
BRANCH   7   8
ATOM      8  C   UNL     1     170.247 174.885 183.841  1.00  0.00     0.053 C 
BRANCH   8   9
ATOM      9  C   UNL     1     170.646 173.541 184.368  1.00  0.00     0.041 C 
ATOM     10  O   UNL     1     171.802 173.358 184.831  1.00  0.00    -0.550 OA
ATOM     11  O   UNL     1     169.730 172.496 184.372  1.00  0.00    -0.550 OA
ENDBRANCH   8   9
ENDBRANCH   7   8
ENDBRANCH   6   7
ENDBRANCH   5   6
ENDBRANCH   4   5
ENDBRANCH   3   4
ENDBRANCH   2   3
ENDBRANCH   1   2
BRANCH   1  12
ATOM     12  C   UNL     1     174.857 175.076 182.857  1.00  0.00     0.000 C 
BRANCH  12  13
ATOM     13  C   UNL     1     175.806 176.200 183.299  1.00  0.00    -0.000 C 
BRANCH  13  14
ATOM     14  C   UNL     1     177.027 176.341 182.377  1.00  0.00    -0.000 C 
BRANCH  14  15
ATOM     15  C   UNL     1     177.374 177.806 182.073  1.00  0.00    -0.000 C 
BRANCH  15  16
ATOM     16  C   UNL     1     177.161 178.125 180.588  1.00  0.00    -0.000 C 
BRANCH  16  17
ATOM     17  C   UNL     1     176.375 177.004 179.890  1.00  0.00    -0.000 C 
BRANCH  17  18
ATOM     18  C   UNL     1     175.132 177.538 179.146  1.00  0.00    -0.000 C 
BRANCH  18  19
ATOM     19  C   UNL     1     174.099 176.449 178.810  1.00  0.00    -0.003 C 
ATOM     20  C   UNL     1     174.738 175.124 178.400  1.00  0.00     0.004 C 
ENDBRANCH  18  19
ENDBRANCH  17  18
ENDBRANCH  16  17
ENDBRANCH  15  16
ENDBRANCH  14  15
ENDBRANCH  13  14
ENDBRANCH  12  13
ENDBRANCH   1  12
TORSDOF 16
ENDMDL
MODEL 9
REMARK VINA RESULT:    -3.736      3.102      5.338
REMARK INTER + INTRA:         -10.293
REMARK INTER:                  -7.476
REMARK INTRA:                  -2.818
REMARK UNBOUND:                -3.062
REMARK SMILES CCCCCCCCCCCCCCCCCC(=O)[O-]
REMARK SMILES IDX 10 1 11 2 12 3 13 4 14 5 15 6 16 7 17 8 18 9 19 10 20 11
REMARK SMILES IDX 9 12 8 13 7 14 6 15 5 16 4 17 3 18 2 19 1 20
REMARK H PARENT
REMARK Flexibility Score: inf
ROOT
ATOM      1  C   UNL     1     173.878 176.120 179.360  1.00  0.00     0.000 C 
ENDROOT
BRANCH   1   2
ATOM      2  C   UNL     1     174.701 177.416 179.319  1.00  0.00     0.000 C 
BRANCH   2   3
ATOM      3  C   UNL     1     176.214 177.156 179.245  1.00  0.00     0.000 C 
BRANCH   3   4
ATOM      4  C   UNL     1     176.987 177.814 180.401  1.00  0.00     0.000 C 
BRANCH   4   5
ATOM      5  C   UNL     1     177.023 176.919 181.658  1.00  0.00     0.000 C 
BRANCH   5   6
ATOM      6  C   UNL     1     177.173 175.421 181.343  1.00  0.00     0.000 C 
BRANCH   6   7
ATOM      7  C   UNL     1     176.353 174.527 182.288  1.00  0.00     0.006 C 
BRANCH   7   8
ATOM      8  C   UNL     1     175.508 173.498 181.525  1.00  0.00     0.053 C 
BRANCH   8   9
ATOM      9  C   UNL     1     176.352 172.401 180.952  1.00  0.00     0.041 C 
ATOM     10  O   UNL     1     176.088 171.923 179.817  1.00  0.00    -0.550 OA
ATOM     11  O   UNL     1     177.448 171.925 181.661  1.00  0.00    -0.550 OA
ENDBRANCH   8   9
ENDBRANCH   7   8
ENDBRANCH   6   7
ENDBRANCH   5   6
ENDBRANCH   4   5
ENDBRANCH   3   4
ENDBRANCH   2   3
ENDBRANCH   1   2
BRANCH   1  12
ATOM     12  C   UNL     1     173.014 176.056 180.626  1.00  0.00     0.000 C 
BRANCH  12  13
ATOM     13  C   UNL     1     173.400 177.167 181.612  1.00  0.00    -0.000 C 
BRANCH  13  14
ATOM     14  C   UNL     1     172.263 177.520 182.583  1.00  0.00    -0.000 C 
BRANCH  14  15
ATOM     15  C   UNL     1     170.872 177.344 181.957  1.00  0.00    -0.000 C 
BRANCH  15  16
ATOM     16  C   UNL     1     169.837 176.950 183.018  1.00  0.00    -0.000 C 
BRANCH  16  17
ATOM     17  C   UNL     1     170.152 175.567 183.610  1.00  0.00    -0.000 C 
BRANCH  17  18
ATOM     18  C   UNL     1     170.182 174.464 182.530  1.00  0.00    -0.000 C 
BRANCH  18  19
ATOM     19  C   UNL     1     171.242 173.380 182.787  1.00  0.00    -0.003 C 
ATOM     20  C   UNL     1     172.434 173.887 183.596  1.00  0.00     0.004 C 
ENDBRANCH  18  19
ENDBRANCH  17  18
ENDBRANCH  16  17
ENDBRANCH  15  16
ENDBRANCH  14  15
ENDBRANCH  13  14
ENDBRANCH  12  13
ENDBRANCH   1  12
TORSDOF 16
ENDMDL
