MODEL 1
REMARK VINA RESULT:    -7.881      0.000      0.000
REMARK INTER + INTRA:          -9.553
REMARK INTER:                  -9.263
REMARK INTRA:                  -0.289
REMARK UNBOUND:                -0.289
REMARK SMILES O=c1cc(-c2ccc(O)c(O)c2)oc2cc(O)cc(O)c12
REMARK SMILES IDX 4 1 3 2 2 3 1 4 21 5 19 6 18 7 16 8 15 9 14 10 13 11 5 12
REMARK SMILES IDX 6 13 7 14 8 15 12 16 10 17 9 18 11 20 20 22 17 24
REMARK H PARENT 9 19 11 21 20 23 17 25
REMARK Flexibility Score: inf
ROOT
ATOM      1  C   UNL     1      13.915  -4.338  16.509  1.00  0.00     0.138 A 
ATOM      2  C   UNL     1      14.286  -2.986  16.503  1.00  0.00     0.100 A 
ATOM      3  C   UNL     1      15.490  -2.603  15.909  1.00  0.00     0.197 A 
ATOM      4  O   UNL     1      15.821  -1.391  15.969  1.00  0.00    -0.289 OA
ATOM      5  C   UNL     1      16.308  -3.575  15.286  1.00  0.00     0.107 A 
ATOM      6  C   UNL     1      17.540  -3.297  14.619  1.00  0.00     0.134 A 
ATOM      7  C   UNL     1      18.312  -4.356  14.126  1.00  0.00     0.093 A 
ATOM      8  C   UNL     1      17.872  -5.676  14.223  1.00  0.00     0.123 A 
ATOM      9  C   UNL     1      16.646  -5.955  14.828  1.00  0.00     0.094 A 
ATOM     10  C   UNL     1      15.869  -4.924  15.361  1.00  0.00     0.146 A 
ATOM     11  O   UNL     1      14.717  -5.235  15.946  1.00  0.00    -0.456 OA
ENDROOT
BRANCH   1  12
ATOM     12  C   UNL     1      12.645  -4.800  17.124  1.00  0.00     0.021 A 
ATOM     13  C   UNL     1      11.419  -4.172  16.849  1.00  0.00     0.016 A 
ATOM     14  C   UNL     1      10.242  -4.623  17.451  1.00  0.00     0.051 A 
ATOM     15  C   UNL     1      10.262  -5.700  18.342  1.00  0.00     0.157 A 
ATOM     16  C   UNL     1      12.667  -5.874  18.031  1.00  0.00     0.062 A 
ATOM     17  C   UNL     1      11.492  -6.333  18.638  1.00  0.00     0.158 A 
BRANCH  15  18
ATOM     18  O   UNL     1       9.050  -6.104  18.907  1.00  0.00    -0.504 OA
ATOM     19  H   UNL     1       8.249  -6.403  18.369  1.00  0.00     0.293 HD
ENDBRANCH  15  18
BRANCH  17  20
ATOM     20  O   UNL     1      11.592  -7.410  19.520  1.00  0.00    -0.504 OA
ATOM     21  H   UNL     1      11.837  -7.322  20.495  1.00  0.00     0.293 HD
ENDBRANCH  17  20
ENDBRANCH   1  12
BRANCH   6  22
ATOM     22  O   UNL     1      18.036  -2.009  14.394  1.00  0.00    -0.507 OA
ATOM     23  H   UNL     1      18.962  -1.796  14.056  1.00  0.00     0.293 HD
ENDBRANCH   6  22
BRANCH   8  24
ATOM     24  O   UNL     1      18.660  -6.702  13.707  1.00  0.00    -0.508 OA
ATOM     25  H   UNL     1      19.601  -6.869  14.046  1.00  0.00     0.293 HD
ENDBRANCH   8  24
TORSDOF 5
ENDMDL
MODEL 2
REMARK VINA RESULT:    -7.611      0.633      1.479
REMARK INTER + INTRA:          -9.235
REMARK INTER:                  -8.952
REMARK INTRA:                  -0.283
REMARK UNBOUND:                -0.289
REMARK SMILES O=c1cc(-c2ccc(O)c(O)c2)oc2cc(O)cc(O)c12
REMARK SMILES IDX 4 1 3 2 2 3 1 4 21 5 19 6 18 7 16 8 15 9 14 10 13 11 5 12
REMARK SMILES IDX 6 13 7 14 8 15 12 16 10 17 9 18 11 20 20 22 17 24
REMARK H PARENT 9 19 11 21 20 23 17 25
REMARK Flexibility Score: inf
ROOT
ATOM      1  C   UNL     1      13.913  -4.394  16.658  1.00  0.00     0.138 A 
ATOM      2  C   UNL     1      14.268  -3.039  16.659  1.00  0.00     0.100 A 
ATOM      3  C   UNL     1      15.434  -2.630  16.008  1.00  0.00     0.197 A 
ATOM      4  O   UNL     1      15.754  -1.415  16.074  1.00  0.00    -0.289 OA
ATOM      5  C   UNL     1      16.228  -3.580  15.322  1.00  0.00     0.107 A 
ATOM      6  C   UNL     1      17.418  -3.275  14.595  1.00  0.00     0.134 A 
ATOM      7  C   UNL     1      18.173  -4.315  14.040  1.00  0.00     0.093 A 
ATOM      8  C   UNL     1      17.754  -5.642  14.135  1.00  0.00     0.123 A 
ATOM      9  C   UNL     1      16.566  -5.946  14.800  1.00  0.00     0.094 A 
ATOM     10  C   UNL     1      15.808  -4.935  15.395  1.00  0.00     0.146 A 
ATOM     11  O   UNL     1      14.693  -5.271  16.034  1.00  0.00    -0.456 OA
ENDROOT
BRANCH   1  12
ATOM     12  C   UNL     1      12.684  -4.884  17.332  1.00  0.00     0.021 A 
ATOM     13  C   UNL     1      12.631  -6.145  17.949  1.00  0.00     0.016 A 
ATOM     14  C   UNL     1      11.458  -6.583  18.566  1.00  0.00     0.051 A 
ATOM     15  C   UNL     1      10.312  -5.780  18.575  1.00  0.00     0.157 A 
ATOM     16  C   UNL     1      11.529  -4.084  17.328  1.00  0.00     0.062 A 
ATOM     17  C   UNL     1      10.347  -4.514  17.945  1.00  0.00     0.158 A 
BRANCH  15  18
ATOM     18  O   UNL     1       9.172  -6.276  19.212  1.00  0.00    -0.504 OA
ATOM     19  H   UNL     1       8.921  -7.254  19.238  1.00  0.00     0.293 HD
ENDBRANCH  15  18
BRANCH  17  20
ATOM     20  O   UNL     1       9.243  -3.660  17.909  1.00  0.00    -0.504 OA
ATOM     21  H   UNL     1       8.789  -3.288  18.730  1.00  0.00     0.293 HD
ENDBRANCH  17  20
ENDBRANCH   1  12
BRANCH   6  22
ATOM     22  O   UNL     1      17.887  -1.977  14.369  1.00  0.00    -0.507 OA
ATOM     23  H   UNL     1      17.384  -1.257  13.874  1.00  0.00     0.293 HD
ENDBRANCH   6  22
BRANCH   8  24
ATOM     24  O   UNL     1      18.524  -6.648  13.557  1.00  0.00    -0.508 OA
ATOM     25  H   UNL     1      19.430  -6.452  13.147  1.00  0.00     0.293 HD
ENDBRANCH   8  24
TORSDOF 5
ENDMDL
MODEL 3
REMARK VINA RESULT:    -7.214      3.585      6.013
REMARK INTER + INTRA:          -8.768
REMARK INTER:                  -8.469
REMARK INTRA:                  -0.299
REMARK UNBOUND:                -0.289
REMARK SMILES O=c1cc(-c2ccc(O)c(O)c2)oc2cc(O)cc(O)c12
REMARK SMILES IDX 4 1 3 2 2 3 1 4 21 5 19 6 18 7 16 8 15 9 14 10 13 11 5 12
REMARK SMILES IDX 6 13 7 14 8 15 12 16 10 17 9 18 11 20 20 22 17 24
REMARK H PARENT 9 19 11 21 20 23 17 25
REMARK Flexibility Score: inf
ROOT
ATOM      1  C   UNL     1       9.149  -4.009  19.497  1.00  0.00     0.138 A 
ATOM      2  C   UNL     1      10.021  -3.461  20.447  1.00  0.00     0.100 A 
ATOM      3  C   UNL     1      11.349  -3.206  20.100  1.00  0.00     0.197 A 
ATOM      4  O   UNL     1      12.120  -2.766  20.991  1.00  0.00    -0.289 OA
ATOM      5  C   UNL     1      11.795  -3.467  18.782  1.00  0.00     0.107 A 
ATOM      6  C   UNL     1      13.116  -3.214  18.304  1.00  0.00     0.134 A 
ATOM      7  C   UNL     1      13.467  -3.606  17.007  1.00  0.00     0.093 A 
ATOM      8  C   UNL     1      12.532  -4.187  16.151  1.00  0.00     0.123 A 
ATOM      9  C   UNL     1      11.224  -4.393  16.591  1.00  0.00     0.094 A 
ATOM     10  C   UNL     1      10.851  -4.045  17.891  1.00  0.00     0.146 A 
ATOM     11  O   UNL     1       9.601  -4.275  18.275  1.00  0.00    -0.456 OA
ENDROOT
BRANCH   1  12
ATOM     12  C   UNL     1       7.727  -4.298  19.811  1.00  0.00     0.021 A 
ATOM     13  C   UNL     1       7.336  -4.826  21.054  1.00  0.00     0.016 A 
ATOM     14  C   UNL     1       5.993  -5.097  21.317  1.00  0.00     0.051 A 
ATOM     15  C   UNL     1       5.012  -4.858  20.349  1.00  0.00     0.157 A 
ATOM     16  C   UNL     1       6.743  -4.071  18.833  1.00  0.00     0.062 A 
ATOM     17  C   UNL     1       5.393  -4.340  19.089  1.00  0.00     0.158 A 
BRANCH  15  18
ATOM     18  O   UNL     1       3.686  -5.148  20.677  1.00  0.00    -0.504 OA
ATOM     19  H   UNL     1       3.049  -4.484  21.092  1.00  0.00     0.293 HD
ENDBRANCH  15  18
BRANCH  17  20
ATOM     20  O   UNL     1       4.472  -4.080  18.072  1.00  0.00    -0.504 OA
ATOM     21  H   UNL     1       3.508  -3.828  18.233  1.00  0.00     0.293 HD
ENDBRANCH  17  20
ENDBRANCH   1  12
BRANCH   6  22
ATOM     22  O   UNL     1      14.108  -2.566  19.047  1.00  0.00    -0.507 OA
ATOM     23  H   UNL     1      14.171  -1.568  19.184  1.00  0.00     0.293 HD
ENDBRANCH   6  22
BRANCH   8  24
ATOM     24  O   UNL     1      12.914  -4.550  14.861  1.00  0.00    -0.508 OA
ATOM     25  H   UNL     1      12.288  -4.437  14.071  1.00  0.00     0.293 HD
ENDBRANCH   8  24
TORSDOF 5
ENDMDL
MODEL 4
REMARK VINA RESULT:    -7.193      3.943      7.056
REMARK INTER + INTRA:          -8.743
REMARK INTER:                  -8.470
REMARK INTRA:                  -0.273
REMARK UNBOUND:                -0.289
REMARK SMILES O=c1cc(-c2ccc(O)c(O)c2)oc2cc(O)cc(O)c12
REMARK SMILES IDX 4 1 3 2 2 3 1 4 21 5 19 6 18 7 16 8 15 9 14 10 13 11 5 12
REMARK SMILES IDX 6 13 7 14 8 15 12 16 10 17 9 18 11 20 20 22 17 24
REMARK H PARENT 9 19 11 21 20 23 17 25
REMARK Flexibility Score: inf
ROOT
ATOM      1  C   UNL     1       8.303  -4.918  19.459  1.00  0.00     0.138 A 
ATOM      2  C   UNL     1       8.919  -5.882  20.267  1.00  0.00     0.100 A 
ATOM      3  C   UNL     1      10.170  -6.389  19.907  1.00  0.00     0.197 A 
ATOM      4  O   UNL     1      10.671  -7.293  20.623  1.00  0.00    -0.289 OA
ATOM      5  C   UNL     1      10.821  -5.898  18.750  1.00  0.00     0.107 A 
ATOM      6  C   UNL     1      12.112  -6.313  18.304  1.00  0.00     0.134 A 
ATOM      7  C   UNL     1      12.611  -5.829  17.089  1.00  0.00     0.093 A 
ATOM      8  C   UNL     1      11.894  -4.901  16.333  1.00  0.00     0.123 A 
ATOM      9  C   UNL     1      10.655  -4.449  16.785  1.00  0.00     0.094 A 
ATOM     10  C   UNL     1      10.113  -4.940  17.976  1.00  0.00     0.146 A 
ATOM     11  O   UNL     1       8.921  -4.497  18.360  1.00  0.00    -0.456 OA
ENDROOT
BRANCH   1  12
ATOM     12  C   UNL     1       6.975  -4.344  19.796  1.00  0.00     0.021 A 
ATOM     13  C   UNL     1       6.790  -3.517  20.917  1.00  0.00     0.016 A 
ATOM     14  C   UNL     1       5.528  -3.000  21.215  1.00  0.00     0.051 A 
ATOM     15  C   UNL     1       4.424  -3.300  20.410  1.00  0.00     0.157 A 
ATOM     16  C   UNL     1       5.864  -4.657  18.996  1.00  0.00     0.062 A 
ATOM     17  C   UNL     1       4.594  -4.143  19.286  1.00  0.00     0.158 A 
BRANCH  15  18
ATOM     18  O   UNL     1       3.190  -2.749  20.761  1.00  0.00    -0.504 OA
ATOM     19  H   UNL     1       3.039  -1.764  20.926  1.00  0.00     0.293 HD
ENDBRANCH  15  18
BRANCH  17  20
ATOM     20  O   UNL     1       3.540  -4.491  18.440  1.00  0.00    -0.504 OA
ATOM     21  H   UNL     1       3.557  -4.373  17.438  1.00  0.00     0.293 HD
ENDBRANCH  17  20
ENDBRANCH   1  12
BRANCH   6  22
ATOM     22  O   UNL     1      12.948  -7.176  19.019  1.00  0.00    -0.507 OA
ATOM     23  H   UNL     1      13.941  -7.047  19.147  1.00  0.00     0.293 HD
ENDBRANCH   6  22
BRANCH   8  24
ATOM     24  O   UNL     1      12.431  -4.429  15.137  1.00  0.00    -0.508 OA
ATOM     25  H   UNL     1      11.993  -3.674  14.621  1.00  0.00     0.293 HD
ENDBRANCH   8  24
TORSDOF 5
ENDMDL
MODEL 5
REMARK VINA RESULT:    -7.026      3.894      9.420
REMARK INTER + INTRA:          -8.547
REMARK INTER:                  -8.266
REMARK INTRA:                  -0.281
REMARK UNBOUND:                -0.289
REMARK SMILES O=c1cc(-c2ccc(O)c(O)c2)oc2cc(O)cc(O)c12
REMARK SMILES IDX 4 1 3 2 2 3 1 4 21 5 19 6 18 7 16 8 15 9 14 10 13 11 5 12
REMARK SMILES IDX 6 13 7 14 8 15 12 16 10 17 9 18 11 20 20 22 17 24
REMARK H PARENT 9 19 11 21 20 23 17 25
REMARK Flexibility Score: inf
ROOT
ATOM      1  C   UNL     1       9.131  -3.990  18.944  1.00  0.00     0.138 A 
ATOM      2  C   UNL     1       9.143  -2.928  19.857  1.00  0.00     0.100 A 
ATOM      3  C   UNL     1       7.983  -2.614  20.568  1.00  0.00     0.197 A 
ATOM      4  O   UNL     1       8.011  -1.621  21.338  1.00  0.00    -0.289 OA
ATOM      5  C   UNL     1       6.815  -3.394  20.389  1.00  0.00     0.107 A 
ATOM      6  C   UNL     1       5.585  -3.191  21.084  1.00  0.00     0.134 A 
ATOM      7  C   UNL     1       4.467  -3.964  20.750  1.00  0.00     0.093 A 
ATOM      8  C   UNL     1       4.549  -4.973  19.789  1.00  0.00     0.123 A 
ATOM      9  C   UNL     1       5.760  -5.214  19.140  1.00  0.00     0.094 A 
ATOM     10  C   UNL     1       6.884  -4.436  19.425  1.00  0.00     0.146 A 
ATOM     11  O   UNL     1       8.012  -4.687  18.770  1.00  0.00    -0.456 OA
ENDROOT
BRANCH   1  12
ATOM     12  C   UNL     1      10.336  -4.369  18.163  1.00  0.00     0.021 A 
ATOM     13  C   UNL     1      10.665  -5.712  17.915  1.00  0.00     0.016 A 
ATOM     14  C   UNL     1      11.810  -6.038  17.187  1.00  0.00     0.051 A 
ATOM     15  C   UNL     1      12.655  -5.036  16.697  1.00  0.00     0.157 A 
ATOM     16  C   UNL     1      11.192  -3.363  17.684  1.00  0.00     0.062 A 
ATOM     17  C   UNL     1      12.343  -3.680  16.952  1.00  0.00     0.158 A 
BRANCH  15  18
ATOM     18  O   UNL     1      13.783  -5.429  15.973  1.00  0.00    -0.504 OA
ATOM     19  H   UNL     1      14.004  -5.094  15.047  1.00  0.00     0.293 HD
ENDBRANCH  15  18
BRANCH  17  20
ATOM     20  O   UNL     1      13.140  -2.627  16.500  1.00  0.00    -0.504 OA
ATOM     21  H   UNL     1      12.799  -1.693  16.328  1.00  0.00     0.293 HD
ENDBRANCH  17  20
ENDBRANCH   1  12
BRANCH   6  22
ATOM     22  O   UNL     1       5.413  -2.265  22.118  1.00  0.00    -0.507 OA
ATOM     23  H   UNL     1       6.147  -1.699  22.518  1.00  0.00     0.293 HD
ENDBRANCH   6  22
BRANCH   8  24
ATOM     24  O   UNL     1       3.419  -5.733  19.495  1.00  0.00    -0.508 OA
ATOM     25  H   UNL     1       2.827  -5.516  18.701  1.00  0.00     0.293 HD
ENDBRANCH   8  24
TORSDOF 5
ENDMDL
MODEL 6
REMARK VINA RESULT:    -6.943      2.273      7.936
REMARK INTER + INTRA:          -8.450
REMARK INTER:                  -8.168
REMARK INTRA:                  -0.281
REMARK UNBOUND:                -0.289
REMARK SMILES O=c1cc(-c2ccc(O)c(O)c2)oc2cc(O)cc(O)c12
REMARK SMILES IDX 4 1 3 2 2 3 1 4 21 5 19 6 18 7 16 8 15 9 14 10 13 11 5 12
REMARK SMILES IDX 6 13 7 14 8 15 12 16 10 17 9 18 11 20 20 22 17 24
REMARK H PARENT 9 19 11 21 20 23 17 25
REMARK Flexibility Score: inf
ROOT
ATOM      1  C   UNL     1      12.535  -4.423  18.227  1.00  0.00     0.138 A 
ATOM      2  C   UNL     1      12.305  -5.735  18.663  1.00  0.00     0.100 A 
ATOM      3  C   UNL     1      11.203  -6.010  19.474  1.00  0.00     0.197 A 
ATOM      4  O   UNL     1      11.055  -7.187  19.894  1.00  0.00    -0.289 OA
ATOM      5  C   UNL     1      10.306  -4.971  19.819  1.00  0.00     0.107 A 
ATOM      6  C   UNL     1       9.129  -5.140  20.610  1.00  0.00     0.134 A 
ATOM      7  C   UNL     1       8.372  -4.018  20.969  1.00  0.00     0.093 A 
ATOM      8  C   UNL     1       8.713  -2.743  20.517  1.00  0.00     0.123 A 
ATOM      9  C   UNL     1       9.832  -2.574  19.701  1.00  0.00     0.094 A 
ATOM     10  C   UNL     1      10.628  -3.668  19.355  1.00  0.00     0.146 A 
ATOM     11  O   UNL     1      11.695  -3.459  18.592  1.00  0.00    -0.456 OA
ENDROOT
BRANCH   1  12
ATOM     12  C   UNL     1      13.690  -4.074  17.362  1.00  0.00     0.021 A 
ATOM     13  C   UNL     1      14.378  -2.857  17.501  1.00  0.00     0.016 A 
ATOM     14  C   UNL     1      15.454  -2.552  16.666  1.00  0.00     0.051 A 
ATOM     15  C   UNL     1      15.863  -3.446  15.672  1.00  0.00     0.157 A 
ATOM     16  C   UNL     1      14.092  -4.966  16.353  1.00  0.00     0.062 A 
ATOM     17  C   UNL     1      15.171  -4.669  15.511  1.00  0.00     0.158 A 
BRANCH  15  18
ATOM     18  O   UNL     1      16.949  -3.082  14.872  1.00  0.00    -0.504 OA
ATOM     19  H   UNL     1      17.741  -3.681  14.689  1.00  0.00     0.293 HD
ENDBRANCH  15  18
BRANCH  17  20
ATOM     20  O   UNL     1      15.517  -5.609  14.538  1.00  0.00    -0.504 OA
ATOM     21  H   UNL     1      15.326  -6.597  14.613  1.00  0.00     0.293 HD
ENDBRANCH  17  20
ENDBRANCH   1  12
BRANCH   6  22
ATOM     22  O   UNL     1       8.651  -6.378  21.049  1.00  0.00    -0.507 OA
ATOM     23  H   UNL     1       8.015  -6.969  20.535  1.00  0.00     0.293 HD
ENDBRANCH   6  22
BRANCH   8  24
ATOM     24  O   UNL     1       7.926  -1.653  20.881  1.00  0.00    -0.508 OA
ATOM     25  H   UNL     1       8.305  -0.713  20.913  1.00  0.00     0.293 HD
ENDBRANCH   8  24
TORSDOF 5
ENDMDL
MODEL 7
REMARK VINA RESULT:    -6.911      2.153      7.706
REMARK INTER + INTRA:          -8.412
REMARK INTER:                  -8.110
REMARK INTRA:                  -0.302
REMARK UNBOUND:                -0.289
REMARK SMILES O=c1cc(-c2ccc(O)c(O)c2)oc2cc(O)cc(O)c12
REMARK SMILES IDX 4 1 3 2 2 3 1 4 21 5 19 6 18 7 16 8 15 9 14 10 13 11 5 12
REMARK SMILES IDX 6 13 7 14 8 15 12 16 10 17 9 18 11 20 20 22 17 24
REMARK H PARENT 9 19 11 21 20 23 17 25
REMARK Flexibility Score: inf
ROOT
ATOM      1  C   UNL     1      13.247  -4.333  17.535  1.00  0.00     0.138 A 
ATOM      2  C   UNL     1      12.700  -5.622  17.481  1.00  0.00     0.100 A 
ATOM      3  C   UNL     1      11.646  -5.962  18.331  1.00  0.00     0.197 A 
ATOM      4  O   UNL     1      11.214  -7.143  18.296  1.00  0.00    -0.289 OA
ATOM      5  C   UNL     1      11.114  -4.993  19.215  1.00  0.00     0.107 A 
ATOM      6  C   UNL     1      10.018  -5.214  20.102  1.00  0.00     0.134 A 
ATOM      7  C   UNL     1       9.644  -4.208  21.002  1.00  0.00     0.093 A 
ATOM      8  C   UNL     1      10.285  -2.970  21.006  1.00  0.00     0.123 A 
ATOM      9  C   UNL     1      11.324  -2.725  20.108  1.00  0.00     0.094 A 
ATOM     10  C   UNL     1      11.744  -3.720  19.223  1.00  0.00     0.146 A 
ATOM     11  O   UNL     1      12.750  -3.451  18.397  1.00  0.00    -0.456 OA
ENDROOT
BRANCH   1  12
ATOM     12  C   UNL     1      14.366  -3.917  16.653  1.00  0.00     0.021 A 
ATOM     13  C   UNL     1      15.392  -4.806  16.292  1.00  0.00     0.016 A 
ATOM     14  C   UNL     1      16.438  -4.383  15.469  1.00  0.00     0.051 A 
ATOM     15  C   UNL     1      16.488  -3.068  14.995  1.00  0.00     0.157 A 
ATOM     16  C   UNL     1      14.424  -2.592  16.189  1.00  0.00     0.062 A 
ATOM     17  C   UNL     1      15.468  -2.159  15.362  1.00  0.00     0.158 A 
BRANCH  15  18
ATOM     18  O   UNL     1      17.559  -2.710  14.173  1.00  0.00    -0.504 OA
ATOM     19  H   UNL     1      17.770  -1.760  13.903  1.00  0.00     0.293 HD
ENDBRANCH  15  18
BRANCH  17  20
ATOM     20  O   UNL     1      15.454  -0.831  14.933  1.00  0.00    -0.504 OA
ATOM     21  H   UNL     1      15.766  -0.527  14.023  1.00  0.00     0.293 HD
ENDBRANCH  17  20
ENDBRANCH   1  12
BRANCH   6  22
ATOM     22  O   UNL     1       9.254  -6.386  20.128  1.00  0.00    -0.507 OA
ATOM     23  H   UNL     1       9.063  -6.935  20.952  1.00  0.00     0.293 HD
ENDBRANCH   6  22
BRANCH   8  24
ATOM     24  O   UNL     1       9.874  -1.987  21.905  1.00  0.00    -0.508 OA
ATOM     25  H   UNL     1      10.209  -1.972  22.861  1.00  0.00     0.293 HD
ENDBRANCH   8  24
TORSDOF 5
ENDMDL
MODEL 8
REMARK VINA RESULT:    -6.888      3.383      9.264
REMARK INTER + INTRA:          -8.385
REMARK INTER:                  -8.095
REMARK INTRA:                  -0.290
REMARK UNBOUND:                -0.289
REMARK SMILES O=c1cc(-c2ccc(O)c(O)c2)oc2cc(O)cc(O)c12
REMARK SMILES IDX 4 1 3 2 2 3 1 4 21 5 19 6 18 7 16 8 15 9 14 10 13 11 5 12
REMARK SMILES IDX 6 13 7 14 8 15 12 16 10 17 9 18 11 20 20 22 17 24
REMARK H PARENT 9 19 11 21 20 23 17 25
REMARK Flexibility Score: inf
ROOT
ATOM      1  C   UNL     1       9.717  -4.429  19.090  1.00  0.00     0.138 A 
ATOM      2  C   UNL     1       9.655  -5.005  20.366  1.00  0.00     0.100 A 
ATOM      3  C   UNL     1       8.413  -5.249  20.955  1.00  0.00     0.197 A 
ATOM      4  O   UNL     1       8.393  -5.715  22.123  1.00  0.00    -0.289 OA
ATOM      5  C   UNL     1       7.226  -4.949  20.245  1.00  0.00     0.107 A 
ATOM      6  C   UNL     1       5.905  -5.188  20.730  1.00  0.00     0.134 A 
ATOM      7  C   UNL     1       4.806  -4.757  19.977  1.00  0.00     0.093 A 
ATOM      8  C   UNL     1       4.977  -4.151  18.732  1.00  0.00     0.123 A 
ATOM      9  C   UNL     1       6.262  -3.959  18.226  1.00  0.00     0.094 A 
ATOM     10  C   UNL     1       7.381  -4.345  18.968  1.00  0.00     0.146 A 
ATOM     11  O   UNL     1       8.587  -4.127  18.458  1.00  0.00    -0.456 OA
ENDROOT
BRANCH   1  12
ATOM     12  C   UNL     1      11.010  -4.150  18.416  1.00  0.00     0.021 A 
ATOM     13  C   UNL     1      12.054  -3.474  19.070  1.00  0.00     0.016 A 
ATOM     14  C   UNL     1      13.255  -3.216  18.407  1.00  0.00     0.051 A 
ATOM     15  C   UNL     1      13.440  -3.617  17.080  1.00  0.00     0.157 A 
ATOM     16  C   UNL     1      11.190  -4.540  17.078  1.00  0.00     0.062 A 
ATOM     17  C   UNL     1      12.391  -4.286  16.405  1.00  0.00     0.158 A 
BRANCH  15  18
ATOM     18  O   UNL     1      14.666  -3.331  16.476  1.00  0.00    -0.504 OA
ATOM     19  H   UNL     1      14.764  -2.798  15.624  1.00  0.00     0.293 HD
ENDBRANCH  15  18
BRANCH  17  20
ATOM     20  O   UNL     1      12.500  -4.712  15.080  1.00  0.00    -0.504 OA
ATOM     21  H   UNL     1      12.621  -4.090  14.295  1.00  0.00     0.293 HD
ENDBRANCH  17  20
ENDBRANCH   1  12
BRANCH   6  22
ATOM     22  O   UNL     1       5.617  -5.857  21.923  1.00  0.00    -0.507 OA
ATOM     23  H   UNL     1       6.220  -5.889  22.731  1.00  0.00     0.293 HD
ENDBRANCH   6  22
BRANCH   8  24
ATOM     24  O   UNL     1       3.858  -3.750  18.005  1.00  0.00    -0.508 OA
ATOM     25  H   UNL     1       3.449  -2.831  18.127  1.00  0.00     0.293 HD
ENDBRANCH   8  24
TORSDOF 5
ENDMDL
MODEL 9
REMARK VINA RESULT:    -6.875      2.169      7.508
REMARK INTER + INTRA:          -8.370
REMARK INTER:                  -8.077
REMARK INTRA:                  -0.293
REMARK UNBOUND:                -0.289
REMARK SMILES O=c1cc(-c2ccc(O)c(O)c2)oc2cc(O)cc(O)c12
REMARK SMILES IDX 4 1 3 2 2 3 1 4 21 5 19 6 18 7 16 8 15 9 14 10 13 11 5 12
REMARK SMILES IDX 6 13 7 14 8 15 12 16 10 17 9 18 11 20 20 22 17 24
REMARK H PARENT 9 19 11 21 20 23 17 25
REMARK Flexibility Score: inf
ROOT
ATOM      1  C   UNL     1      13.394  -4.364  17.370  1.00  0.00     0.138 A 
ATOM      2  C   UNL     1      12.736  -5.595  17.248  1.00  0.00     0.100 A 
ATOM      3  C   UNL     1      11.654  -5.886  18.080  1.00  0.00     0.197 A 
ATOM      4  O   UNL     1      11.120  -7.020  17.984  1.00  0.00    -0.289 OA
ATOM      5  C   UNL     1      11.206  -4.921  19.015  1.00  0.00     0.107 A 
ATOM      6  C   UNL     1      10.091  -5.092  19.891  1.00  0.00     0.134 A 
ATOM      7  C   UNL     1       9.804  -4.106  20.842  1.00  0.00     0.093 A 
ATOM      8  C   UNL     1      10.552  -2.931  20.911  1.00  0.00     0.123 A 
ATOM      9  C   UNL     1      11.612  -2.731  20.026  1.00  0.00     0.094 A 
ATOM     10  C   UNL     1      11.946  -3.711  19.089  1.00  0.00     0.146 A 
ATOM     11  O   UNL     1      12.974  -3.488  18.278  1.00  0.00    -0.456 OA
ENDROOT
BRANCH   1  12
ATOM     12  C   UNL     1      14.549  -4.002  16.509  1.00  0.00     0.021 A 
ATOM     13  C   UNL     1      15.025  -2.682  16.427  1.00  0.00     0.016 A 
ATOM     14  C   UNL     1      16.106  -2.370  15.601  1.00  0.00     0.051 A 
ATOM     15  C   UNL     1      16.730  -3.360  14.835  1.00  0.00     0.157 A 
ATOM     16  C   UNL     1      15.166  -4.994  15.728  1.00  0.00     0.062 A 
ATOM     17  C   UNL     1      16.251  -4.690  14.897  1.00  0.00     0.158 A 
BRANCH  15  18
ATOM     18  O   UNL     1      17.808  -2.982  14.031  1.00  0.00    -0.504 OA
ATOM     19  H   UNL     1      18.772  -3.196  14.244  1.00  0.00     0.293 HD
ENDBRANCH  15  18
BRANCH  17  20
ATOM     20  O   UNL     1      16.819  -5.730  14.158  1.00  0.00    -0.504 OA
ATOM     21  H   UNL     1      16.729  -6.706  14.396  1.00  0.00     0.293 HD
ENDBRANCH  17  20
ENDBRANCH   1  12
BRANCH   6  22
ATOM     22  O   UNL     1       9.228  -6.191  19.855  1.00  0.00    -0.507 OA
ATOM     23  H   UNL     1       8.242  -6.162  20.070  1.00  0.00     0.293 HD
ENDBRANCH   6  22
BRANCH   8  24
ATOM     24  O   UNL     1      10.226  -1.965  21.861  1.00  0.00    -0.508 OA
ATOM     25  H   UNL     1      10.470  -2.080  22.838  1.00  0.00     0.293 HD
ENDBRANCH   8  24
TORSDOF 5
ENDMDL
