MODEL 1
REMARK VINA RESULT:    -3.544      0.000      0.000
REMARK INTER + INTRA:          -9.309
REMARK INTER:                  -6.651
REMARK INTRA:                  -2.659
REMARK UNBOUND:                -2.659
REMARK SMILES CCCCCCCCC=CCCCCCCCC(=O)[O-]
REMARK SMILES IDX 10 1 9 2 11 3 12 4 13 5 14 6 15 7 16 8 17 9 18 10 19 11
REMARK SMILES IDX 20 12 8 13 7 14 6 15 5 16 4 17 3 18 2 19 1 20
REMARK H PARENT
REMARK Flexibility Score: inf
ROOT
ATOM      1  C   UNL     1       1.358  -4.946  -8.962  1.00  0.00    -0.031 C 
ATOM      2  C   UNL     1       2.265  -4.478  -9.839  1.00  0.00    -0.031 C 
ENDROOT
BRANCH   1   3
ATOM      3  C   UNL     1       1.686  -5.302  -7.532  1.00  0.00     0.027 C 
BRANCH   3   4
ATOM      4  C   UNL     1       1.879  -6.813  -7.367  1.00  0.00     0.004 C 
BRANCH   4   5
ATOM      5  C   UNL     1       3.134  -7.119  -6.535  1.00  0.00     0.000 C 
BRANCH   5   6
ATOM      6  C   UNL     1       3.963  -5.861  -6.235  1.00  0.00     0.000 C 
BRANCH   6   7
ATOM      7  C   UNL     1       5.067  -6.119  -5.194  1.00  0.00     0.000 C 
BRANCH   7   8
ATOM      8  C   UNL     1       6.037  -4.935  -5.058  1.00  0.00     0.006 C 
BRANCH   8   9
ATOM      9  C   UNL     1       6.211  -4.475  -3.604  1.00  0.00     0.053 C 
BRANCH   9  10
ATOM     10  C   UNL     1       6.285  -2.982  -3.532  1.00  0.00     0.041 C 
ATOM     11  O   UNL     1       5.618  -2.273  -4.333  1.00  0.00    -0.550 OA
ATOM     12  O   UNL     1       7.062  -2.371  -2.557  1.00  0.00    -0.550 OA
ENDBRANCH   9  10
ENDBRANCH   8   9
ENDBRANCH   7   8
ENDBRANCH   6   7
ENDBRANCH   5   6
ENDBRANCH   4   5
ENDBRANCH   3   4
ENDBRANCH   1   3
BRANCH   2  13
ATOM     13  C   UNL     1       3.729  -4.282  -9.524  1.00  0.00     0.027 C 
BRANCH  13  14
ATOM     14  C   UNL     1       4.059  -2.823  -9.148  1.00  0.00     0.004 C 
BRANCH  14  15
ATOM     15  C   UNL     1       4.364  -2.622  -7.654  1.00  0.00     0.000 C 
BRANCH  15  16
ATOM     16  C   UNL     1       3.203  -1.959  -6.894  1.00  0.00     0.000 C 
BRANCH  16  17
ATOM     17  C   UNL     1       2.339  -1.069  -7.802  1.00  0.00    -0.000 C 
BRANCH  17  18
ATOM     18  C   UNL     1       0.839  -1.406  -7.708  1.00  0.00    -0.000 C 
BRANCH  18  19
ATOM     19  C   UNL     1       0.107  -1.200  -9.043  1.00  0.00    -0.003 C 
ATOM     20  C   UNL     1      -1.092  -2.131  -9.208  1.00  0.00     0.004 C 
ENDBRANCH  18  19
ENDBRANCH  17  18
ENDBRANCH  16  17
ENDBRANCH  15  16
ENDBRANCH  14  15
ENDBRANCH  13  14
ENDBRANCH   2  13
TORSDOF 15
ENDMDL
MODEL 2
REMARK VINA RESULT:    -3.461      1.349      2.081
REMARK INTER + INTRA:          -9.154
REMARK INTER:                  -6.750
REMARK INTRA:                  -2.404
REMARK UNBOUND:                -2.659
REMARK SMILES CCCCCCCCC=CCCCCCCCC(=O)[O-]
REMARK SMILES IDX 10 1 9 2 11 3 12 4 13 5 14 6 15 7 16 8 17 9 18 10 19 11
REMARK SMILES IDX 20 12 8 13 7 14 6 15 5 16 4 17 3 18 2 19 1 20
REMARK H PARENT
REMARK Flexibility Score: inf
ROOT
ATOM      1  C   UNL     1       2.577  -5.603  -6.987  1.00  0.00    -0.031 C 
ATOM      2  C   UNL     1       2.635  -4.308  -7.347  1.00  0.00    -0.031 C 
ENDROOT
BRANCH   1   3
ATOM      3  C   UNL     1       3.753  -6.546  -7.071  1.00  0.00     0.027 C 
BRANCH   3   4
ATOM      4  C   UNL     1       4.025  -7.215  -5.720  1.00  0.00     0.004 C 
BRANCH   4   5
ATOM      5  C   UNL     1       5.161  -6.501  -4.972  1.00  0.00     0.000 C 
BRANCH   5   6
ATOM      6  C   UNL     1       6.204  -5.896  -5.924  1.00  0.00     0.000 C 
BRANCH   6   7
ATOM      7  C   UNL     1       6.572  -4.450  -5.551  1.00  0.00     0.000 C 
BRANCH   7   8
ATOM      8  C   UNL     1       5.561  -3.815  -4.582  1.00  0.00     0.006 C 
BRANCH   8   9
ATOM      9  C   UNL     1       5.825  -2.322  -4.344  1.00  0.00     0.053 C 
BRANCH   9  10
ATOM     10  C   UNL     1       7.127  -2.127  -3.633  1.00  0.00     0.041 C 
ATOM     11  O   UNL     1       7.322  -2.657  -2.506  1.00  0.00    -0.550 OA
ATOM     12  O   UNL     1       8.141  -1.391  -4.230  1.00  0.00    -0.550 OA
ENDBRANCH   9  10
ENDBRANCH   8   9
ENDBRANCH   7   8
ENDBRANCH   6   7
ENDBRANCH   5   6
ENDBRANCH   4   5
ENDBRANCH   3   4
ENDBRANCH   1   3
BRANCH   2  13
ATOM     13  C   UNL     1       3.864  -3.638  -7.916  1.00  0.00     0.027 C 
BRANCH  13  14
ATOM     14  C   UNL     1       3.927  -2.137  -7.569  1.00  0.00     0.004 C 
BRANCH  14  15
ATOM     15  C   UNL     1       2.715  -1.634  -6.766  1.00  0.00     0.000 C 
BRANCH  15  16
ATOM     16  C   UNL     1       2.000  -0.454  -7.443  1.00  0.00     0.000 C 
BRANCH  16  17
ATOM     17  C   UNL     1       1.253  -0.874  -8.719  1.00  0.00    -0.000 C 
BRANCH  17  18
ATOM     18  C   UNL     1       0.150  -1.913  -8.447  1.00  0.00    -0.000 C 
BRANCH  18  19
ATOM     19  C   UNL     1      -1.213  -1.483  -9.009  1.00  0.00    -0.003 C 
ATOM     20  C   UNL     1      -1.154  -0.144  -9.742  1.00  0.00     0.004 C 
ENDBRANCH  18  19
ENDBRANCH  17  18
ENDBRANCH  16  17
ENDBRANCH  15  16
ENDBRANCH  14  15
ENDBRANCH  13  14
ENDBRANCH   2  13
TORSDOF 15
ENDMDL
MODEL 3
REMARK VINA RESULT:    -3.451      2.559      5.749
REMARK INTER + INTRA:          -9.136
REMARK INTER:                  -7.189
REMARK INTRA:                  -1.947
REMARK UNBOUND:                -2.659
REMARK SMILES CCCCCCCCC=CCCCCCCCC(=O)[O-]
REMARK SMILES IDX 10 1 9 2 11 3 12 4 13 5 14 6 15 7 16 8 17 9 18 10 19 11
REMARK SMILES IDX 20 12 8 13 7 14 6 15 5 16 4 17 3 18 2 19 1 20
REMARK H PARENT
REMARK Flexibility Score: inf
ROOT
ATOM      1  C   UNL     1       2.343  -8.149  -6.749  1.00  0.00    -0.031 C 
ATOM      2  C   UNL     1       3.519  -8.005  -6.112  1.00  0.00    -0.031 C 
ENDROOT
BRANCH   1   3
ATOM      3  C   UNL     1       1.538  -6.991  -7.288  1.00  0.00     0.027 C 
BRANCH   3   4
ATOM      4  C   UNL     1       1.420  -7.061  -8.814  1.00  0.00     0.004 C 
BRANCH   4   5
ATOM      5  C   UNL     1       2.437  -6.125  -9.487  1.00  0.00     0.000 C 
BRANCH   5   6
ATOM      6  C   UNL     1       2.123  -4.641  -9.243  1.00  0.00     0.000 C 
BRANCH   6   7
ATOM      7  C   UNL     1       3.196  -3.947  -8.386  1.00  0.00     0.000 C 
BRANCH   7   8
ATOM      8  C   UNL     1       2.621  -3.341  -7.095  1.00  0.00     0.006 C 
BRANCH   8   9
ATOM      9  C   UNL     1       3.020  -1.873  -6.900  1.00  0.00     0.053 C 
BRANCH   9  10
ATOM     10  C   UNL     1       1.981  -0.966  -7.482  1.00  0.00     0.041 C 
ATOM     11  O   UNL     1       2.299  -0.107  -8.348  1.00  0.00    -0.550 OA
ATOM     12  O   UNL     1       0.653  -1.091  -7.094  1.00  0.00    -0.550 OA
ENDBRANCH   9  10
ENDBRANCH   8   9
ENDBRANCH   7   8
ENDBRANCH   6   7
ENDBRANCH   5   6
ENDBRANCH   4   5
ENDBRANCH   3   4
ENDBRANCH   1   3
BRANCH   2  13
ATOM     13  C   UNL     1       4.170  -6.674  -5.820  1.00  0.00     0.027 C 
BRANCH  13  14
ATOM     14  C   UNL     1       5.293  -6.787  -4.769  1.00  0.00     0.004 C 
BRANCH  14  15
ATOM     15  C   UNL     1       5.852  -5.429  -4.311  1.00  0.00     0.000 C 
BRANCH  15  16
ATOM     16  C   UNL     1       5.870  -4.382  -5.437  1.00  0.00     0.000 C 
BRANCH  16  17
ATOM     17  C   UNL     1       5.743  -2.946  -4.904  1.00  0.00    -0.000 C 
BRANCH  17  18
ATOM     18  C   UNL     1       6.110  -2.830  -3.413  1.00  0.00    -0.000 C 
BRANCH  18  19
ATOM     19  C   UNL     1       7.523  -2.268  -3.199  1.00  0.00    -0.003 C 
ATOM     20  C   UNL     1       8.530  -3.342  -2.791  1.00  0.00     0.004 C 
ENDBRANCH  18  19
ENDBRANCH  17  18
ENDBRANCH  16  17
ENDBRANCH  15  16
ENDBRANCH  14  15
ENDBRANCH  13  14
ENDBRANCH   2  13
TORSDOF 15
ENDMDL
MODEL 4
REMARK VINA RESULT:    -3.412      2.573      6.399
REMARK INTER + INTRA:          -9.063
REMARK INTER:                  -6.762
REMARK INTRA:                  -2.301
REMARK UNBOUND:                -2.659
REMARK SMILES CCCCCCCCC=CCCCCCCCC(=O)[O-]
REMARK SMILES IDX 10 1 9 2 11 3 12 4 13 5 14 6 15 7 16 8 17 9 18 10 19 11
REMARK SMILES IDX 20 12 8 13 7 14 6 15 5 16 4 17 3 18 2 19 1 20
REMARK H PARENT
REMARK Flexibility Score: inf
ROOT
ATOM      1  C   UNL     1       5.485  -6.446  -4.397  1.00  0.00    -0.031 C 
ATOM      2  C   UNL     1       5.873  -5.159  -4.332  1.00  0.00    -0.031 C 
ENDROOT
BRANCH   1   3
ATOM      3  C   UNL     1       5.104  -7.138  -5.684  1.00  0.00     0.027 C 
BRANCH   3   4
ATOM      4  C   UNL     1       3.739  -7.826  -5.559  1.00  0.00     0.004 C 
BRANCH   4   5
ATOM      5  C   UNL     1       2.785  -7.355  -6.667  1.00  0.00     0.000 C 
BRANCH   5   6
ATOM      6  C   UNL     1       3.256  -6.056  -7.339  1.00  0.00     0.000 C 
BRANCH   6   7
ATOM      7  C   UNL     1       2.180  -4.957  -7.313  1.00  0.00     0.000 C 
BRANCH   7   8
ATOM      8  C   UNL     1       2.651  -3.653  -7.977  1.00  0.00     0.006 C 
BRANCH   8   9
ATOM      9  C   UNL     1       2.967  -2.549  -6.959  1.00  0.00     0.053 C 
BRANCH   9  10
ATOM     10  C   UNL     1       2.347  -1.254  -7.382  1.00  0.00     0.041 C 
ATOM     11  O   UNL     1       2.809  -0.620  -8.369  1.00  0.00    -0.550 OA
ATOM     12  O   UNL     1       1.236  -0.763  -6.710  1.00  0.00    -0.550 OA
ENDBRANCH   9  10
ENDBRANCH   8   9
ENDBRANCH   7   8
ENDBRANCH   6   7
ENDBRANCH   5   6
ENDBRANCH   4   5
ENDBRANCH   3   4
ENDBRANCH   1   3
BRANCH   2  13
ATOM     13  C   UNL     1       5.942  -4.231  -5.521  1.00  0.00     0.027 C 
BRANCH  13  14
ATOM     14  C   UNL     1       6.135  -2.758  -5.106  1.00  0.00     0.004 C 
BRANCH  14  15
ATOM     15  C   UNL     1       6.093  -2.533  -3.585  1.00  0.00     0.000 C 
BRANCH  15  16
ATOM     16  C   UNL     1       7.369  -1.862  -3.048  1.00  0.00     0.000 C 
BRANCH  16  17
ATOM     17  C   UNL     1       8.637  -2.667  -3.376  1.00  0.00    -0.000 C 
BRANCH  17  18
ATOM     18  C   UNL     1       8.851  -3.854  -2.419  1.00  0.00    -0.000 C 
BRANCH  18  19
ATOM     19  C   UNL     1       9.415  -5.091  -3.135  1.00  0.00    -0.003 C 
ATOM     20  C   UNL     1       9.551  -4.889  -4.643  1.00  0.00     0.004 C 
ENDBRANCH  18  19
ENDBRANCH  17  18
ENDBRANCH  16  17
ENDBRANCH  15  16
ENDBRANCH  14  15
ENDBRANCH  13  14
ENDBRANCH   2  13
TORSDOF 15
ENDMDL
MODEL 5
REMARK VINA RESULT:    -3.291      2.670      6.740
REMARK INTER + INTRA:          -8.836
REMARK INTER:                  -6.367
REMARK INTRA:                  -2.469
REMARK UNBOUND:                -2.659
REMARK SMILES CCCCCCCCC=CCCCCCCCC(=O)[O-]
REMARK SMILES IDX 10 1 9 2 11 3 12 4 13 5 14 6 15 7 16 8 17 9 18 10 19 11
REMARK SMILES IDX 20 12 8 13 7 14 6 15 5 16 4 17 3 18 2 19 1 20
REMARK H PARENT
REMARK Flexibility Score: inf
ROOT
ATOM      1  C   UNL     1       5.520  -4.025  -5.756  1.00  0.00    -0.031 C 
ATOM      2  C   UNL     1       5.847  -2.964  -4.996  1.00  0.00    -0.031 C 
ENDROOT
BRANCH   1   3
ATOM      3  C   UNL     1       5.167  -5.380  -5.190  1.00  0.00     0.027 C 
BRANCH   3   4
ATOM      4  C   UNL     1       4.896  -6.393  -6.307  1.00  0.00     0.004 C 
BRANCH   4   5
ATOM      5  C   UNL     1       3.623  -7.203  -6.016  1.00  0.00     0.000 C 
BRANCH   5   6
ATOM      6  C   UNL     1       2.494  -6.904  -7.015  1.00  0.00     0.000 C 
BRANCH   6   7
ATOM      7  C   UNL     1       2.681  -5.553  -7.727  1.00  0.00     0.000 C 
BRANCH   7   8
ATOM      8  C   UNL     1       1.927  -4.409  -7.030  1.00  0.00     0.006 C 
BRANCH   8   9
ATOM      9  C   UNL     1       2.427  -3.023  -7.457  1.00  0.00     0.053 C 
BRANCH   9  10
ATOM     10  C   UNL     1       1.272  -2.119  -7.758  1.00  0.00     0.041 C 
ATOM     11  O   UNL     1       1.014  -1.144  -7.003  1.00  0.00    -0.550 OA
ATOM     12  O   UNL     1       0.501  -2.332  -8.893  1.00  0.00    -0.550 OA
ENDBRANCH   9  10
ENDBRANCH   8   9
ENDBRANCH   7   8
ENDBRANCH   6   7
ENDBRANCH   5   6
ENDBRANCH   4   5
ENDBRANCH   3   4
ENDBRANCH   1   3
BRANCH   2  13
ATOM     13  C   UNL     1       5.940  -2.994  -3.489  1.00  0.00     0.027 C 
BRANCH  13  14
ATOM     14  C   UNL     1       7.185  -2.251  -2.963  1.00  0.00     0.004 C 
BRANCH  14  15
ATOM     15  C   UNL     1       8.041  -1.615  -4.071  1.00  0.00     0.000 C 
BRANCH  15  16
ATOM     16  C   UNL     1       9.458  -2.207  -4.143  1.00  0.00     0.000 C 
BRANCH  16  17
ATOM     17  C   UNL     1       9.505  -3.675  -3.688  1.00  0.00    -0.000 C 
BRANCH  17  18
ATOM     18  C   UNL     1       9.256  -4.662  -4.843  1.00  0.00    -0.000 C 
BRANCH  18  19
ATOM     19  C   UNL     1       8.667  -5.996  -4.359  1.00  0.00    -0.003 C 
ATOM     20  C   UNL     1       8.158  -5.928  -2.920  1.00  0.00     0.004 C 
ENDBRANCH  18  19
ENDBRANCH  17  18
ENDBRANCH  16  17
ENDBRANCH  15  16
ENDBRANCH  14  15
ENDBRANCH  13  14
ENDBRANCH   2  13
TORSDOF 15
ENDMDL
MODEL 6
REMARK VINA RESULT:    -3.289      1.894      3.874
REMARK INTER + INTRA:          -8.831
REMARK INTER:                  -6.754
REMARK INTRA:                  -2.077
REMARK UNBOUND:                -2.659
REMARK SMILES CCCCCCCCC=CCCCCCCCC(=O)[O-]
REMARK SMILES IDX 10 1 9 2 11 3 12 4 13 5 14 6 15 7 16 8 17 9 18 10 19 11
REMARK SMILES IDX 20 12 8 13 7 14 6 15 5 16 4 17 3 18 2 19 1 20
REMARK H PARENT
REMARK Flexibility Score: inf
ROOT
ATOM      1  C   UNL     1       4.455  -7.356  -5.154  1.00  0.00    -0.031 C 
ATOM      2  C   UNL     1       3.381  -7.802  -5.830  1.00  0.00    -0.031 C 
ENDROOT
BRANCH   1   3
ATOM      3  C   UNL     1       5.462  -6.391  -5.730  1.00  0.00     0.027 C 
BRANCH   3   4
ATOM      4  C   UNL     1       5.485  -5.076  -4.942  1.00  0.00     0.004 C 
BRANCH   4   5
ATOM      5  C   UNL     1       5.634  -3.873  -5.886  1.00  0.00     0.000 C 
BRANCH   5   6
ATOM      6  C   UNL     1       5.985  -2.578  -5.139  1.00  0.00     0.000 C 
BRANCH   6   7
ATOM      7  C   UNL     1       5.916  -2.744  -3.611  1.00  0.00     0.000 C 
BRANCH   7   8
ATOM      8  C   UNL     1       7.200  -2.271  -2.907  1.00  0.00     0.006 C 
BRANCH   8   9
ATOM      9  C   UNL     1       8.446  -3.036  -3.371  1.00  0.00     0.053 C 
BRANCH   9  10
ATOM     10  C   UNL     1       8.736  -4.175  -2.445  1.00  0.00     0.041 C 
ATOM     11  O   UNL     1       8.439  -5.355  -2.775  1.00  0.00    -0.550 OA
ATOM     12  O   UNL     1       9.369  -3.941  -1.232  1.00  0.00    -0.550 OA
ENDBRANCH   9  10
ENDBRANCH   8   9
ENDBRANCH   7   8
ENDBRANCH   6   7
ENDBRANCH   5   6
ENDBRANCH   4   5
ENDBRANCH   3   4
ENDBRANCH   1   3
BRANCH   2  13
ATOM     13  C   UNL     1       3.062  -7.431  -7.259  1.00  0.00     0.027 C 
BRANCH  13  14
ATOM     14  C   UNL     1       1.830  -6.510  -7.365  1.00  0.00     0.004 C 
BRANCH  14  15
ATOM     15  C   UNL     1       2.157  -5.015  -7.204  1.00  0.00     0.000 C 
BRANCH  15  16
ATOM     16  C   UNL     1       3.087  -4.487  -8.309  1.00  0.00     0.000 C 
BRANCH  16  17
ATOM     17  C   UNL     1       2.677  -3.090  -8.803  1.00  0.00    -0.000 C 
BRANCH  17  18
ATOM     18  C   UNL     1       3.510  -1.966  -8.162  1.00  0.00    -0.000 C 
BRANCH  18  19
ATOM     19  C   UNL     1       2.866  -1.416  -6.880  1.00  0.00    -0.003 C 
ATOM     20  C   UNL     1       1.580  -0.639  -7.151  1.00  0.00     0.004 C 
ENDBRANCH  18  19
ENDBRANCH  17  18
ENDBRANCH  16  17
ENDBRANCH  15  16
ENDBRANCH  14  15
ENDBRANCH  13  14
ENDBRANCH   2  13
TORSDOF 15
ENDMDL
MODEL 7
REMARK VINA RESULT:    -3.238      2.227      6.108
REMARK INTER + INTRA:          -8.736
REMARK INTER:                  -6.922
REMARK INTRA:                  -1.815
REMARK UNBOUND:                -2.659
REMARK SMILES CCCCCCCCC=CCCCCCCCC(=O)[O-]
REMARK SMILES IDX 10 1 9 2 11 3 12 4 13 5 14 6 15 7 16 8 17 9 18 10 19 11
REMARK SMILES IDX 20 12 8 13 7 14 6 15 5 16 4 17 3 18 2 19 1 20
REMARK H PARENT
REMARK Flexibility Score: inf
ROOT
ATOM      1  C   UNL     1       1.706  -6.062  -7.724  1.00  0.00    -0.031 C 
ATOM      2  C   UNL     1       2.433  -6.975  -7.056  1.00  0.00    -0.031 C 
ENDROOT
BRANCH   1   3
ATOM      3  C   UNL     1       2.055  -4.594  -7.778  1.00  0.00     0.027 C 
BRANCH   3   4
ATOM      4  C   UNL     1       2.336  -4.143  -9.216  1.00  0.00     0.004 C 
BRANCH   4   5
ATOM      5  C   UNL     1       1.096  -4.335 -10.102  1.00  0.00     0.000 C 
BRANCH   5   6
ATOM      6  C   UNL     1       0.436  -3.002 -10.489  1.00  0.00     0.000 C 
BRANCH   6   7
ATOM      7  C   UNL     1      -0.810  -2.695  -9.641  1.00  0.00     0.000 C 
BRANCH   7   8
ATOM      8  C   UNL     1      -0.628  -1.454  -8.752  1.00  0.00     0.006 C 
BRANCH   8   9
ATOM      9  C   UNL     1       0.676  -0.701  -9.044  1.00  0.00     0.053 C 
BRANCH   9  10
ATOM     10  C   UNL     1       1.617  -0.815  -7.886  1.00  0.00     0.041 C 
ATOM     11  O   UNL     1       1.173  -1.006  -6.722  1.00  0.00    -0.550 OA
ATOM     12  O   UNL     1       2.988  -0.746  -8.095  1.00  0.00    -0.550 OA
ENDBRANCH   9  10
ENDBRANCH   8   9
ENDBRANCH   7   8
ENDBRANCH   6   7
ENDBRANCH   5   6
ENDBRANCH   4   5
ENDBRANCH   3   4
ENDBRANCH   1   3
BRANCH   2  13
ATOM     13  C   UNL     1       3.665  -6.652  -6.244  1.00  0.00     0.027 C 
BRANCH  13  14
ATOM     14  C   UNL     1       4.071  -7.808  -5.308  1.00  0.00     0.004 C 
BRANCH  14  15
ATOM     15  C   UNL     1       5.244  -7.467  -4.374  1.00  0.00     0.000 C 
BRANCH  15  16
ATOM     16  C   UNL     1       6.028  -6.225  -4.831  1.00  0.00     0.000 C 
BRANCH  16  17
ATOM     17  C   UNL     1       6.355  -5.276  -3.667  1.00  0.00    -0.000 C 
BRANCH  17  18
ATOM     18  C   UNL     1       5.941  -3.821  -3.954  1.00  0.00    -0.000 C 
BRANCH  18  19
ATOM     19  C   UNL     1       6.247  -3.396  -5.398  1.00  0.00    -0.003 C 
ATOM     20  C   UNL     1       5.005  -2.928  -6.152  1.00  0.00     0.004 C 
ENDBRANCH  18  19
ENDBRANCH  17  18
ENDBRANCH  16  17
ENDBRANCH  15  16
ENDBRANCH  14  15
ENDBRANCH  13  14
ENDBRANCH   2  13
TORSDOF 15
ENDMDL
MODEL 8
REMARK VINA RESULT:    -3.230      1.671      3.190
REMARK INTER + INTRA:          -8.721
REMARK INTER:                  -6.405
REMARK INTRA:                  -2.316
REMARK UNBOUND:                -2.659
REMARK SMILES CCCCCCCCC=CCCCCCCCC(=O)[O-]
REMARK SMILES IDX 10 1 9 2 11 3 12 4 13 5 14 6 15 7 16 8 17 9 18 10 19 11
REMARK SMILES IDX 20 12 8 13 7 14 6 15 5 16 4 17 3 18 2 19 1 20
REMARK H PARENT
REMARK Flexibility Score: inf
ROOT
ATOM      1  C   UNL     1       2.452  -8.639  -6.246  1.00  0.00    -0.031 C 
ATOM      2  C   UNL     1       1.884  -8.165  -7.370  1.00  0.00    -0.031 C 
ENDROOT
BRANCH   1   3
ATOM      3  C   UNL     1       3.944  -8.686  -6.021  1.00  0.00     0.027 C 
BRANCH   3   4
ATOM      4  C   UNL     1       4.403  -7.546  -5.105  1.00  0.00     0.004 C 
BRANCH   4   5
ATOM      5  C   UNL     1       4.972  -6.378  -5.925  1.00  0.00     0.000 C 
BRANCH   5   6
ATOM      6  C   UNL     1       5.252  -5.135  -5.066  1.00  0.00     0.000 C 
BRANCH   6   7
ATOM      7  C   UNL     1       5.905  -3.999  -5.871  1.00  0.00     0.000 C 
BRANCH   7   8
ATOM      8  C   UNL     1       5.901  -2.661  -5.114  1.00  0.00     0.006 C 
BRANCH   8   9
ATOM      9  C   UNL     1       7.312  -2.100  -4.894  1.00  0.00     0.053 C 
BRANCH   9  10
ATOM     10  C   UNL     1       7.797  -2.427  -3.516  1.00  0.00     0.041 C 
ATOM     11  O   UNL     1       6.978  -2.543  -2.565  1.00  0.00    -0.550 OA
ATOM     12  O   UNL     1       9.150  -2.641  -3.288  1.00  0.00    -0.550 OA
ENDBRANCH   9  10
ENDBRANCH   8   9
ENDBRANCH   7   8
ENDBRANCH   6   7
ENDBRANCH   5   6
ENDBRANCH   4   5
ENDBRANCH   3   4
ENDBRANCH   1   3
BRANCH   2  13
ATOM     13  C   UNL     1       2.657  -7.656  -8.563  1.00  0.00     0.027 C 
BRANCH  13  14
ATOM     14  C   UNL     1       2.494  -6.135  -8.763  1.00  0.00     0.004 C 
BRANCH  14  15
ATOM     15  C   UNL     1       1.666  -5.451  -7.662  1.00  0.00     0.000 C 
BRANCH  15  16
ATOM     16  C   UNL     1       2.219  -4.071  -7.271  1.00  0.00     0.000 C 
BRANCH  16  17
ATOM     17  C   UNL     1       3.165  -3.494  -8.338  1.00  0.00    -0.000 C 
BRANCH  17  18
ATOM     18  C   UNL     1       3.580  -2.042  -8.041  1.00  0.00    -0.000 C 
BRANCH  18  19
ATOM     19  C   UNL     1       2.866  -1.468  -6.807  1.00  0.00    -0.003 C 
ATOM     20  C   UNL     1       1.799  -0.436  -7.169  1.00  0.00     0.004 C 
ENDBRANCH  18  19
ENDBRANCH  17  18
ENDBRANCH  16  17
ENDBRANCH  15  16
ENDBRANCH  14  15
ENDBRANCH  13  14
ENDBRANCH   2  13
TORSDOF 15
ENDMDL
MODEL 9
REMARK VINA RESULT:    -3.214      2.439      5.564
REMARK INTER + INTRA:          -8.691
REMARK INTER:                  -6.555
REMARK INTRA:                  -2.136
REMARK UNBOUND:                -2.659
REMARK SMILES CCCCCCCCC=CCCCCCCCC(=O)[O-]
REMARK SMILES IDX 10 1 9 2 11 3 12 4 13 5 14 6 15 7 16 8 17 9 18 10 19 11
REMARK SMILES IDX 20 12 8 13 7 14 6 15 5 16 4 17 3 18 2 19 1 20
REMARK H PARENT
REMARK Flexibility Score: inf
ROOT
ATOM      1  C   UNL     1       4.224  -5.924  -6.216  1.00  0.00    -0.031 C 
ATOM      2  C   UNL     1       5.142  -5.263  -5.488  1.00  0.00    -0.031 C 
ENDROOT
BRANCH   1   3
ATOM      3  C   UNL     1       3.830  -7.359  -5.958  1.00  0.00     0.027 C 
BRANCH   3   4
ATOM      4  C   UNL     1       2.652  -7.778  -6.844  1.00  0.00     0.004 C 
BRANCH   4   5
ATOM      5  C   UNL     1       1.710  -6.592  -7.102  1.00  0.00     0.000 C 
BRANCH   5   6
ATOM      6  C   UNL     1       1.617  -6.226  -8.591  1.00  0.00     0.000 C 
BRANCH   6   7
ATOM      7  C   UNL     1       2.032  -4.770  -8.866  1.00  0.00     0.000 C 
BRANCH   7   8
ATOM      8  C   UNL     1       1.625  -3.816  -7.730  1.00  0.00     0.006 C 
BRANCH   8   9
ATOM      9  C   UNL     1       2.752  -2.856  -7.329  1.00  0.00     0.053 C 
BRANCH   9  10
ATOM     10  C   UNL     1       2.299  -1.435  -7.453  1.00  0.00     0.041 C 
ATOM     11  O   UNL     1       2.918  -0.633  -8.201  1.00  0.00    -0.550 OA
ATOM     12  O   UNL     1       1.170  -1.004  -6.769  1.00  0.00    -0.550 OA
ENDBRANCH   9  10
ENDBRANCH   8   9
ENDBRANCH   7   8
ENDBRANCH   6   7
ENDBRANCH   5   6
ENDBRANCH   4   5
ENDBRANCH   3   4
ENDBRANCH   1   3
BRANCH   2  13
ATOM     13  C   UNL     1       5.922  -5.873  -4.347  1.00  0.00     0.027 C 
BRANCH  13  14
ATOM     14  C   UNL     1       6.650  -4.810  -3.499  1.00  0.00     0.004 C 
BRANCH  14  15
ATOM     15  C   UNL     1       5.847  -3.512  -3.309  1.00  0.00     0.000 C 
BRANCH  15  16
ATOM     16  C   UNL     1       6.574  -2.276  -3.863  1.00  0.00     0.000 C 
BRANCH  16  17
ATOM     17  C   UNL     1       8.008  -2.592  -4.318  1.00  0.00    -0.000 C 
BRANCH  17  18
ATOM     18  C   UNL     1       8.292  -2.122  -5.756  1.00  0.00    -0.000 C 
BRANCH  18  19
ATOM     19  C   UNL     1       7.748  -3.098  -6.811  1.00  0.00    -0.003 C 
ATOM     20  C   UNL     1       6.546  -2.538  -7.569  1.00  0.00     0.004 C 
ENDBRANCH  18  19
ENDBRANCH  17  18
ENDBRANCH  16  17
ENDBRANCH  15  16
ENDBRANCH  14  15
ENDBRANCH  13  14
ENDBRANCH   2  13
TORSDOF 15
ENDMDL
