MODEL 1
REMARK VINA RESULT:    -5.768      0.000      0.000
REMARK INTER + INTRA:         -11.040
REMARK INTER:                  -7.960
REMARK INTRA:                  -3.081
REMARK UNBOUND:                -3.081
REMARK SMILES CC[C@@H](CC[C@@H](C)[C@H]1CC[C@@H]2[C@H]3CC=C4C[C@@H](O)CC[C@@]4(C)[C@@H]3CC[C@]21C)C(C)C
REMARK SMILES IDX 5 1 4 2 3 3 2 4 1 5 28 6 29 7 30 8 6 9 7 10 8 11 9 12 26 13
REMARK SMILES IDX 10 14 11 15 25 16 27 17 12 18 24 19 23 20 13 21 21 22 14 23
REMARK SMILES IDX 15 24 20 25 22 26 16 27 19 28 17 29 18 30
REMARK H PARENT 18 31
REMARK Flexibility Score: inf
ROOT
ATOM      1  C   UNL     1     172.702 179.231 187.824  1.00  0.00     0.004 C 
ENDROOT
BRANCH   1   2
ATOM      2  C   UNL     1     171.645 179.870 186.890  1.00  0.00     0.004 C 
BRANCH   2   3
ATOM      3  C   UNL     1     170.761 178.872 186.080  1.00  0.00    -0.009 C 
BRANCH   3   4
ATOM      4  C   UNL     1     169.662 179.601 185.261  1.00  0.00     0.000 C 
ATOM      5  C   UNL     1     169.746 179.344 183.754  1.00  0.00     0.004 C 
ENDBRANCH   3   4
BRANCH   3   6
ATOM      6  C   UNL     1     170.226 177.648 186.903  1.00  0.00    -0.014 C 
ATOM      7  C   UNL     1     169.917 176.400 186.066  1.00  0.00     0.007 C 
ATOM      8  C   UNL     1     169.005 178.017 187.764  1.00  0.00     0.007 C 
ENDBRANCH   3   6
ENDBRANCH   2   3
ENDBRANCH   1   2
BRANCH   1   9
ATOM      9  C   UNL     1     174.176 179.487 187.380  1.00  0.00    -0.011 C 
ATOM     10  C   UNL     1     175.026 179.788 188.644  1.00  0.00     0.008 C 
BRANCH   9  11
ATOM     11  C   UNL     1     174.800 178.324 186.515  1.00  0.00    -0.002 C 
ATOM     12  C   UNL     1     174.209 176.914 186.844  1.00  0.00     0.005 C 
ATOM     13  C   UNL     1     174.659 178.427 184.948  1.00  0.00    -0.026 C 
ATOM     14  C   UNL     1     173.645 176.320 185.553  1.00  0.00     0.005 C 
ATOM     15  C   UNL     1     173.442 177.533 184.671  1.00  0.00    -0.001 C 
ATOM     16  C   UNL     1     174.349 179.808 184.315  1.00  0.00     0.007 C 
ATOM     17  C   UNL     1     175.985 177.870 184.333  1.00  0.00     0.012 C 
ATOM     18  C   UNL     1     173.178 177.288 183.166  1.00  0.00     0.000 C 
ATOM     19  C   UNL     1     174.060 179.698 182.801  1.00  0.00     0.005 C 
ATOM     20  C   UNL     1     172.949 178.656 182.459  1.00  0.00     0.003 C 
ATOM     21  C   UNL     1     171.933 176.406 182.980  1.00  0.00     0.031 C 
ATOM     22  C   UNL     1     172.696 178.474 180.911  1.00  0.00    -0.008 C 
ATOM     23  C   UNL     1     171.453 176.365 181.558  1.00  0.00    -0.027 C 
ATOM     24  C   UNL     1     171.678 177.348 180.659  1.00  0.00    -0.065 C 
ATOM     25  C   UNL     1     172.124 179.807 180.335  1.00  0.00     0.014 C 
ATOM     26  C   UNL     1     174.007 178.112 180.160  1.00  0.00     0.016 C 
ATOM     27  C   UNL     1     171.041 177.225 179.287  1.00  0.00     0.063 C 
ATOM     28  C   UNL     1     171.569 179.684 178.907  1.00  0.00     0.033 C 
ATOM     29  C   UNL     1     170.510 178.577 178.784  1.00  0.00     0.118 C 
BRANCH  29  30
ATOM     30  O   UNL     1     169.314 178.941 179.432  1.00  0.00    -0.393 OA
ATOM     31  H   UNL     1     169.496 179.016 180.404  1.00  0.00     0.210 HD
ENDBRANCH  29  30
ENDBRANCH   9  11
ENDBRANCH   1   9
TORSDOF 7
ENDMDL
MODEL 2
REMARK VINA RESULT:    -5.685      9.537     11.570
REMARK INTER + INTRA:         -10.927
REMARK INTER:                  -8.169
REMARK INTRA:                  -2.758
REMARK UNBOUND:                -3.081
REMARK SMILES CC[C@@H](CC[C@@H](C)[C@H]1CC[C@@H]2[C@H]3CC=C4C[C@@H](O)CC[C@@]4(C)[C@@H]3CC[C@]21C)C(C)C
REMARK SMILES IDX 5 1 4 2 3 3 2 4 1 5 28 6 29 7 30 8 6 9 7 10 8 11 9 12 26 13
REMARK SMILES IDX 10 14 11 15 25 16 27 17 12 18 24 19 23 20 13 21 21 22 14 23
REMARK SMILES IDX 15 24 20 25 22 26 16 27 19 28 17 29 18 30
REMARK H PARENT 18 31
REMARK Flexibility Score: inf
ROOT
ATOM      1  C   UNL     1     160.930 175.207 187.610  1.00  0.00     0.004 C 
ENDROOT
BRANCH   1   2
ATOM      2  C   UNL     1     159.968 174.340 186.763  1.00  0.00     0.004 C 
BRANCH   2   3
ATOM      3  C   UNL     1     160.403 172.857 186.544  1.00  0.00    -0.009 C 
BRANCH   3   4
ATOM      4  C   UNL     1     161.420 172.386 187.618  1.00  0.00     0.000 C 
ATOM      5  C   UNL     1     160.903 171.243 188.495  1.00  0.00     0.004 C 
ENDBRANCH   3   4
BRANCH   3   6
ATOM      6  C   UNL     1     160.825 172.504 185.076  1.00  0.00    -0.014 C 
ATOM      7  C   UNL     1     159.880 173.037 183.991  1.00  0.00     0.007 C 
ATOM      8  C   UNL     1     161.045 170.993 184.883  1.00  0.00     0.007 C 
ENDBRANCH   3   6
ENDBRANCH   2   3
ENDBRANCH   1   2
BRANCH   1   9
ATOM      9  C   UNL     1     161.125 176.655 187.062  1.00  0.00    -0.011 C 
ATOM     10  C   UNL     1     160.970 177.653 188.241  1.00  0.00     0.008 C 
BRANCH   9  11
ATOM     11  C   UNL     1     162.480 176.872 186.282  1.00  0.00    -0.002 C 
ATOM     12  C   UNL     1     163.599 175.854 186.678  1.00  0.00     0.005 C 
ATOM     13  C   UNL     1     162.436 176.780 184.709  1.00  0.00    -0.026 C 
ATOM     14  C   UNL     1     164.059 175.135 185.409  1.00  0.00     0.005 C 
ATOM     15  C   UNL     1     162.903 175.341 184.453  1.00  0.00    -0.001 C 
ATOM     16  C   UNL     1     161.072 176.938 183.989  1.00  0.00     0.007 C 
ATOM     17  C   UNL     1     163.429 177.857 184.161  1.00  0.00     0.012 C 
ATOM     18  C   UNL     1     163.145 175.019 182.959  1.00  0.00     0.000 C 
ATOM     19  C   UNL     1     161.178 176.637 182.477  1.00  0.00     0.005 C 
ATOM     20  C   UNL     1     161.824 175.250 182.168  1.00  0.00     0.003 C 
ATOM     21  C   UNL     1     163.587 173.557 182.793  1.00  0.00     0.031 C 
ATOM     22  C   UNL     1     162.012 174.960 180.628  1.00  0.00    -0.008 C 
ATOM     23  C   UNL     1     163.560 173.096 181.364  1.00  0.00    -0.027 C 
ATOM     24  C   UNL     1     162.762 173.633 180.416  1.00  0.00    -0.065 C 
ATOM     25  C   UNL     1     160.605 174.854 179.961  1.00  0.00     0.014 C 
ATOM     26  C   UNL     1     162.825 176.086 179.932  1.00  0.00     0.016 C 
ATOM     27  C   UNL     1     162.759 172.997 179.037  1.00  0.00     0.063 C 
ATOM     28  C   UNL     1     160.632 174.297 178.528  1.00  0.00     0.033 C 
ATOM     29  C   UNL     1     161.342 172.937 178.443  1.00  0.00     0.118 C 
BRANCH  29  30
ATOM     30  O   UNL     1     160.570 171.920 179.038  1.00  0.00    -0.393 OA
ATOM     31  H   UNL     1     160.928 171.748 179.948  1.00  0.00     0.210 HD
ENDBRANCH  29  30
ENDBRANCH   9  11
ENDBRANCH   1   9
TORSDOF 7
ENDMDL
MODEL 3
REMARK VINA RESULT:    -5.620      1.970      5.925
REMARK INTER + INTRA:         -10.837
REMARK INTER:                  -7.924
REMARK INTRA:                  -2.913
REMARK UNBOUND:                -3.081
REMARK SMILES CC[C@@H](CC[C@@H](C)[C@H]1CC[C@@H]2[C@H]3CC=C4C[C@@H](O)CC[C@@]4(C)[C@@H]3CC[C@]21C)C(C)C
REMARK SMILES IDX 5 1 4 2 3 3 2 4 1 5 28 6 29 7 30 8 6 9 7 10 8 11 9 12 26 13
REMARK SMILES IDX 10 14 11 15 25 16 27 17 12 18 24 19 23 20 13 21 21 22 14 23
REMARK SMILES IDX 15 24 20 25 22 26 16 27 19 28 17 29 18 30
REMARK H PARENT 18 31
REMARK Flexibility Score: inf
ROOT
ATOM      1  C   UNL     1     174.625 179.797 182.597  1.00  0.00     0.004 C 
ENDROOT
BRANCH   1   2
ATOM      2  C   UNL     1     173.096 180.006 182.473  1.00  0.00     0.004 C 
BRANCH   2   3
ATOM      3  C   UNL     1     172.297 178.822 181.844  1.00  0.00    -0.009 C 
BRANCH   3   4
ATOM      4  C   UNL     1     172.605 178.651 180.332  1.00  0.00     0.000 C 
ATOM      5  C   UNL     1     172.705 179.976 179.572  1.00  0.00     0.004 C 
ENDBRANCH   3   4
BRANCH   3   6
ATOM      6  C   UNL     1     170.765 178.808 182.182  1.00  0.00    -0.014 C 
ATOM      7  C   UNL     1     170.373 179.635 183.413  1.00  0.00     0.007 C 
ATOM      8  C   UNL     1     170.214 177.377 182.314  1.00  0.00     0.007 C 
ENDBRANCH   3   6
ENDBRANCH   2   3
ENDBRANCH   1   2
BRANCH   1   9
ATOM      9  C   UNL     1     175.028 178.394 183.148  1.00  0.00    -0.011 C 
ATOM     10  C   UNL     1     176.362 177.967 182.477  1.00  0.00     0.008 C 
BRANCH   9  11
ATOM     11  C   UNL     1     175.111 178.319 184.723  1.00  0.00    -0.002 C 
ATOM     12  C   UNL     1     175.248 179.717 185.408  1.00  0.00     0.005 C 
ATOM     13  C   UNL     1     173.902 177.652 185.483  1.00  0.00    -0.026 C 
ATOM     14  C   UNL     1     174.096 179.876 186.401  1.00  0.00     0.005 C 
ATOM     15  C   UNL     1     173.075 178.870 185.915  1.00  0.00    -0.001 C 
ATOM     16  C   UNL     1     172.944 176.722 184.694  1.00  0.00     0.007 C 
ATOM     17  C   UNL     1     174.504 176.857 186.688  1.00  0.00     0.012 C 
ATOM     18  C   UNL     1     171.903 178.524 186.864  1.00  0.00     0.000 C 
ATOM     19  C   UNL     1     171.719 176.305 185.537  1.00  0.00     0.005 C 
ATOM     20  C   UNL     1     170.952 177.518 186.153  1.00  0.00     0.003 C 
ATOM     21  C   UNL     1     171.118 179.795 187.226  1.00  0.00     0.031 C 
ATOM     22  C   UNL     1     169.743 177.106 187.081  1.00  0.00    -0.008 C 
ATOM     23  C   UNL     1     169.809 179.501 187.902  1.00  0.00    -0.027 C 
ATOM     24  C   UNL     1     169.121 178.350 187.740  1.00  0.00    -0.065 C 
ATOM     25  C   UNL     1     168.656 176.403 186.210  1.00  0.00     0.014 C 
ATOM     26  C   UNL     1     170.197 176.141 188.211  1.00  0.00     0.016 C 
ATOM     27  C   UNL     1     167.758 178.231 188.398  1.00  0.00     0.063 C 
ATOM     28  C   UNL     1     167.311 176.205 186.926  1.00  0.00     0.033 C 
ATOM     29  C   UNL     1     166.746 177.521 187.484  1.00  0.00     0.118 C 
BRANCH  29  30
ATOM     30  O   UNL     1     166.299 178.364 186.449  1.00  0.00    -0.393 OA
ATOM     31  H   UNL     1     165.810 179.125 186.855  1.00  0.00     0.210 HD
ENDBRANCH  29  30
ENDBRANCH   9  11
ENDBRANCH   1   9
TORSDOF 7
ENDMDL
MODEL 4
REMARK VINA RESULT:    -5.589      2.447      5.851
REMARK INTER + INTRA:         -10.794
REMARK INTER:                  -7.484
REMARK INTRA:                  -3.309
REMARK UNBOUND:                -3.081
REMARK SMILES CC[C@@H](CC[C@@H](C)[C@H]1CC[C@@H]2[C@H]3CC=C4C[C@@H](O)CC[C@@]4(C)[C@@H]3CC[C@]21C)C(C)C
REMARK SMILES IDX 5 1 4 2 3 3 2 4 1 5 28 6 29 7 30 8 6 9 7 10 8 11 9 12 26 13
REMARK SMILES IDX 10 14 11 15 25 16 27 17 12 18 24 19 23 20 13 21 21 22 14 23
REMARK SMILES IDX 15 24 20 25 22 26 16 27 19 28 17 29 18 30
REMARK H PARENT 18 31
REMARK Flexibility Score: inf
ROOT
ATOM      1  C   UNL     1     176.174 177.387 184.452  1.00  0.00     0.004 C 
ENDROOT
BRANCH   1   2
ATOM      2  C   UNL     1     175.610 176.094 183.814  1.00  0.00     0.004 C 
BRANCH   2   3
ATOM      3  C   UNL     1     174.232 175.610 184.364  1.00  0.00    -0.009 C 
BRANCH   3   4
ATOM      4  C   UNL     1     174.331 174.208 185.025  1.00  0.00     0.000 C 
ATOM      5  C   UNL     1     174.759 174.252 186.494  1.00  0.00     0.004 C 
ENDBRANCH   3   4
BRANCH   3   6
ATOM      6  C   UNL     1     173.036 175.750 183.359  1.00  0.00    -0.014 C 
ATOM      7  C   UNL     1     173.020 177.062 182.563  1.00  0.00     0.007 C 
ATOM      8  C   UNL     1     171.675 175.537 184.045  1.00  0.00     0.007 C 
ENDBRANCH   3   6
ENDBRANCH   2   3
ENDBRANCH   1   2
BRANCH   1   9
ATOM      9  C   UNL     1     175.817 177.555 185.963  1.00  0.00    -0.011 C 
ATOM     10  C   UNL     1     177.129 177.484 186.789  1.00  0.00     0.008 C 
BRANCH   9  11
ATOM     11  C   UNL     1     174.986 178.856 186.288  1.00  0.00    -0.002 C 
ATOM     12  C   UNL     1     174.772 179.787 185.050  1.00  0.00     0.005 C 
ATOM     13  C   UNL     1     173.531 178.665 186.863  1.00  0.00    -0.026 C 
ATOM     14  C   UNL     1     173.268 179.993 184.864  1.00  0.00     0.005 C 
ATOM     15  C   UNL     1     172.661 178.823 185.608  1.00  0.00    -0.001 C 
ATOM     16  C   UNL     1     173.151 177.302 187.497  1.00  0.00     0.007 C 
ATOM     17  C   UNL     1     173.304 179.798 187.917  1.00  0.00     0.012 C 
ATOM     18  C   UNL     1     171.143 178.874 185.904  1.00  0.00     0.000 C 
ATOM     19  C   UNL     1     171.646 177.222 187.837  1.00  0.00     0.005 C 
ATOM     20  C   UNL     1     170.720 177.561 186.626  1.00  0.00     0.003 C 
ATOM     21  C   UNL     1     170.350 179.010 184.595  1.00  0.00     0.031 C 
ATOM     22  C   UNL     1     169.181 177.561 186.977  1.00  0.00    -0.008 C 
ATOM     23  C   UNL     1     168.877 178.777 184.776  1.00  0.00    -0.027 C 
ATOM     24  C   UNL     1     168.352 178.020 185.765  1.00  0.00    -0.065 C 
ATOM     25  C   UNL     1     168.752 176.109 187.357  1.00  0.00     0.014 C 
ATOM     26  C   UNL     1     168.868 178.515 188.162  1.00  0.00     0.016 C 
ATOM     27  C   UNL     1     166.853 177.781 185.764  1.00  0.00     0.063 C 
ATOM     28  C   UNL     1     167.231 175.909 187.445  1.00  0.00     0.033 C 
ATOM     29  C   UNL     1     166.509 176.334 186.157  1.00  0.00     0.118 C 
BRANCH  29  30
ATOM     30  O   UNL     1     166.769 175.434 185.106  1.00  0.00    -0.393 OA
ATOM     31  H   UNL     1     166.133 174.676 185.180  1.00  0.00     0.210 HD
ENDBRANCH  29  30
ENDBRANCH   9  11
ENDBRANCH   1   9
TORSDOF 7
ENDMDL
MODEL 5
REMARK VINA RESULT:    -5.564      4.025      6.934
REMARK INTER + INTRA:         -10.759
REMARK INTER:                  -7.677
REMARK INTRA:                  -3.082
REMARK UNBOUND:                -3.081
REMARK SMILES CC[C@@H](CC[C@@H](C)[C@H]1CC[C@@H]2[C@H]3CC=C4C[C@@H](O)CC[C@@]4(C)[C@@H]3CC[C@]21C)C(C)C
REMARK SMILES IDX 5 1 4 2 3 3 2 4 1 5 28 6 29 7 30 8 6 9 7 10 8 11 9 12 26 13
REMARK SMILES IDX 10 14 11 15 25 16 27 17 12 18 24 19 23 20 13 21 21 22 14 23
REMARK SMILES IDX 15 24 20 25 22 26 16 27 19 28 17 29 18 30
REMARK H PARENT 18 31
REMARK Flexibility Score: inf
ROOT
ATOM      1  C   UNL     1     172.276 179.144 185.204  1.00  0.00     0.004 C 
ENDROOT
BRANCH   1   2
ATOM      2  C   UNL     1     173.718 179.696 185.099  1.00  0.00     0.004 C 
BRANCH   2   3
ATOM      3  C   UNL     1     174.753 179.086 186.095  1.00  0.00    -0.009 C 
BRANCH   3   4
ATOM      4  C   UNL     1     175.089 180.063 187.254  1.00  0.00     0.000 C 
ATOM      5  C   UNL     1     174.686 179.539 188.635  1.00  0.00     0.004 C 
ENDBRANCH   3   4
BRANCH   3   6
ATOM      6  C   UNL     1     176.017 178.446 185.423  1.00  0.00    -0.014 C 
ATOM      7  C   UNL     1     175.744 177.742 184.087  1.00  0.00     0.007 C 
ATOM      8  C   UNL     1     176.761 177.493 186.375  1.00  0.00     0.007 C 
ENDBRANCH   3   6
ENDBRANCH   2   3
ENDBRANCH   1   2
BRANCH   1   9
ATOM      9  C   UNL     1     172.094 178.055 186.308  1.00  0.00    -0.011 C 
ATOM     10  C   UNL     1     171.074 178.581 187.354  1.00  0.00     0.008 C 
BRANCH   9  11
ATOM     11  C   UNL     1     171.687 176.635 185.751  1.00  0.00    -0.002 C 
ATOM     12  C   UNL     1     171.449 176.615 184.206  1.00  0.00     0.005 C 
ATOM     13  C   UNL     1     172.694 175.447 185.986  1.00  0.00    -0.026 C 
ATOM     14  C   UNL     1     172.376 175.562 183.596  1.00  0.00     0.005 C 
ATOM     15  C   UNL     1     173.448 175.388 184.650  1.00  0.00    -0.001 C 
ATOM     16  C   UNL     1     173.769 175.585 187.095  1.00  0.00     0.007 C 
ATOM     17  C   UNL     1     171.836 174.169 186.266  1.00  0.00     0.012 C 
ATOM     18  C   UNL     1     174.390 174.168 184.517  1.00  0.00     0.000 C 
ATOM     19  C   UNL     1     174.783 174.420 187.067  1.00  0.00     0.005 C 
ATOM     20  C   UNL     1     175.439 174.207 185.667  1.00  0.00     0.003 C 
ATOM     21  C   UNL     1     175.117 174.200 183.164  1.00  0.00     0.031 C 
ATOM     22  C   UNL     1     176.419 172.971 185.600  1.00  0.00    -0.008 C 
ATOM     23  C   UNL     1     176.250 173.217 183.085  1.00  0.00    -0.027 C 
ATOM     24  C   UNL     1     176.926 172.761 184.162  1.00  0.00    -0.065 C 
ATOM     25  C   UNL     1     177.644 173.249 186.528  1.00  0.00     0.014 C 
ATOM     26  C   UNL     1     175.717 171.663 186.058  1.00  0.00     0.016 C 
ATOM     27  C   UNL     1     178.120 171.853 183.928  1.00  0.00     0.063 C 
ATOM     28  C   UNL     1     178.806 172.262 186.343  1.00  0.00     0.033 C 
ATOM     29  C   UNL     1     179.279 172.182 184.883  1.00  0.00     0.118 C 
BRANCH  29  30
ATOM     30  O   UNL     1     179.953 173.357 184.500  1.00  0.00    -0.393 OA
ATOM     31  H   UNL     1     179.462 173.766 183.741  1.00  0.00     0.210 HD
ENDBRANCH  29  30
ENDBRANCH   9  11
ENDBRANCH   1   9
TORSDOF 7
ENDMDL
MODEL 6
REMARK VINA RESULT:    -5.563      8.441     12.241
REMARK INTER + INTRA:         -10.758
REMARK INTER:                  -7.440
REMARK INTRA:                  -3.318
REMARK UNBOUND:                -3.081
REMARK SMILES CC[C@@H](CC[C@@H](C)[C@H]1CC[C@@H]2[C@H]3CC=C4C[C@@H](O)CC[C@@]4(C)[C@@H]3CC[C@]21C)C(C)C
REMARK SMILES IDX 5 1 4 2 3 3 2 4 1 5 28 6 29 7 30 8 6 9 7 10 8 11 9 12 26 13
REMARK SMILES IDX 10 14 11 15 25 16 27 17 12 18 24 19 23 20 13 21 21 22 14 23
REMARK SMILES IDX 15 24 20 25 22 26 16 27 19 28 17 29 18 30
REMARK H PARENT 18 31
REMARK Flexibility Score: inf
ROOT
ATOM      1  C   UNL     1     164.016 178.071 184.435  1.00  0.00     0.004 C 
ENDROOT
BRANCH   1   2
ATOM      2  C   UNL     1     165.051 177.116 183.792  1.00  0.00     0.004 C 
BRANCH   2   3
ATOM      3  C   UNL     1     165.004 175.635 184.280  1.00  0.00    -0.009 C 
BRANCH   3   4
ATOM      4  C   UNL     1     166.343 175.196 184.933  1.00  0.00     0.000 C 
ATOM      5  C   UNL     1     166.537 175.732 186.354  1.00  0.00     0.004 C 
ENDBRANCH   3   4
BRANCH   3   6
ATOM      6  C   UNL     1     164.450 174.611 183.229  1.00  0.00    -0.014 C 
ATOM      7  C   UNL     1     163.199 175.081 182.476  1.00  0.00     0.007 C 
ATOM      8  C   UNL     1     164.200 173.224 183.846  1.00  0.00     0.007 C 
ENDBRANCH   3   6
ENDBRANCH   2   3
ENDBRANCH   1   2
BRANCH   1   9
ATOM      9  C   UNL     1     163.763 177.800 185.952  1.00  0.00    -0.011 C 
ATOM     10  C   UNL     1     164.266 179.026 186.761  1.00  0.00     0.008 C 
BRANCH   9  11
ATOM     11  C   UNL     1     162.268 177.438 186.301  1.00  0.00    -0.002 C 
ATOM     12  C   UNL     1     161.299 177.536 185.078  1.00  0.00     0.005 C 
ATOM     13  C   UNL     1     161.985 176.000 186.882  1.00  0.00    -0.026 C 
ATOM     14  C   UNL     1     160.613 176.180 184.904  1.00  0.00     0.005 C 
ATOM     15  C   UNL     1     161.533 175.227 185.635  1.00  0.00    -0.001 C 
ATOM     16  C   UNL     1     163.160 175.198 187.500  1.00  0.00     0.007 C 
ATOM     17  C   UNL     1     160.856 176.155 187.954  1.00  0.00     0.012 C 
ATOM     18  C   UNL     1     160.997 173.808 185.941  1.00  0.00     0.000 C 
ATOM     19  C   UNL     1     162.751 173.750 187.848  1.00  0.00     0.005 C 
ATOM     20  C   UNL     1     162.112 172.983 186.648  1.00  0.00     0.003 C 
ATOM     21  C   UNL     1     160.590 173.100 184.639  1.00  0.00     0.031 C 
ATOM     22  C   UNL     1     161.617 171.528 187.008  1.00  0.00    -0.008 C 
ATOM     23  C   UNL     1     160.335 171.632 184.826  1.00  0.00    -0.027 C 
ATOM     24  C   UNL     1     160.895 170.891 185.807  1.00  0.00    -0.065 C 
ATOM     25  C   UNL     1     162.857 170.651 187.370  1.00  0.00     0.014 C 
ATOM     26  C   UNL     1     160.632 171.543 188.208  1.00  0.00     0.016 C 
ATOM     27  C   UNL     1     160.635 169.395 185.813  1.00  0.00     0.063 C 
ATOM     28  C   UNL     1     162.553 169.147 187.465  1.00  0.00     0.033 C 
ATOM     29  C   UNL     1     161.897 168.601 186.188  1.00  0.00     0.118 C 
BRANCH  29  30
ATOM     30  O   UNL     1     162.816 168.552 185.122  1.00  0.00    -0.393 OA
ATOM     31  H   UNL     1     163.154 169.470 184.958  1.00  0.00     0.210 HD
ENDBRANCH  29  30
ENDBRANCH   9  11
ENDBRANCH   1   9
TORSDOF 7
ENDMDL
MODEL 7
REMARK VINA RESULT:    -5.547      6.109      9.966
REMARK INTER + INTRA:         -10.736
REMARK INTER:                  -7.596
REMARK INTRA:                  -3.140
REMARK UNBOUND:                -3.081
REMARK SMILES CC[C@@H](CC[C@@H](C)[C@H]1CC[C@@H]2[C@H]3CC=C4C[C@@H](O)CC[C@@]4(C)[C@@H]3CC[C@]21C)C(C)C
REMARK SMILES IDX 5 1 4 2 3 3 2 4 1 5 28 6 29 7 30 8 6 9 7 10 8 11 9 12 26 13
REMARK SMILES IDX 10 14 11 15 25 16 27 17 12 18 24 19 23 20 13 21 21 22 14 23
REMARK SMILES IDX 15 24 20 25 22 26 16 27 19 28 17 29 18 30
REMARK H PARENT 18 31
REMARK Flexibility Score: inf
ROOT
ATOM      1  C   UNL     1     160.546 175.531 184.006  1.00  0.00     0.004 C 
ENDROOT
BRANCH   1   2
ATOM      2  C   UNL     1     161.437 175.025 182.845  1.00  0.00     0.004 C 
BRANCH   2   3
ATOM      3  C   UNL     1     162.721 175.863 182.558  1.00  0.00    -0.009 C 
BRANCH   3   4
ATOM      4  C   UNL     1     162.602 176.677 181.241  1.00  0.00     0.000 C 
ATOM      5  C   UNL     1     162.333 178.167 181.463  1.00  0.00     0.004 C 
ENDBRANCH   3   4
BRANCH   3   6
ATOM      6  C   UNL     1     164.068 175.070 182.690  1.00  0.00    -0.014 C 
ATOM      7  C   UNL     1     164.038 173.921 183.706  1.00  0.00     0.007 C 
ATOM      8  C   UNL     1     165.260 175.998 182.984  1.00  0.00     0.007 C 
ENDBRANCH   3   6
ENDBRANCH   2   3
ENDBRANCH   1   2
BRANCH   1   9
ATOM      9  C   UNL     1     161.040 176.867 184.645  1.00  0.00    -0.011 C 
ATOM     10  C   UNL     1     159.938 177.943 184.448  1.00  0.00     0.008 C 
BRANCH   9  11
ATOM     11  C   UNL     1     161.472 176.737 186.157  1.00  0.00    -0.002 C 
ATOM     12  C   UNL     1     161.403 175.274 186.703  1.00  0.00     0.005 C 
ATOM     13  C   UNL     1     162.928 177.206 186.539  1.00  0.00    -0.026 C 
ATOM     14  C   UNL     1     162.786 174.900 187.238  1.00  0.00     0.005 C 
ATOM     15  C   UNL     1     163.706 175.883 186.547  1.00  0.00    -0.001 C 
ATOM     16  C   UNL     1     163.683 178.159 185.577  1.00  0.00     0.007 C 
ATOM     17  C   UNL     1     162.836 177.875 187.950  1.00  0.00     0.012 C 
ATOM     18  C   UNL     1     165.151 176.012 187.085  1.00  0.00     0.000 C 
ATOM     19  C   UNL     1     165.153 178.368 186.006  1.00  0.00     0.005 C 
ATOM     20  C   UNL     1     165.933 177.031 186.207  1.00  0.00     0.003 C 
ATOM     21  C   UNL     1     165.861 174.650 187.036  1.00  0.00     0.031 C 
ATOM     22  C   UNL     1     167.413 177.225 186.721  1.00  0.00    -0.008 C 
ATOM     23  C   UNL     1     167.341 174.754 187.269  1.00  0.00    -0.027 C 
ATOM     24  C   UNL     1     168.068 175.862 187.006  1.00  0.00    -0.065 C 
ATOM     25  C   UNL     1     168.238 177.956 185.615  1.00  0.00     0.014 C 
ATOM     26  C   UNL     1     167.456 178.062 188.029  1.00  0.00     0.016 C 
ATOM     27  C   UNL     1     169.574 175.791 187.187  1.00  0.00     0.063 C 
ATOM     28  C   UNL     1     169.755 177.956 185.864  1.00  0.00     0.033 C 
ATOM     29  C   UNL     1     170.315 176.540 186.067  1.00  0.00     0.118 C 
BRANCH  29  30
ATOM     30  O   UNL     1     170.310 175.812 184.862  1.00  0.00    -0.393 OA
ATOM     31  H   UNL     1     169.526 175.205 184.866  1.00  0.00     0.210 HD
ENDBRANCH  29  30
ENDBRANCH   9  11
ENDBRANCH   1   9
TORSDOF 7
ENDMDL
MODEL 8
REMARK VINA RESULT:    -5.380      2.807      5.528
REMARK INTER + INTRA:         -10.505
REMARK INTER:                  -7.119
REMARK INTRA:                  -3.387
REMARK UNBOUND:                -3.081
REMARK SMILES CC[C@@H](CC[C@@H](C)[C@H]1CC[C@@H]2[C@H]3CC=C4C[C@@H](O)CC[C@@]4(C)[C@@H]3CC[C@]21C)C(C)C
REMARK SMILES IDX 5 1 4 2 3 3 2 4 1 5 28 6 29 7 30 8 6 9 7 10 8 11 9 12 26 13
REMARK SMILES IDX 10 14 11 15 25 16 27 17 12 18 24 19 23 20 13 21 21 22 14 23
REMARK SMILES IDX 15 24 20 25 22 26 16 27 19 28 17 29 18 30
REMARK H PARENT 18 31
REMARK Flexibility Score: inf
ROOT
ATOM      1  C   UNL     1     167.107 175.725 186.798  1.00  0.00     0.004 C 
ENDROOT
BRANCH   1   2
ATOM      2  C   UNL     1     167.513 174.998 185.494  1.00  0.00     0.004 C 
BRANCH   2   3
ATOM      3  C   UNL     1     168.897 175.399 184.894  1.00  0.00    -0.009 C 
BRANCH   3   4
ATOM      4  C   UNL     1     168.755 176.056 183.494  1.00  0.00     0.000 C 
ATOM      5  C   UNL     1     167.306 176.359 183.103  1.00  0.00     0.004 C 
ENDBRANCH   3   4
BRANCH   3   6
ATOM      6  C   UNL     1     169.992 174.278 184.956  1.00  0.00    -0.014 C 
ATOM      7  C   UNL     1     170.311 173.772 186.370  1.00  0.00     0.007 C 
ATOM      8  C   UNL     1     171.291 174.696 184.244  1.00  0.00     0.007 C 
ENDBRANCH   3   6
ENDBRANCH   2   3
ENDBRANCH   1   2
BRANCH   1   9
ATOM      9  C   UNL     1     167.256 177.278 186.729  1.00  0.00    -0.011 C 
ATOM     10  C   UNL     1     165.860 177.917 186.958  1.00  0.00     0.008 C 
BRANCH   9  11
ATOM     11  C   UNL     1     168.341 177.865 187.713  1.00  0.00    -0.002 C 
ATOM     12  C   UNL     1     168.867 176.826 188.756  1.00  0.00     0.005 C 
ATOM     13  C   UNL     1     169.659 178.450 187.076  1.00  0.00    -0.026 C 
ATOM     14  C   UNL     1     170.387 176.737 188.613  1.00  0.00     0.005 C 
ATOM     15  C   UNL     1     170.640 177.279 187.223  1.00  0.00    -0.001 C 
ATOM     16  C   UNL     1     169.655 178.841 185.576  1.00  0.00     0.007 C 
ATOM     17  C   UNL     1     170.060 179.701 187.926  1.00  0.00     0.012 C 
ATOM     18  C   UNL     1     172.098 177.636 186.849  1.00  0.00     0.000 C 
ATOM     19  C   UNL     1     171.067 179.217 185.073  1.00  0.00     0.005 C 
ATOM     20  C   UNL     1     172.140 178.123 185.371  1.00  0.00     0.003 C 
ATOM     21  C   UNL     1     173.004 176.404 187.002  1.00  0.00     0.031 C 
ATOM     22  C   UNL     1     173.603 178.526 184.934  1.00  0.00    -0.008 C 
ATOM     23  C   UNL     1     174.361 176.596 186.387  1.00  0.00    -0.027 C 
ATOM     24  C   UNL     1     174.612 177.450 185.371  1.00  0.00    -0.065 C 
ATOM     25  C   UNL     1     173.646 178.652 183.378  1.00  0.00     0.014 C 
ATOM     26  C   UNL     1     174.035 179.876 185.569  1.00  0.00     0.016 C 
ATOM     27  C   UNL     1     176.007 177.462 184.773  1.00  0.00     0.063 C 
ATOM     28  C   UNL     1     175.065 178.760 182.798  1.00  0.00     0.033 C 
ATOM     29  C   UNL     1     175.968 177.599 183.242  1.00  0.00     0.118 C 
BRANCH  29  30
ATOM     30  O   UNL     1     175.590 176.392 182.621  1.00  0.00    -0.393 OA
ATOM     31  H   UNL     1     174.686 176.512 182.230  1.00  0.00     0.210 HD
ENDBRANCH  29  30
ENDBRANCH   9  11
ENDBRANCH   1   9
TORSDOF 7
ENDMDL
MODEL 9
REMARK VINA RESULT:    -5.255      2.571      6.077
REMARK INTER + INTRA:         -10.333
REMARK INTER:                  -7.085
REMARK INTRA:                  -3.248
REMARK UNBOUND:                -3.081
REMARK SMILES CC[C@@H](CC[C@@H](C)[C@H]1CC[C@@H]2[C@H]3CC=C4C[C@@H](O)CC[C@@]4(C)[C@@H]3CC[C@]21C)C(C)C
REMARK SMILES IDX 5 1 4 2 3 3 2 4 1 5 28 6 29 7 30 8 6 9 7 10 8 11 9 12 26 13
REMARK SMILES IDX 10 14 11 15 25 16 27 17 12 18 24 19 23 20 13 21 21 22 14 23
REMARK SMILES IDX 15 24 20 25 22 26 16 27 19 28 17 29 18 30
REMARK H PARENT 18 31
REMARK Flexibility Score: inf
ROOT
ATOM      1  C   UNL     1     175.646 177.605 182.949  1.00  0.00     0.004 C 
ENDROOT
BRANCH   1   2
ATOM      2  C   UNL     1     175.986 177.822 184.444  1.00  0.00     0.004 C 
BRANCH   2   3
ATOM      3  C   UNL     1     174.804 177.626 185.445  1.00  0.00    -0.009 C 
BRANCH   3   4
ATOM      4  C   UNL     1     174.738 178.767 186.496  1.00  0.00     0.000 C 
ATOM      5  C   UNL     1     175.253 180.112 185.976  1.00  0.00     0.004 C 
ENDBRANCH   3   4
BRANCH   3   6
ATOM      6  C   UNL     1     174.697 176.190 186.065  1.00  0.00    -0.014 C 
ATOM      7  C   UNL     1     174.594 175.055 185.038  1.00  0.00     0.007 C 
ATOM      8  C   UNL     1     173.547 176.082 187.083  1.00  0.00     0.007 C 
ENDBRANCH   3   6
ENDBRANCH   2   3
ENDBRANCH   1   2
BRANCH   1   9
ATOM      9  C   UNL     1     174.771 178.740 182.329  1.00  0.00    -0.011 C 
ATOM     10  C   UNL     1     175.602 179.456 181.230  1.00  0.00     0.008 C 
BRANCH   9  11
ATOM     11  C   UNL     1     173.373 178.251 181.786  1.00  0.00    -0.002 C 
ATOM     12  C   UNL     1     173.364 176.753 181.341  1.00  0.00     0.005 C 
ATOM     13  C   UNL     1     172.138 178.355 182.760  1.00  0.00    -0.026 C 
ATOM     14  C   UNL     1     172.270 176.029 182.128  1.00  0.00     0.005 C 
ATOM     15  C   UNL     1     172.045 176.930 183.323  1.00  0.00    -0.001 C 
ATOM     16  C   UNL     1     172.226 179.309 183.980  1.00  0.00     0.007 C 
ATOM     17  C   UNL     1     170.902 178.756 181.890  1.00  0.00     0.012 C 
ATOM     18  C   UNL     1     170.783 176.679 184.181  1.00  0.00     0.000 C 
ATOM     19  C   UNL     1     171.015 179.151 184.926  1.00  0.00     0.005 C 
ATOM     20  C   UNL     1     170.773 177.676 185.377  1.00  0.00     0.003 C 
ATOM     21  C   UNL     1     170.783 175.240 184.721  1.00  0.00     0.031 C 
ATOM     22  C   UNL     1     169.493 177.485 186.281  1.00  0.00    -0.008 C 
ATOM     23  C   UNL     1     169.748 175.015 185.786  1.00  0.00    -0.027 C 
ATOM     24  C   UNL     1     169.260 175.994 186.579  1.00  0.00    -0.065 C 
ATOM     25  C   UNL     1     169.713 178.238 187.631  1.00  0.00     0.014 C 
ATOM     26  C   UNL     1     168.219 178.041 185.587  1.00  0.00     0.016 C 
ATOM     27  C   UNL     1     168.298 175.605 187.688  1.00  0.00     0.063 C 
ATOM     28  C   UNL     1     168.673 177.904 188.711  1.00  0.00     0.033 C 
ATOM     29  C   UNL     1     168.572 176.394 188.979  1.00  0.00     0.118 C 
BRANCH  29  30
ATOM     30  O   UNL     1     169.715 175.917 189.648  1.00  0.00    -0.393 OA
ATOM     31  H   UNL     1     169.906 174.998 189.326  1.00  0.00     0.210 HD
ENDBRANCH  29  30
ENDBRANCH   9  11
ENDBRANCH   1   9
TORSDOF 7
ENDMDL
