MODEL 1
REMARK VINA RESULT:    -3.367      0.000      0.000
REMARK INTER + INTRA:          -8.344
REMARK INTER:                  -6.122
REMARK INTRA:                  -2.221
REMARK UNBOUND:                -2.221
REMARK SMILES CCCCCCCCCCCCCCCC(=O)[O-]
REMARK SMILES IDX 9 1 10 2 11 3 12 4 13 5 14 6 15 7 16 8 17 9 18 10 8 11 7 12
REMARK SMILES IDX 6 13 5 14 4 15 3 16 2 17 1 18
REMARK H PARENT
REMARK Flexibility Score: inf
ROOT
ATOM      1  C   UNL     1      16.875 -11.612 187.166  1.00  0.00     0.000 C 
ENDROOT
BRANCH   1   2
ATOM      2  C   UNL     1      18.269 -11.885 186.572  1.00  0.00     0.000 C 
BRANCH   2   3
ATOM      3  C   UNL     1      19.399 -11.676 187.592  1.00  0.00     0.000 C 
BRANCH   3   4
ATOM      4  C   UNL     1      20.091 -10.311 187.436  1.00  0.00     0.000 C 
BRANCH   4   5
ATOM      5  C   UNL     1      19.608  -9.281 188.471  1.00  0.00     0.000 C 
BRANCH   5   6
ATOM      6  C   UNL     1      18.490  -8.374 187.928  1.00  0.00     0.006 C 
BRANCH   6   7
ATOM      7  C   UNL     1      18.703  -8.015 186.452  1.00  0.00     0.053 C 
BRANCH   7   8
ATOM      8  C   UNL     1      17.468  -8.254 185.638  1.00  0.00     0.041 C 
ATOM      9  O   UNL     1      16.351  -7.833 186.040  1.00  0.00    -0.550 OA
ATOM     10  O   UNL     1      17.555  -8.917 184.420  1.00  0.00    -0.550 OA
ENDBRANCH   7   8
ENDBRANCH   6   7
ENDBRANCH   5   6
ENDBRANCH   4   5
ENDBRANCH   3   4
ENDBRANCH   2   3
ENDBRANCH   1   2
BRANCH   1  11
ATOM     11  C   UNL     1      15.776 -11.546 186.094  1.00  0.00     0.000 C 
BRANCH  11  12
ATOM     12  C   UNL     1      15.925 -12.644 185.027  1.00  0.00    -0.000 C 
BRANCH  12  13
ATOM     13  C   UNL     1      14.864 -13.747 185.162  1.00  0.00    -0.000 C 
BRANCH  13  14
ATOM     14  C   UNL     1      15.424 -15.037 185.783  1.00  0.00    -0.000 C 
BRANCH  14  15
ATOM     15  C   UNL     1      15.387 -14.967 187.318  1.00  0.00    -0.000 C 
BRANCH  15  16
ATOM     16  C   UNL     1      16.738 -15.321 187.959  1.00  0.00    -0.000 C 
BRANCH  16  17
ATOM     17  C   UNL     1      17.685 -16.038 186.986  1.00  0.00    -0.003 C 
ATOM     18  C   UNL     1      19.072 -15.401 187.000  1.00  0.00     0.004 C 
ENDBRANCH  16  17
ENDBRANCH  15  16
ENDBRANCH  14  15
ENDBRANCH  13  14
ENDBRANCH  12  13
ENDBRANCH  11  12
ENDBRANCH   1  11
TORSDOF 14
ENDMDL
MODEL 2
REMARK VINA RESULT:    -3.225      1.722      3.887
REMARK INTER + INTRA:          -8.085
REMARK INTER:                  -5.776
REMARK INTRA:                  -2.309
REMARK UNBOUND:                -2.221
REMARK SMILES CCCCCCCCCCCCCCCC(=O)[O-]
REMARK SMILES IDX 9 1 10 2 11 3 12 4 13 5 14 6 15 7 16 8 17 9 18 10 8 11 7 12
REMARK SMILES IDX 6 13 5 14 4 15 3 16 2 17 1 18
REMARK H PARENT
REMARK Flexibility Score: inf
ROOT
ATOM      1  C   UNL     1      15.742 -13.885 187.210  1.00  0.00     0.000 C 
ENDROOT
BRANCH   1   2
ATOM      2  C   UNL     1      16.916 -14.880 187.151  1.00  0.00     0.000 C 
BRANCH   2   3
ATOM      3  C   UNL     1      18.259 -14.193 186.855  1.00  0.00     0.000 C 
BRANCH   3   4
ATOM      4  C   UNL     1      18.158 -12.659 186.892  1.00  0.00     0.000 C 
BRANCH   4   5
ATOM      5  C   UNL     1      19.455 -11.992 187.380  1.00  0.00     0.000 C 
BRANCH   5   6
ATOM      6  C   UNL     1      19.221 -10.575 187.931  1.00  0.00     0.006 C 
BRANCH   6   7
ATOM      7  C   UNL     1      19.797  -9.494 187.007  1.00  0.00     0.053 C 
BRANCH   7   8
ATOM      8  C   UNL     1      19.379  -8.119 187.431  1.00  0.00     0.041 C 
ATOM      9  O   UNL     1      19.487  -7.149 186.636  1.00  0.00    -0.550 OA
ATOM     10  O   UNL     1      18.842  -7.914 188.696  1.00  0.00    -0.550 OA
ENDBRANCH   7   8
ENDBRANCH   6   7
ENDBRANCH   5   6
ENDBRANCH   4   5
ENDBRANCH   3   4
ENDBRANCH   2   3
ENDBRANCH   1   2
BRANCH   1  11
ATOM     11  C   UNL     1      14.588 -14.274 186.271  1.00  0.00     0.000 C 
BRANCH  11  12
ATOM     12  C   UNL     1      14.305 -13.198 185.208  1.00  0.00    -0.000 C 
BRANCH  12  13
ATOM     13  C   UNL     1      15.381 -13.152 184.113  1.00  0.00    -0.000 C 
BRANCH  13  14
ATOM     14  C   UNL     1      15.939 -11.738 183.886  1.00  0.00    -0.000 C 
BRANCH  14  15
ATOM     15  C   UNL     1      15.223 -10.717 184.784  1.00  0.00    -0.000 C 
BRANCH  15  16
ATOM     16  C   UNL     1      16.200  -9.790 185.523  1.00  0.00    -0.000 C 
BRANCH  16  17
ATOM     17  C   UNL     1      15.923  -9.721 187.032  1.00  0.00    -0.003 C 
ATOM     18  C   UNL     1      14.515 -10.214 187.353  1.00  0.00     0.004 C 
ENDBRANCH  16  17
ENDBRANCH  15  16
ENDBRANCH  14  15
ENDBRANCH  13  14
ENDBRANCH  12  13
ENDBRANCH  11  12
ENDBRANCH   1  11
TORSDOF 14
ENDMDL
MODEL 3
REMARK VINA RESULT:    -3.107      2.110      3.484
REMARK INTER + INTRA:          -7.872
REMARK INTER:                  -6.091
REMARK INTRA:                  -1.781
REMARK UNBOUND:                -2.221
REMARK SMILES CCCCCCCCCCCCCCCC(=O)[O-]
REMARK SMILES IDX 9 1 10 2 11 3 12 4 13 5 14 6 15 7 16 8 17 9 18 10 8 11 7 12
REMARK SMILES IDX 6 13 5 14 4 15 3 16 2 17 1 18
REMARK H PARENT
REMARK Flexibility Score: inf
ROOT
ATOM      1  C   UNL     1      16.333 -10.907 184.407  1.00  0.00     0.000 C 
ENDROOT
BRANCH   1   2
ATOM      2  C   UNL     1      16.116  -9.726 185.371  1.00  0.00     0.000 C 
BRANCH   2   3
ATOM      3  C   UNL     1      17.045  -8.539 185.071  1.00  0.00     0.000 C 
BRANCH   3   4
ATOM      4  C   UNL     1      18.082  -8.305 186.183  1.00  0.00     0.000 C 
BRANCH   4   5
ATOM      5  C   UNL     1      19.223  -9.336 186.154  1.00  0.00     0.000 C 
BRANCH   5   6
ATOM      6  C   UNL     1      20.125  -9.257 187.398  1.00  0.00     0.006 C 
BRANCH   6   7
ATOM      7  C   UNL     1      19.386  -9.679 188.674  1.00  0.00     0.053 C 
BRANCH   7   8
ATOM      8  C   UNL     1      19.419  -8.603 189.717  1.00  0.00     0.041 C 
ATOM      9  O   UNL     1      19.065  -7.430 189.429  1.00  0.00    -0.550 OA
ATOM     10  O   UNL     1      19.814  -8.904 191.015  1.00  0.00    -0.550 OA
ENDBRANCH   7   8
ENDBRANCH   6   7
ENDBRANCH   5   6
ENDBRANCH   4   5
ENDBRANCH   3   4
ENDBRANCH   2   3
ENDBRANCH   1   2
BRANCH   1  11
ATOM     11  C   UNL     1      16.484 -12.250 185.140  1.00  0.00     0.000 C 
BRANCH  11  12
ATOM     12  C   UNL     1      16.898 -12.076 186.611  1.00  0.00    -0.000 C 
BRANCH  12  13
ATOM     13  C   UNL     1      18.221 -12.785 186.940  1.00  0.00    -0.000 C 
BRANCH  13  14
ATOM     14  C   UNL     1      18.146 -14.307 186.738  1.00  0.00    -0.000 C 
BRANCH  14  15
ATOM     15  C   UNL     1      17.106 -14.933 187.680  1.00  0.00    -0.000 C 
BRANCH  15  16
ATOM     16  C   UNL     1      16.318 -16.074 187.017  1.00  0.00    -0.000 C 
BRANCH  16  17
ATOM     17  C   UNL     1      16.143 -15.871 185.505  1.00  0.00    -0.003 C 
ATOM     18  C   UNL     1      14.667 -15.899 185.116  1.00  0.00     0.004 C 
ENDBRANCH  16  17
ENDBRANCH  15  16
ENDBRANCH  14  15
ENDBRANCH  13  14
ENDBRANCH  12  13
ENDBRANCH  11  12
ENDBRANCH   1  11
TORSDOF 14
ENDMDL
MODEL 4
REMARK VINA RESULT:    -3.097      1.086      2.932
REMARK INTER + INTRA:          -7.853
REMARK INTER:                  -5.860
REMARK INTRA:                  -1.993
REMARK UNBOUND:                -2.221
REMARK SMILES CCCCCCCCCCCCCCCC(=O)[O-]
REMARK SMILES IDX 9 1 10 2 11 3 12 4 13 5 14 6 15 7 16 8 17 9 18 10 8 11 7 12
REMARK SMILES IDX 6 13 5 14 4 15 3 16 2 17 1 18
REMARK H PARENT
REMARK Flexibility Score: inf
ROOT
ATOM      1  C   UNL     1      17.560 -12.697 187.090  1.00  0.00     0.000 C 
ENDROOT
BRANCH   1   2
ATOM      2  C   UNL     1      18.438 -11.562 186.532  1.00  0.00     0.000 C 
BRANCH   2   3
ATOM      3  C   UNL     1      19.736 -11.371 187.333  1.00  0.00     0.000 C 
BRANCH   3   4
ATOM      4  C   UNL     1      20.047  -9.890 187.609  1.00  0.00     0.000 C 
BRANCH   4   5
ATOM      5  C   UNL     1      19.249  -9.331 188.799  1.00  0.00     0.000 C 
BRANCH   5   6
ATOM      6  C   UNL     1      18.397  -8.107 188.418  1.00  0.00     0.006 C 
BRANCH   6   7
ATOM      7  C   UNL     1      17.103  -8.505 187.697  1.00  0.00     0.053 C 
BRANCH   7   8
ATOM      8  C   UNL     1      16.969  -7.815 186.374  1.00  0.00     0.041 C 
ATOM      9  O   UNL     1      16.352  -6.720 186.288  1.00  0.00    -0.550 OA
ATOM     10  O   UNL     1      17.550  -8.367 185.239  1.00  0.00    -0.550 OA
ENDBRANCH   7   8
ENDBRANCH   6   7
ENDBRANCH   5   6
ENDBRANCH   4   5
ENDBRANCH   3   4
ENDBRANCH   2   3
ENDBRANCH   1   2
BRANCH   1  11
ATOM     11  C   UNL     1      18.191 -14.086 186.894  1.00  0.00     0.000 C 
BRANCH  11  12
ATOM     12  C   UNL     1      17.154 -15.157 186.512  1.00  0.00    -0.000 C 
BRANCH  12  13
ATOM     13  C   UNL     1      15.748 -14.571 186.307  1.00  0.00    -0.000 C 
BRANCH  13  14
ATOM     14  C   UNL     1      15.242 -14.731 184.865  1.00  0.00    -0.000 C 
BRANCH  14  15
ATOM     15  C   UNL     1      14.620 -13.422 184.354  1.00  0.00    -0.000 C 
BRANCH  15  16
ATOM     16  C   UNL     1      15.675 -12.413 183.875  1.00  0.00    -0.000 C 
BRANCH  16  17
ATOM     17  C   UNL     1      15.355 -10.974 184.305  1.00  0.00    -0.003 C 
ATOM     18  C   UNL     1      14.638 -10.951 185.652  1.00  0.00     0.004 C 
ENDBRANCH  16  17
ENDBRANCH  15  16
ENDBRANCH  14  15
ENDBRANCH  13  14
ENDBRANCH  12  13
ENDBRANCH  11  12
ENDBRANCH   1  11
TORSDOF 14
ENDMDL
MODEL 5
REMARK VINA RESULT:    -3.093      2.300      4.166
REMARK INTER + INTRA:          -7.846
REMARK INTER:                  -5.760
REMARK INTRA:                  -2.086
REMARK UNBOUND:                -2.221
REMARK SMILES CCCCCCCCCCCCCCCC(=O)[O-]
REMARK SMILES IDX 9 1 10 2 11 3 12 4 13 5 14 6 15 7 16 8 17 9 18 10 8 11 7 12
REMARK SMILES IDX 6 13 5 14 4 15 3 16 2 17 1 18
REMARK H PARENT
REMARK Flexibility Score: inf
ROOT
ATOM      1  C   UNL     1      17.538 -14.583 186.745  1.00  0.00     0.000 C 
ENDROOT
BRANCH   1   2
ATOM      2  C   UNL     1      18.603 -13.485 186.922  1.00  0.00     0.000 C 
BRANCH   2   3
ATOM      3  C   UNL     1      17.989 -12.096 187.158  1.00  0.00     0.000 C 
BRANCH   3   4
ATOM      4  C   UNL     1      18.794 -10.972 186.484  1.00  0.00     0.000 C 
BRANCH   4   5
ATOM      5  C   UNL     1      19.856 -10.365 187.417  1.00  0.00     0.000 C 
BRANCH   5   6
ATOM      6  C   UNL     1      19.318 -10.100 188.834  1.00  0.00     0.006 C 
BRANCH   6   7
ATOM      7  C   UNL     1      18.665  -8.718 188.955  1.00  0.00     0.053 C 
BRANCH   7   8
ATOM      8  C   UNL     1      19.232  -7.933 190.099  1.00  0.00     0.041 C 
ATOM      9  O   UNL     1      19.234  -6.674 190.066  1.00  0.00    -0.550 OA
ATOM     10  O   UNL     1      19.732  -8.593 191.215  1.00  0.00    -0.550 OA
ENDBRANCH   7   8
ENDBRANCH   6   7
ENDBRANCH   5   6
ENDBRANCH   4   5
ENDBRANCH   3   4
ENDBRANCH   2   3
ENDBRANCH   1   2
BRANCH   1  11
ATOM     11  C   UNL     1      16.118 -14.011 186.593  1.00  0.00     0.000 C 
BRANCH  11  12
ATOM     12  C   UNL     1      15.460 -14.414 185.262  1.00  0.00    -0.000 C 
BRANCH  12  13
ATOM     13  C   UNL     1      14.927 -13.205 184.477  1.00  0.00    -0.000 C 
BRANCH  13  14
ATOM     14  C   UNL     1      16.015 -12.160 184.185  1.00  0.00    -0.000 C 
BRANCH  14  15
ATOM     15  C   UNL     1      15.504 -10.740 184.476  1.00  0.00    -0.000 C 
BRANCH  15  16
ATOM     16  C   UNL     1      14.657 -10.667 185.756  1.00  0.00    -0.000 C 
BRANCH  16  17
ATOM     17  C   UNL     1      15.233  -9.690 186.791  1.00  0.00    -0.003 C 
ATOM     18  C   UNL     1      16.052  -8.595 186.114  1.00  0.00     0.004 C 
ENDBRANCH  16  17
ENDBRANCH  15  16
ENDBRANCH  14  15
ENDBRANCH  13  14
ENDBRANCH  12  13
ENDBRANCH  11  12
ENDBRANCH   1  11
TORSDOF 14
ENDMDL
MODEL 6
REMARK VINA RESULT:    -3.077     18.798     21.022
REMARK INTER + INTRA:          -7.817
REMARK INTER:                  -5.481
REMARK INTRA:                  -2.336
REMARK UNBOUND:                -2.221
REMARK SMILES CCCCCCCCCCCCCCCC(=O)[O-]
REMARK SMILES IDX 9 1 10 2 11 3 12 4 13 5 14 6 15 7 16 8 17 9 18 10 8 11 7 12
REMARK SMILES IDX 6 13 5 14 4 15 3 16 2 17 1 18
REMARK H PARENT
REMARK Flexibility Score: inf
ROOT
ATOM      1  C   UNL     1      14.077  -2.478 202.974  1.00  0.00     0.000 C 
ENDROOT
BRANCH   1   2
ATOM      2  C   UNL     1      13.136  -2.073 204.124  1.00  0.00     0.000 C 
BRANCH   2   3
ATOM      3  C   UNL     1      11.799  -1.506 203.622  1.00  0.00     0.000 C 
BRANCH   3   4
ATOM      4  C   UNL     1      11.516  -1.872 202.154  1.00  0.00     0.000 C 
BRANCH   4   5
ATOM      5  C   UNL     1      10.496  -0.928 201.496  1.00  0.00     0.000 C 
BRANCH   5   6
ATOM      6  C   UNL     1      10.077   0.230 202.419  1.00  0.00     0.006 C 
BRANCH   6   7
ATOM      7  C   UNL     1       9.676   1.482 201.630  1.00  0.00     0.053 C 
BRANCH   7   8
ATOM      8  C   UNL     1       8.189   1.598 201.488  1.00  0.00     0.041 C 
ATOM      9  O   UNL     1       7.556   0.791 200.756  1.00  0.00    -0.550 OA
ATOM     10  O   UNL     1       7.498   2.579 202.187  1.00  0.00    -0.550 OA
ENDBRANCH   7   8
ENDBRANCH   6   7
ENDBRANCH   5   6
ENDBRANCH   4   5
ENDBRANCH   3   4
ENDBRANCH   2   3
ENDBRANCH   1   2
BRANCH   1  11
ATOM     11  C   UNL     1      15.330  -1.591 202.894  1.00  0.00     0.000 C 
BRANCH  11  12
ATOM     12  C   UNL     1      15.271  -0.396 203.861  1.00  0.00    -0.000 C 
BRANCH  12  13
ATOM     13  C   UNL     1      16.300   0.693 203.518  1.00  0.00    -0.000 C 
BRANCH  13  14
ATOM     14  C   UNL     1      15.672   1.899 202.801  1.00  0.00    -0.000 C 
BRANCH  14  15
ATOM     15  C   UNL     1      14.160   1.968 203.067  1.00  0.00    -0.000 C 
BRANCH  15  16
ATOM     16  C   UNL     1      13.324   1.670 201.812  1.00  0.00    -0.000 C 
BRANCH  16  17
ATOM     17  C   UNL     1      14.190   1.333 200.591  1.00  0.00    -0.003 C 
ATOM     18  C   UNL     1      13.751   0.018 199.953  1.00  0.00     0.004 C 
ENDBRANCH  16  17
ENDBRANCH  15  16
ENDBRANCH  14  15
ENDBRANCH  13  14
ENDBRANCH  12  13
ENDBRANCH  11  12
ENDBRANCH   1  11
TORSDOF 14
ENDMDL
MODEL 7
REMARK VINA RESULT:    -3.073      2.290      2.759
REMARK INTER + INTRA:          -7.810
REMARK INTER:                  -6.211
REMARK INTRA:                  -1.599
REMARK UNBOUND:                -2.221
REMARK SMILES CCCCCCCCCCCCCCCC(=O)[O-]
REMARK SMILES IDX 9 1 10 2 11 3 12 4 13 5 14 6 15 7 16 8 17 9 18 10 8 11 7 12
REMARK SMILES IDX 6 13 5 14 4 15 3 16 2 17 1 18
REMARK H PARENT
REMARK Flexibility Score: inf
ROOT
ATOM      1  C   UNL     1      16.857 -11.657 187.127  1.00  0.00     0.000 C 
ENDROOT
BRANCH   1   2
ATOM      2  C   UNL     1      18.135 -12.489 186.909  1.00  0.00     0.000 C 
BRANCH   2   3
ATOM      3  C   UNL     1      19.402 -11.763 187.389  1.00  0.00     0.000 C 
BRANCH   3   4
ATOM      4  C   UNL     1      19.480 -10.313 186.881  1.00  0.00     0.000 C 
BRANCH   4   5
ATOM      5  C   UNL     1      19.928  -9.328 187.973  1.00  0.00     0.000 C 
BRANCH   5   6
ATOM      6  C   UNL     1      18.975  -9.307 189.181  1.00  0.00     0.006 C 
BRANCH   6   7
ATOM      7  C   UNL     1      19.619  -8.663 190.415  1.00  0.00     0.053 C 
BRANCH   7   8
ATOM      8  C   UNL     1      18.941  -7.381 190.791  1.00  0.00     0.041 C 
ATOM      9  O   UNL     1      18.111  -7.356 191.738  1.00  0.00    -0.550 OA
ATOM     10  O   UNL     1      19.247  -6.208 190.113  1.00  0.00    -0.550 OA
ENDBRANCH   7   8
ENDBRANCH   6   7
ENDBRANCH   5   6
ENDBRANCH   4   5
ENDBRANCH   3   4
ENDBRANCH   2   3
ENDBRANCH   1   2
BRANCH   1  11
ATOM     11  C   UNL     1      16.052 -11.458 185.833  1.00  0.00     0.000 C 
BRANCH  11  12
ATOM     12  C   UNL     1      16.001 -12.729 184.967  1.00  0.00    -0.000 C 
BRANCH  12  13
ATOM     13  C   UNL     1      14.926 -13.722 185.439  1.00  0.00    -0.000 C 
BRANCH  13  14
ATOM     14  C   UNL     1      15.217 -15.166 185.001  1.00  0.00    -0.000 C 
BRANCH  14  15
ATOM     15  C   UNL     1      16.387 -15.756 185.804  1.00  0.00    -0.000 C 
BRANCH  15  16
ATOM     16  C   UNL     1      16.112 -15.784 187.316  1.00  0.00    -0.000 C 
BRANCH  16  17
ATOM     17  C   UNL     1      17.397 -15.917 188.148  1.00  0.00    -0.003 C 
ATOM     18  C   UNL     1      18.626 -16.007 187.247  1.00  0.00     0.004 C 
ENDBRANCH  16  17
ENDBRANCH  15  16
ENDBRANCH  14  15
ENDBRANCH  13  14
ENDBRANCH  12  13
ENDBRANCH  11  12
ENDBRANCH   1  11
TORSDOF 14
ENDMDL
MODEL 8
REMARK VINA RESULT:    -3.060      3.006      6.384
REMARK INTER + INTRA:          -7.787
REMARK INTER:                  -5.606
REMARK INTRA:                  -2.181
REMARK UNBOUND:                -2.221
REMARK SMILES CCCCCCCCCCCCCCCC(=O)[O-]
REMARK SMILES IDX 9 1 10 2 11 3 12 4 13 5 14 6 15 7 16 8 17 9 18 10 8 11 7 12
REMARK SMILES IDX 6 13 5 14 4 15 3 16 2 17 1 18
REMARK H PARENT
REMARK Flexibility Score: inf
ROOT
ATOM      1  C   UNL     1      18.903  -7.843 188.028  1.00  0.00     0.000 C 
ENDROOT
BRANCH   1   2
ATOM      2  C   UNL     1      19.830  -8.207 186.853  1.00  0.00     0.000 C 
BRANCH   2   3
ATOM      3  C   UNL     1      19.971  -9.726 186.660  1.00  0.00     0.000 C 
BRANCH   3   4
ATOM      4  C   UNL     1      19.389 -10.527 187.837  1.00  0.00     0.000 C 
BRANCH   4   5
ATOM      5  C   UNL     1      19.400 -12.043 187.583  1.00  0.00     0.000 C 
BRANCH   5   6
ATOM      6  C   UNL     1      18.346 -12.478 186.550  1.00  0.00     0.006 C 
BRANCH   6   7
ATOM      7  C   UNL     1      17.407 -13.558 187.101  1.00  0.00     0.053 C 
BRANCH   7   8
ATOM      8  C   UNL     1      17.830 -14.932 186.679  1.00  0.00     0.041 C 
ATOM      9  O   UNL     1      17.005 -15.711 186.132  1.00  0.00    -0.550 OA
ATOM     10  O   UNL     1      19.144 -15.343 186.865  1.00  0.00    -0.550 OA
ENDBRANCH   7   8
ENDBRANCH   6   7
ENDBRANCH   5   6
ENDBRANCH   4   5
ENDBRANCH   3   4
ENDBRANCH   2   3
ENDBRANCH   1   2
BRANCH   1  11
ATOM     11  C   UNL     1      18.100  -6.557 187.773  1.00  0.00     0.000 C 
BRANCH  11  12
ATOM     12  C   UNL     1      18.701  -5.700 186.644  1.00  0.00    -0.000 C 
BRANCH  12  13
ATOM     13  C   UNL     1      17.817  -5.676 185.387  1.00  0.00    -0.000 C 
BRANCH  13  14
ATOM     14  C   UNL     1      16.327  -5.879 185.705  1.00  0.00    -0.000 C 
BRANCH  14  15
ATOM     15  C   UNL     1      15.783  -7.133 185.003  1.00  0.00    -0.000 C 
BRANCH  15  16
ATOM     16  C   UNL     1      16.899  -8.024 184.434  1.00  0.00    -0.000 C 
BRANCH  16  17
ATOM     17  C   UNL     1      16.801  -9.477 184.920  1.00  0.00    -0.003 C 
ATOM     18  C   UNL     1      16.074  -9.560 186.260  1.00  0.00     0.004 C 
ENDBRANCH  16  17
ENDBRANCH  15  16
ENDBRANCH  14  15
ENDBRANCH  13  14
ENDBRANCH  12  13
ENDBRANCH  11  12
ENDBRANCH   1  11
TORSDOF 14
ENDMDL
MODEL 9
REMARK VINA RESULT:    -3.029      2.649      5.265
REMARK INTER + INTRA:          -7.729
REMARK INTER:                  -5.127
REMARK INTRA:                  -2.602
REMARK UNBOUND:                -2.221
REMARK SMILES CCCCCCCCCCCCCCCC(=O)[O-]
REMARK SMILES IDX 9 1 10 2 11 3 12 4 13 5 14 6 15 7 16 8 17 9 18 10 8 11 7 12
REMARK SMILES IDX 6 13 5 14 4 15 3 16 2 17 1 18
REMARK H PARENT
REMARK Flexibility Score: inf
ROOT
ATOM      1  C   UNL     1      17.605  -8.564 188.267  1.00  0.00     0.000 C 
ENDROOT
BRANCH   1   2
ATOM      2  C   UNL     1      17.902 -10.073 188.346  1.00  0.00     0.000 C 
BRANCH   2   3
ATOM      3  C   UNL     1      19.346 -10.413 187.942  1.00  0.00     0.000 C 
BRANCH   3   4
ATOM      4  C   UNL     1      19.457 -11.778 187.240  1.00  0.00     0.000 C 
BRANCH   4   5
ATOM      5  C   UNL     1      18.084 -12.381 186.901  1.00  0.00     0.000 C 
BRANCH   5   6
ATOM      6  C   UNL     1      18.126 -13.914 186.772  1.00  0.00     0.006 C 
BRANCH   6   7
ATOM      7  C   UNL     1      16.988 -14.590 187.548  1.00  0.00     0.053 C 
BRANCH   7   8
ATOM      8  C   UNL     1      15.808 -14.874 186.669  1.00  0.00     0.041 C 
ATOM      9  O   UNL     1      14.718 -15.253 187.173  1.00  0.00    -0.550 OA
ATOM     10  O   UNL     1      15.904 -14.693 185.295  1.00  0.00    -0.550 OA
ENDBRANCH   7   8
ENDBRANCH   6   7
ENDBRANCH   5   6
ENDBRANCH   4   5
ENDBRANCH   3   4
ENDBRANCH   2   3
ENDBRANCH   1   2
BRANCH   1  11
ATOM     11  C   UNL     1      18.121  -7.925 186.967  1.00  0.00     0.000 C 
BRANCH  11  12
ATOM     12  C   UNL     1      17.072  -7.946 185.842  1.00  0.00    -0.000 C 
BRANCH  12  13
ATOM     13  C   UNL     1      17.470  -8.872 184.681  1.00  0.00    -0.000 C 
BRANCH  13  14
ATOM     14  C   UNL     1      16.463 -10.011 184.459  1.00  0.00    -0.000 C 
BRANCH  14  15
ATOM     15  C   UNL     1      15.328  -9.949 185.493  1.00  0.00    -0.000 C 
BRANCH  15  16
ATOM     16  C   UNL     1      14.845 -11.342 185.928  1.00  0.00    -0.000 C 
BRANCH  16  17
ATOM     17  C   UNL     1      14.513 -11.411 187.426  1.00  0.00    -0.003 C 
ATOM     18  C   UNL     1      14.204 -10.025 187.984  1.00  0.00     0.004 C 
ENDBRANCH  16  17
ENDBRANCH  15  16
ENDBRANCH  14  15
ENDBRANCH  13  14
ENDBRANCH  12  13
ENDBRANCH  11  12
ENDBRANCH   1  11
TORSDOF 14
ENDMDL
