MODEL 1
REMARK VINA RESULT:    -4.929      0.000      0.000
REMARK INTER + INTRA:         -14.656
REMARK INTER:                 -11.267
REMARK INTRA:                  -3.389
REMARK UNBOUND:                -3.389
REMARK SMILES CCCCCCCCCCCCCCCCCCCCCCCC(=O)[O-]
REMARK SMILES IDX 13 1 14 2 15 3 16 4 17 5 18 6 19 7 20 8 21 9 22 10 23 11
REMARK SMILES IDX 24 12 25 13 26 14 12 15 11 16 10 17 9 18 8 19 7 20 6 21 5 22
REMARK SMILES IDX 4 23 3 24 2 25 1 26
REMARK H PARENT
REMARK Flexibility Score: inf
ROOT
ATOM      1  C   UNL     1     -22.877  18.990 -21.649  1.00  0.00     0.000 C 
ENDROOT
BRANCH   1   2
ATOM      2  C   UNL     1     -24.114  18.589 -22.469  1.00  0.00     0.000 C 
BRANCH   2   3
ATOM      3  C   UNL     1     -23.802  17.510 -23.520  1.00  0.00     0.000 C 
BRANCH   3   4
ATOM      4  C   UNL     1     -23.402  18.108 -24.879  1.00  0.00     0.000 C 
BRANCH   4   5
ATOM      5  C   UNL     1     -22.871  19.547 -24.759  1.00  0.00     0.000 C 
BRANCH   5   6
ATOM      6  C   UNL     1     -21.371  19.653 -25.081  1.00  0.00     0.000 C 
BRANCH   6   7
ATOM      7  C   UNL     1     -20.743  18.292 -25.425  1.00  0.00     0.000 C 
BRANCH   7   8
ATOM      8  C   UNL     1     -19.845  17.747 -24.298  1.00  0.00     0.000 C 
BRANCH   8   9
ATOM      9  C   UNL     1     -20.296  16.404 -23.691  1.00  0.00     0.000 C 
BRANCH   9  10
ATOM     10  C   UNL     1     -20.419  16.386 -22.154  1.00  0.00     0.006 C 
BRANCH  10  11
ATOM     11  C   UNL     1     -21.465  15.400 -21.613  1.00  0.00     0.053 C 
BRANCH  11  12
ATOM     12  C   UNL     1     -20.827  14.229 -20.931  1.00  0.00     0.041 C 
ATOM     13  O   UNL     1     -21.222  13.865 -19.792  1.00  0.00    -0.550 OA
ATOM     14  O   UNL     1     -19.780  13.554 -21.545  1.00  0.00    -0.550 OA
ENDBRANCH  11  12
ENDBRANCH  10  11
ENDBRANCH   9  10
ENDBRANCH   8   9
ENDBRANCH   7   8
ENDBRANCH   6   7
ENDBRANCH   5   6
ENDBRANCH   4   5
ENDBRANCH   3   4
ENDBRANCH   2   3
ENDBRANCH   1   2
BRANCH   1  15
ATOM     15  C   UNL     1     -22.934  20.446 -21.161  1.00  0.00     0.000 C 
BRANCH  15  16
ATOM     16  C   UNL     1     -24.342  21.030 -21.340  1.00  0.00     0.000 C 
BRANCH  16  17
ATOM     17  C   UNL     1     -24.530  22.284 -20.471  1.00  0.00     0.000 C 
BRANCH  17  18
ATOM     18  C   UNL     1     -23.221  22.748 -19.812  1.00  0.00    -0.000 C 
BRANCH  18  19
ATOM     19  C   UNL     1     -23.217  24.257 -19.510  1.00  0.00    -0.000 C 
BRANCH  19  20
ATOM     20  C   UNL     1     -22.113  25.007 -20.271  1.00  0.00    -0.000 C 
BRANCH  20  21
ATOM     21  C   UNL     1     -22.481  25.273 -21.743  1.00  0.00    -0.000 C 
BRANCH  21  22
ATOM     22  C   UNL     1     -21.322  24.966 -22.706  1.00  0.00    -0.000 C 
BRANCH  22  23
ATOM     23  C   UNL     1     -21.807  24.414 -24.058  1.00  0.00    -0.000 C 
BRANCH  23  24
ATOM     24  C   UNL     1     -22.549  23.069 -23.908  1.00  0.00    -0.000 C 
BRANCH  24  25
ATOM     25  C   UNL     1     -24.041  23.143 -24.274  1.00  0.00    -0.003 C 
ATOM     26  C   UNL     1     -24.385  24.344 -25.155  1.00  0.00     0.004 C 
ENDBRANCH  24  25
ENDBRANCH  23  24
ENDBRANCH  22  23
ENDBRANCH  21  22
ENDBRANCH  20  21
ENDBRANCH  19  20
ENDBRANCH  18  19
ENDBRANCH  17  18
ENDBRANCH  16  17
ENDBRANCH  15  16
ENDBRANCH   1  15
TORSDOF 22
ENDMDL
MODEL 2
REMARK VINA RESULT:    -4.784      3.881      7.875
REMARK INTER + INTRA:         -14.326
REMARK INTER:                 -10.801
REMARK INTRA:                  -3.525
REMARK UNBOUND:                -3.389
REMARK SMILES CCCCCCCCCCCCCCCCCCCCCCCC(=O)[O-]
REMARK SMILES IDX 13 1 14 2 15 3 16 4 17 5 18 6 19 7 20 8 21 9 22 10 23 11
REMARK SMILES IDX 24 12 25 13 26 14 12 15 11 16 10 17 9 18 8 19 7 20 6 21 5 22
REMARK SMILES IDX 4 23 3 24 2 25 1 26
REMARK H PARENT
REMARK Flexibility Score: inf
ROOT
ATOM      1  C   UNL     1     -23.020  20.438 -21.241  1.00  0.00     0.000 C 
ENDROOT
BRANCH   1   2
ATOM      2  C   UNL     1     -24.521  20.665 -21.485  1.00  0.00     0.000 C 
BRANCH   2   3
ATOM      3  C   UNL     1     -25.110  21.752 -20.568  1.00  0.00     0.000 C 
BRANCH   3   4
ATOM      4  C   UNL     1     -24.113  22.223 -19.496  1.00  0.00     0.000 C 
BRANCH   4   5
ATOM      5  C   UNL     1     -23.895  23.745 -19.519  1.00  0.00     0.000 C 
BRANCH   5   6
ATOM      6  C   UNL     1     -22.575  24.143 -20.202  1.00  0.00     0.000 C 
BRANCH   6   7
ATOM      7  C   UNL     1     -22.797  24.845 -21.553  1.00  0.00     0.000 C 
BRANCH   7   8
ATOM      8  C   UNL     1     -22.948  23.854 -22.723  1.00  0.00     0.000 C 
BRANCH   8   9
ATOM      9  C   UNL     1     -24.303  23.907 -23.457  1.00  0.00     0.000 C 
BRANCH   9  10
ATOM     10  C   UNL     1     -24.214  23.956 -24.996  1.00  0.00     0.006 C 
BRANCH  10  11
ATOM     11  C   UNL     1     -24.116  25.374 -25.580  1.00  0.00     0.053 C 
BRANCH  11  12
ATOM     12  C   UNL     1     -22.910  25.535 -26.453  1.00  0.00     0.041 C 
ATOM     13  O   UNL     1     -23.042  25.702 -27.695  1.00  0.00    -0.550 OA
ATOM     14  O   UNL     1     -21.639  25.477 -25.898  1.00  0.00    -0.550 OA
ENDBRANCH  11  12
ENDBRANCH  10  11
ENDBRANCH   9  10
ENDBRANCH   8   9
ENDBRANCH   7   8
ENDBRANCH   6   7
ENDBRANCH   5   6
ENDBRANCH   4   5
ENDBRANCH   3   4
ENDBRANCH   2   3
ENDBRANCH   1   2
BRANCH   1  15
ATOM     15  C   UNL     1     -22.577  19.003 -21.567  1.00  0.00     0.000 C 
BRANCH  15  16
ATOM     16  C   UNL     1     -23.750  18.175 -22.109  1.00  0.00     0.000 C 
BRANCH  16  17
ATOM     17  C   UNL     1     -24.024  16.959 -21.211  1.00  0.00     0.000 C 
BRANCH  17  18
ATOM     18  C   UNL     1     -23.372  15.672 -21.742  1.00  0.00    -0.000 C 
BRANCH  18  19
ATOM     19  C   UNL     1     -21.948  15.465 -21.196  1.00  0.00    -0.000 C 
BRANCH  19  20
ATOM     20  C   UNL     1     -20.930  15.165 -22.307  1.00  0.00    -0.000 C 
BRANCH  20  21
ATOM     21  C   UNL     1     -20.274  16.438 -22.872  1.00  0.00    -0.000 C 
BRANCH  21  22
ATOM     22  C   UNL     1     -20.851  16.842 -24.239  1.00  0.00    -0.000 C 
BRANCH  22  23
ATOM     23  C   UNL     1     -20.545  18.306 -24.600  1.00  0.00    -0.000 C 
BRANCH  23  24
ATOM     24  C   UNL     1     -21.639  18.930 -25.492  1.00  0.00    -0.000 C 
BRANCH  24  25
ATOM     25  C   UNL     1     -22.289  20.185 -24.885  1.00  0.00    -0.003 C 
ATOM     26  C   UNL     1     -21.594  21.481 -25.299  1.00  0.00     0.004 C 
ENDBRANCH  24  25
ENDBRANCH  23  24
ENDBRANCH  22  23
ENDBRANCH  21  22
ENDBRANCH  20  21
ENDBRANCH  19  20
ENDBRANCH  18  19
ENDBRANCH  17  18
ENDBRANCH  16  17
ENDBRANCH  15  16
ENDBRANCH   1  15
TORSDOF 22
ENDMDL
MODEL 3
REMARK VINA RESULT:    -4.783      1.619      3.794
REMARK INTER + INTRA:         -14.323
REMARK INTER:                 -11.077
REMARK INTRA:                  -3.246
REMARK UNBOUND:                -3.389
REMARK SMILES CCCCCCCCCCCCCCCCCCCCCCCC(=O)[O-]
REMARK SMILES IDX 13 1 14 2 15 3 16 4 17 5 18 6 19 7 20 8 21 9 22 10 23 11
REMARK SMILES IDX 24 12 25 13 26 14 12 15 11 16 10 17 9 18 8 19 7 20 6 21 5 22
REMARK SMILES IDX 4 23 3 24 2 25 1 26
REMARK H PARENT
REMARK Flexibility Score: inf
ROOT
ATOM      1  C   UNL     1     -20.992  19.012 -25.543  1.00  0.00     0.000 C 
ENDROOT
BRANCH   1   2
ATOM      2  C   UNL     1     -20.066  18.212 -24.613  1.00  0.00     0.000 C 
BRANCH   2   3
ATOM      3  C   UNL     1     -20.661  16.849 -24.216  1.00  0.00     0.000 C 
BRANCH   3   4
ATOM      4  C   UNL     1     -20.249  16.415 -22.800  1.00  0.00     0.000 C 
BRANCH   4   5
ATOM      5  C   UNL     1     -21.379  16.601 -21.773  1.00  0.00     0.000 C 
BRANCH   5   6
ATOM      6  C   UNL     1     -22.714  16.001 -22.247  1.00  0.00     0.000 C 
BRANCH   6   7
ATOM      7  C   UNL     1     -23.848  16.202 -21.227  1.00  0.00     0.000 C 
BRANCH   7   8
ATOM      8  C   UNL     1     -24.574  14.890 -20.875  1.00  0.00     0.000 C 
BRANCH   8   9
ATOM      9  C   UNL     1     -23.999  14.127 -19.665  1.00  0.00     0.000 C 
BRANCH   9  10
ATOM     10  C   UNL     1     -22.975  13.026 -20.009  1.00  0.00     0.006 C 
BRANCH  10  11
ATOM     11  C   UNL     1     -21.512  13.417 -19.750  1.00  0.00     0.053 C 
BRANCH  11  12
ATOM     12  C   UNL     1     -20.590  12.836 -20.778  1.00  0.00     0.041 C 
ATOM     13  O   UNL     1     -19.539  12.240 -20.422  1.00  0.00    -0.550 OA
ATOM     14  O   UNL     1     -20.880  12.974 -22.128  1.00  0.00    -0.550 OA
ENDBRANCH  11  12
ENDBRANCH  10  11
ENDBRANCH   9  10
ENDBRANCH   8   9
ENDBRANCH   7   8
ENDBRANCH   6   7
ENDBRANCH   5   6
ENDBRANCH   4   5
ENDBRANCH   3   4
ENDBRANCH   2   3
ENDBRANCH   1   2
BRANCH   1  15
ATOM     15  C   UNL     1     -22.426  19.122 -25.002  1.00  0.00     0.000 C 
BRANCH  15  16
ATOM     16  C   UNL     1     -22.500  20.126 -23.844  1.00  0.00     0.000 C 
BRANCH  16  17
ATOM     17  C   UNL     1     -23.251  19.525 -22.645  1.00  0.00     0.000 C 
BRANCH  17  18
ATOM     18  C   UNL     1     -22.876  20.196 -21.315  1.00  0.00    -0.000 C 
BRANCH  18  19
ATOM     19  C   UNL     1     -23.908  21.250 -20.875  1.00  0.00    -0.000 C 
BRANCH  19  20
ATOM     20  C   UNL     1     -23.251  22.524 -20.322  1.00  0.00    -0.000 C 
BRANCH  20  21
ATOM     21  C   UNL     1     -23.303  23.699 -21.316  1.00  0.00    -0.000 C 
BRANCH  21  22
ATOM     22  C   UNL     1     -24.420  23.540 -22.360  1.00  0.00    -0.000 C 
BRANCH  22  23
ATOM     23  C   UNL     1     -23.877  23.428 -23.795  1.00  0.00    -0.000 C 
BRANCH  23  24
ATOM     24  C   UNL     1     -22.511  24.128 -23.960  1.00  0.00    -0.000 C 
BRANCH  24  25
ATOM     25  C   UNL     1     -21.682  23.593 -25.139  1.00  0.00    -0.003 C 
ATOM     26  C   UNL     1     -20.186  23.875 -24.999  1.00  0.00     0.004 C 
ENDBRANCH  24  25
ENDBRANCH  23  24
ENDBRANCH  22  23
ENDBRANCH  21  22
ENDBRANCH  20  21
ENDBRANCH  19  20
ENDBRANCH  18  19
ENDBRANCH  17  18
ENDBRANCH  16  17
ENDBRANCH  15  16
ENDBRANCH   1  15
TORSDOF 22
ENDMDL
MODEL 4
REMARK VINA RESULT:    -4.779      1.120      2.537
REMARK INTER + INTRA:         -14.315
REMARK INTER:                 -11.023
REMARK INTRA:                  -3.292
REMARK UNBOUND:                -3.389
REMARK SMILES CCCCCCCCCCCCCCCCCCCCCCCC(=O)[O-]
REMARK SMILES IDX 13 1 14 2 15 3 16 4 17 5 18 6 19 7 20 8 21 9 22 10 23 11
REMARK SMILES IDX 24 12 25 13 26 14 12 15 11 16 10 17 9 18 8 19 7 20 6 21 5 22
REMARK SMILES IDX 4 23 3 24 2 25 1 26
REMARK H PARENT
REMARK Flexibility Score: inf
ROOT
ATOM      1  C   UNL     1     -22.915  18.982 -21.632  1.00  0.00     0.000 C 
ENDROOT
BRANCH   1   2
ATOM      2  C   UNL     1     -24.051  18.638 -22.610  1.00  0.00     0.000 C 
BRANCH   2   3
ATOM      3  C   UNL     1     -23.667  17.514 -23.589  1.00  0.00     0.000 C 
BRANCH   3   4
ATOM      4  C   UNL     1     -23.340  18.042 -24.995  1.00  0.00     0.000 C 
BRANCH   4   5
ATOM      5  C   UNL     1     -22.968  19.535 -24.995  1.00  0.00     0.000 C 
BRANCH   5   6
ATOM      6  C   UNL     1     -21.449  19.766 -25.052  1.00  0.00     0.000 C 
BRANCH   6   7
ATOM      7  C   UNL     1     -20.675  18.508 -25.483  1.00  0.00     0.000 C 
BRANCH   7   8
ATOM      8  C   UNL     1     -19.836  17.904 -24.341  1.00  0.00     0.000 C 
BRANCH   8   9
ATOM      9  C   UNL     1     -20.279  16.504 -23.870  1.00  0.00     0.000 C 
BRANCH   9  10
ATOM     10  C   UNL     1     -20.214  16.272 -22.347  1.00  0.00     0.006 C 
BRANCH  10  11
ATOM     11  C   UNL     1     -20.415  14.810 -21.919  1.00  0.00     0.053 C 
BRANCH  11  12
ATOM     12  C   UNL     1     -21.442  14.682 -20.837  1.00  0.00     0.041 C 
ATOM     13  O   UNL     1     -21.194  14.008 -19.802  1.00  0.00    -0.550 OA
ATOM     14  O   UNL     1     -22.682  15.288 -20.982  1.00  0.00    -0.550 OA
ENDBRANCH  11  12
ENDBRANCH  10  11
ENDBRANCH   9  10
ENDBRANCH   8   9
ENDBRANCH   7   8
ENDBRANCH   6   7
ENDBRANCH   5   6
ENDBRANCH   4   5
ENDBRANCH   3   4
ENDBRANCH   2   3
ENDBRANCH   1   2
BRANCH   1  15
ATOM     15  C   UNL     1     -22.882  20.473 -21.262  1.00  0.00     0.000 C 
BRANCH  15  16
ATOM     16  C   UNL     1     -24.099  21.209 -21.838  1.00  0.00     0.000 C 
BRANCH  16  17
ATOM     17  C   UNL     1     -23.660  22.326 -22.798  1.00  0.00     0.000 C 
BRANCH  17  18
ATOM     18  C   UNL     1     -24.828  23.221 -23.239  1.00  0.00    -0.000 C 
BRANCH  18  19
ATOM     19  C   UNL     1     -24.808  23.514 -24.750  1.00  0.00    -0.000 C 
BRANCH  19  20
ATOM     20  C   UNL     1     -24.385  24.958 -25.063  1.00  0.00    -0.000 C 
BRANCH  20  21
ATOM     21  C   UNL     1     -23.057  25.034 -25.840  1.00  0.00    -0.000 C 
BRANCH  21  22
ATOM     22  C   UNL     1     -22.119  26.126 -25.299  1.00  0.00    -0.000 C 
BRANCH  22  23
ATOM     23  C   UNL     1     -22.253  26.322 -23.779  1.00  0.00    -0.000 C 
BRANCH  23  24
ATOM     24  C   UNL     1     -21.340  25.366 -22.983  1.00  0.00    -0.000 C 
BRANCH  24  25
ATOM     25  C   UNL     1     -21.789  25.152 -21.528  1.00  0.00    -0.003 C 
ATOM     26  C   UNL     1     -23.129  25.815 -21.209  1.00  0.00     0.004 C 
ENDBRANCH  24  25
ENDBRANCH  23  24
ENDBRANCH  22  23
ENDBRANCH  21  22
ENDBRANCH  20  21
ENDBRANCH  19  20
ENDBRANCH  18  19
ENDBRANCH  17  18
ENDBRANCH  16  17
ENDBRANCH  15  16
ENDBRANCH   1  15
TORSDOF 22
ENDMDL
MODEL 5
REMARK VINA RESULT:    -4.758      3.904      8.714
REMARK INTER + INTRA:         -14.266
REMARK INTER:                 -11.481
REMARK INTRA:                  -2.785
REMARK UNBOUND:                -3.389
REMARK SMILES CCCCCCCCCCCCCCCCCCCCCCCC(=O)[O-]
REMARK SMILES IDX 13 1 14 2 15 3 16 4 17 5 18 6 19 7 20 8 21 9 22 10 23 11
REMARK SMILES IDX 24 12 25 13 26 14 12 15 11 16 10 17 9 18 8 19 7 20 6 21 5 22
REMARK SMILES IDX 4 23 3 24 2 25 1 26
REMARK H PARENT
REMARK Flexibility Score: inf
ROOT
ATOM      1  C   UNL     1     -21.038  19.133 -25.190  1.00  0.00     0.000 C 
ENDROOT
BRANCH   1   2
ATOM      2  C   UNL     1     -22.177  20.166 -25.223  1.00  0.00     0.000 C 
BRANCH   2   3
ATOM      3  C   UNL     1     -22.658  20.560 -23.816  1.00  0.00     0.000 C 
BRANCH   3   4
ATOM      4  C   UNL     1     -22.775  19.351 -22.873  1.00  0.00     0.000 C 
BRANCH   4   5
ATOM      5  C   UNL     1     -22.863  19.761 -21.393  1.00  0.00     0.000 C 
BRANCH   5   6
ATOM      6  C   UNL     1     -23.929  20.841 -21.141  1.00  0.00     0.000 C 
BRANCH   6   7
ATOM      7  C   UNL     1     -23.334  22.135 -20.561  1.00  0.00     0.000 C 
BRANCH   7   8
ATOM      8  C   UNL     1     -23.806  23.397 -21.308  1.00  0.00     0.000 C 
BRANCH   8   9
ATOM      9  C   UNL     1     -25.025  23.195 -22.231  1.00  0.00     0.000 C 
BRANCH   9  10
ATOM     10  C   UNL     1     -25.082  24.130 -23.457  1.00  0.00     0.006 C 
BRANCH  10  11
ATOM     11  C   UNL     1     -24.390  23.573 -24.711  1.00  0.00     0.053 C 
BRANCH  11  12
ATOM     12  C   UNL     1     -23.389  24.537 -25.269  1.00  0.00     0.041 C 
ATOM     13  O   UNL     1     -22.257  24.131 -25.645  1.00  0.00    -0.550 OA
ATOM     14  O   UNL     1     -23.698  25.888 -25.351  1.00  0.00    -0.550 OA
ENDBRANCH  11  12
ENDBRANCH  10  11
ENDBRANCH   9  10
ENDBRANCH   8   9
ENDBRANCH   7   8
ENDBRANCH   6   7
ENDBRANCH   5   6
ENDBRANCH   4   5
ENDBRANCH   3   4
ENDBRANCH   2   3
ENDBRANCH   1   2
BRANCH   1  15
ATOM     15  C   UNL     1     -21.428  17.798 -25.841  1.00  0.00     0.000 C 
BRANCH  15  16
ATOM     16  C   UNL     1     -21.363  16.651 -24.824  1.00  0.00     0.000 C 
BRANCH  16  17
ATOM     17  C   UNL     1     -20.211  16.864 -23.830  1.00  0.00     0.000 C 
BRANCH  17  18
ATOM     18  C   UNL     1     -20.588  16.472 -22.393  1.00  0.00    -0.000 C 
BRANCH  18  19
ATOM     19  C   UNL     1     -20.960  14.984 -22.267  1.00  0.00    -0.000 C 
BRANCH  19  20
ATOM     20  C   UNL     1     -20.929  14.491 -20.811  1.00  0.00    -0.000 C 
BRANCH  20  21
ATOM     21  C   UNL     1     -21.806  13.245 -20.587  1.00  0.00    -0.000 C 
BRANCH  21  22
ATOM     22  C   UNL     1     -22.477  13.237 -19.203  1.00  0.00    -0.000 C 
BRANCH  22  23
ATOM     23  C   UNL     1     -24.013  13.223 -19.291  1.00  0.00    -0.000 C 
BRANCH  23  24
ATOM     24  C   UNL     1     -24.607  14.643 -19.397  1.00  0.00    -0.000 C 
BRANCH  24  25
ATOM     25  C   UNL     1     -25.012  15.038 -20.827  1.00  0.00    -0.003 C 
ATOM     26  C   UNL     1     -24.369  16.344 -21.294  1.00  0.00     0.004 C 
ENDBRANCH  24  25
ENDBRANCH  23  24
ENDBRANCH  22  23
ENDBRANCH  21  22
ENDBRANCH  20  21
ENDBRANCH  19  20
ENDBRANCH  18  19
ENDBRANCH  17  18
ENDBRANCH  16  17
ENDBRANCH  15  16
ENDBRANCH   1  15
TORSDOF 22
ENDMDL
MODEL 6
REMARK VINA RESULT:    -4.742      1.176      2.106
REMARK INTER + INTRA:         -14.230
REMARK INTER:                 -10.605
REMARK INTRA:                  -3.625
REMARK UNBOUND:                -3.389
REMARK SMILES CCCCCCCCCCCCCCCCCCCCCCCC(=O)[O-]
REMARK SMILES IDX 13 1 14 2 15 3 16 4 17 5 18 6 19 7 20 8 21 9 22 10 23 11
REMARK SMILES IDX 24 12 25 13 26 14 12 15 11 16 10 17 9 18 8 19 7 20 6 21 5 22
REMARK SMILES IDX 4 23 3 24 2 25 1 26
REMARK H PARENT
REMARK Flexibility Score: inf
ROOT
ATOM      1  C   UNL     1     -24.613  21.071 -21.200  1.00  0.00     0.000 C 
ENDROOT
BRANCH   1   2
ATOM      2  C   UNL     1     -23.156  20.581 -21.177  1.00  0.00     0.000 C 
BRANCH   2   3
ATOM      3  C   UNL     1     -22.895  19.458 -22.196  1.00  0.00     0.000 C 
BRANCH   3   4
ATOM      4  C   UNL     1     -23.988  18.377 -22.176  1.00  0.00     0.000 C 
BRANCH   4   5
ATOM      5  C   UNL     1     -23.994  17.518 -23.452  1.00  0.00     0.000 C 
BRANCH   5   6
ATOM      6  C   UNL     1     -23.335  18.228 -24.646  1.00  0.00     0.000 C 
BRANCH   6   7
ATOM      7  C   UNL     1     -22.259  17.365 -25.327  1.00  0.00     0.000 C 
BRANCH   7   8
ATOM      8  C   UNL     1     -20.828  17.769 -24.924  1.00  0.00     0.000 C 
BRANCH   8   9
ATOM      9  C   UNL     1     -20.314  17.143 -23.612  1.00  0.00     0.000 C 
BRANCH   9  10
ATOM     10  C   UNL     1     -20.655  15.651 -23.419  1.00  0.00     0.006 C 
BRANCH  10  11
ATOM     11  C   UNL     1     -20.369  15.113 -22.008  1.00  0.00     0.053 C 
BRANCH  11  12
ATOM     12  C   UNL     1     -21.598  14.544 -21.369  1.00  0.00     0.041 C 
ATOM     13  O   UNL     1     -22.566  15.294 -21.072  1.00  0.00    -0.550 OA
ATOM     14  O   UNL     1     -21.665  13.188 -21.078  1.00  0.00    -0.550 OA
ENDBRANCH  11  12
ENDBRANCH  10  11
ENDBRANCH   9  10
ENDBRANCH   8   9
ENDBRANCH   7   8
ENDBRANCH   6   7
ENDBRANCH   5   6
ENDBRANCH   4   5
ENDBRANCH   3   4
ENDBRANCH   2   3
ENDBRANCH   1   2
BRANCH   1  15
ATOM     15  C   UNL     1     -24.937  22.027 -20.042  1.00  0.00     0.000 C 
BRANCH  15  16
ATOM     16  C   UNL     1     -23.651  22.559 -19.393  1.00  0.00     0.000 C 
BRANCH  16  17
ATOM     17  C   UNL     1     -23.976  23.470 -18.200  1.00  0.00     0.000 C 
BRANCH  17  18
ATOM     18  C   UNL     1     -23.536  24.925 -18.428  1.00  0.00    -0.000 C 
BRANCH  18  19
ATOM     19  C   UNL     1     -24.396  25.641 -19.484  1.00  0.00    -0.000 C 
BRANCH  19  20
ATOM     20  C   UNL     1     -23.562  26.174 -20.660  1.00  0.00    -0.000 C 
BRANCH  20  21
ATOM     21  C   UNL     1     -23.537  25.207 -21.858  1.00  0.00    -0.000 C 
BRANCH  21  22
ATOM     22  C   UNL     1     -22.143  24.605 -22.102  1.00  0.00    -0.000 C 
BRANCH  22  23
ATOM     23  C   UNL     1     -22.025  23.927 -23.478  1.00  0.00    -0.000 C 
BRANCH  23  24
ATOM     24  C   UNL     1     -23.363  23.319 -23.948  1.00  0.00    -0.000 C 
BRANCH  24  25
ATOM     25  C   UNL     1     -23.206  21.987 -24.700  1.00  0.00    -0.003 C 
ATOM     26  C   UNL     1     -21.754  21.656 -25.040  1.00  0.00     0.004 C 
ENDBRANCH  24  25
ENDBRANCH  23  24
ENDBRANCH  22  23
ENDBRANCH  21  22
ENDBRANCH  20  21
ENDBRANCH  19  20
ENDBRANCH  18  19
ENDBRANCH  17  18
ENDBRANCH  16  17
ENDBRANCH  15  16
ENDBRANCH   1  15
TORSDOF 22
ENDMDL
MODEL 7
REMARK VINA RESULT:    -4.736      1.357      2.678
REMARK INTER + INTRA:         -14.217
REMARK INTER:                 -10.448
REMARK INTRA:                  -3.769
REMARK UNBOUND:                -3.389
REMARK SMILES CCCCCCCCCCCCCCCCCCCCCCCC(=O)[O-]
REMARK SMILES IDX 13 1 14 2 15 3 16 4 17 5 18 6 19 7 20 8 21 9 22 10 23 11
REMARK SMILES IDX 24 12 25 13 26 14 12 15 11 16 10 17 9 18 8 19 7 20 6 21 5 22
REMARK SMILES IDX 4 23 3 24 2 25 1 26
REMARK H PARENT
REMARK Flexibility Score: inf
ROOT
ATOM      1  C   UNL     1     -24.672  20.940 -20.932  1.00  0.00     0.000 C 
ENDROOT
BRANCH   1   2
ATOM      2  C   UNL     1     -24.977  19.596 -21.613  1.00  0.00     0.000 C 
BRANCH   2   3
ATOM      3  C   UNL     1     -23.701  18.823 -21.990  1.00  0.00     0.000 C 
BRANCH   3   4
ATOM      4  C   UNL     1     -23.907  17.900 -23.203  1.00  0.00     0.000 C 
BRANCH   4   5
ATOM      5  C   UNL     1     -23.554  18.584 -24.534  1.00  0.00     0.000 C 
BRANCH   5   6
ATOM      6  C   UNL     1     -22.570  17.758 -25.380  1.00  0.00     0.000 C 
BRANCH   6   7
ATOM      7  C   UNL     1     -21.194  18.432 -25.514  1.00  0.00     0.000 C 
BRANCH   7   8
ATOM      8  C   UNL     1     -20.156  17.872 -24.522  1.00  0.00     0.000 C 
BRANCH   8   9
ATOM      9  C   UNL     1     -20.509  16.503 -23.908  1.00  0.00     0.000 C 
BRANCH   9  10
ATOM     10  C   UNL     1     -20.197  16.358 -22.404  1.00  0.00     0.006 C 
BRANCH  10  11
ATOM     11  C   UNL     1     -21.392  15.905 -21.550  1.00  0.00     0.053 C 
BRANCH  11  12
ATOM     12  C   UNL     1     -21.242  14.487 -21.091  1.00  0.00     0.041 C 
ATOM     13  O   UNL     1     -22.199  13.901 -20.519  1.00  0.00    -0.550 OA
ATOM     14  O   UNL     1     -20.038  13.822 -21.275  1.00  0.00    -0.550 OA
ENDBRANCH  11  12
ENDBRANCH  10  11
ENDBRANCH   9  10
ENDBRANCH   8   9
ENDBRANCH   7   8
ENDBRANCH   6   7
ENDBRANCH   5   6
ENDBRANCH   4   5
ENDBRANCH   3   4
ENDBRANCH   2   3
ENDBRANCH   1   2
BRANCH   1  15
ATOM     15  C   UNL     1     -23.270  21.471 -21.267  1.00  0.00     0.000 C 
BRANCH  15  16
ATOM     16  C   UNL     1     -23.336  22.553 -22.353  1.00  0.00     0.000 C 
BRANCH  16  17
ATOM     17  C   UNL     1     -22.699  22.057 -23.660  1.00  0.00     0.000 C 
BRANCH  17  18
ATOM     18  C   UNL     1     -23.542  22.404 -24.898  1.00  0.00    -0.000 C 
BRANCH  18  19
ATOM     19  C   UNL     1     -24.635  23.443 -24.594  1.00  0.00    -0.000 C 
BRANCH  19  20
ATOM     20  C   UNL     1     -24.351  24.805 -25.247  1.00  0.00    -0.000 C 
BRANCH  20  21
ATOM     21  C   UNL     1     -24.332  25.961 -24.229  1.00  0.00    -0.000 C 
BRANCH  21  22
ATOM     22  C   UNL     1     -22.968  26.113 -23.535  1.00  0.00    -0.000 C 
BRANCH  22  23
ATOM     23  C   UNL     1     -21.792  26.068 -24.526  1.00  0.00    -0.000 C 
BRANCH  23  24
ATOM     24  C   UNL     1     -20.679  25.101 -24.070  1.00  0.00    -0.000 C 
BRANCH  24  25
ATOM     25  C   UNL     1     -20.176  24.169 -25.186  1.00  0.00    -0.003 C 
ATOM     26  C   UNL     1     -20.880  24.398 -26.523  1.00  0.00     0.004 C 
ENDBRANCH  24  25
ENDBRANCH  23  24
ENDBRANCH  22  23
ENDBRANCH  21  22
ENDBRANCH  20  21
ENDBRANCH  19  20
ENDBRANCH  18  19
ENDBRANCH  17  18
ENDBRANCH  16  17
ENDBRANCH  15  16
ENDBRANCH   1  15
TORSDOF 22
ENDMDL
MODEL 8
REMARK VINA RESULT:    -4.722      3.399      5.525
REMARK INTER + INTRA:         -14.184
REMARK INTER:                 -10.311
REMARK INTRA:                  -3.873
REMARK UNBOUND:                -3.389
REMARK SMILES CCCCCCCCCCCCCCCCCCCCCCCC(=O)[O-]
REMARK SMILES IDX 13 1 14 2 15 3 16 4 17 5 18 6 19 7 20 8 21 9 22 10 23 11
REMARK SMILES IDX 24 12 25 13 26 14 12 15 11 16 10 17 9 18 8 19 7 20 6 21 5 22
REMARK SMILES IDX 4 23 3 24 2 25 1 26
REMARK H PARENT
REMARK Flexibility Score: inf
ROOT
ATOM      1  C   UNL     1     -21.402  20.402 -25.017  1.00  0.00     0.000 C 
ENDROOT
BRANCH   1   2
ATOM      2  C   UNL     1     -21.292  19.033 -25.710  1.00  0.00     0.000 C 
BRANCH   2   3
ATOM      3  C   UNL     1     -21.227  17.867 -24.708  1.00  0.00     0.000 C 
BRANCH   3   4
ATOM      4  C   UNL     1     -22.577  17.149 -24.549  1.00  0.00     0.000 C 
BRANCH   4   5
ATOM      5  C   UNL     1     -23.406  17.700 -23.376  1.00  0.00     0.000 C 
BRANCH   5   6
ATOM      6  C   UNL     1     -22.551  17.982 -22.129  1.00  0.00     0.000 C 
BRANCH   6   7
ATOM      7  C   UNL     1     -22.761  19.403 -21.578  1.00  0.00     0.000 C 
BRANCH   7   8
ATOM      8  C   UNL     1     -24.234  19.851 -21.628  1.00  0.00     0.000 C 
BRANCH   8   9
ATOM      9  C   UNL     1     -24.510  21.264 -21.076  1.00  0.00     0.000 C 
BRANCH   9  10
ATOM     10  C   UNL     1     -23.332  21.915 -20.323  1.00  0.00     0.006 C 
BRANCH  10  11
ATOM     11  C   UNL     1     -23.277  23.446 -20.436  1.00  0.00     0.053 C 
BRANCH  11  12
ATOM     12  C   UNL     1     -23.149  24.100 -19.095  1.00  0.00     0.041 C 
ATOM     13  O   UNL     1     -23.545  23.505 -18.058  1.00  0.00    -0.550 OA
ATOM     14  O   UNL     1     -22.614  25.377 -18.993  1.00  0.00    -0.550 OA
ENDBRANCH  11  12
ENDBRANCH  10  11
ENDBRANCH   9  10
ENDBRANCH   8   9
ENDBRANCH   7   8
ENDBRANCH   6   7
ENDBRANCH   5   6
ENDBRANCH   4   5
ENDBRANCH   3   4
ENDBRANCH   2   3
ENDBRANCH   1   2
BRANCH   1  15
ATOM     15  C   UNL     1     -22.843  20.932 -24.976  1.00  0.00     0.000 C 
BRANCH  15  16
ATOM     16  C   UNL     1     -22.926  22.237 -24.173  1.00  0.00     0.000 C 
BRANCH  16  17
ATOM     17  C   UNL     1     -23.925  23.213 -24.814  1.00  0.00     0.000 C 
BRANCH  17  18
ATOM     18  C   UNL     1     -24.692  24.043 -23.773  1.00  0.00    -0.000 C 
BRANCH  18  19
ATOM     19  C   UNL     1     -24.241  25.514 -23.743  1.00  0.00    -0.000 C 
BRANCH  19  20
ATOM     20  C   UNL     1     -22.765  25.669 -23.342  1.00  0.00    -0.000 C 
BRANCH  20  21
ATOM     21  C   UNL     1     -22.113  26.925 -23.949  1.00  0.00    -0.000 C 
BRANCH  21  22
ATOM     22  C   UNL     1     -20.892  26.592 -24.822  1.00  0.00    -0.000 C 
BRANCH  22  23
ATOM     23  C   UNL     1     -20.653  25.077 -24.952  1.00  0.00    -0.000 C 
BRANCH  23  24
ATOM     24  C   UNL     1     -20.994  24.550 -26.362  1.00  0.00    -0.000 C 
BRANCH  24  25
ATOM     25  C   UNL     1     -21.406  25.654 -27.350  1.00  0.00    -0.003 C 
ATOM     26  C   UNL     1     -22.889  25.607 -27.719  1.00  0.00     0.004 C 
ENDBRANCH  24  25
ENDBRANCH  23  24
ENDBRANCH  22  23
ENDBRANCH  21  22
ENDBRANCH  20  21
ENDBRANCH  19  20
ENDBRANCH  18  19
ENDBRANCH  17  18
ENDBRANCH  16  17
ENDBRANCH  15  16
ENDBRANCH   1  15
TORSDOF 22
ENDMDL
MODEL 9
REMARK VINA RESULT:    -4.717      3.945      8.683
REMARK INTER + INTRA:         -14.172
REMARK INTER:                 -11.362
REMARK INTRA:                  -2.809
REMARK UNBOUND:                -3.389
REMARK SMILES CCCCCCCCCCCCCCCCCCCCCCCC(=O)[O-]
REMARK SMILES IDX 13 1 14 2 15 3 16 4 17 5 18 6 19 7 20 8 21 9 22 10 23 11
REMARK SMILES IDX 24 12 25 13 26 14 12 15 11 16 10 17 9 18 8 19 7 20 6 21 5 22
REMARK SMILES IDX 4 23 3 24 2 25 1 26
REMARK H PARENT
REMARK Flexibility Score: inf
ROOT
ATOM      1  C   UNL     1     -20.800  18.886 -25.509  1.00  0.00     0.000 C 
ENDROOT
BRANCH   1   2
ATOM      2  C   UNL     1     -21.687  20.097 -25.844  1.00  0.00     0.000 C 
BRANCH   2   3
ATOM      3  C   UNL     1     -22.183  20.832 -24.587  1.00  0.00     0.000 C 
BRANCH   3   4
ATOM      4  C   UNL     1     -22.859  19.887 -23.579  1.00  0.00     0.000 C 
BRANCH   4   5
ATOM      5  C   UNL     1     -23.148  20.569 -22.231  1.00  0.00     0.000 C 
BRANCH   5   6
ATOM      6  C   UNL     1     -23.716  21.988 -22.396  1.00  0.00     0.000 C 
BRANCH   6   7
ATOM      7  C   UNL     1     -23.215  22.956 -21.310  1.00  0.00     0.000 C 
BRANCH   7   8
ATOM      8  C   UNL     1     -22.595  24.239 -21.895  1.00  0.00     0.000 C 
BRANCH   8   9
ATOM      9  C   UNL     1     -22.392  24.233 -23.423  1.00  0.00     0.000 C 
BRANCH   9  10
ATOM     10  C   UNL     1     -21.012  24.725 -23.905  1.00  0.00     0.006 C 
BRANCH  10  11
ATOM     11  C   UNL     1     -20.420  23.912 -25.067  1.00  0.00     0.053 C 
BRANCH  11  12
ATOM     12  C   UNL     1     -20.273  24.739 -26.307  1.00  0.00     0.041 C 
ATOM     13  O   UNL     1     -20.823  25.869 -26.385  1.00  0.00    -0.550 OA
ATOM     14  O   UNL     1     -19.548  24.250 -27.385  1.00  0.00    -0.550 OA
ENDBRANCH  11  12
ENDBRANCH  10  11
ENDBRANCH   9  10
ENDBRANCH   8   9
ENDBRANCH   7   8
ENDBRANCH   6   7
ENDBRANCH   5   6
ENDBRANCH   4   5
ENDBRANCH   3   4
ENDBRANCH   2   3
ENDBRANCH   1   2
BRANCH   1  15
ATOM     15  C   UNL     1     -21.297  17.587 -26.162  1.00  0.00     0.000 C 
BRANCH  15  16
ATOM     16  C   UNL     1     -21.534  16.498 -25.107  1.00  0.00     0.000 C 
BRANCH  16  17
ATOM     17  C   UNL     1     -20.721  16.781 -23.834  1.00  0.00     0.000 C 
BRANCH  17  18
ATOM     18  C   UNL     1     -21.189  15.944 -22.633  1.00  0.00    -0.000 C 
BRANCH  18  19
ATOM     19  C   UNL     1     -22.062  16.752 -21.657  1.00  0.00    -0.000 C 
BRANCH  19  20
ATOM     20  C   UNL     1     -23.554  16.702 -22.021  1.00  0.00    -0.000 C 
BRANCH  20  21
ATOM     21  C   UNL     1     -24.432  16.190 -20.865  1.00  0.00    -0.000 C 
BRANCH  21  22
ATOM     22  C   UNL     1     -24.521  14.655 -20.826  1.00  0.00    -0.000 C 
BRANCH  22  23
ATOM     23  C   UNL     1     -24.113  14.073 -19.462  1.00  0.00    -0.000 C 
BRANCH  23  24
ATOM     24  C   UNL     1     -22.976  13.037 -19.584  1.00  0.00    -0.000 C 
BRANCH  24  25
ATOM     25  C   UNL     1     -21.582  13.666 -19.746  1.00  0.00    -0.003 C 
ATOM     26  C   UNL     1     -20.605  12.773 -20.510  1.00  0.00     0.004 C 
ENDBRANCH  24  25
ENDBRANCH  23  24
ENDBRANCH  22  23
ENDBRANCH  21  22
ENDBRANCH  20  21
ENDBRANCH  19  20
ENDBRANCH  18  19
ENDBRANCH  17  18
ENDBRANCH  16  17
ENDBRANCH  15  16
ENDBRANCH   1  15
TORSDOF 22
ENDMDL
