MODEL 1
REMARK VINA RESULT:    -7.100      0.000      0.000
REMARK INTER + INTRA:          -8.590
REMARK INTER:                  -8.345
REMARK INTRA:                  -0.245
REMARK UNBOUND:                -0.245
REMARK SMILES O=c1c(O)c(-c2ccc(O)cc2)oc2cc(O)cc(O)c12
REMARK SMILES IDX 5 1 3 2 2 3 1 4 21 5 19 6 18 7 16 8 15 9 14 10 13 11 6 12
REMARK SMILES IDX 7 13 8 14 9 15 12 16 11 17 10 18 4 20 20 22 17 24
REMARK H PARENT 10 19 4 21 20 23 17 25
REMARK Flexibility Score: inf
ROOT
ATOM      1  C   UNL     1     -16.085 -46.333  -1.648  1.00  0.00     0.180 A 
ATOM      2  C   UNL     1     -17.201 -45.558  -2.008  1.00  0.00     0.208 A 
ATOM      3  C   UNL     1     -17.985 -44.982  -0.997  1.00  0.00     0.238 A 
ATOM      4  O   UNL     1     -19.025 -44.352  -1.325  1.00  0.00    -0.285 OA
ATOM      5  C   UNL     1     -17.615 -45.140   0.360  1.00  0.00     0.111 A 
ATOM      6  C   UNL     1     -18.311 -44.563   1.466  1.00  0.00     0.134 A 
ATOM      7  C   UNL     1     -17.913 -44.875   2.771  1.00  0.00     0.093 A 
ATOM      8  C   UNL     1     -16.808 -45.691   3.012  1.00  0.00     0.123 A 
ATOM      9  C   UNL     1     -16.087 -46.216   1.940  1.00  0.00     0.094 A 
ATOM     10  C   UNL     1     -16.482 -45.953   0.626  1.00  0.00     0.146 A 
ATOM     11  O   UNL     1     -15.781 -46.490  -0.366  1.00  0.00    -0.452 OA
ENDROOT
BRANCH   1  12
ATOM     12  C   UNL     1     -15.219 -46.984  -2.656  1.00  0.00     0.021 A 
ATOM     13  C   UNL     1     -15.289 -48.367  -2.901  1.00  0.00     0.016 A 
ATOM     14  C   UNL     1     -14.442 -48.962  -3.841  1.00  0.00     0.047 A 
ATOM     15  C   UNL     1     -13.505 -48.187  -4.536  1.00  0.00     0.115 A 
ATOM     16  C   UNL     1     -14.262 -46.218  -3.342  1.00  0.00     0.016 A 
ATOM     17  C   UNL     1     -13.417 -46.815  -4.282  1.00  0.00     0.047 A 
BRANCH  15  18
ATOM     18  O   UNL     1     -12.658 -48.770  -5.476  1.00  0.00    -0.508 OA
ATOM     19  H   UNL     1     -12.222 -48.222  -6.208  1.00  0.00     0.293 HD
ENDBRANCH  15  18
ENDBRANCH   1  12
BRANCH   2  20
ATOM     20  O   UNL     1     -17.506 -45.349  -3.357  1.00  0.00    -0.502 OA
ATOM     21  H   UNL     1     -18.447 -45.152  -3.677  1.00  0.00     0.293 HD
ENDBRANCH   2  20
BRANCH   6  22
ATOM     22  O   UNL     1     -19.374 -43.663   1.339  1.00  0.00    -0.507 OA
ATOM     23  H   UNL     1     -20.336 -43.872   1.556  1.00  0.00     0.293 HD
ENDBRANCH   6  22
BRANCH   8  24
ATOM     24  O   UNL     1     -16.431 -45.967   4.325  1.00  0.00    -0.508 OA
ATOM     25  H   UNL     1     -15.879 -45.311   4.866  1.00  0.00     0.293 HD
ENDBRANCH   8  24
TORSDOF 5
ENDMDL
MODEL 2
REMARK VINA RESULT:    -7.026      9.175     12.975
REMARK INTER + INTRA:          -8.503
REMARK INTER:                  -8.215
REMARK INTRA:                  -0.289
REMARK UNBOUND:                -0.245
REMARK SMILES O=c1c(O)c(-c2ccc(O)cc2)oc2cc(O)cc(O)c12
REMARK SMILES IDX 5 1 3 2 2 3 1 4 21 5 19 6 18 7 16 8 15 9 14 10 13 11 6 12
REMARK SMILES IDX 7 13 8 14 9 15 12 16 11 17 10 18 4 20 20 22 17 24
REMARK H PARENT 10 19 4 21 20 23 17 25
REMARK Flexibility Score: inf
ROOT
ATOM      1  C   UNL     1     -11.756 -42.326 -10.188  1.00  0.00     0.180 A 
ATOM      2  C   UNL     1     -10.775 -41.356  -9.919  1.00  0.00     0.208 A 
ATOM      3  C   UNL     1      -9.437 -41.633 -10.240  1.00  0.00     0.238 A 
ATOM      4  O   UNL     1      -8.555 -40.791  -9.928  1.00  0.00    -0.285 OA
ATOM      5  C   UNL     1      -9.102 -42.853 -10.877  1.00  0.00     0.111 A 
ATOM      6  C   UNL     1      -7.785 -43.220 -11.288  1.00  0.00     0.134 A 
ATOM      7  C   UNL     1      -7.556 -44.498 -11.813  1.00  0.00     0.093 A 
ATOM      8  C   UNL     1      -8.605 -45.397 -12.001  1.00  0.00     0.123 A 
ATOM      9  C   UNL     1      -9.905 -45.030 -11.654  1.00  0.00     0.094 A 
ATOM     10  C   UNL     1     -10.159 -43.776 -11.093  1.00  0.00     0.146 A 
ATOM     11  O   UNL     1     -11.407 -43.474 -10.757  1.00  0.00    -0.452 OA
ENDROOT
BRANCH   1  12
ATOM     12  C   UNL     1     -13.185 -42.113  -9.865  1.00  0.00     0.021 A 
ATOM     13  C   UNL     1     -14.055 -41.481 -10.771  1.00  0.00     0.016 A 
ATOM     14  C   UNL     1     -15.395 -41.269 -10.433  1.00  0.00     0.047 A 
ATOM     15  C   UNL     1     -15.878 -41.671  -9.181  1.00  0.00     0.115 A 
ATOM     16  C   UNL     1     -13.672 -42.494  -8.604  1.00  0.00     0.016 A 
ATOM     17  C   UNL     1     -15.012 -42.281  -8.268  1.00  0.00     0.047 A 
BRANCH  15  18
ATOM     18  O   UNL     1     -17.212 -41.465  -8.834  1.00  0.00    -0.508 OA
ATOM     19  H   UNL     1     -17.477 -41.170  -7.902  1.00  0.00     0.293 HD
ENDBRANCH  15  18
ENDBRANCH   1  12
BRANCH   2  20
ATOM     20  O   UNL     1     -11.136 -40.126  -9.361  1.00  0.00    -0.502 OA
ATOM     21  H   UNL     1     -10.549 -39.638  -8.695  1.00  0.00     0.293 HD
ENDBRANCH   2  20
BRANCH   6  22
ATOM     22  O   UNL     1      -6.679 -42.367 -11.228  1.00  0.00    -0.507 OA
ATOM     23  H   UNL     1      -5.907 -42.374 -11.876  1.00  0.00     0.293 HD
ENDBRANCH   6  22
BRANCH   8  24
ATOM     24  O   UNL     1      -8.343 -46.655 -12.542  1.00  0.00    -0.508 OA
ATOM     25  H   UNL     1      -8.289 -47.482 -11.959  1.00  0.00     0.293 HD
ENDBRANCH   8  24
TORSDOF 5
ENDMDL
MODEL 3
REMARK VINA RESULT:    -7.008      6.420     10.120
REMARK INTER + INTRA:          -8.482
REMARK INTER:                  -8.221
REMARK INTRA:                  -0.261
REMARK UNBOUND:                -0.245
REMARK SMILES O=c1c(O)c(-c2ccc(O)cc2)oc2cc(O)cc(O)c12
REMARK SMILES IDX 5 1 3 2 2 3 1 4 21 5 19 6 18 7 16 8 15 9 14 10 13 11 6 12
REMARK SMILES IDX 7 13 8 14 9 15 12 16 11 17 10 18 4 20 20 22 17 24
REMARK H PARENT 10 19 4 21 20 23 17 25
REMARK Flexibility Score: inf
ROOT
ATOM      1  C   UNL     1     -11.227 -42.875  -5.724  1.00  0.00     0.180 A 
ATOM      2  C   UNL     1     -10.787 -43.819  -6.669  1.00  0.00     0.208 A 
ATOM      3  C   UNL     1     -11.064 -43.602  -8.027  1.00  0.00     0.238 A 
ATOM      4  O   UNL     1     -10.732 -44.487  -8.859  1.00  0.00    -0.285 OA
ATOM      5  C   UNL     1     -11.728 -42.419  -8.432  1.00  0.00     0.111 A 
ATOM      6  C   UNL     1     -12.021 -42.074  -9.787  1.00  0.00     0.134 A 
ATOM      7  C   UNL     1     -12.776 -40.927 -10.059  1.00  0.00     0.093 A 
ATOM      8  C   UNL     1     -13.195 -40.080  -9.034  1.00  0.00     0.123 A 
ATOM      9  C   UNL     1     -12.868 -40.377  -7.712  1.00  0.00     0.094 A 
ATOM     10  C   UNL     1     -12.148 -41.534  -7.404  1.00  0.00     0.146 A 
ATOM     11  O   UNL     1     -11.876 -41.791  -6.130  1.00  0.00    -0.452 OA
ENDROOT
BRANCH   1  12
ATOM     12  C   UNL     1     -10.986 -43.041  -4.273  1.00  0.00     0.021 A 
ATOM     13  C   UNL     1      -9.739 -42.738  -3.697  1.00  0.00     0.016 A 
ATOM     14  C   UNL     1      -9.529 -42.927  -2.327  1.00  0.00     0.047 A 
ATOM     15  C   UNL     1     -10.554 -43.435  -1.520  1.00  0.00     0.115 A 
ATOM     16  C   UNL     1     -12.002 -43.570  -3.459  1.00  0.00     0.016 A 
ATOM     17  C   UNL     1     -11.790 -43.758  -2.091  1.00  0.00     0.047 A 
BRANCH  15  18
ATOM     18  O   UNL     1     -10.356 -43.626  -0.154  1.00  0.00    -0.508 OA
ATOM     19  H   UNL     1      -9.442 -43.851   0.222  1.00  0.00     0.293 HD
ENDBRANCH  15  18
ENDBRANCH   1  12
BRANCH   2  20
ATOM     20  O   UNL     1     -10.064 -44.943  -6.256  1.00  0.00    -0.502 OA
ATOM     21  H   UNL     1      -9.460 -44.933  -5.443  1.00  0.00     0.293 HD
ENDBRANCH   2  20
BRANCH   6  22
ATOM     22  O   UNL     1     -11.575 -42.802 -10.894  1.00  0.00    -0.507 OA
ATOM     23  H   UNL     1     -10.612 -42.886 -11.181  1.00  0.00     0.293 HD
ENDBRANCH   6  22
BRANCH   8  24
ATOM     24  O   UNL     1     -13.931 -38.938  -9.345  1.00  0.00    -0.508 OA
ATOM     25  H   UNL     1     -13.907 -38.527 -10.271  1.00  0.00     0.293 HD
ENDBRANCH   8  24
TORSDOF 5
ENDMDL
MODEL 4
REMARK VINA RESULT:    -6.988      7.406      9.814
REMARK INTER + INTRA:          -8.458
REMARK INTER:                  -8.180
REMARK INTRA:                  -0.278
REMARK UNBOUND:                -0.245
REMARK SMILES O=c1c(O)c(-c2ccc(O)cc2)oc2cc(O)cc(O)c12
REMARK SMILES IDX 5 1 3 2 2 3 1 4 21 5 19 6 18 7 16 8 15 9 14 10 13 11 6 12
REMARK SMILES IDX 7 13 8 14 9 15 12 16 11 17 10 18 4 20 20 22 17 24
REMARK H PARENT 10 19 4 21 20 23 17 25
REMARK Flexibility Score: inf
ROOT
ATOM      1  C   UNL     1     -11.827 -43.152  -6.969  1.00  0.00     0.180 A 
ATOM      2  C   UNL     1     -11.152 -43.104  -8.201  1.00  0.00     0.208 A 
ATOM      3  C   UNL     1     -11.857 -42.713  -9.349  1.00  0.00     0.238 A 
ATOM      4  O   UNL     1     -11.266 -42.744 -10.460  1.00  0.00    -0.285 OA
ATOM      5  C   UNL     1     -13.214 -42.320  -9.244  1.00  0.00     0.111 A 
ATOM      6  C   UNL     1     -14.014 -41.863 -10.335  1.00  0.00     0.134 A 
ATOM      7  C   UNL     1     -15.375 -41.602 -10.131  1.00  0.00     0.093 A 
ATOM      8  C   UNL     1     -15.950 -41.721  -8.867  1.00  0.00     0.123 A 
ATOM      9  C   UNL     1     -15.165 -42.114  -7.783  1.00  0.00     0.094 A 
ATOM     10  C   UNL     1     -13.813 -42.417  -7.961  1.00  0.00     0.146 A 
ATOM     11  O   UNL     1     -13.108 -42.809  -6.907  1.00  0.00    -0.452 OA
ENDROOT
BRANCH   1  12
ATOM     12  C   UNL     1     -11.155 -43.568  -5.718  1.00  0.00     0.021 A 
ATOM     13  C   UNL     1     -10.399 -42.661  -4.953  1.00  0.00     0.016 A 
ATOM     14  C   UNL     1      -9.753 -43.084  -3.788  1.00  0.00     0.047 A 
ATOM     15  C   UNL     1      -9.840 -44.422  -3.380  1.00  0.00     0.115 A 
ATOM     16  C   UNL     1     -11.219 -44.912  -5.312  1.00  0.00     0.016 A 
ATOM     17  C   UNL     1     -10.573 -45.333  -4.147  1.00  0.00     0.047 A 
BRANCH  15  18
ATOM     18  O   UNL     1      -9.202 -44.854  -2.220  1.00  0.00    -0.508 OA
ATOM     19  H   UNL     1      -8.533 -44.269  -1.733  1.00  0.00     0.293 HD
ENDBRANCH  15  18
ENDBRANCH   1  12
BRANCH   2  20
ATOM     20  O   UNL     1      -9.792 -43.421  -8.271  1.00  0.00    -0.502 OA
ATOM     21  H   UNL     1      -9.406 -44.257  -7.847  1.00  0.00     0.293 HD
ENDBRANCH   2  20
BRANCH   6  22
ATOM     22  O   UNL     1     -13.522 -41.624 -11.622  1.00  0.00    -0.507 OA
ATOM     23  H   UNL     1     -14.010 -41.114 -12.342  1.00  0.00     0.293 HD
ENDBRANCH   6  22
BRANCH   8  24
ATOM     24  O   UNL     1     -17.304 -41.436  -8.698  1.00  0.00    -0.508 OA
ATOM     25  H   UNL     1     -17.936 -41.382  -9.488  1.00  0.00     0.293 HD
ENDBRANCH   8  24
TORSDOF 5
ENDMDL
MODEL 5
REMARK VINA RESULT:    -6.982      6.955      9.535
REMARK INTER + INTRA:          -8.451
REMARK INTER:                  -8.182
REMARK INTRA:                  -0.269
REMARK UNBOUND:                -0.245
REMARK SMILES O=c1c(O)c(-c2ccc(O)cc2)oc2cc(O)cc(O)c12
REMARK SMILES IDX 5 1 3 2 2 3 1 4 21 5 19 6 18 7 16 8 15 9 14 10 13 11 6 12
REMARK SMILES IDX 7 13 8 14 9 15 12 16 11 17 10 18 4 20 20 22 17 24
REMARK H PARENT 10 19 4 21 20 23 17 25
REMARK Flexibility Score: inf
ROOT
ATOM      1  C   UNL     1     -12.581 -42.835  -6.418  1.00  0.00     0.180 A 
ATOM      2  C   UNL     1     -13.928 -43.235  -6.436  1.00  0.00     0.208 A 
ATOM      3  C   UNL     1     -14.768 -42.751  -7.451  1.00  0.00     0.238 A 
ATOM      4  O   UNL     1     -15.990 -43.053  -7.418  1.00  0.00    -0.285 OA
ATOM      5  C   UNL     1     -14.240 -41.919  -8.467  1.00  0.00     0.111 A 
ATOM      6  C   UNL     1     -14.990 -41.406  -9.570  1.00  0.00     0.134 A 
ATOM      7  C   UNL     1     -14.387 -40.506 -10.457  1.00  0.00     0.093 A 
ATOM      8  C   UNL     1     -13.047 -40.149 -10.319  1.00  0.00     0.123 A 
ATOM      9  C   UNL     1     -12.289 -40.685  -9.278  1.00  0.00     0.094 A 
ATOM     10  C   UNL     1     -12.872 -41.557  -8.356  1.00  0.00     0.146 A 
ATOM     11  O   UNL     1     -12.122 -42.028  -7.367  1.00  0.00    -0.452 OA
ENDROOT
BRANCH   1  12
ATOM     12  C   UNL     1     -11.637 -43.292  -5.373  1.00  0.00     0.021 A 
ATOM     13  C   UNL     1     -11.025 -44.556  -5.439  1.00  0.00     0.016 A 
ATOM     14  C   UNL     1     -10.156 -44.974  -4.426  1.00  0.00     0.047 A 
ATOM     15  C   UNL     1      -9.900 -44.142  -3.329  1.00  0.00     0.115 A 
ATOM     16  C   UNL     1     -11.391 -42.472  -4.259  1.00  0.00     0.016 A 
ATOM     17  C   UNL     1     -10.522 -42.892  -3.248  1.00  0.00     0.047 A 
BRANCH  15  18
ATOM     18  O   UNL     1      -9.036 -44.548  -2.315  1.00  0.00    -0.508 OA
ATOM     19  H   UNL     1      -8.110 -44.149  -2.216  1.00  0.00     0.293 HD
ENDBRANCH  15  18
ENDBRANCH   1  12
BRANCH   2  20
ATOM     20  O   UNL     1     -14.413 -44.119  -5.468  1.00  0.00    -0.502 OA
ATOM     21  H   UNL     1     -15.401 -44.308  -5.349  1.00  0.00     0.293 HD
ENDBRANCH   2  20
BRANCH   6  22
ATOM     22  O   UNL     1     -16.311 -41.766  -9.854  1.00  0.00    -0.507 OA
ATOM     23  H   UNL     1     -16.973 -41.191 -10.352  1.00  0.00     0.293 HD
ENDBRANCH   6  22
BRANCH   8  24
ATOM     24  O   UNL     1     -12.475 -39.263 -11.231  1.00  0.00    -0.508 OA
ATOM     25  H   UNL     1     -13.044 -38.643 -11.795  1.00  0.00     0.293 HD
ENDBRANCH   8  24
TORSDOF 5
ENDMDL
MODEL 6
REMARK VINA RESULT:    -6.822      3.169      4.233
REMARK INTER + INTRA:          -8.264
REMARK INTER:                  -7.968
REMARK INTRA:                  -0.296
REMARK UNBOUND:                -0.245
REMARK SMILES O=c1c(O)c(-c2ccc(O)cc2)oc2cc(O)cc(O)c12
REMARK SMILES IDX 5 1 3 2 2 3 1 4 21 5 19 6 18 7 16 8 15 9 14 10 13 11 6 12
REMARK SMILES IDX 7 13 8 14 9 15 12 16 11 17 10 18 4 20 20 22 17 24
REMARK H PARENT 10 19 4 21 20 23 17 25
REMARK Flexibility Score: inf
ROOT
ATOM      1  C   UNL     1     -15.241 -44.488  -0.426  1.00  0.00     0.180 A 
ATOM      2  C   UNL     1     -16.157 -44.920   0.550  1.00  0.00     0.208 A 
ATOM      3  C   UNL     1     -15.824 -44.781   1.906  1.00  0.00     0.238 A 
ATOM      4  O   UNL     1     -16.616 -45.237   2.771  1.00  0.00    -0.285 OA
ATOM      5  C   UNL     1     -14.604 -44.163   2.273  1.00  0.00     0.111 A 
ATOM      6  C   UNL     1     -14.183 -43.929   3.617  1.00  0.00     0.134 A 
ATOM      7  C   UNL     1     -12.908 -43.405   3.861  1.00  0.00     0.093 A 
ATOM      8  C   UNL     1     -12.064 -43.046   2.811  1.00  0.00     0.123 A 
ATOM      9  C   UNL     1     -12.486 -43.219   1.493  1.00  0.00     0.094 A 
ATOM     10  C   UNL     1     -13.737 -43.774   1.218  1.00  0.00     0.146 A 
ATOM     11  O   UNL     1     -14.091 -43.941  -0.051  1.00  0.00    -0.452 OA
ENDROOT
BRANCH   1  12
ATOM     12  C   UNL     1     -15.515 -44.614  -1.875  1.00  0.00     0.021 A 
ATOM     13  C   UNL     1     -15.216 -45.794  -2.579  1.00  0.00     0.016 A 
ATOM     14  C   UNL     1     -15.462 -45.879  -3.953  1.00  0.00     0.047 A 
ATOM     15  C   UNL     1     -15.994 -44.783  -4.643  1.00  0.00     0.115 A 
ATOM     16  C   UNL     1     -16.029 -43.512  -2.579  1.00  0.00     0.016 A 
ATOM     17  C   UNL     1     -16.274 -43.600  -3.952  1.00  0.00     0.047 A 
BRANCH  15  18
ATOM     18  O   UNL     1     -16.244 -44.857  -6.011  1.00  0.00    -0.508 OA
ATOM     19  H   UNL     1     -15.590 -44.486  -6.690  1.00  0.00     0.293 HD
ENDBRANCH  15  18
ENDBRANCH   1  12
BRANCH   2  20
ATOM     20  O   UNL     1     -17.390 -45.457   0.168  1.00  0.00    -0.502 OA
ATOM     21  H   UNL     1     -17.936 -46.054   0.778  1.00  0.00     0.293 HD
ENDBRANCH   2  20
BRANCH   6  22
ATOM     22  O   UNL     1     -14.981 -44.168   4.741  1.00  0.00    -0.507 OA
ATOM     23  H   UNL     1     -15.947 -44.455   4.712  1.00  0.00     0.293 HD
ENDBRANCH   6  22
BRANCH   8  24
ATOM     24  O   UNL     1     -10.808 -42.511   3.091  1.00  0.00    -0.508 OA
ATOM     25  H   UNL     1     -10.640 -41.965   3.928  1.00  0.00     0.293 HD
ENDBRANCH   8  24
TORSDOF 5
ENDMDL
MODEL 7
REMARK VINA RESULT:    -6.803      6.217      8.493
REMARK INTER + INTRA:          -8.242
REMARK INTER:                  -7.950
REMARK INTRA:                  -0.292
REMARK UNBOUND:                -0.245
REMARK SMILES O=c1c(O)c(-c2ccc(O)cc2)oc2cc(O)cc(O)c12
REMARK SMILES IDX 5 1 3 2 2 3 1 4 21 5 19 6 18 7 16 8 15 9 14 10 13 11 6 12
REMARK SMILES IDX 7 13 8 14 9 15 12 16 11 17 10 18 4 20 20 22 17 24
REMARK H PARENT 10 19 4 21 20 23 17 25
REMARK Flexibility Score: inf
ROOT
ATOM      1  C   UNL     1     -11.652 -43.191  -6.794  1.00  0.00     0.180 A 
ATOM      2  C   UNL     1     -12.020 -44.536  -6.967  1.00  0.00     0.208 A 
ATOM      3  C   UNL     1     -11.951 -45.408  -5.869  1.00  0.00     0.238 A 
ATOM      4  O   UNL     1     -12.211 -46.626  -6.049  1.00  0.00    -0.285 OA
ATOM      5  C   UNL     1     -11.567 -44.914  -4.599  1.00  0.00     0.111 A 
ATOM      6  C   UNL     1     -11.504 -45.698  -3.407  1.00  0.00     0.134 A 
ATOM      7  C   UNL     1     -11.009 -45.126  -2.229  1.00  0.00     0.093 A 
ATOM      8  C   UNL     1     -10.634 -43.784  -2.183  1.00  0.00     0.123 A 
ATOM      9  C   UNL     1     -10.742 -42.993  -3.327  1.00  0.00     0.094 A 
ATOM     10  C   UNL     1     -11.198 -43.545  -4.526  1.00  0.00     0.146 A 
ATOM     11  O   UNL     1     -11.265 -42.764  -5.598  1.00  0.00    -0.452 OA
ENDROOT
BRANCH   1  12
ATOM     12  C   UNL     1     -11.685 -42.215  -7.906  1.00  0.00     0.021 A 
ATOM     13  C   UNL     1     -10.608 -42.085  -8.801  1.00  0.00     0.016 A 
ATOM     14  C   UNL     1     -10.654 -41.138  -9.829  1.00  0.00     0.047 A 
ATOM     15  C   UNL     1     -11.768 -40.300  -9.966  1.00  0.00     0.115 A 
ATOM     16  C   UNL     1     -12.789 -41.355  -8.038  1.00  0.00     0.016 A 
ATOM     17  C   UNL     1     -12.832 -40.410  -9.066  1.00  0.00     0.047 A 
BRANCH  15  18
ATOM     18  O   UNL     1     -11.824 -39.354 -10.988  1.00  0.00    -0.508 OA
ATOM     19  H   UNL     1     -12.313 -38.475 -10.869  1.00  0.00     0.293 HD
ENDBRANCH  15  18
ENDBRANCH   1  12
BRANCH   2  20
ATOM     20  O   UNL     1     -12.471 -44.987  -8.211  1.00  0.00    -0.502 OA
ATOM     21  H   UNL     1     -12.312 -45.934  -8.537  1.00  0.00     0.293 HD
ENDBRANCH   2  20
BRANCH   6  22
ATOM     22  O   UNL     1     -11.937 -47.025  -3.318  1.00  0.00    -0.507 OA
ATOM     23  H   UNL     1     -12.685 -47.426  -3.863  1.00  0.00     0.293 HD
ENDBRANCH   6  22
BRANCH   8  24
ATOM     24  O   UNL     1     -10.161 -43.243  -0.988  1.00  0.00    -0.508 OA
ATOM     25  H   UNL     1     -10.777 -43.083  -0.199  1.00  0.00     0.293 HD
ENDBRANCH   8  24
TORSDOF 5
ENDMDL
MODEL 8
REMARK VINA RESULT:    -6.722      4.643      6.515
REMARK INTER + INTRA:          -8.145
REMARK INTER:                  -7.859
REMARK INTRA:                  -0.286
REMARK UNBOUND:                -0.245
REMARK SMILES O=c1c(O)c(-c2ccc(O)cc2)oc2cc(O)cc(O)c12
REMARK SMILES IDX 5 1 3 2 2 3 1 4 21 5 19 6 18 7 16 8 15 9 14 10 13 11 6 12
REMARK SMILES IDX 7 13 8 14 9 15 12 16 11 17 10 18 4 20 20 22 17 24
REMARK H PARENT 10 19 4 21 20 23 17 25
REMARK Flexibility Score: inf
ROOT
ATOM      1  C   UNL     1     -15.107 -43.233  -5.736  1.00  0.00     0.180 A 
ATOM      2  C   UNL     1     -14.431 -44.463  -5.675  1.00  0.00     0.208 A 
ATOM      3  C   UNL     1     -14.786 -45.388  -4.681  1.00  0.00     0.238 A 
ATOM      4  O   UNL     1     -14.126 -46.455  -4.586  1.00  0.00    -0.285 OA
ATOM      5  C   UNL     1     -15.851 -45.095  -3.794  1.00  0.00     0.111 A 
ATOM      6  C   UNL     1     -16.327 -45.977  -2.777  1.00  0.00     0.134 A 
ATOM      7  C   UNL     1     -17.317 -45.538  -1.890  1.00  0.00     0.093 A 
ATOM      8  C   UNL     1     -17.893 -44.276  -2.021  1.00  0.00     0.123 A 
ATOM      9  C   UNL     1     -17.476 -43.426  -3.045  1.00  0.00     0.094 A 
ATOM     10  C   UNL     1     -16.463 -43.821  -3.923  1.00  0.00     0.146 A 
ATOM     11  O   UNL     1     -16.080 -42.974  -4.871  1.00  0.00    -0.452 OA
ENDROOT
BRANCH   1  12
ATOM     12  C   UNL     1     -14.779 -42.202  -6.746  1.00  0.00     0.021 A 
ATOM     13  C   UNL     1     -13.903 -41.141  -6.455  1.00  0.00     0.016 A 
ATOM     14  C   UNL     1     -13.629 -40.166  -7.419  1.00  0.00     0.047 A 
ATOM     15  C   UNL     1     -14.237 -40.230  -8.679  1.00  0.00     0.115 A 
ATOM     16  C   UNL     1     -15.401 -42.247  -8.006  1.00  0.00     0.016 A 
ATOM     17  C   UNL     1     -15.124 -41.271  -8.968  1.00  0.00     0.047 A 
BRANCH  15  18
ATOM     18  O   UNL     1     -13.969 -39.264  -9.647  1.00  0.00    -0.508 OA
ATOM     19  H   UNL     1     -13.261 -39.408 -10.357  1.00  0.00     0.293 HD
ENDBRANCH  15  18
ENDBRANCH   1  12
BRANCH   2  20
ATOM     20  O   UNL     1     -13.434 -44.765  -6.609  1.00  0.00    -0.502 OA
ATOM     21  H   UNL     1     -12.894 -45.622  -6.570  1.00  0.00     0.293 HD
ENDBRANCH   2  20
BRANCH   6  22
ATOM     22  O   UNL     1     -15.883 -47.294  -2.610  1.00  0.00    -0.507 OA
ATOM     23  H   UNL     1     -15.313 -47.619  -1.845  1.00  0.00     0.293 HD
ENDBRANCH   6  22
BRANCH   8  24
ATOM     24  O   UNL     1     -18.889 -43.879  -1.130  1.00  0.00    -0.508 OA
ATOM     25  H   UNL     1     -18.700 -43.763  -0.142  1.00  0.00     0.293 HD
ENDBRANCH   8  24
TORSDOF 5
ENDMDL
MODEL 9
REMARK VINA RESULT:    -6.669      1.603      6.580
REMARK INTER + INTRA:          -8.084
REMARK INTER:                  -8.140
REMARK INTRA:                   0.056
REMARK UNBOUND:                -0.245
REMARK SMILES O=c1c(O)c(-c2ccc(O)cc2)oc2cc(O)cc(O)c12
REMARK SMILES IDX 5 1 3 2 2 3 1 4 21 5 19 6 18 7 16 8 15 9 14 10 13 11 6 12
REMARK SMILES IDX 7 13 8 14 9 15 12 16 11 17 10 18 4 20 20 22 17 24
REMARK H PARENT 10 19 4 21 20 23 17 25
REMARK Flexibility Score: inf
ROOT
ATOM      1  C   UNL     1     -17.148 -44.908  -0.945  1.00  0.00     0.180 A 
ATOM      2  C   UNL     1     -17.580 -43.999  -1.926  1.00  0.00     0.208 A 
ATOM      3  C   UNL     1     -17.135 -44.159  -3.247  1.00  0.00     0.238 A 
ATOM      4  O   UNL     1     -17.466 -43.298  -4.104  1.00  0.00    -0.285 OA
ATOM      5  C   UNL     1     -16.308 -45.257  -3.584  1.00  0.00     0.111 A 
ATOM      6  C   UNL     1     -15.833 -45.544  -4.900  1.00  0.00     0.134 A 
ATOM      7  C   UNL     1     -14.934 -46.599  -5.096  1.00  0.00     0.093 A 
ATOM      8  C   UNL     1     -14.541 -47.416  -4.037  1.00  0.00     0.123 A 
ATOM      9  C   UNL     1     -15.041 -47.181  -2.757  1.00  0.00     0.094 A 
ATOM     10  C   UNL     1     -15.911 -46.113  -2.523  1.00  0.00     0.146 A 
ATOM     11  O   UNL     1     -16.346 -45.910  -1.285  1.00  0.00    -0.452 OA
ENDROOT
BRANCH   1  12
ATOM     12  C   UNL     1     -17.563 -44.796   0.471  1.00  0.00     0.021 A 
ATOM     13  C   UNL     1     -18.912 -44.619   0.829  1.00  0.00     0.016 A 
ATOM     14  C   UNL     1     -19.275 -44.491   2.173  1.00  0.00     0.047 A 
ATOM     15  C   UNL     1     -18.296 -44.524   3.175  1.00  0.00     0.115 A 
ATOM     16  C   UNL     1     -16.586 -44.806   1.481  1.00  0.00     0.016 A 
ATOM     17  C   UNL     1     -16.952 -44.679   2.824  1.00  0.00     0.047 A 
BRANCH  15  18
ATOM     18  O   UNL     1     -18.648 -44.398   4.517  1.00  0.00    -0.508 OA
ATOM     19  H   UNL     1     -19.559 -44.685   4.855  1.00  0.00     0.293 HD
ENDBRANCH  15  18
ENDBRANCH   1  12
BRANCH   2  20
ATOM     20  O   UNL     1     -18.460 -42.965  -1.588  1.00  0.00    -0.502 OA
ATOM     21  H   UNL     1     -19.313 -42.786  -2.104  1.00  0.00     0.293 HD
ENDBRANCH   2  20
BRANCH   6  22
ATOM     22  O   UNL     1     -16.230 -44.845  -6.045  1.00  0.00    -0.507 OA
ATOM     23  H   UNL     1     -17.131 -44.411  -6.174  1.00  0.00     0.293 HD
ENDBRANCH   6  22
BRANCH   8  24
ATOM     24  O   UNL     1     -13.658 -48.468  -4.272  1.00  0.00    -0.508 OA
ATOM     25  H   UNL     1     -13.462 -49.164  -3.562  1.00  0.00     0.293 HD
ENDBRANCH   8  24
TORSDOF 5
ENDMDL
