MODEL 1
REMARK VINA RESULT:    -3.199      0.000      0.000
REMARK INTER + INTRA:          -9.435
REMARK INTER:                  -8.061
REMARK INTRA:                  -1.374
REMARK UNBOUND:                -1.374
REMARK SMILES CCCCCCCCCCCCCCCCCCCCCCCCCCCC(=O)[O-]
REMARK SMILES IDX 15 1 16 2 17 3 18 4 19 5 20 6 21 7 22 8 23 9 24 10 25 11
REMARK SMILES IDX 26 12 27 13 28 14 29 15 30 16 14 17 13 18 12 19 11 20 10 21
REMARK SMILES IDX 9 22 8 23 7 24 6 25 5 26 4 27 3 28 2 29 1 30
REMARK H PARENT
REMARK Flexibility Score: inf
ROOT
ATOM      1  C   UNL     1      17.663 -10.171  12.591  1.00  0.00     0.000 C 
ENDROOT
BRANCH   1   2
ATOM      2  C   UNL     1      16.130 -10.302  12.590  1.00  0.00     0.000 C 
BRANCH   2   3
ATOM      3  C   UNL     1      15.654 -11.603  11.924  1.00  0.00     0.000 C 
BRANCH   3   4
ATOM      4  C   UNL     1      15.809 -12.825  12.844  1.00  0.00     0.000 C 
BRANCH   4   5
ATOM      5  C   UNL     1      14.618 -13.796  12.748  1.00  0.00     0.000 C 
BRANCH   5   6
ATOM      6  C   UNL     1      13.320 -13.188  12.176  1.00  0.00     0.000 C 
BRANCH   6   7
ATOM      7  C   UNL     1      12.531 -12.284  13.141  1.00  0.00     0.000 C 
BRANCH   7   8
ATOM      8  C   UNL     1      11.493 -11.402  12.426  1.00  0.00     0.000 C 
BRANCH   8   9
ATOM      9  C   UNL     1      10.273 -12.202  11.931  1.00  0.00     0.000 C 
BRANCH   9  10
ATOM     10  C   UNL     1       9.248 -12.572  13.018  1.00  0.00     0.000 C 
BRANCH  10  11
ATOM     11  C   UNL     1       7.774 -12.462  12.583  1.00  0.00     0.000 C 
BRANCH  11  12
ATOM     12  C   UNL     1       7.055 -13.824  12.486  1.00  0.00     0.006 C 
BRANCH  12  13
ATOM     13  C   UNL     1       6.117 -14.078  13.673  1.00  0.00     0.053 C 
BRANCH  13  14
ATOM     14  C   UNL     1       4.959 -14.928  13.256  1.00  0.00     0.041 C 
ATOM     15  O   UNL     1       3.826 -14.757  13.780  1.00  0.00    -0.550 OA
ATOM     16  O   UNL     1       5.142 -15.947  12.328  1.00  0.00    -0.550 OA
ENDBRANCH  13  14
ENDBRANCH  12  13
ENDBRANCH  11  12
ENDBRANCH  10  11
ENDBRANCH   9  10
ENDBRANCH   8   9
ENDBRANCH   7   8
ENDBRANCH   6   7
ENDBRANCH   5   6
ENDBRANCH   4   5
ENDBRANCH   3   4
ENDBRANCH   2   3
ENDBRANCH   1   2
BRANCH   1  17
ATOM     17  C   UNL     1      18.176  -9.236  13.699  1.00  0.00     0.000 C 
BRANCH  17  18
ATOM     18  C   UNL     1      18.546  -7.842  13.172  1.00  0.00     0.000 C 
BRANCH  18  19
ATOM     19  C   UNL     1      17.521  -6.796  13.630  1.00  0.00     0.000 C 
BRANCH  19  20
ATOM     20  C   UNL     1      16.213  -6.922  12.834  1.00  0.00     0.000 C 
BRANCH  20  21
ATOM     21  C   UNL     1      15.820  -5.615  12.122  1.00  0.00     0.000 C 
BRANCH  21  22
ATOM     22  C   UNL     1      14.306  -5.414  11.905  1.00  0.00    -0.000 C 
BRANCH  22  23
ATOM     23  C   UNL     1      13.752  -4.049  12.355  1.00  0.00    -0.000 C 
BRANCH  23  24
ATOM     24  C   UNL     1      12.981  -4.124  13.683  1.00  0.00    -0.000 C 
BRANCH  24  25
ATOM     25  C   UNL     1      13.688  -4.994  14.739  1.00  0.00    -0.000 C 
BRANCH  25  26
ATOM     26  C   UNL     1      13.829  -4.350  16.131  1.00  0.00    -0.000 C 
BRANCH  26  27
ATOM     27  C   UNL     1      14.900  -5.027  17.001  1.00  0.00    -0.000 C 
BRANCH  27  28
ATOM     28  C   UNL     1      15.035  -4.315  18.354  1.00  0.00    -0.000 C 
BRANCH  28  29
ATOM     29  C   UNL     1      16.301  -4.733  19.117  1.00  0.00    -0.003 C 
ATOM     30  C   UNL     1      16.906  -6.032  18.590  1.00  0.00     0.004 C 
ENDBRANCH  28  29
ENDBRANCH  27  28
ENDBRANCH  26  27
ENDBRANCH  25  26
ENDBRANCH  24  25
ENDBRANCH  23  24
ENDBRANCH  22  23
ENDBRANCH  21  22
ENDBRANCH  20  21
ENDBRANCH  19  20
ENDBRANCH  18  19
ENDBRANCH  17  18
ENDBRANCH   1  17
TORSDOF 26
ENDMDL
MODEL 2
REMARK VINA RESULT:    -2.236      2.636      5.388
REMARK INTER + INTRA:          -7.008
REMARK INTER:                  -5.451
REMARK INTRA:                  -1.557
REMARK UNBOUND:                -1.374
REMARK SMILES CCCCCCCCCCCCCCCCCCCCCCCCCCCC(=O)[O-]
REMARK SMILES IDX 15 1 16 2 17 3 18 4 19 5 20 6 21 7 22 8 23 9 24 10 25 11
REMARK SMILES IDX 26 12 27 13 28 14 29 15 30 16 14 17 13 18 12 19 11 20 10 21
REMARK SMILES IDX 9 22 8 23 7 24 6 25 5 26 4 27 3 28 2 29 1 30
REMARK H PARENT
REMARK Flexibility Score: inf
ROOT
ATOM      1  C   UNL     1      12.743 -11.249  12.898  1.00  0.00     0.000 C 
ENDROOT
BRANCH   1   2
ATOM      2  C   UNL     1      11.598 -11.360  11.875  1.00  0.00     0.000 C 
BRANCH   2   3
ATOM      3  C   UNL     1      10.668 -12.550  12.164  1.00  0.00     0.000 C 
BRANCH   3   4
ATOM      4  C   UNL     1       9.185 -12.145  12.175  1.00  0.00     0.000 C 
BRANCH   4   5
ATOM      5  C   UNL     1       8.461 -12.574  13.465  1.00  0.00     0.000 C 
BRANCH   5   6
ATOM      6  C   UNL     1       6.925 -12.667  13.355  1.00  0.00     0.000 C 
BRANCH   6   7
ATOM      7  C   UNL     1       6.304 -13.983  13.858  1.00  0.00     0.000 C 
BRANCH   7   8
ATOM      8  C   UNL     1       6.117 -15.025  12.741  1.00  0.00     0.000 C 
BRANCH   8   9
ATOM      9  C   UNL     1       4.683 -15.587  12.686  1.00  0.00     0.000 C 
BRANCH   9  10
ATOM     10  C   UNL     1       4.551 -17.080  13.037  1.00  0.00     0.000 C 
BRANCH  10  11
ATOM     11  C   UNL     1       5.007 -18.049  11.928  1.00  0.00     0.000 C 
BRANCH  11  12
ATOM     12  C   UNL     1       6.357 -18.734  12.224  1.00  0.00     0.006 C 
BRANCH  12  13
ATOM     13  C   UNL     1       6.249 -20.264  12.232  1.00  0.00     0.053 C 
BRANCH  13  14
ATOM     14  C   UNL     1       7.272 -20.859  13.146  1.00  0.00     0.041 C 
ATOM     15  O   UNL     1       6.967 -21.827  13.893  1.00  0.00    -0.550 OA
ATOM     16  O   UNL     1       8.547 -20.311  13.215  1.00  0.00    -0.550 OA
ENDBRANCH  13  14
ENDBRANCH  12  13
ENDBRANCH  11  12
ENDBRANCH  10  11
ENDBRANCH   9  10
ENDBRANCH   8   9
ENDBRANCH   7   8
ENDBRANCH   6   7
ENDBRANCH   5   6
ENDBRANCH   4   5
ENDBRANCH   3   4
ENDBRANCH   2   3
ENDBRANCH   1   2
BRANCH   1  17
ATOM     17  C   UNL     1      13.543 -12.555  13.034  1.00  0.00     0.000 C 
BRANCH  17  18
ATOM     18  C   UNL     1      14.857 -12.530  12.239  1.00  0.00     0.000 C 
BRANCH  18  19
ATOM     19  C   UNL     1      15.251 -11.091  11.882  1.00  0.00     0.000 C 
BRANCH  19  20
ATOM     20  C   UNL     1      16.582 -10.704  12.542  1.00  0.00     0.000 C 
BRANCH  20  21
ATOM     21  C   UNL     1      17.017  -9.265  12.209  1.00  0.00     0.000 C 
BRANCH  21  22
ATOM     22  C   UNL     1      17.861  -8.565  13.295  1.00  0.00    -0.000 C 
BRANCH  22  23
ATOM     23  C   UNL     1      18.580  -7.281  12.843  1.00  0.00    -0.000 C 
BRANCH  23  24
ATOM     24  C   UNL     1      17.669  -6.332  12.048  1.00  0.00    -0.000 C 
BRANCH  24  25
ATOM     25  C   UNL     1      16.716  -5.521  12.948  1.00  0.00    -0.000 C 
BRANCH  25  26
ATOM     26  C   UNL     1      15.420  -6.248  13.352  1.00  0.00    -0.000 C 
BRANCH  26  27
ATOM     27  C   UNL     1      15.252  -6.375  14.874  1.00  0.00    -0.000 C 
BRANCH  27  28
ATOM     28  C   UNL     1      16.541  -5.970  15.602  1.00  0.00    -0.000 C 
BRANCH  28  29
ATOM     29  C   UNL     1      16.269  -5.345  16.979  1.00  0.00    -0.003 C 
ATOM     30  C   UNL     1      16.571  -6.301  18.131  1.00  0.00     0.004 C 
ENDBRANCH  28  29
ENDBRANCH  27  28
ENDBRANCH  26  27
ENDBRANCH  25  26
ENDBRANCH  24  25
ENDBRANCH  23  24
ENDBRANCH  22  23
ENDBRANCH  21  22
ENDBRANCH  20  21
ENDBRANCH  19  20
ENDBRANCH  18  19
ENDBRANCH  17  18
ENDBRANCH   1  17
TORSDOF 26
ENDMDL
MODEL 3
REMARK VINA RESULT:    -2.006      5.067     12.248
REMARK INTER + INTRA:          -6.430
REMARK INTER:                  -4.870
REMARK INTRA:                  -1.560
REMARK UNBOUND:                -1.374
REMARK SMILES CCCCCCCCCCCCCCCCCCCCCCCCCCCC(=O)[O-]
REMARK SMILES IDX 15 1 16 2 17 3 18 4 19 5 20 6 21 7 22 8 23 9 24 10 25 11
REMARK SMILES IDX 26 12 27 13 28 14 29 15 30 16 14 17 13 18 12 19 11 20 10 21
REMARK SMILES IDX 9 22 8 23 7 24 6 25 5 26 4 27 3 28 2 29 1 30
REMARK H PARENT
REMARK Flexibility Score: inf
ROOT
ATOM      1  C   UNL     1      12.648 -13.065  13.051  1.00  0.00     0.000 C 
ENDROOT
BRANCH   1   2
ATOM      2  C   UNL     1      13.990 -13.663  12.591  1.00  0.00     0.000 C 
BRANCH   2   3
ATOM      3  C   UNL     1      15.155 -12.672  12.743  1.00  0.00     0.000 C 
BRANCH   3   4
ATOM      4  C   UNL     1      14.931 -11.376  11.946  1.00  0.00     0.000 C 
BRANCH   4   5
ATOM      5  C   UNL     1      14.577 -10.178  12.846  1.00  0.00     0.000 C 
BRANCH   5   6
ATOM      6  C   UNL     1      14.479  -8.820  12.121  1.00  0.00     0.000 C 
BRANCH   6   7
ATOM      7  C   UNL     1      14.527  -7.579  13.032  1.00  0.00     0.000 C 
BRANCH   7   8
ATOM      8  C   UNL     1      15.016  -6.316  12.301  1.00  0.00     0.000 C 
BRANCH   8   9
ATOM      9  C   UNL     1      16.552  -6.200  12.276  1.00  0.00     0.000 C 
BRANCH   9  10
ATOM     10  C   UNL     1      17.272  -6.764  13.516  1.00  0.00     0.000 C 
BRANCH  10  11
ATOM     11  C   UNL     1      17.316  -5.812  14.727  1.00  0.00     0.000 C 
BRANCH  11  12
ATOM     12  C   UNL     1      17.072  -6.519  16.077  1.00  0.00     0.006 C 
BRANCH  12  13
ATOM     13  C   UNL     1      15.840  -5.973  16.810  1.00  0.00     0.053 C 
BRANCH  13  14
ATOM     14  C   UNL     1      16.243  -5.284  18.075  1.00  0.00     0.041 C 
ATOM     15  O   UNL     1      15.515  -4.377  18.561  1.00  0.00    -0.550 OA
ATOM     16  O   UNL     1      17.449  -5.603  18.688  1.00  0.00    -0.550 OA
ENDBRANCH  13  14
ENDBRANCH  12  13
ENDBRANCH  11  12
ENDBRANCH  10  11
ENDBRANCH   9  10
ENDBRANCH   8   9
ENDBRANCH   7   8
ENDBRANCH   6   7
ENDBRANCH   5   6
ENDBRANCH   4   5
ENDBRANCH   3   4
ENDBRANCH   2   3
ENDBRANCH   1   2
BRANCH   1  17
ATOM     17  C   UNL     1      11.581 -13.087  11.944  1.00  0.00     0.000 C 
BRANCH  17  18
ATOM     18  C   UNL     1      10.773 -11.783  11.876  1.00  0.00     0.000 C 
BRANCH  18  19
ATOM     19  C   UNL     1       9.475 -11.902  12.684  1.00  0.00     0.000 C 
BRANCH  19  20
ATOM     20  C   UNL     1       8.410 -12.689  11.905  1.00  0.00     0.000 C 
BRANCH  20  21
ATOM     21  C   UNL     1       7.282 -13.220  12.807  1.00  0.00     0.000 C 
BRANCH  21  22
ATOM     22  C   UNL     1       6.054 -13.784  12.061  1.00  0.00    -0.000 C 
BRANCH  22  23
ATOM     23  C   UNL     1       5.340 -14.956  12.760  1.00  0.00    -0.000 C 
BRANCH  23  24
ATOM     24  C   UNL     1       5.272 -16.221  11.888  1.00  0.00    -0.000 C 
BRANCH  24  25
ATOM     25  C   UNL     1       4.735 -17.446  12.651  1.00  0.00    -0.000 C 
BRANCH  25  26
ATOM     26  C   UNL     1       5.329 -18.800  12.219  1.00  0.00    -0.000 C 
BRANCH  26  27
ATOM     27  C   UNL     1       6.847 -18.745  11.992  1.00  0.00    -0.000 C 
BRANCH  27  28
ATOM     28  C   UNL     1       7.579 -19.687  12.958  1.00  0.00    -0.000 C 
BRANCH  28  29
ATOM     29  C   UNL     1       7.129 -21.148  12.812  1.00  0.00    -0.003 C 
ATOM     30  C   UNL     1       7.453 -21.991  14.045  1.00  0.00     0.004 C 
ENDBRANCH  28  29
ENDBRANCH  27  28
ENDBRANCH  26  27
ENDBRANCH  25  26
ENDBRANCH  24  25
ENDBRANCH  23  24
ENDBRANCH  22  23
ENDBRANCH  21  22
ENDBRANCH  20  21
ENDBRANCH  19  20
ENDBRANCH  18  19
ENDBRANCH  17  18
ENDBRANCH   1  17
TORSDOF 26
ENDMDL
MODEL 4
REMARK VINA RESULT:    -1.793      4.384     12.098
REMARK INTER + INTRA:          -5.891
REMARK INTER:                  -5.174
REMARK INTRA:                  -0.717
REMARK UNBOUND:                -1.374
REMARK SMILES CCCCCCCCCCCCCCCCCCCCCCCCCCCC(=O)[O-]
REMARK SMILES IDX 15 1 16 2 17 3 18 4 19 5 20 6 21 7 22 8 23 9 24 10 25 11
REMARK SMILES IDX 26 12 27 13 28 14 29 15 30 16 14 17 13 18 12 19 11 20 10 21
REMARK SMILES IDX 9 22 8 23 7 24 6 25 5 26 4 27 3 28 2 29 1 30
REMARK H PARENT
REMARK Flexibility Score: inf
ROOT
ATOM      1  C   UNL     1      12.843 -12.948  13.065  1.00  0.00     0.000 C 
ENDROOT
BRANCH   1   2
ATOM      2  C   UNL     1      14.063 -13.844  12.786  1.00  0.00     0.000 C 
BRANCH   2   3
ATOM      3  C   UNL     1      15.148 -13.119  11.973  1.00  0.00     0.000 C 
BRANCH   3   4
ATOM      4  C   UNL     1      14.926 -11.598  11.924  1.00  0.00     0.000 C 
BRANCH   4   5
ATOM      5  C   UNL     1      16.233 -10.802  12.091  1.00  0.00     0.000 C 
BRANCH   5   6
ATOM      6  C   UNL     1      16.066  -9.385  12.680  1.00  0.00     0.000 C 
BRANCH   6   7
ATOM      7  C   UNL     1      17.334  -8.776  13.307  1.00  0.00     0.000 C 
BRANCH   7   8
ATOM      8  C   UNL     1      18.191  -7.996  12.295  1.00  0.00     0.000 C 
BRANCH   8   9
ATOM      9  C   UNL     1      18.734  -6.673  12.868  1.00  0.00     0.000 C 
BRANCH   9  10
ATOM     10  C   UNL     1      18.029  -5.401  12.363  1.00  0.00     0.000 C 
BRANCH  10  11
ATOM     11  C   UNL     1      16.712  -5.060  13.088  1.00  0.00     0.000 C 
BRANCH  11  12
ATOM     12  C   UNL     1      15.561  -4.682  12.133  1.00  0.00     0.006 C 
BRANCH  12  13
ATOM     13  C   UNL     1      14.447  -3.899  12.838  1.00  0.00     0.053 C 
BRANCH  13  14
ATOM     14  C   UNL     1      13.736  -4.769  13.825  1.00  0.00     0.041 C 
ATOM     15  O   UNL     1      12.490  -4.663  13.981  1.00  0.00    -0.550 OA
ATOM     16  O   UNL     1      14.456  -5.659  14.614  1.00  0.00    -0.550 OA
ENDBRANCH  13  14
ENDBRANCH  12  13
ENDBRANCH  11  12
ENDBRANCH  10  11
ENDBRANCH   9  10
ENDBRANCH   8   9
ENDBRANCH   7   8
ENDBRANCH   6   7
ENDBRANCH   5   6
ENDBRANCH   4   5
ENDBRANCH   3   4
ENDBRANCH   2   3
ENDBRANCH   1   2
BRANCH   1  17
ATOM     17  C   UNL     1      11.635 -13.303  12.183  1.00  0.00     0.000 C 
BRANCH  17  18
ATOM     18  C   UNL     1      10.707 -12.103  11.939  1.00  0.00     0.000 C 
BRANCH  18  19
ATOM     19  C   UNL     1       9.391 -12.265  12.710  1.00  0.00     0.000 C 
BRANCH  19  20
ATOM     20  C   UNL     1       8.377 -13.089  11.902  1.00  0.00     0.000 C 
BRANCH  20  21
ATOM     21  C   UNL     1       7.117 -13.444  12.713  1.00  0.00     0.000 C 
BRANCH  21  22
ATOM     22  C   UNL     1       5.837 -13.658  11.878  1.00  0.00    -0.000 C 
BRANCH  22  23
ATOM     23  C   UNL     1       4.756 -14.531  12.541  1.00  0.00    -0.000 C 
BRANCH  23  24
ATOM     24  C   UNL     1       4.693 -15.952  11.958  1.00  0.00    -0.000 C 
BRANCH  24  25
ATOM     25  C   UNL     1       5.530 -16.968  12.760  1.00  0.00    -0.000 C 
BRANCH  25  26
ATOM     26  C   UNL     1       6.026 -18.186  11.959  1.00  0.00    -0.000 C 
BRANCH  26  27
ATOM     27  C   UNL     1       5.482 -19.519  12.494  1.00  0.00    -0.000 C 
BRANCH  27  28
ATOM     28  C   UNL     1       6.472 -20.661  12.225  1.00  0.00    -0.000 C 
BRANCH  28  29
ATOM     29  C   UNL     1       7.349 -20.982  13.444  1.00  0.00    -0.003 C 
ATOM     30  C   UNL     1       6.923 -22.265  14.156  1.00  0.00     0.004 C 
ENDBRANCH  28  29
ENDBRANCH  27  28
ENDBRANCH  26  27
ENDBRANCH  25  26
ENDBRANCH  24  25
ENDBRANCH  23  24
ENDBRANCH  22  23
ENDBRANCH  21  22
ENDBRANCH  20  21
ENDBRANCH  19  20
ENDBRANCH  18  19
ENDBRANCH  17  18
ENDBRANCH   1  17
TORSDOF 26
ENDMDL
MODEL 5
REMARK VINA RESULT:    -1.136      4.567      9.643
REMARK INTER + INTRA:          -4.236
REMARK INTER:                  -3.334
REMARK INTRA:                  -0.902
REMARK UNBOUND:                -1.374
REMARK SMILES CCCCCCCCCCCCCCCCCCCCCCCCCCCC(=O)[O-]
REMARK SMILES IDX 15 1 16 2 17 3 18 4 19 5 20 6 21 7 22 8 23 9 24 10 25 11
REMARK SMILES IDX 26 12 27 13 28 14 29 15 30 16 14 17 13 18 12 19 11 20 10 21
REMARK SMILES IDX 9 22 8 23 7 24 6 25 5 26 4 27 3 28 2 29 1 30
REMARK H PARENT
REMARK Flexibility Score: inf
ROOT
ATOM      1  C   UNL     1      16.870  -8.628  14.523  1.00  0.00     0.000 C 
ENDROOT
BRANCH   1   2
ATOM      2  C   UNL     1      17.415  -7.239  14.901  1.00  0.00     0.000 C 
BRANCH   2   3
ATOM      3  C   UNL     1      18.189  -6.579  13.749  1.00  0.00     0.000 C 
BRANCH   3   4
ATOM      4  C   UNL     1      17.848  -7.199  12.383  1.00  0.00     0.000 C 
BRANCH   4   5
ATOM      5  C   UNL     1      16.436  -6.825  11.897  1.00  0.00     0.000 C 
BRANCH   5   6
ATOM      6  C   UNL     1      15.421  -7.987  11.875  1.00  0.00     0.000 C 
BRANCH   6   7
ATOM      7  C   UNL     1      14.018  -7.651  12.415  1.00  0.00     0.000 C 
BRANCH   7   8
ATOM      8  C   UNL     1      13.890  -6.191  12.887  1.00  0.00     0.000 C 
BRANCH   8   9
ATOM      9  C   UNL     1      13.125  -6.061  14.217  1.00  0.00     0.000 C 
BRANCH   9  10
ATOM     10  C   UNL     1      13.117  -4.649  14.833  1.00  0.00     0.000 C 
BRANCH  10  11
ATOM     11  C   UNL     1      14.404  -4.264  15.587  1.00  0.00     0.000 C 
BRANCH  11  12
ATOM     12  C   UNL     1      14.366  -4.609  17.091  1.00  0.00     0.006 C 
BRANCH  12  13
ATOM     13  C   UNL     1      15.393  -5.681  17.473  1.00  0.00     0.053 C 
BRANCH  13  14
ATOM     14  C   UNL     1      16.403  -5.125  18.427  1.00  0.00     0.041 C 
ATOM     15  O   UNL     1      16.153  -4.071  19.071  1.00  0.00    -0.550 OA
ATOM     16  O   UNL     1      17.643  -5.739  18.565  1.00  0.00    -0.550 OA
ENDBRANCH  13  14
ENDBRANCH  12  13
ENDBRANCH  11  12
ENDBRANCH  10  11
ENDBRANCH   9  10
ENDBRANCH   8   9
ENDBRANCH   7   8
ENDBRANCH   6   7
ENDBRANCH   5   6
ENDBRANCH   4   5
ENDBRANCH   3   4
ENDBRANCH   2   3
ENDBRANCH   1   2
BRANCH   1  17
ATOM     17  C   UNL     1      17.943  -9.532  13.894  1.00  0.00     0.000 C 
BRANCH  17  18
ATOM     18  C   UNL     1      17.522 -11.009  13.852  1.00  0.00     0.000 C 
BRANCH  18  19
ATOM     19  C   UNL     1      16.558 -11.268  12.687  1.00  0.00     0.000 C 
BRANCH  19  20
ATOM     20  C   UNL     1      16.273 -12.770  12.532  1.00  0.00     0.000 C 
BRANCH  20  21
ATOM     21  C   UNL     1      14.847 -13.057  12.027  1.00  0.00     0.000 C 
BRANCH  21  22
ATOM     22  C   UNL     1      13.713 -12.463  12.888  1.00  0.00    -0.000 C 
BRANCH  22  23
ATOM     23  C   UNL     1      13.439 -10.964  12.672  1.00  0.00    -0.000 C 
BRANCH  23  24
ATOM     24  C   UNL     1      11.944 -10.613  12.741  1.00  0.00    -0.000 C 
BRANCH  24  25
ATOM     25  C   UNL     1      11.069 -11.541  11.877  1.00  0.00    -0.000 C 
BRANCH  25  26
ATOM     26  C   UNL     1      10.131 -12.476  12.662  1.00  0.00    -0.000 C 
BRANCH  26  27
ATOM     27  C   UNL     1       8.670 -12.395  12.194  1.00  0.00    -0.000 C 
BRANCH  27  28
ATOM     28  C   UNL     1       7.719 -12.932  13.272  1.00  0.00    -0.000 C 
BRANCH  28  29
ATOM     29  C   UNL     1       6.500 -13.653  12.678  1.00  0.00    -0.003 C 
ATOM     30  C   UNL     1       5.747 -14.488  13.712  1.00  0.00     0.004 C 
ENDBRANCH  28  29
ENDBRANCH  27  28
ENDBRANCH  26  27
ENDBRANCH  25  26
ENDBRANCH  24  25
ENDBRANCH  23  24
ENDBRANCH  22  23
ENDBRANCH  21  22
ENDBRANCH  20  21
ENDBRANCH  19  20
ENDBRANCH  18  19
ENDBRANCH  17  18
ENDBRANCH   1  17
TORSDOF 26
ENDMDL
MODEL 6
REMARK VINA RESULT:    -1.062      5.222      9.830
REMARK INTER + INTRA:          -4.051
REMARK INTER:                  -1.293
REMARK INTRA:                  -2.758
REMARK UNBOUND:                -1.374
REMARK SMILES CCCCCCCCCCCCCCCCCCCCCCCCCCCC(=O)[O-]
REMARK SMILES IDX 15 1 16 2 17 3 18 4 19 5 20 6 21 7 22 8 23 9 24 10 25 11
REMARK SMILES IDX 26 12 27 13 28 14 29 15 30 16 14 17 13 18 12 19 11 20 10 21
REMARK SMILES IDX 9 22 8 23 7 24 6 25 5 26 4 27 3 28 2 29 1 30
REMARK H PARENT
REMARK Flexibility Score: inf
ROOT
ATOM      1  C   UNL     1      16.709  -7.392  16.085  1.00  0.00     0.000 C 
ENDROOT
BRANCH   1   2
ATOM      2  C   UNL     1      16.711  -7.063  17.589  1.00  0.00     0.000 C 
BRANCH   2   3
ATOM      3  C   UNL     1      17.152  -5.618  17.872  1.00  0.00     0.000 C 
BRANCH   3   4
ATOM      4  C   UNL     1      16.187  -4.582  17.272  1.00  0.00     0.000 C 
BRANCH   4   5
ATOM      5  C   UNL     1      14.818  -4.567  17.978  1.00  0.00     0.000 C 
BRANCH   5   6
ATOM      6  C   UNL     1      13.635  -4.099  17.104  1.00  0.00     0.000 C 
BRANCH   6   7
ATOM      7  C   UNL     1      13.897  -4.091  15.586  1.00  0.00     0.000 C 
BRANCH   7   8
ATOM      8  C   UNL     1      13.462  -5.395  14.894  1.00  0.00     0.000 C 
BRANCH   8   9
ATOM      9  C   UNL     1      14.550  -5.968  13.966  1.00  0.00     0.000 C 
BRANCH   9  10
ATOM     10  C   UNL     1      14.834  -5.138  12.700  1.00  0.00     0.000 C 
BRANCH  10  11
ATOM     11  C   UNL     1      16.157  -5.480  11.987  1.00  0.00     0.000 C 
BRANCH  11  12
ATOM     12  C   UNL     1      17.158  -4.306  11.945  1.00  0.00     0.006 C 
BRANCH  12  13
ATOM     13  C   UNL     1      18.300  -4.474  12.954  1.00  0.00     0.053 C 
BRANCH  13  14
ATOM     14  C   UNL     1      19.532  -4.982  12.276  1.00  0.00     0.041 C 
ATOM     15  O   UNL     1      20.484  -4.198  12.019  1.00  0.00    -0.550 OA
ATOM     16  O   UNL     1      19.608  -6.311  11.876  1.00  0.00    -0.550 OA
ENDBRANCH  13  14
ENDBRANCH  12  13
ENDBRANCH  11  12
ENDBRANCH  10  11
ENDBRANCH   9  10
ENDBRANCH   8   9
ENDBRANCH   7   8
ENDBRANCH   6   7
ENDBRANCH   5   6
ENDBRANCH   4   5
ENDBRANCH   3   4
ENDBRANCH   2   3
ENDBRANCH   1   2
BRANCH   1  17
ATOM     17  C   UNL     1      18.047  -7.980  15.607  1.00  0.00     0.000 C 
BRANCH  17  18
ATOM     18  C   UNL     1      18.244  -7.845  14.090  1.00  0.00     0.000 C 
BRANCH  18  19
ATOM     19  C   UNL     1      18.468  -9.217  13.444  1.00  0.00     0.000 C 
BRANCH  19  20
ATOM     20  C   UNL     1      17.661 -10.306  14.168  1.00  0.00     0.000 C 
BRANCH  20  21
ATOM     21  C   UNL     1      17.403 -11.542  13.287  1.00  0.00     0.000 C 
BRANCH  21  22
ATOM     22  C   UNL     1      16.819 -11.243  11.890  1.00  0.00    -0.000 C 
BRANCH  22  23
ATOM     23  C   UNL     1      15.355 -10.767  11.876  1.00  0.00    -0.000 C 
BRANCH  23  24
ATOM     24  C   UNL     1      15.162  -9.402  12.555  1.00  0.00    -0.000 C 
BRANCH  24  25
ATOM     25  C   UNL     1      13.679  -9.029  12.743  1.00  0.00    -0.000 C 
BRANCH  25  26
ATOM     26  C   UNL     1      12.671 -10.047  12.178  1.00  0.00    -0.000 C 
BRANCH  26  27
ATOM     27  C   UNL     1      11.771 -10.665  13.258  1.00  0.00    -0.000 C 
BRANCH  27  28
ATOM     28  C   UNL     1      12.119 -12.144  13.479  1.00  0.00    -0.000 C 
BRANCH  28  29
ATOM     29  C   UNL     1      12.881 -12.755  12.294  1.00  0.00    -0.003 C 
ATOM     30  C   UNL     1      13.989 -13.710  12.734  1.00  0.00     0.004 C 
ENDBRANCH  28  29
ENDBRANCH  27  28
ENDBRANCH  26  27
ENDBRANCH  25  26
ENDBRANCH  24  25
ENDBRANCH  23  24
ENDBRANCH  22  23
ENDBRANCH  21  22
ENDBRANCH  20  21
ENDBRANCH  19  20
ENDBRANCH  18  19
ENDBRANCH  17  18
ENDBRANCH   1  17
TORSDOF 26
ENDMDL
MODEL 7
REMARK VINA RESULT:    -0.527      4.999     11.234
REMARK INTER + INTRA:          -2.701
REMARK INTER:                  -2.728
REMARK INTRA:                   0.027
REMARK UNBOUND:                -1.374
REMARK SMILES CCCCCCCCCCCCCCCCCCCCCCCCCCCC(=O)[O-]
REMARK SMILES IDX 15 1 16 2 17 3 18 4 19 5 20 6 21 7 22 8 23 9 24 10 25 11
REMARK SMILES IDX 26 12 27 13 28 14 29 15 30 16 14 17 13 18 12 19 11 20 10 21
REMARK SMILES IDX 9 22 8 23 7 24 6 25 5 26 4 27 3 28 2 29 1 30
REMARK H PARENT
REMARK Flexibility Score: inf
ROOT
ATOM      1  C   UNL     1      13.950  -8.643  12.728  1.00  0.00     0.000 C 
ENDROOT
BRANCH   1   2
ATOM      2  C   UNL     1      14.338  -7.422  11.875  1.00  0.00     0.000 C 
BRANCH   2   3
ATOM      3  C   UNL     1      14.430  -6.132  12.706  1.00  0.00     0.000 C 
BRANCH   3   4
ATOM      4  C   UNL     1      13.414  -6.106  13.861  1.00  0.00     0.000 C 
BRANCH   4   5
ATOM      5  C   UNL     1      13.854  -5.190  15.018  1.00  0.00     0.000 C 
BRANCH   5   6
ATOM      6  C   UNL     1      14.589  -5.901  16.174  1.00  0.00     0.000 C 
BRANCH   6   7
ATOM      7  C   UNL     1      16.126  -5.808  16.136  1.00  0.00     0.000 C 
BRANCH   7   8
ATOM      8  C   UNL     1      16.756  -6.704  15.055  1.00  0.00     0.000 C 
BRANCH   8   9
ATOM      9  C   UNL     1      18.105  -7.305  15.492  1.00  0.00     0.000 C 
BRANCH   9  10
ATOM     10  C   UNL     1      18.827  -8.142  14.419  1.00  0.00     0.000 C 
BRANCH  10  11
ATOM     11  C   UNL     1      18.011  -8.393  13.137  1.00  0.00     0.000 C 
BRANCH  11  12
ATOM     12  C   UNL     1      18.557  -7.648  11.900  1.00  0.00     0.006 C 
BRANCH  12  13
ATOM     13  C   UNL     1      18.142  -6.172  11.875  1.00  0.00     0.053 C 
BRANCH  13  14
ATOM     14  C   UNL     1      19.291  -5.296  12.261  1.00  0.00     0.041 C 
ATOM     15  O   UNL     1      20.471  -5.639  11.983  1.00  0.00    -0.550 OA
ATOM     16  O   UNL     1      19.065  -4.125  12.976  1.00  0.00    -0.550 OA
ENDBRANCH  13  14
ENDBRANCH  12  13
ENDBRANCH  11  12
ENDBRANCH  10  11
ENDBRANCH   9  10
ENDBRANCH   8   9
ENDBRANCH   7   8
ENDBRANCH   6   7
ENDBRANCH   5   6
ENDBRANCH   4   5
ENDBRANCH   3   4
ENDBRANCH   2   3
ENDBRANCH   1   2
BRANCH   1  17
ATOM     17  C   UNL     1      15.156  -9.268  13.449  1.00  0.00     0.000 C 
BRANCH  17  18
ATOM     18  C   UNL     1      15.871 -10.326  12.597  1.00  0.00     0.000 C 
BRANCH  18  19
ATOM     19  C   UNL     1      14.858 -11.232  11.886  1.00  0.00     0.000 C 
BRANCH  19  20
ATOM     20  C   UNL     1      13.425 -10.922  12.346  1.00  0.00     0.000 C 
BRANCH  20  21
ATOM     21  C   UNL     1      12.690 -12.163  12.884  1.00  0.00     0.000 C 
BRANCH  21  22
ATOM     22  C   UNL     1      11.501 -12.645  12.027  1.00  0.00    -0.000 C 
BRANCH  22  23
ATOM     23  C   UNL     1      10.135 -12.035  12.392  1.00  0.00    -0.000 C 
BRANCH  23  24
ATOM     24  C   UNL     1       8.950 -12.870  11.881  1.00  0.00    -0.000 C 
BRANCH  24  25
ATOM     25  C   UNL     1       7.790 -12.947  12.892  1.00  0.00    -0.000 C 
BRANCH  25  26
ATOM     26  C   UNL     1       6.540 -13.699  12.399  1.00  0.00    -0.000 C 
BRANCH  26  27
ATOM     27  C   UNL     1       5.816 -14.462  13.519  1.00  0.00    -0.000 C 
BRANCH  27  28
ATOM     28  C   UNL     1       4.795 -15.449  12.937  1.00  0.00    -0.000 C 
BRANCH  28  29
ATOM     29  C   UNL     1       5.461 -16.627  12.211  1.00  0.00    -0.003 C 
ATOM     30  C   UNL     1       4.821 -17.971  12.555  1.00  0.00     0.004 C 
ENDBRANCH  28  29
ENDBRANCH  27  28
ENDBRANCH  26  27
ENDBRANCH  25  26
ENDBRANCH  24  25
ENDBRANCH  23  24
ENDBRANCH  22  23
ENDBRANCH  21  22
ENDBRANCH  20  21
ENDBRANCH  19  20
ENDBRANCH  18  19
ENDBRANCH  17  18
ENDBRANCH   1  17
TORSDOF 26
ENDMDL
MODEL 8
REMARK VINA RESULT:    -0.475      4.727     11.605
REMARK INTER + INTRA:          -2.571
REMARK INTER:                  -2.638
REMARK INTRA:                   0.067
REMARK UNBOUND:                -1.374
REMARK SMILES CCCCCCCCCCCCCCCCCCCCCCCCCCCC(=O)[O-]
REMARK SMILES IDX 15 1 16 2 17 3 18 4 19 5 20 6 21 7 22 8 23 9 24 10 25 11
REMARK SMILES IDX 26 12 27 13 28 14 29 15 30 16 14 17 13 18 12 19 11 20 10 21
REMARK SMILES IDX 9 22 8 23 7 24 6 25 5 26 4 27 3 28 2 29 1 30
REMARK H PARENT
REMARK Flexibility Score: inf
ROOT
ATOM      1  C   UNL     1      13.833 -11.272  13.204  1.00  0.00     0.000 C 
ENDROOT
BRANCH   1   2
ATOM      2  C   UNL     1      14.283 -12.724  12.960  1.00  0.00     0.000 C 
BRANCH   2   3
ATOM      3  C   UNL     1      15.797 -12.834  12.714  1.00  0.00     0.000 C 
BRANCH   3   4
ATOM      4  C   UNL     1      16.347 -11.651  11.901  1.00  0.00     0.000 C 
BRANCH   4   5
ATOM      5  C   UNL     1      16.709 -10.441  12.783  1.00  0.00     0.000 C 
BRANCH   5   6
ATOM      6  C   UNL     1      17.311  -9.237  12.029  1.00  0.00     0.000 C 
BRANCH   6   7
ATOM      7  C   UNL     1      16.811  -7.854  12.483  1.00  0.00     0.000 C 
BRANCH   7   8
ATOM      8  C   UNL     1      17.809  -7.125  13.400  1.00  0.00     0.000 C 
BRANCH   8   9
ATOM      9  C   UNL     1      17.139  -6.044  14.269  1.00  0.00     0.000 C 
BRANCH   9  10
ATOM     10  C   UNL     1      15.788  -6.447  14.890  1.00  0.00     0.000 C 
BRANCH  10  11
ATOM     11  C   UNL     1      14.686  -5.374  14.793  1.00  0.00     0.000 C 
BRANCH  11  12
ATOM     12  C   UNL     1      14.523  -4.538  16.079  1.00  0.00     0.006 C 
BRANCH  12  13
ATOM     13  C   UNL     1      14.617  -5.392  17.349  1.00  0.00     0.053 C 
BRANCH  13  14
ATOM     14  C   UNL     1      16.009  -5.373  17.895  1.00  0.00     0.041 C 
ATOM     15  O   UNL     1      16.767  -6.367  17.733  1.00  0.00    -0.550 OA
ATOM     16  O   UNL     1      16.454  -4.280  18.630  1.00  0.00    -0.550 OA
ENDBRANCH  13  14
ENDBRANCH  12  13
ENDBRANCH  11  12
ENDBRANCH  10  11
ENDBRANCH   9  10
ENDBRANCH   8   9
ENDBRANCH   7   8
ENDBRANCH   6   7
ENDBRANCH   5   6
ENDBRANCH   4   5
ENDBRANCH   3   4
ENDBRANCH   2   3
ENDBRANCH   1   2
BRANCH   1  17
ATOM     17  C   UNL     1      13.126 -10.660  11.984  1.00  0.00     0.000 C 
BRANCH  17  18
ATOM     18  C   UNL     1      11.643 -11.052  11.901  1.00  0.00     0.000 C 
BRANCH  18  19
ATOM     19  C   UNL     1      11.483 -12.577  11.876  1.00  0.00     0.000 C 
BRANCH  19  20
ATOM     20  C   UNL     1      10.056 -12.987  12.270  1.00  0.00     0.000 C 
BRANCH  20  21
ATOM     21  C   UNL     1       9.121 -11.780  12.469  1.00  0.00     0.000 C 
BRANCH  21  22
ATOM     22  C   UNL     1       7.661 -12.131  12.820  1.00  0.00    -0.000 C 
BRANCH  22  23
ATOM     23  C   UNL     1       7.006 -13.197  11.923  1.00  0.00    -0.000 C 
BRANCH  23  24
ATOM     24  C   UNL     1       6.249 -14.271  12.722  1.00  0.00    -0.000 C 
BRANCH  24  25
ATOM     25  C   UNL     1       5.203 -15.022  11.877  1.00  0.00    -0.000 C 
BRANCH  25  26
ATOM     26  C   UNL     1       4.702 -16.347  12.481  1.00  0.00    -0.000 C 
BRANCH  26  27
ATOM     27  C   UNL     1       5.808 -17.405  12.610  1.00  0.00    -0.000 C 
BRANCH  27  28
ATOM     28  C   UNL     1       5.297 -18.786  12.178  1.00  0.00    -0.000 C 
BRANCH  28  29
ATOM     29  C   UNL     1       6.392 -19.862  12.222  1.00  0.00    -0.003 C 
ATOM     30  C   UNL     1       5.831 -21.280  12.143  1.00  0.00     0.004 C 
ENDBRANCH  28  29
ENDBRANCH  27  28
ENDBRANCH  26  27
ENDBRANCH  25  26
ENDBRANCH  24  25
ENDBRANCH  23  24
ENDBRANCH  22  23
ENDBRANCH  21  22
ENDBRANCH  20  21
ENDBRANCH  19  20
ENDBRANCH  18  19
ENDBRANCH  17  18
ENDBRANCH   1  17
TORSDOF 26
ENDMDL
