MODEL 1
REMARK VINA RESULT:    -4.008      0.000      0.000
REMARK INTER + INTRA:          -8.213
REMARK INTER:                  -7.522
REMARK INTRA:                  -0.691
REMARK UNBOUND:                -0.691
REMARK SMILES CCCCCCCCC=CCCCCCCCC(=O)[O-]
REMARK SMILES IDX 10 1 9 2 11 3 12 4 13 5 14 6 15 7 16 8 17 9 18 10 19 11
REMARK SMILES IDX 20 12 8 13 7 14 6 15 5 16 4 17 3 18 2 19 1 20
REMARK H PARENT
REMARK Flexibility Score: inf
ROOT
ATOM      1  C   UNL     1     100.746  51.913  45.920  1.00  0.00    -0.031 C 
ATOM      2  C   UNL     1      99.634  51.345  45.430  1.00  0.00    -0.031 C 
ENDROOT
BRANCH   1   3
ATOM      3  C   UNL     1     101.305  51.518  47.259  1.00  0.00     0.027 C 
BRANCH   3   4
ATOM      4  C   UNL     1     100.948  52.557  48.333  1.00  0.00     0.004 C 
BRANCH   4   5
ATOM      5  C   UNL     1     101.711  53.880  48.155  1.00  0.00     0.000 C 
BRANCH   5   6
ATOM      6  C   UNL     1     101.905  54.632  49.481  1.00  0.00     0.000 C 
BRANCH   6   7
ATOM      7  C   UNL     1     100.924  54.178  50.578  1.00  0.00     0.000 C 
BRANCH   7   8
ATOM      8  C   UNL     1     101.110  54.861  51.945  1.00  0.00     0.006 C 
BRANCH   8   9
ATOM      9  C   UNL     1     100.921  53.898  53.125  1.00  0.00     0.053 C 
BRANCH   9  10
ATOM     10  C   UNL     1      99.594  53.212  53.031  1.00  0.00     0.041 C 
ATOM     11  O   UNL     1      98.530  53.883  53.076  1.00  0.00    -0.550 OA
ATOM     12  O   UNL     1      99.534  51.837  52.846  1.00  0.00    -0.550 OA
ENDBRANCH   9  10
ENDBRANCH   8   9
ENDBRANCH   7   8
ENDBRANCH   6   7
ENDBRANCH   5   6
ENDBRANCH   4   5
ENDBRANCH   3   4
ENDBRANCH   1   3
BRANCH   2  13
ATOM     13  C   UNL     1      99.067  51.747  44.095  1.00  0.00     0.027 C 
BRANCH  13  14
ATOM     14  C   UNL     1      99.025  50.576  43.096  1.00  0.00     0.004 C 
BRANCH  14  15
ATOM     15  C   UNL     1      99.273  50.985  41.631  1.00  0.00     0.000 C 
BRANCH  15  16
ATOM     16  C   UNL     1      98.144  50.605  40.655  1.00  0.00     0.000 C 
BRANCH  16  17
ATOM     17  C   UNL     1      98.544  50.725  39.168  1.00  0.00    -0.000 C 
BRANCH  17  18
ATOM     18  C   UNL     1      97.334  51.001  38.260  1.00  0.00    -0.000 C 
BRANCH  18  19
ATOM     19  C   UNL     1      96.213  51.761  38.986  1.00  0.00    -0.003 C 
ATOM     20  C   UNL     1      94.839  51.119  38.791  1.00  0.00     0.004 C 
ENDBRANCH  18  19
ENDBRANCH  17  18
ENDBRANCH  16  17
ENDBRANCH  15  16
ENDBRANCH  14  15
ENDBRANCH  13  14
ENDBRANCH   2  13
TORSDOF 15
ENDMDL
MODEL 2
REMARK VINA RESULT:    -3.992      4.713     10.901
REMARK INTER + INTRA:          -8.183
REMARK INTER:                  -7.555
REMARK INTRA:                  -0.628
REMARK UNBOUND:                -0.691
REMARK SMILES CCCCCCCCC=CCCCCCCCC(=O)[O-]
REMARK SMILES IDX 10 1 9 2 11 3 12 4 13 5 14 6 15 7 16 8 17 9 18 10 19 11
REMARK SMILES IDX 20 12 8 13 7 14 6 15 5 16 4 17 3 18 2 19 1 20
REMARK H PARENT
REMARK Flexibility Score: inf
ROOT
ATOM      1  C   UNL     1     101.303  52.487  48.299  1.00  0.00    -0.031 C 
ATOM      2  C   UNL     1     101.852  53.695  48.102  1.00  0.00    -0.031 C 
ENDROOT
BRANCH   1   3
ATOM      3  C   UNL     1     101.168  51.493  47.180  1.00  0.00     0.027 C 
BRANCH   3   4
ATOM      4  C   UNL     1     100.528  52.142  45.942  1.00  0.00     0.004 C 
BRANCH   4   5
ATOM      5  C   UNL     1      99.466  51.244  45.286  1.00  0.00     0.000 C 
BRANCH   5   6
ATOM      6  C   UNL     1      99.050  51.745  43.892  1.00  0.00     0.000 C 
BRANCH   6   7
ATOM      7  C   UNL     1      98.869  50.604  42.874  1.00  0.00     0.000 C 
BRANCH   7   8
ATOM      8  C   UNL     1      99.238  50.958  41.422  1.00  0.00     0.006 C 
BRANCH   8   9
ATOM      9  C   UNL     1      98.116  50.639  40.425  1.00  0.00     0.053 C 
BRANCH   9  10
ATOM     10  C   UNL     1      98.641  50.667  39.023  1.00  0.00     0.041 C 
ATOM     11  O   UNL     1      99.812  51.069  38.793  1.00  0.00    -0.550 OA
ATOM     12  O   UNL     1      97.853  50.204  37.977  1.00  0.00    -0.550 OA
ENDBRANCH   9  10
ENDBRANCH   8   9
ENDBRANCH   7   8
ENDBRANCH   6   7
ENDBRANCH   5   6
ENDBRANCH   4   5
ENDBRANCH   3   4
ENDBRANCH   1   3
BRANCH   2  13
ATOM     13  C   UNL     1     101.978  54.696  49.219  1.00  0.00     0.027 C 
BRANCH  13  14
ATOM     14  C   UNL     1     100.932  54.478  50.327  1.00  0.00     0.004 C 
BRANCH  14  15
ATOM     15  C   UNL     1     101.334  55.054  51.699  1.00  0.00     0.000 C 
BRANCH  15  16
ATOM     16  C   UNL     1     101.160  54.084  52.883  1.00  0.00     0.000 C 
BRANCH  16  17
ATOM     17  C   UNL     1      99.715  53.566  53.053  1.00  0.00    -0.000 C 
BRANCH  17  18
ATOM     18  C   UNL     1      99.556  52.115  52.568  1.00  0.00    -0.000 C 
BRANCH  18  19
ATOM     19  C   UNL     1      98.264  51.460  53.082  1.00  0.00    -0.003 C 
ATOM     20  C   UNL     1      98.422  49.961  53.339  1.00  0.00     0.004 C 
ENDBRANCH  18  19
ENDBRANCH  17  18
ENDBRANCH  16  17
ENDBRANCH  15  16
ENDBRANCH  14  15
ENDBRANCH  13  14
ENDBRANCH   2  13
TORSDOF 15
ENDMDL
MODEL 3
REMARK VINA RESULT:    -3.816      4.838     11.315
REMARK INTER + INTRA:          -7.854
REMARK INTER:                  -7.239
REMARK INTRA:                  -0.615
REMARK UNBOUND:                -0.691
REMARK SMILES CCCCCCCCC=CCCCCCCCC(=O)[O-]
REMARK SMILES IDX 10 1 9 2 11 3 12 4 13 5 14 6 15 7 16 8 17 9 18 10 19 11
REMARK SMILES IDX 20 12 8 13 7 14 6 15 5 16 4 17 3 18 2 19 1 20
REMARK H PARENT
REMARK Flexibility Score: inf
ROOT
ATOM      1  C   UNL     1      99.767  51.273  45.296  1.00  0.00    -0.031 C 
ATOM      2  C   UNL     1     100.534  52.127  45.990  1.00  0.00    -0.031 C 
ENDROOT
BRANCH   1   3
ATOM      3  C   UNL     1      99.041  51.702  44.051  1.00  0.00     0.027 C 
BRANCH   3   4
ATOM      4  C   UNL     1      99.121  50.616  42.967  1.00  0.00     0.004 C 
BRANCH   4   5
ATOM      5  C   UNL     1      98.378  51.009  41.679  1.00  0.00     0.000 C 
BRANCH   5   6
ATOM      6  C   UNL     1      99.205  50.732  40.413  1.00  0.00     0.000 C 
BRANCH   6   7
ATOM      7  C   UNL     1      98.353  50.724  39.130  1.00  0.00     0.000 C 
BRANCH   7   8
ATOM      8  C   UNL     1      96.962  51.369  39.265  1.00  0.00     0.006 C 
BRANCH   8   9
ATOM      9  C   UNL     1      96.014  50.991  38.120  1.00  0.00     0.053 C 
BRANCH   9  10
ATOM     10  C   UNL     1      94.605  50.899  38.618  1.00  0.00     0.041 C 
ATOM     11  O   UNL     1      94.125  51.817  39.334  1.00  0.00    -0.550 OA
ATOM     12  O   UNL     1      93.806  49.824  38.251  1.00  0.00    -0.550 OA
ENDBRANCH   9  10
ENDBRANCH   8   9
ENDBRANCH   7   8
ENDBRANCH   6   7
ENDBRANCH   5   6
ENDBRANCH   4   5
ENDBRANCH   3   4
ENDBRANCH   1   3
BRANCH   2  13
ATOM     13  C   UNL     1     101.253  51.702  47.242  1.00  0.00     0.027 C 
BRANCH  13  14
ATOM     14  C   UNL     1     100.941  52.619  48.440  1.00  0.00     0.004 C 
BRANCH  14  15
ATOM     15  C   UNL     1     101.710  53.954  48.431  1.00  0.00     0.000 C 
BRANCH  15  16
ATOM     16  C   UNL     1     101.718  54.703  49.777  1.00  0.00     0.000 C 
BRANCH  16  17
ATOM     17  C   UNL     1     100.700  54.152  50.799  1.00  0.00    -0.000 C 
BRANCH  17  18
ATOM     18  C   UNL     1     101.150  54.384  52.252  1.00  0.00    -0.000 C 
BRANCH  18  19
ATOM     19  C   UNL     1     100.207  53.729  53.273  1.00  0.00    -0.003 C 
ATOM     20  C   UNL     1      99.609  52.416  52.770  1.00  0.00     0.004 C 
ENDBRANCH  18  19
ENDBRANCH  17  18
ENDBRANCH  16  17
ENDBRANCH  15  16
ENDBRANCH  14  15
ENDBRANCH  13  14
ENDBRANCH   2  13
TORSDOF 15
ENDMDL
MODEL 4
REMARK VINA RESULT:    -3.749      0.935      1.330
REMARK INTER + INTRA:          -7.728
REMARK INTER:                  -7.112
REMARK INTRA:                  -0.617
REMARK UNBOUND:                -0.691
REMARK SMILES CCCCCCCCC=CCCCCCCCC(=O)[O-]
REMARK SMILES IDX 10 1 9 2 11 3 12 4 13 5 14 6 15 7 16 8 17 9 18 10 19 11
REMARK SMILES IDX 20 12 8 13 7 14 6 15 5 16 4 17 3 18 2 19 1 20
REMARK H PARENT
REMARK Flexibility Score: inf
ROOT
ATOM      1  C   UNL     1     100.585  52.108  45.902  1.00  0.00    -0.031 C 
ATOM      2  C   UNL     1      99.613  51.386  45.325  1.00  0.00    -0.031 C 
ENDROOT
BRANCH   1   3
ATOM      3  C   UNL     1     101.162  51.724  47.236  1.00  0.00     0.027 C 
BRANCH   3   4
ATOM      4  C   UNL     1     101.623  52.966  48.015  1.00  0.00     0.004 C 
BRANCH   4   5
ATOM      5  C   UNL     1     100.697  53.303  49.194  1.00  0.00     0.000 C 
BRANCH   5   6
ATOM      6  C   UNL     1     101.295  54.368  50.129  1.00  0.00     0.000 C 
BRANCH   6   7
ATOM      7  C   UNL     1     100.957  54.123  51.611  1.00  0.00     0.000 C 
BRANCH   7   8
ATOM      8  C   UNL     1      99.650  53.350  51.865  1.00  0.00     0.006 C 
BRANCH   8   9
ATOM      9  C   UNL     1      99.667  52.562  53.181  1.00  0.00     0.053 C 
BRANCH   9  10
ATOM     10  C   UNL     1      98.583  51.530  53.184  1.00  0.00     0.041 C 
ATOM     11  O   UNL     1      98.873  50.308  53.280  1.00  0.00    -0.550 OA
ATOM     12  O   UNL     1      97.251  51.920  53.130  1.00  0.00    -0.550 OA
ENDBRANCH   9  10
ENDBRANCH   8   9
ENDBRANCH   7   8
ENDBRANCH   6   7
ENDBRANCH   5   6
ENDBRANCH   4   5
ENDBRANCH   3   4
ENDBRANCH   1   3
BRANCH   2  13
ATOM     13  C   UNL     1      99.026  51.774  43.995  1.00  0.00     0.027 C 
BRANCH  13  14
ATOM     14  C   UNL     1      98.969  50.593  43.008  1.00  0.00     0.004 C 
BRANCH  14  15
ATOM     15  C   UNL     1      99.175  50.990  41.534  1.00  0.00     0.000 C 
BRANCH  15  16
ATOM     16  C   UNL     1      98.137  50.406  40.557  1.00  0.00     0.000 C 
BRANCH  16  17
ATOM     17  C   UNL     1      98.468  50.668  39.072  1.00  0.00    -0.000 C 
BRANCH  17  18
ATOM     18  C   UNL     1      97.263  51.229  38.297  1.00  0.00    -0.000 C 
BRANCH  18  19
ATOM     19  C   UNL     1      96.148  51.735  39.225  1.00  0.00    -0.003 C 
ATOM     20  C   UNL     1      94.770  51.193  38.846  1.00  0.00     0.004 C 
ENDBRANCH  18  19
ENDBRANCH  17  18
ENDBRANCH  16  17
ENDBRANCH  15  16
ENDBRANCH  14  15
ENDBRANCH  13  14
ENDBRANCH   2  13
TORSDOF 15
ENDMDL
MODEL 5
REMARK VINA RESULT:    -3.532      0.824      1.648
REMARK INTER + INTRA:          -7.320
REMARK INTER:                  -6.681
REMARK INTRA:                  -0.639
REMARK UNBOUND:                -0.691
REMARK SMILES CCCCCCCCC=CCCCCCCCC(=O)[O-]
REMARK SMILES IDX 10 1 9 2 11 3 12 4 13 5 14 6 15 7 16 8 17 9 18 10 19 11
REMARK SMILES IDX 20 12 8 13 7 14 6 15 5 16 4 17 3 18 2 19 1 20
REMARK H PARENT
REMARK Flexibility Score: inf
ROOT
ATOM      1  C   UNL     1      99.466  51.360  45.070  1.00  0.00    -0.031 C 
ATOM      2  C   UNL     1      99.462  51.508  43.737  1.00  0.00    -0.031 C 
ENDROOT
BRANCH   1   3
ATOM      3  C   UNL     1     100.208  52.314  45.964  1.00  0.00     0.027 C 
BRANCH   3   4
ATOM      4  C   UNL     1     101.143  51.558  46.921  1.00  0.00     0.004 C 
BRANCH   4   5
ATOM      5  C   UNL     1     101.261  52.237  48.295  1.00  0.00     0.000 C 
BRANCH   5   6
ATOM      6  C   UNL     1     101.690  53.711  48.189  1.00  0.00     0.000 C 
BRANCH   6   7
ATOM      7  C   UNL     1     101.698  54.432  49.549  1.00  0.00     0.000 C 
BRANCH   7   8
ATOM      8  C   UNL     1     100.647  53.936  50.559  1.00  0.00     0.006 C 
BRANCH   8   9
ATOM      9  C   UNL     1     100.969  54.336  52.004  1.00  0.00     0.053 C 
BRANCH   9  10
ATOM     10  C   UNL     1      99.957  53.760  52.944  1.00  0.00     0.041 C 
ATOM     11  O   UNL     1      98.795  54.243  52.998  1.00  0.00    -0.550 OA
ATOM     12  O   UNL     1     100.281  52.658  53.725  1.00  0.00    -0.550 OA
ENDBRANCH   9  10
ENDBRANCH   8   9
ENDBRANCH   7   8
ENDBRANCH   6   7
ENDBRANCH   5   6
ENDBRANCH   4   5
ENDBRANCH   3   4
ENDBRANCH   1   3
BRANCH   2  13
ATOM     13  C   UNL     1      98.728  50.548  42.839  1.00  0.00     0.027 C 
BRANCH  13  14
ATOM     14  C   UNL     1      99.180  50.652  41.371  1.00  0.00     0.004 C 
BRANCH  14  15
ATOM     15  C   UNL     1      98.030  50.573  40.349  1.00  0.00     0.000 C 
BRANCH  15  16
ATOM     16  C   UNL     1      98.443  50.850  38.891  1.00  0.00     0.000 C 
BRANCH  16  17
ATOM     17  C   UNL     1      97.252  51.161  37.958  1.00  0.00    -0.000 C 
BRANCH  17  18
ATOM     18  C   UNL     1      95.982  51.538  38.740  1.00  0.00    -0.000 C 
BRANCH  18  19
ATOM     19  C   UNL     1      95.431  52.916  38.342  1.00  0.00    -0.003 C 
ATOM     20  C   UNL     1      94.835  53.679  39.525  1.00  0.00     0.004 C 
ENDBRANCH  18  19
ENDBRANCH  17  18
ENDBRANCH  16  17
ENDBRANCH  15  16
ENDBRANCH  14  15
ENDBRANCH  13  14
ENDBRANCH   2  13
TORSDOF 15
ENDMDL
MODEL 6
REMARK VINA RESULT:    -3.495      1.398      2.702
REMARK INTER + INTRA:          -7.251
REMARK INTER:                  -6.478
REMARK INTRA:                  -0.773
REMARK UNBOUND:                -0.691
REMARK SMILES CCCCCCCCC=CCCCCCCCC(=O)[O-]
REMARK SMILES IDX 10 1 9 2 11 3 12 4 13 5 14 6 15 7 16 8 17 9 18 10 19 11
REMARK SMILES IDX 20 12 8 13 7 14 6 15 5 16 4 17 3 18 2 19 1 20
REMARK H PARENT
REMARK Flexibility Score: inf
ROOT
ATOM      1  C   UNL     1     101.842  53.085  47.239  1.00  0.00    -0.031 C 
ATOM      2  C   UNL     1     100.887  52.144  47.198  1.00  0.00    -0.031 C 
ENDROOT
BRANCH   1   3
ATOM      3  C   UNL     1     102.022  53.970  48.440  1.00  0.00     0.027 C 
BRANCH   3   4
ATOM      4  C   UNL     1     100.997  53.629  49.534  1.00  0.00     0.004 C 
BRANCH   4   5
ATOM      5  C   UNL     1     100.829  54.761  50.561  1.00  0.00     0.000 C 
BRANCH   5   6
ATOM      6  C   UNL     1     101.581  54.483  51.873  1.00  0.00     0.000 C 
BRANCH   6   7
ATOM      7  C   UNL     1     100.648  54.408  53.096  1.00  0.00     0.000 C 
BRANCH   7   8
ATOM      8  C   UNL     1      99.397  53.531  52.910  1.00  0.00     0.006 C 
BRANCH   8   9
ATOM      9  C   UNL     1      99.662  52.045  53.185  1.00  0.00     0.053 C 
BRANCH   9  10
ATOM     10  C   UNL     1      98.382  51.269  53.135  1.00  0.00     0.041 C 
ATOM     11  O   UNL     1      98.398  50.015  53.246  1.00  0.00    -0.550 OA
ATOM     12  O   UNL     1      97.169  51.935  53.016  1.00  0.00    -0.550 OA
ENDBRANCH   9  10
ENDBRANCH   8   9
ENDBRANCH   7   8
ENDBRANCH   6   7
ENDBRANCH   5   6
ENDBRANCH   4   5
ENDBRANCH   3   4
ENDBRANCH   1   3
BRANCH   2  13
ATOM     13  C   UNL     1     100.698  51.264  45.992  1.00  0.00     0.027 C 
BRANCH  13  14
ATOM     14  C   UNL     1      99.310  51.436  45.348  1.00  0.00     0.004 C 
BRANCH  14  15
ATOM     15  C   UNL     1      99.347  51.732  43.836  1.00  0.00     0.000 C 
BRANCH  15  16
ATOM     16  C   UNL     1      98.612  50.702  42.958  1.00  0.00     0.000 C 
BRANCH  16  17
ATOM     17  C   UNL     1      99.182  50.587  41.528  1.00  0.00    -0.000 C 
BRANCH  17  18
ATOM     18  C   UNL     1      98.074  50.527  40.462  1.00  0.00    -0.000 C 
BRANCH  18  19
ATOM     19  C   UNL     1      98.604  50.794  39.044  1.00  0.00    -0.003 C 
ATOM     20  C   UNL     1     100.126  50.927  38.996  1.00  0.00     0.004 C 
ENDBRANCH  18  19
ENDBRANCH  17  18
ENDBRANCH  16  17
ENDBRANCH  15  16
ENDBRANCH  14  15
ENDBRANCH  13  14
ENDBRANCH   2  13
TORSDOF 15
ENDMDL
MODEL 7
REMARK VINA RESULT:    -3.175      2.090      4.809
REMARK INTER + INTRA:          -6.651
REMARK INTER:                  -5.983
REMARK INTRA:                  -0.668
REMARK UNBOUND:                -0.691
REMARK SMILES CCCCCCCCC=CCCCCCCCC(=O)[O-]
REMARK SMILES IDX 10 1 9 2 11 3 12 4 13 5 14 6 15 7 16 8 17 9 18 10 19 11
REMARK SMILES IDX 20 12 8 13 7 14 6 15 5 16 4 17 3 18 2 19 1 20
REMARK H PARENT
REMARK Flexibility Score: inf
ROOT
ATOM      1  C   UNL     1      98.944  50.573  41.242  1.00  0.00    -0.031 C 
ATOM      2  C   UNL     1      97.941  50.708  40.361  1.00  0.00    -0.031 C 
ENDROOT
BRANCH   1   3
ATOM      3  C   UNL     1      98.680  50.395  42.711  1.00  0.00     0.027 C 
BRANCH   3   4
ATOM      4  C   UNL     1      99.189  51.603  43.512  1.00  0.00     0.004 C 
BRANCH   4   5
ATOM      5  C   UNL     1      99.290  51.314  45.019  1.00  0.00     0.000 C 
BRANCH   5   6
ATOM      6  C   UNL     1     100.236  52.286  45.744  1.00  0.00     0.000 C 
BRANCH   6   7
ATOM      7  C   UNL     1     101.161  51.582  46.753  1.00  0.00     0.000 C 
BRANCH   7   8
ATOM      8  C   UNL     1     101.776  52.498  47.827  1.00  0.00     0.006 C 
BRANCH   8   9
ATOM      9  C   UNL     1     100.766  52.922  48.901  1.00  0.00     0.053 C 
BRANCH   9  10
ATOM     10  C   UNL     1     101.318  54.044  49.723  1.00  0.00     0.041 C 
ATOM     11  O   UNL     1     102.266  54.746  49.281  1.00  0.00    -0.550 OA
ATOM     12  O   UNL     1     100.754  54.347  50.956  1.00  0.00    -0.550 OA
ENDBRANCH   9  10
ENDBRANCH   8   9
ENDBRANCH   7   8
ENDBRANCH   6   7
ENDBRANCH   5   6
ENDBRANCH   4   5
ENDBRANCH   3   4
ENDBRANCH   1   3
BRANCH   2  13
ATOM     13  C   UNL     1      98.203  50.897  38.891  1.00  0.00     0.027 C 
BRANCH  13  14
ATOM     14  C   UNL     1      96.932  51.278  38.110  1.00  0.00     0.004 C 
BRANCH  14  15
ATOM     15  C   UNL     1      95.744  51.691  38.999  1.00  0.00     0.000 C 
BRANCH  15  16
ATOM     16  C   UNL     1      94.537  50.736  38.949  1.00  0.00     0.000 C 
BRANCH  16  17
ATOM     17  C   UNL     1      93.213  51.430  38.560  1.00  0.00    -0.000 C 
BRANCH  17  18
ATOM     18  C   UNL     1      93.048  52.796  39.248  1.00  0.00    -0.000 C 
BRANCH  18  19
ATOM     19  C   UNL     1      92.097  52.739  40.454  1.00  0.00    -0.003 C 
ATOM     20  C   UNL     1      92.191  53.980  41.342  1.00  0.00     0.004 C 
ENDBRANCH  18  19
ENDBRANCH  17  18
ENDBRANCH  16  17
ENDBRANCH  15  16
ENDBRANCH  14  15
ENDBRANCH  13  14
ENDBRANCH   2  13
TORSDOF 15
ENDMDL
MODEL 8
REMARK VINA RESULT:    -2.910      4.726     11.131
REMARK INTER + INTRA:          -6.153
REMARK INTER:                  -5.534
REMARK INTRA:                  -0.619
REMARK UNBOUND:                -0.691
REMARK SMILES CCCCCCCCC=CCCCCCCCC(=O)[O-]
REMARK SMILES IDX 10 1 9 2 11 3 12 4 13 5 14 6 15 7 16 8 17 9 18 10 19 11
REMARK SMILES IDX 20 12 8 13 7 14 6 15 5 16 4 17 3 18 2 19 1 20
REMARK H PARENT
REMARK Flexibility Score: inf
ROOT
ATOM      1  C   UNL     1      98.933  50.618  42.591  1.00  0.00    -0.031 C 
ATOM      2  C   UNL     1      99.304  51.615  43.409  1.00  0.00    -0.031 C 
ENDROOT
BRANCH   1   3
ATOM      3  C   UNL     1      99.290  50.626  41.131  1.00  0.00     0.027 C 
BRANCH   3   4
ATOM      4  C   UNL     1      98.026  50.615  40.255  1.00  0.00     0.004 C 
BRANCH   4   5
ATOM      5  C   UNL     1      98.330  50.891  38.774  1.00  0.00     0.000 C 
BRANCH   5   6
ATOM      6  C   UNL     1      97.059  51.165  37.953  1.00  0.00     0.000 C 
BRANCH   6   7
ATOM      7  C   UNL     1      95.779  51.164  38.809  1.00  0.00     0.000 C 
BRANCH   7   8
ATOM      8  C   UNL     1      94.548  51.808  38.146  1.00  0.00     0.006 C 
BRANCH   8   9
ATOM      9  C   UNL     1      93.609  52.483  39.154  1.00  0.00     0.053 C 
BRANCH   9  10
ATOM     10  C   UNL     1      93.920  53.943  39.260  1.00  0.00     0.041 C 
ATOM     11  O   UNL     1      94.252  54.442  40.367  1.00  0.00    -0.550 OA
ATOM     12  O   UNL     1      93.890  54.744  38.125  1.00  0.00    -0.550 OA
ENDBRANCH   9  10
ENDBRANCH   8   9
ENDBRANCH   7   8
ENDBRANCH   6   7
ENDBRANCH   5   6
ENDBRANCH   4   5
ENDBRANCH   3   4
ENDBRANCH   1   3
BRANCH   2  13
ATOM     13  C   UNL     1      98.939  51.614  44.869  1.00  0.00     0.027 C 
BRANCH  13  14
ATOM     14  C   UNL     1     100.132  51.259  45.774  1.00  0.00     0.004 C 
BRANCH  14  15
ATOM     15  C   UNL     1     100.857  52.480  46.373  1.00  0.00     0.000 C 
BRANCH  15  16
ATOM     16  C   UNL     1     101.497  52.238  47.753  1.00  0.00     0.000 C 
BRANCH  16  17
ATOM     17  C   UNL     1     100.922  53.138  48.868  1.00  0.00    -0.000 C 
BRANCH  17  18
ATOM     18  C   UNL     1     101.884  54.275  49.254  1.00  0.00    -0.000 C 
BRANCH  18  19
ATOM     19  C   UNL     1     101.442  55.018  50.525  1.00  0.00    -0.003 C 
ATOM     20  C   UNL     1     100.651  54.129  51.484  1.00  0.00     0.004 C 
ENDBRANCH  18  19
ENDBRANCH  17  18
ENDBRANCH  16  17
ENDBRANCH  15  16
ENDBRANCH  14  15
ENDBRANCH  13  14
ENDBRANCH   2  13
TORSDOF 15
ENDMDL
MODEL 9
REMARK VINA RESULT:    -2.849      4.484     10.924
REMARK INTER + INTRA:          -6.038
REMARK INTER:                  -5.289
REMARK INTRA:                  -0.749
REMARK UNBOUND:                -0.691
REMARK SMILES CCCCCCCCC=CCCCCCCCC(=O)[O-]
REMARK SMILES IDX 10 1 9 2 11 3 12 4 13 5 14 6 15 7 16 8 17 9 18 10 19 11
REMARK SMILES IDX 20 12 8 13 7 14 6 15 5 16 4 17 3 18 2 19 1 20
REMARK H PARENT
REMARK Flexibility Score: inf
ROOT
ATOM      1  C   UNL     1      98.723  50.595  40.188  1.00  0.00    -0.031 C 
ATOM      2  C   UNL     1      98.250  50.948  41.393  1.00  0.00    -0.031 C 
ENDROOT
BRANCH   1   3
ATOM      3  C   UNL     1      97.980  50.928  38.924  1.00  0.00     0.027 C 
BRANCH   3   4
ATOM      4  C   UNL     1      96.608  51.543  39.239  1.00  0.00     0.004 C 
BRANCH   4   5
ATOM      5  C   UNL     1      95.447  50.573  38.964  1.00  0.00     0.000 C 
BRANCH   5   6
ATOM      6  C   UNL     1      94.246  51.264  38.298  1.00  0.00     0.000 C 
BRANCH   6   7
ATOM      7  C   UNL     1      92.892  50.746  38.817  1.00  0.00     0.000 C 
BRANCH   7   8
ATOM      8  C   UNL     1      92.240  51.605  39.915  1.00  0.00     0.006 C 
BRANCH   8   9
ATOM      9  C   UNL     1      92.094  53.078  39.514  1.00  0.00     0.053 C 
BRANCH   9  10
ATOM     10  C   UNL     1      92.937  53.945  40.397  1.00  0.00     0.041 C 
ATOM     11  O   UNL     1      92.475  54.382  41.484  1.00  0.00    -0.550 OA
ATOM     12  O   UNL     1      94.250  54.230  40.042  1.00  0.00    -0.550 OA
ENDBRANCH   9  10
ENDBRANCH   8   9
ENDBRANCH   7   8
ENDBRANCH   6   7
ENDBRANCH   5   6
ENDBRANCH   4   5
ENDBRANCH   3   4
ENDBRANCH   1   3
BRANCH   2  13
ATOM     13  C   UNL     1      98.987  50.606  42.660  1.00  0.00     0.027 C 
BRANCH  13  14
ATOM     14  C   UNL     1      98.954  51.753  43.688  1.00  0.00     0.004 C 
BRANCH  14  15
ATOM     15  C   UNL     1      99.428  51.351  45.098  1.00  0.00     0.000 C 
BRANCH  15  16
ATOM     16  C   UNL     1     100.495  52.279  45.709  1.00  0.00     0.000 C 
BRANCH  16  17
ATOM     17  C   UNL     1     101.200  51.681  46.946  1.00  0.00    -0.000 C 
BRANCH  17  18
ATOM     18  C   UNL     1     100.897  52.473  48.229  1.00  0.00    -0.000 C 
BRANCH  18  19
ATOM     19  C   UNL     1     101.654  53.810  48.291  1.00  0.00    -0.003 C 
ATOM     20  C   UNL     1     101.684  54.409  49.697  1.00  0.00     0.004 C 
ENDBRANCH  18  19
ENDBRANCH  17  18
ENDBRANCH  16  17
ENDBRANCH  15  16
ENDBRANCH  14  15
ENDBRANCH  13  14
ENDBRANCH   2  13
TORSDOF 15
ENDMDL
