MODEL 1
REMARK VINA RESULT:    -3.525      0.000      0.000
REMARK INTER + INTRA:          -9.270
REMARK INTER:                  -6.409
REMARK INTRA:                  -2.860
REMARK UNBOUND:                -2.860
REMARK SMILES CCCCCCCCCCCCCCCC(=O)[O-]
REMARK SMILES IDX 9 1 10 2 11 3 12 4 13 5 14 6 15 7 16 8 17 9 18 10 8 11 7 12
REMARK SMILES IDX 6 13 5 14 4 15 3 16 2 17 1 18
REMARK H PARENT
REMARK Flexibility Score: inf
ROOT
ATOM      1  C   UNL     1       4.177  39.412  -7.485  1.00  0.00     0.000 C 
ENDROOT
BRANCH   1   2
ATOM      2  C   UNL     1       3.681  38.543  -8.652  1.00  0.00     0.000 C 
BRANCH   2   3
ATOM      3  C   UNL     1       4.401  37.186  -8.734  1.00  0.00     0.000 C 
BRANCH   3   4
ATOM      4  C   UNL     1       3.597  36.019  -8.125  1.00  0.00     0.000 C 
BRANCH   4   5
ATOM      5  C   UNL     1       4.510  34.972  -7.459  1.00  0.00     0.000 C 
BRANCH   5   6
ATOM      6  C   UNL     1       5.993  35.373  -7.496  1.00  0.00     0.006 C 
BRANCH   6   7
ATOM      7  C   UNL     1       6.804  34.726  -6.366  1.00  0.00     0.053 C 
BRANCH   7   8
ATOM      8  C   UNL     1       6.928  33.252  -6.592  1.00  0.00     0.041 C 
ATOM      9  O   UNL     1       7.520  32.815  -7.613  1.00  0.00    -0.550 OA
ATOM     10  O   UNL     1       6.347  32.361  -5.699  1.00  0.00    -0.550 OA
ENDBRANCH   7   8
ENDBRANCH   6   7
ENDBRANCH   5   6
ENDBRANCH   4   5
ENDBRANCH   3   4
ENDBRANCH   2   3
ENDBRANCH   1   2
BRANCH   1  11
ATOM     11  C   UNL     1       5.692  39.278  -7.255  1.00  0.00     0.000 C 
BRANCH  11  12
ATOM     12  C   UNL     1       6.023  38.565  -5.932  1.00  0.00    -0.000 C 
BRANCH  12  13
ATOM     13  C   UNL     1       4.797  38.401  -5.015  1.00  0.00    -0.000 C 
BRANCH  13  14
ATOM     14  C   UNL     1       4.596  36.990  -4.428  1.00  0.00    -0.000 C 
BRANCH  14  15
ATOM     15  C   UNL     1       3.115  36.587  -4.331  1.00  0.00    -0.000 C 
BRANCH  15  16
ATOM     16  C   UNL     1       2.170  37.614  -4.982  1.00  0.00    -0.000 C 
BRANCH  16  17
ATOM     17  C   UNL     1       0.936  37.015  -5.680  1.00  0.00    -0.003 C 
ATOM     18  C   UNL     1       0.526  37.783  -6.936  1.00  0.00     0.004 C 
ENDBRANCH  16  17
ENDBRANCH  15  16
ENDBRANCH  14  15
ENDBRANCH  13  14
ENDBRANCH  12  13
ENDBRANCH  11  12
ENDBRANCH   1  11
TORSDOF 14
ENDMDL
MODEL 2
REMARK VINA RESULT:    -3.459      2.222      4.922
REMARK INTER + INTRA:          -9.150
REMARK INTER:                  -6.729
REMARK INTRA:                  -2.422
REMARK UNBOUND:                -2.860
REMARK SMILES CCCCCCCCCCCCCCCC(=O)[O-]
REMARK SMILES IDX 9 1 10 2 11 3 12 4 13 5 14 6 15 7 16 8 17 9 18 10 8 11 7 12
REMARK SMILES IDX 6 13 5 14 4 15 3 16 2 17 1 18
REMARK H PARENT
REMARK Flexibility Score: inf
ROOT
ATOM      1  C   UNL     1       3.775  40.146  -8.445  1.00  0.00     0.000 C 
ENDROOT
BRANCH   1   2
ATOM      2  C   UNL     1       4.489  40.028  -7.089  1.00  0.00     0.000 C 
BRANCH   2   3
ATOM      3  C   UNL     1       5.877  39.374  -7.200  1.00  0.00     0.000 C 
BRANCH   3   4
ATOM      4  C   UNL     1       6.082  38.187  -6.236  1.00  0.00     0.000 C 
BRANCH   4   5
ATOM      5  C   UNL     1       5.269  38.347  -4.939  1.00  0.00     0.000 C 
BRANCH   5   6
ATOM      6  C   UNL     1       4.397  37.119  -4.633  1.00  0.00     0.006 C 
BRANCH   6   7
ATOM      7  C   UNL     1       2.902  37.459  -4.578  1.00  0.00     0.053 C 
BRANCH   7   8
ATOM      8  C   UNL     1       2.155  36.401  -3.829  1.00  0.00     0.041 C 
ATOM      9  O   UNL     1       1.157  36.708  -3.124  1.00  0.00    -0.550 OA
ATOM     10  O   UNL     1       2.589  35.082  -3.870  1.00  0.00    -0.550 OA
ENDBRANCH   7   8
ENDBRANCH   6   7
ENDBRANCH   5   6
ENDBRANCH   4   5
ENDBRANCH   3   4
ENDBRANCH   2   3
ENDBRANCH   1   2
BRANCH   1  11
ATOM     11  C   UNL     1       3.389  38.776  -9.027  1.00  0.00     0.000 C 
BRANCH  11  12
ATOM     12  C   UNL     1       2.365  38.033  -8.150  1.00  0.00    -0.000 C 
BRANCH  12  13
ATOM     13  C   UNL     1       2.605  36.513  -8.105  1.00  0.00    -0.000 C 
BRANCH  13  14
ATOM     14  C   UNL     1       4.060  36.067  -8.345  1.00  0.00    -0.000 C 
BRANCH  14  15
ATOM     15  C   UNL     1       4.450  34.827  -7.523  1.00  0.00    -0.000 C 
BRANCH  15  16
ATOM     16  C   UNL     1       5.882  34.341  -7.814  1.00  0.00    -0.000 C 
BRANCH  16  17
ATOM     17  C   UNL     1       6.937  34.757  -6.773  1.00  0.00    -0.003 C 
ATOM     18  C   UNL     1       6.748  34.071  -5.421  1.00  0.00     0.004 C 
ENDBRANCH  16  17
ENDBRANCH  15  16
ENDBRANCH  14  15
ENDBRANCH  13  14
ENDBRANCH  12  13
ENDBRANCH  11  12
ENDBRANCH   1  11
TORSDOF 14
ENDMDL
MODEL 3
REMARK VINA RESULT:    -3.381      0.922      2.918
REMARK INTER + INTRA:          -9.008
REMARK INTER:                  -6.353
REMARK INTRA:                  -2.655
REMARK UNBOUND:                -2.860
REMARK SMILES CCCCCCCCCCCCCCCC(=O)[O-]
REMARK SMILES IDX 9 1 10 2 11 3 12 4 13 5 14 6 15 7 16 8 17 9 18 10 8 11 7 12
REMARK SMILES IDX 6 13 5 14 4 15 3 16 2 17 1 18
REMARK H PARENT
REMARK Flexibility Score: inf
ROOT
ATOM      1  C   UNL     1       1.086  37.193  -6.889  1.00  0.00     0.000 C 
ENDROOT
BRANCH   1   2
ATOM      2  C   UNL     1       1.965  35.984  -7.247  1.00  0.00     0.000 C 
BRANCH   2   3
ATOM      3  C   UNL     1       3.041  36.317  -8.294  1.00  0.00     0.000 C 
BRANCH   3   4
ATOM      4  C   UNL     1       4.427  35.721  -7.969  1.00  0.00     0.000 C 
BRANCH   4   5
ATOM      5  C   UNL     1       4.356  34.667  -6.849  1.00  0.00     0.000 C 
BRANCH   5   6
ATOM      6  C   UNL     1       5.620  34.650  -5.974  1.00  0.00     0.006 C 
BRANCH   6   7
ATOM      7  C   UNL     1       6.909  34.652  -6.805  1.00  0.00     0.053 C 
BRANCH   7   8
ATOM      8  C   UNL     1       7.206  33.274  -7.309  1.00  0.00     0.041 C 
ATOM      9  O   UNL     1       7.722  33.112  -8.446  1.00  0.00    -0.550 OA
ATOM     10  O   UNL     1       6.868  32.166  -6.542  1.00  0.00    -0.550 OA
ENDBRANCH   7   8
ENDBRANCH   6   7
ENDBRANCH   5   6
ENDBRANCH   4   5
ENDBRANCH   3   4
ENDBRANCH   2   3
ENDBRANCH   1   2
BRANCH   1  11
ATOM     11  C   UNL     1       1.764  38.135  -5.880  1.00  0.00     0.000 C 
BRANCH  11  12
ATOM     12  C   UNL     1       2.243  37.395  -4.618  1.00  0.00    -0.000 C 
BRANCH  12  13
ATOM     13  C   UNL     1       3.776  37.389  -4.472  1.00  0.00    -0.000 C 
BRANCH  13  14
ATOM     14  C   UNL     1       4.490  38.665  -4.957  1.00  0.00    -0.000 C 
BRANCH  14  15
ATOM     15  C   UNL     1       5.709  38.369  -5.846  1.00  0.00    -0.000 C 
BRANCH  15  16
ATOM     16  C   UNL     1       5.795  39.296  -7.073  1.00  0.00    -0.000 C 
BRANCH  16  17
ATOM     17  C   UNL     1       4.573  40.206  -7.290  1.00  0.00    -0.003 C 
ATOM     18  C   UNL     1       3.766  39.840  -8.535  1.00  0.00     0.004 C 
ENDBRANCH  16  17
ENDBRANCH  15  16
ENDBRANCH  14  15
ENDBRANCH  13  14
ENDBRANCH  12  13
ENDBRANCH  11  12
ENDBRANCH   1  11
TORSDOF 14
ENDMDL
MODEL 4
REMARK VINA RESULT:    -3.296      1.135      3.147
REMARK INTER + INTRA:          -8.854
REMARK INTER:                  -6.414
REMARK INTRA:                  -2.440
REMARK UNBOUND:                -2.860
REMARK SMILES CCCCCCCCCCCCCCCC(=O)[O-]
REMARK SMILES IDX 9 1 10 2 11 3 12 4 13 5 14 6 15 7 16 8 17 9 18 10 8 11 7 12
REMARK SMILES IDX 6 13 5 14 4 15 3 16 2 17 1 18
REMARK H PARENT
REMARK Flexibility Score: inf
ROOT
ATOM      1  C   UNL     1       2.294  36.737  -8.274  1.00  0.00     0.000 C 
ENDROOT
BRANCH   1   2
ATOM      2  C   UNL     1       3.233  35.682  -7.666  1.00  0.00     0.000 C 
BRANCH   2   3
ATOM      3  C   UNL     1       4.685  35.824  -8.152  1.00  0.00     0.000 C 
BRANCH   3   4
ATOM      4  C   UNL     1       5.578  34.617  -7.799  1.00  0.00     0.000 C 
BRANCH   4   5
ATOM      5  C   UNL     1       6.739  35.008  -6.867  1.00  0.00     0.000 C 
BRANCH   5   6
ATOM      6  C   UNL     1       6.783  34.157  -5.589  1.00  0.00     0.006 C 
BRANCH   6   7
ATOM      7  C   UNL     1       5.567  33.231  -5.458  1.00  0.00     0.053 C 
BRANCH   7   8
ATOM      8  C   UNL     1       5.989  31.799  -5.562  1.00  0.00     0.041 C 
ATOM      9  O   UNL     1       5.694  30.983  -4.649  1.00  0.00    -0.550 OA
ATOM     10  O   UNL     1       6.751  31.376  -6.644  1.00  0.00    -0.550 OA
ENDBRANCH   7   8
ENDBRANCH   6   7
ENDBRANCH   5   6
ENDBRANCH   4   5
ENDBRANCH   3   4
ENDBRANCH   2   3
ENDBRANCH   1   2
BRANCH   1  11
ATOM     11  C   UNL     1       2.211  38.012  -7.418  1.00  0.00     0.000 C 
BRANCH  11  12
ATOM     12  C   UNL     1       1.453  37.784  -6.098  1.00  0.00    -0.000 C 
BRANCH  12  13
ATOM     13  C   UNL     1       2.339  37.988  -4.855  1.00  0.00    -0.000 C 
BRANCH  13  14
ATOM     14  C   UNL     1       3.171  36.763  -4.428  1.00  0.00    -0.000 C 
BRANCH  14  15
ATOM     15  C   UNL     1       4.686  37.025  -4.468  1.00  0.00    -0.000 C 
BRANCH  15  16
ATOM     16  C   UNL     1       5.036  38.443  -4.957  1.00  0.00    -0.000 C 
BRANCH  16  17
ATOM     17  C   UNL     1       6.038  38.501  -6.124  1.00  0.00    -0.003 C 
ATOM     18  C   UNL     1       5.592  39.434  -7.250  1.00  0.00     0.004 C 
ENDBRANCH  16  17
ENDBRANCH  15  16
ENDBRANCH  14  15
ENDBRANCH  13  14
ENDBRANCH  12  13
ENDBRANCH  11  12
ENDBRANCH   1  11
TORSDOF 14
ENDMDL
MODEL 5
REMARK VINA RESULT:    -3.277      3.102      5.478
REMARK INTER + INTRA:          -8.819
REMARK INTER:                  -6.500
REMARK INTRA:                  -2.320
REMARK UNBOUND:                -2.860
REMARK SMILES CCCCCCCCCCCCCCCC(=O)[O-]
REMARK SMILES IDX 9 1 10 2 11 3 12 4 13 5 14 6 15 7 16 8 17 9 18 10 8 11 7 12
REMARK SMILES IDX 6 13 5 14 4 15 3 16 2 17 1 18
REMARK H PARENT
REMARK Flexibility Score: inf
ROOT
ATOM      1  C   UNL     1       4.267  34.071  -4.867  1.00  0.00     0.000 C 
ENDROOT
BRANCH   1   2
ATOM      2  C   UNL     1       3.334  35.225  -4.466  1.00  0.00     0.000 C 
BRANCH   2   3
ATOM      3  C   UNL     1       3.534  36.482  -5.330  1.00  0.00     0.000 C 
BRANCH   3   4
ATOM      4  C   UNL     1       3.927  37.734  -4.520  1.00  0.00     0.000 C 
BRANCH   4   5
ATOM      5  C   UNL     1       5.306  38.282  -4.933  1.00  0.00     0.000 C 
BRANCH   5   6
ATOM      6  C   UNL     1       5.606  38.062  -6.424  1.00  0.00     0.006 C 
BRANCH   6   7
ATOM      7  C   UNL     1       5.809  39.379  -7.183  1.00  0.00     0.053 C 
BRANCH   7   8
ATOM      8  C   UNL     1       4.489  40.010  -7.496  1.00  0.00     0.041 C 
ATOM      9  O   UNL     1       4.379  41.264  -7.538  1.00  0.00    -0.550 OA
ATOM     10  O   UNL     1       3.367  39.213  -7.692  1.00  0.00    -0.550 OA
ENDBRANCH   7   8
ENDBRANCH   6   7
ENDBRANCH   5   6
ENDBRANCH   4   5
ENDBRANCH   3   4
ENDBRANCH   2   3
ENDBRANCH   1   2
BRANCH   1  11
ATOM     11  C   UNL     1       5.499  33.967  -3.952  1.00  0.00     0.000 C 
BRANCH  11  12
ATOM     12  C   UNL     1       6.818  33.941  -4.746  1.00  0.00    -0.000 C 
BRANCH  12  13
ATOM     13  C   UNL     1       6.706  34.631  -6.118  1.00  0.00    -0.000 C 
BRANCH  13  14
ATOM     14  C   UNL     1       7.175  33.789  -7.320  1.00  0.00    -0.000 C 
BRANCH  14  15
ATOM     15  C   UNL     1       6.148  33.754  -8.464  1.00  0.00    -0.000 C 
BRANCH  15  16
ATOM     16  C   UNL     1       5.195  34.963  -8.450  1.00  0.00    -0.000 C 
BRANCH  16  17
ATOM     17  C   UNL     1       3.707  34.624  -8.655  1.00  0.00    -0.003 C 
ATOM     18  C   UNL     1       2.819  35.863  -8.764  1.00  0.00     0.004 C 
ENDBRANCH  16  17
ENDBRANCH  15  16
ENDBRANCH  14  15
ENDBRANCH  13  14
ENDBRANCH  12  13
ENDBRANCH  11  12
ENDBRANCH   1  11
TORSDOF 14
ENDMDL
MODEL 6
REMARK VINA RESULT:    -3.236      2.970      5.615
REMARK INTER + INTRA:          -8.745
REMARK INTER:                  -6.481
REMARK INTRA:                  -2.265
REMARK UNBOUND:                -2.860
REMARK SMILES CCCCCCCCCCCCCCCC(=O)[O-]
REMARK SMILES IDX 9 1 10 2 11 3 12 4 13 5 14 6 15 7 16 8 17 9 18 10 8 11 7 12
REMARK SMILES IDX 6 13 5 14 4 15 3 16 2 17 1 18
REMARK H PARENT
REMARK Flexibility Score: inf
ROOT
ATOM      1  C   UNL     1       5.079  37.433  -4.858  1.00  0.00     0.000 C 
ENDROOT
BRANCH   1   2
ATOM      2  C   UNL     1       5.640  38.394  -5.919  1.00  0.00     0.000 C 
BRANCH   2   3
ATOM      3  C   UNL     1       4.725  39.604  -6.171  1.00  0.00     0.000 C 
BRANCH   3   4
ATOM      4  C   UNL     1       4.334  39.788  -7.652  1.00  0.00     0.000 C 
BRANCH   4   5
ATOM      5  C   UNL     1       4.233  38.443  -8.396  1.00  0.00     0.000 C 
BRANCH   5   6
ATOM      6  C   UNL     1       2.784  37.950  -8.529  1.00  0.00     0.006 C 
BRANCH   6   7
ATOM      7  C   UNL     1       2.348  37.082  -7.342  1.00  0.00     0.053 C 
BRANCH   7   8
ATOM      8  C   UNL     1       1.330  37.804  -6.516  1.00  0.00     0.041 C 
ATOM      9  O   UNL     1       1.613  38.181  -5.349  1.00  0.00    -0.550 OA
ATOM     10  O   UNL     1       0.052  38.016  -7.017  1.00  0.00    -0.550 OA
ENDBRANCH   7   8
ENDBRANCH   6   7
ENDBRANCH   5   6
ENDBRANCH   4   5
ENDBRANCH   3   4
ENDBRANCH   2   3
ENDBRANCH   1   2
BRANCH   1  11
ATOM     11  C   UNL     1       5.284  35.956  -5.236  1.00  0.00     0.000 C 
BRANCH  11  12
ATOM     12  C   UNL     1       6.133  35.789  -6.509  1.00  0.00    -0.000 C 
BRANCH  12  13
ATOM     13  C   UNL     1       5.385  35.052  -7.636  1.00  0.00    -0.000 C 
BRANCH  13  14
ATOM     14  C   UNL     1       6.186  33.941  -8.342  1.00  0.00    -0.000 C 
BRANCH  14  15
ATOM     15  C   UNL     1       7.244  33.294  -7.433  1.00  0.00    -0.000 C 
BRANCH  15  16
ATOM     16  C   UNL     1       6.726  32.035  -6.713  1.00  0.00    -0.000 C 
BRANCH  16  17
ATOM     17  C   UNL     1       6.281  32.252  -5.256  1.00  0.00    -0.003 C 
ATOM     18  C   UNL     1       4.764  32.187  -5.076  1.00  0.00     0.004 C 
ENDBRANCH  16  17
ENDBRANCH  15  16
ENDBRANCH  14  15
ENDBRANCH  13  14
ENDBRANCH  12  13
ENDBRANCH  11  12
ENDBRANCH   1  11
TORSDOF 14
ENDMDL
MODEL 7
REMARK VINA RESULT:    -3.235      2.676      5.244
REMARK INTER + INTRA:          -8.744
REMARK INTER:                  -6.575
REMARK INTRA:                  -2.169
REMARK UNBOUND:                -2.860
REMARK SMILES CCCCCCCCCCCCCCCC(=O)[O-]
REMARK SMILES IDX 9 1 10 2 11 3 12 4 13 5 14 6 15 7 16 8 17 9 18 10 8 11 7 12
REMARK SMILES IDX 6 13 5 14 4 15 3 16 2 17 1 18
REMARK H PARENT
REMARK Flexibility Score: inf
ROOT
ATOM      1  C   UNL     1       5.721  38.536  -5.711  1.00  0.00     0.000 C 
ENDROOT
BRANCH   1   2
ATOM      2  C   UNL     1       4.849  39.364  -6.669  1.00  0.00     0.000 C 
BRANCH   2   3
ATOM      3  C   UNL     1       4.581  38.647  -8.003  1.00  0.00     0.000 C 
BRANCH   3   4
ATOM      4  C   UNL     1       3.091  38.615  -8.402  1.00  0.00     0.000 C 
BRANCH   4   5
ATOM      5  C   UNL     1       2.343  37.438  -7.752  1.00  0.00     0.000 C 
BRANCH   5   6
ATOM      6  C   UNL     1       1.154  37.896  -6.893  1.00  0.00     0.006 C 
BRANCH   6   7
ATOM      7  C   UNL     1       1.534  38.086  -5.419  1.00  0.00     0.053 C 
BRANCH   7   8
ATOM      8  C   UNL     1       1.182  36.866  -4.628  1.00  0.00     0.041 C 
ATOM      9  O   UNL     1       0.315  36.060  -5.056  1.00  0.00    -0.550 OA
ATOM     10  O   UNL     1       1.778  36.643  -3.393  1.00  0.00    -0.550 OA
ENDBRANCH   7   8
ENDBRANCH   6   7
ENDBRANCH   5   6
ENDBRANCH   4   5
ENDBRANCH   3   4
ENDBRANCH   2   3
ENDBRANCH   1   2
BRANCH   1  11
ATOM     11  C   UNL     1       4.886  37.769  -4.673  1.00  0.00     0.000 C 
BRANCH  11  12
ATOM     12  C   UNL     1       5.252  36.275  -4.614  1.00  0.00    -0.000 C 
BRANCH  12  13
ATOM     13  C   UNL     1       4.430  35.417  -5.594  1.00  0.00    -0.000 C 
BRANCH  13  14
ATOM     14  C   UNL     1       5.092  35.159  -6.961  1.00  0.00    -0.000 C 
BRANCH  14  15
ATOM     15  C   UNL     1       6.626  35.069  -6.877  1.00  0.00    -0.000 C 
BRANCH  15  16
ATOM     16  C   UNL     1       7.148  33.624  -6.982  1.00  0.00    -0.000 C 
BRANCH  16  17
ATOM     17  C   UNL     1       6.637  32.664  -5.893  1.00  0.00    -0.003 C 
ATOM     18  C   UNL     1       6.218  31.301  -6.443  1.00  0.00     0.004 C 
ENDBRANCH  16  17
ENDBRANCH  15  16
ENDBRANCH  14  15
ENDBRANCH  13  14
ENDBRANCH  12  13
ENDBRANCH  11  12
ENDBRANCH   1  11
TORSDOF 14
ENDMDL
MODEL 8
REMARK VINA RESULT:    -3.229      1.147      2.971
REMARK INTER + INTRA:          -8.733
REMARK INTER:                  -6.310
REMARK INTRA:                  -2.423
REMARK UNBOUND:                -2.860
REMARK SMILES CCCCCCCCCCCCCCCC(=O)[O-]
REMARK SMILES IDX 9 1 10 2 11 3 12 4 13 5 14 6 15 7 16 8 17 9 18 10 8 11 7 12
REMARK SMILES IDX 6 13 5 14 4 15 3 16 2 17 1 18
REMARK H PARENT
REMARK Flexibility Score: inf
ROOT
ATOM      1  C   UNL     1       2.905  36.623  -4.553  1.00  0.00     0.000 C 
ENDROOT
BRANCH   1   2
ATOM      2  C   UNL     1       4.061  35.619  -4.689  1.00  0.00     0.000 C 
BRANCH   2   3
ATOM      3  C   UNL     1       3.936  34.730  -5.938  1.00  0.00     0.000 C 
BRANCH   3   4
ATOM      4  C   UNL     1       4.883  35.138  -7.086  1.00  0.00     0.000 C 
BRANCH   4   5
ATOM      5  C   UNL     1       6.289  35.502  -6.575  1.00  0.00     0.000 C 
BRANCH   5   6
ATOM      6  C   UNL     1       7.134  34.263  -6.241  1.00  0.00     0.006 C 
BRANCH   6   7
ATOM      7  C   UNL     1       7.155  33.240  -7.384  1.00  0.00     0.053 C 
BRANCH   7   8
ATOM      8  C   UNL     1       6.835  31.873  -6.866  1.00  0.00     0.041 C 
ATOM      9  O   UNL     1       6.441  31.720  -5.680  1.00  0.00    -0.550 OA
ATOM     10  O   UNL     1       7.018  30.762  -7.680  1.00  0.00    -0.550 OA
ENDBRANCH   7   8
ENDBRANCH   6   7
ENDBRANCH   5   6
ENDBRANCH   4   5
ENDBRANCH   3   4
ENDBRANCH   2   3
ENDBRANCH   1   2
BRANCH   1  11
ATOM     11  C   UNL     1       3.374  38.081  -4.691  1.00  0.00     0.000 C 
BRANCH  11  12
ATOM     12  C   UNL     1       4.905  38.215  -4.613  1.00  0.00    -0.000 C 
BRANCH  12  13
ATOM     13  C   UNL     1       5.512  38.893  -5.854  1.00  0.00    -0.000 C 
BRANCH  13  14
ATOM     14  C   UNL     1       4.494  39.460  -6.861  1.00  0.00    -0.000 C 
BRANCH  14  15
ATOM     15  C   UNL     1       4.338  38.583  -8.115  1.00  0.00    -0.000 C 
BRANCH  15  16
ATOM     16  C   UNL     1       2.884  38.508  -8.617  1.00  0.00    -0.000 C 
BRANCH  16  17
ATOM     17  C   UNL     1       2.098  37.266  -8.159  1.00  0.00    -0.003 C 
ATOM     18  C   UNL     1       0.785  37.612  -7.457  1.00  0.00     0.004 C 
ENDBRANCH  16  17
ENDBRANCH  15  16
ENDBRANCH  14  15
ENDBRANCH  13  14
ENDBRANCH  12  13
ENDBRANCH  11  12
ENDBRANCH   1  11
TORSDOF 14
ENDMDL
MODEL 9
REMARK VINA RESULT:    -3.147      1.915      3.242
REMARK INTER + INTRA:          -8.584
REMARK INTER:                  -6.182
REMARK INTRA:                  -2.402
REMARK UNBOUND:                -2.860
REMARK SMILES CCCCCCCCCCCCCCCC(=O)[O-]
REMARK SMILES IDX 9 1 10 2 11 3 12 4 13 5 14 6 15 7 16 8 17 9 18 10 8 11 7 12
REMARK SMILES IDX 6 13 5 14 4 15 3 16 2 17 1 18
REMARK H PARENT
REMARK Flexibility Score: inf
ROOT
ATOM      1  C   UNL     1       4.129  36.507  -8.773  1.00  0.00     0.000 C 
ENDROOT
BRANCH   1   2
ATOM      2  C   UNL     1       4.410  35.591  -7.572  1.00  0.00     0.000 C 
BRANCH   2   3
ATOM      3  C   UNL     1       5.753  34.849  -7.688  1.00  0.00     0.000 C 
BRANCH   3   4
ATOM      4  C   UNL     1       6.727  35.145  -6.530  1.00  0.00     0.000 C 
BRANCH   4   5
ATOM      5  C   UNL     1       6.730  34.024  -5.474  1.00  0.00     0.000 C 
BRANCH   5   6
ATOM      6  C   UNL     1       5.966  34.413  -4.199  1.00  0.00     0.006 C 
BRANCH   6   7
ATOM      7  C   UNL     1       4.512  33.925  -4.214  1.00  0.00     0.053 C 
BRANCH   7   8
ATOM      8  C   UNL     1       4.357  32.719  -3.343  1.00  0.00     0.041 C 
ATOM      9  O   UNL     1       4.949  31.646  -3.634  1.00  0.00    -0.550 OA
ATOM     10  O   UNL     1       3.520  32.764  -2.236  1.00  0.00    -0.550 OA
ENDBRANCH   7   8
ENDBRANCH   6   7
ENDBRANCH   5   6
ENDBRANCH   4   5
ENDBRANCH   3   4
ENDBRANCH   2   3
ENDBRANCH   1   2
BRANCH   1  11
ATOM     11  C   UNL     1       3.306  37.747  -8.387  1.00  0.00     0.000 C 
BRANCH  11  12
ATOM     12  C   UNL     1       4.151  39.034  -8.381  1.00  0.00    -0.000 C 
BRANCH  12  13
ATOM     13  C   UNL     1       4.476  39.532  -6.961  1.00  0.00    -0.000 C 
BRANCH  13  14
ATOM     14  C   UNL     1       5.696  38.870  -6.293  1.00  0.00    -0.000 C 
BRANCH  14  15
ATOM     15  C   UNL     1       5.336  38.120  -4.999  1.00  0.00    -0.000 C 
BRANCH  15  16
ATOM     16  C   UNL     1       3.906  38.419  -4.511  1.00  0.00    -0.000 C 
BRANCH  16  17
ATOM     17  C   UNL     1       2.941  37.220  -4.545  1.00  0.00    -0.003 C 
ATOM     18  C   UNL     1       1.590  37.555  -5.176  1.00  0.00     0.004 C 
ENDBRANCH  16  17
ENDBRANCH  15  16
ENDBRANCH  14  15
ENDBRANCH  13  14
ENDBRANCH  12  13
ENDBRANCH  11  12
ENDBRANCH   1  11
TORSDOF 14
ENDMDL
