MODEL 1
REMARK VINA RESULT:    -5.867      0.000      0.000
REMARK INTER + INTRA:          -9.517
REMARK INTER:                  -8.096
REMARK INTRA:                  -1.421
REMARK UNBOUND:                -1.421
REMARK SMILES CC[C@H](CC[C@H](C)[C@H]1CC[C@@H]2[C@@H]3CC=C4C[C@H](O)CC[C@]4(C)[C@@H]3CC[C@@]21C)C(C)C
REMARK SMILES IDX 5 1 4 2 3 3 2 4 1 5 28 6 29 7 30 8 6 9 7 10 8 11 9 12 26 13
REMARK SMILES IDX 10 14 11 15 25 16 27 17 12 18 24 19 23 20 13 21 21 22 14 23
REMARK SMILES IDX 15 24 20 25 22 26 16 27 19 28 17 29 18 30
REMARK H PARENT 18 31
REMARK Flexibility Score: inf
ROOT
ATOM      1  C   UNL     1      22.851  -1.276  19.045  1.00  0.00     0.004 C 
ENDROOT
BRANCH   1   2
ATOM      2  C   UNL     1      24.108  -1.750  19.808  1.00  0.00     0.004 C 
BRANCH   2   3
ATOM      3  C   UNL     1      25.353  -1.910  18.882  1.00  0.00    -0.009 C 
BRANCH   3   4
ATOM      4  C   UNL     1      24.928  -2.292  17.429  1.00  0.00     0.000 C 
ATOM      5  C   UNL     1      25.611  -1.482  16.320  1.00  0.00     0.004 C 
ENDBRANCH   3   4
BRANCH   3   6
ATOM      6  C   UNL     1      26.305  -0.660  18.952  1.00  0.00    -0.014 C 
ATOM      7  C   UNL     1      27.720  -1.020  19.451  1.00  0.00     0.007 C 
ATOM      8  C   UNL     1      25.738   0.437  19.881  1.00  0.00     0.007 C 
ENDBRANCH   3   6
ENDBRANCH   2   3
ENDBRANCH   1   2
BRANCH   1   9
ATOM      9  C   UNL     1      21.528  -1.851  19.619  1.00  0.00    -0.011 C 
ATOM     10  C   UNL     1      21.543  -1.720  21.160  1.00  0.00     0.008 C 
BRANCH   9  11
ATOM     11  C   UNL     1      21.321  -3.347  19.173  1.00  0.00    -0.002 C 
ATOM     12  C   UNL     1      20.361  -4.121  20.083  1.00  0.00     0.005 C 
ATOM     13  C   UNL     1      20.802  -3.628  17.705  1.00  0.00    -0.026 C 
ATOM     14  C   UNL     1      19.932  -5.328  19.281  1.00  0.00     0.005 C 
ATOM     15  C   UNL     1      19.767  -4.796  17.861  1.00  0.00    -0.001 C 
ATOM     16  C   UNL     1      21.981  -4.048  16.773  1.00  0.00     0.007 C 
ATOM     17  C   UNL     1      20.064  -2.421  17.067  1.00  0.00     0.012 C 
ATOM     18  C   UNL     1      19.816  -5.881  16.737  1.00  0.00     0.000 C 
ATOM     19  C   UNL     1      22.355  -5.521  16.955  1.00  0.00     0.005 C 
ATOM     20  C   UNL     1      21.248  -6.456  16.408  1.00  0.00     0.003 C 
ATOM     21  C   UNL     1      18.753  -6.970  16.954  1.00  0.00     0.031 C 
ATOM     22  C   UNL     1      21.450  -8.020  16.694  1.00  0.00    -0.008 C 
ATOM     23  C   UNL     1      19.245  -8.042  17.874  1.00  0.00    -0.027 C 
ATOM     24  C   UNL     1      20.497  -8.527  17.790  1.00  0.00    -0.065 C 
ATOM     25  C   UNL     1      22.934  -8.360  17.074  1.00  0.00     0.014 C 
ATOM     26  C   UNL     1      21.116  -8.806  15.393  1.00  0.00     0.016 C 
ATOM     27  C   UNL     1      20.795  -9.809  18.550  1.00  0.00     0.063 C 
ATOM     28  C   UNL     1      23.128  -9.783  17.604  1.00  0.00     0.033 C 
ATOM     29  C   UNL     1      22.279 -10.005  18.862  1.00  0.00     0.118 C 
BRANCH  29  30
ATOM     30  O   UNL     1      22.664  -9.124  19.886  1.00  0.00    -0.393 OA
ATOM     31  H   UNL     1      21.930  -8.462  19.986  1.00  0.00     0.210 HD
ENDBRANCH  29  30
ENDBRANCH   9  11
ENDBRANCH   1   9
TORSDOF 7
ENDMDL
MODEL 2
REMARK VINA RESULT:    -5.860      3.008      5.496
REMARK INTER + INTRA:          -9.508
REMARK INTER:                  -9.049
REMARK INTRA:                  -0.459
REMARK UNBOUND:                -1.421
REMARK SMILES CC[C@H](CC[C@H](C)[C@H]1CC[C@@H]2[C@@H]3CC=C4C[C@H](O)CC[C@]4(C)[C@@H]3CC[C@@]21C)C(C)C
REMARK SMILES IDX 5 1 4 2 3 3 2 4 1 5 28 6 29 7 30 8 6 9 7 10 8 11 9 12 26 13
REMARK SMILES IDX 10 14 11 15 25 16 27 17 12 18 24 19 23 20 13 21 21 22 14 23
REMARK SMILES IDX 15 24 20 25 22 26 16 27 19 28 17 29 18 30
REMARK H PARENT 18 31
REMARK Flexibility Score: inf
ROOT
ATOM      1  C   UNL     1      24.866  -1.246  15.658  1.00  0.00     0.004 C 
ENDROOT
BRANCH   1   2
ATOM      2  C   UNL     1      24.838   0.225  15.186  1.00  0.00     0.004 C 
BRANCH   2   3
ATOM      3  C   UNL     1      25.700   0.468  13.909  1.00  0.00    -0.009 C 
BRANCH   3   4
ATOM      4  C   UNL     1      26.584  -0.778  13.582  1.00  0.00     0.000 C 
ATOM      5  C   UNL     1      27.053  -0.874  12.125  1.00  0.00     0.004 C 
ENDBRANCH   3   4
BRANCH   3   6
ATOM      6  C   UNL     1      24.831   0.960  12.695  1.00  0.00    -0.014 C 
ATOM      7  C   UNL     1      25.104   2.433  12.329  1.00  0.00     0.007 C 
ATOM      8  C   UNL     1      23.319   0.813  12.979  1.00  0.00     0.007 C 
ENDBRANCH   3   6
ENDBRANCH   2   3
ENDBRANCH   1   2
BRANCH   1   9
ATOM      9  C   UNL     1      24.492  -1.421  17.155  1.00  0.00    -0.011 C 
ATOM     10  C   UNL     1      25.631  -2.175  17.878  1.00  0.00     0.008 C 
BRANCH   9  11
ATOM     11  C   UNL     1      23.118  -2.174  17.309  1.00  0.00    -0.002 C 
ATOM     12  C   UNL     1      23.177  -3.636  16.853  1.00  0.00     0.005 C 
ATOM     13  C   UNL     1      22.445  -2.224  18.741  1.00  0.00    -0.026 C 
ATOM     14  C   UNL     1      21.973  -4.301  17.479  1.00  0.00     0.005 C 
ATOM     15  C   UNL     1      21.883  -3.682  18.869  1.00  0.00    -0.001 C 
ATOM     16  C   UNL     1      21.298  -1.171  18.848  1.00  0.00     0.007 C 
ATOM     17  C   UNL     1      23.446  -1.995  19.904  1.00  0.00     0.012 C 
ATOM     18  C   UNL     1      20.482  -3.795  19.556  1.00  0.00     0.000 C 
ATOM     19  C   UNL     1      20.007  -1.665  18.190  1.00  0.00     0.005 C 
ATOM     20  C   UNL     1      19.371  -2.824  18.998  1.00  0.00     0.003 C 
ATOM     21  C   UNL     1      20.021  -5.257  19.665  1.00  0.00     0.031 C 
ATOM     22  C   UNL     1      18.105  -3.537  18.319  1.00  0.00    -0.008 C 
ATOM     23  C   UNL     1      19.336  -5.712  18.416  1.00  0.00    -0.027 C 
ATOM     24  C   UNL     1      18.464  -4.924  17.760  1.00  0.00    -0.065 C 
ATOM     25  C   UNL     1      17.470  -2.652  17.189  1.00  0.00     0.014 C 
ATOM     26  C   UNL     1      17.015  -3.746  19.408  1.00  0.00     0.016 C 
ATOM     27  C   UNL     1      17.602  -5.583  16.696  1.00  0.00     0.063 C 
ATOM     28  C   UNL     1      16.429  -3.385  16.339  1.00  0.00     0.033 C 
ATOM     29  C   UNL     1      17.059  -4.603  15.655  1.00  0.00     0.118 C 
BRANCH  29  30
ATOM     30  O   UNL     1      18.097  -4.210  14.793  1.00  0.00    -0.393 OA
ATOM     31  H   UNL     1      18.508  -5.044  14.441  1.00  0.00     0.210 HD
ENDBRANCH  29  30
ENDBRANCH   9  11
ENDBRANCH   1   9
TORSDOF 7
ENDMDL
MODEL 3
REMARK VINA RESULT:    -5.719      3.019      5.461
REMARK INTER + INTRA:          -9.313
REMARK INTER:                  -8.320
REMARK INTRA:                  -0.993
REMARK UNBOUND:                -1.421
REMARK SMILES CC[C@H](CC[C@H](C)[C@H]1CC[C@@H]2[C@@H]3CC=C4C[C@H](O)CC[C@]4(C)[C@@H]3CC[C@@]21C)C(C)C
REMARK SMILES IDX 5 1 4 2 3 3 2 4 1 5 28 6 29 7 30 8 6 9 7 10 8 11 9 12 26 13
REMARK SMILES IDX 10 14 11 15 25 16 27 17 12 18 24 19 23 20 13 21 21 22 14 23
REMARK SMILES IDX 15 24 20 25 22 26 16 27 19 28 17 29 18 30
REMARK H PARENT 18 31
REMARK Flexibility Score: inf
ROOT
ATOM      1  C   UNL     1      24.710  -0.293  16.364  1.00  0.00     0.004 C 
ENDROOT
BRANCH   1   2
ATOM      2  C   UNL     1      25.774  -0.847  15.390  1.00  0.00     0.004 C 
BRANCH   2   3
ATOM      3  C   UNL     1      25.555  -0.374  13.921  1.00  0.00    -0.009 C 
BRANCH   3   4
ATOM      4  C   UNL     1      24.662   0.906  13.869  1.00  0.00     0.000 C 
ATOM      5  C   UNL     1      23.375   0.765  13.047  1.00  0.00     0.004 C 
ENDBRANCH   3   4
BRANCH   3   6
ATOM      6  C   UNL     1      26.912  -0.227  13.139  1.00  0.00    -0.014 C 
ATOM      7  C   UNL     1      27.360   1.242  12.999  1.00  0.00     0.007 C 
ATOM      8  C   UNL     1      26.821  -0.834  11.721  1.00  0.00     0.007 C 
ENDBRANCH   3   6
ENDBRANCH   2   3
ENDBRANCH   1   2
BRANCH   1   9
ATOM      9  C   UNL     1      24.563  -1.134  17.660  1.00  0.00    -0.011 C 
ATOM     10  C   UNL     1      25.771  -2.092  17.785  1.00  0.00     0.008 C 
BRANCH   9  11
ATOM     11  C   UNL     1      23.201  -1.925  17.669  1.00  0.00    -0.002 C 
ATOM     12  C   UNL     1      23.329  -3.353  17.126  1.00  0.00     0.005 C 
ATOM     13  C   UNL     1      22.433  -2.084  19.044  1.00  0.00    -0.026 C 
ATOM     14  C   UNL     1      22.103  -4.083  17.621  1.00  0.00     0.005 C 
ATOM     15  C   UNL     1      21.902  -3.559  19.039  1.00  0.00    -0.001 C 
ATOM     16  C   UNL     1      21.255  -1.066  19.138  1.00  0.00     0.007 C 
ATOM     17  C   UNL     1      23.346  -1.911  20.287  1.00  0.00     0.012 C 
ATOM     18  C   UNL     1      20.461  -3.747  19.616  1.00  0.00     0.000 C 
ATOM     19  C   UNL     1      20.025  -1.543  18.360  1.00  0.00     0.005 C 
ATOM     20  C   UNL     1      19.366  -2.766  19.045  1.00  0.00     0.003 C 
ATOM     21  C   UNL     1      20.032  -5.223  19.599  1.00  0.00     0.031 C 
ATOM     22  C   UNL     1      18.168  -3.459  18.234  1.00  0.00    -0.008 C 
ATOM     23  C   UNL     1      19.446  -5.609  18.278  1.00  0.00    -0.027 C 
ATOM     24  C   UNL     1      18.601  -4.799  17.615  1.00  0.00    -0.065 C 
ATOM     25  C   UNL     1      17.590  -2.516  17.122  1.00  0.00     0.014 C 
ATOM     26  C   UNL     1      17.011  -3.763  19.229  1.00  0.00     0.016 C 
ATOM     27  C   UNL     1      17.832  -5.405  16.452  1.00  0.00     0.063 C 
ATOM     28  C   UNL     1      16.629  -3.214  16.156  1.00  0.00     0.033 C 
ATOM     29  C   UNL     1      17.336  -4.370  15.441  1.00  0.00     0.118 C 
BRANCH  29  30
ATOM     30  O   UNL     1      18.420  -3.900  14.681  1.00  0.00    -0.393 OA
ATOM     31  H   UNL     1      18.977  -4.691  14.454  1.00  0.00     0.210 HD
ENDBRANCH  29  30
ENDBRANCH   9  11
ENDBRANCH   1   9
TORSDOF 7
ENDMDL
MODEL 4
REMARK VINA RESULT:    -5.709      1.425      2.240
REMARK INTER + INTRA:          -9.299
REMARK INTER:                  -7.386
REMARK INTRA:                  -1.913
REMARK UNBOUND:                -1.421
REMARK SMILES CC[C@H](CC[C@H](C)[C@H]1CC[C@@H]2[C@@H]3CC=C4C[C@H](O)CC[C@]4(C)[C@@H]3CC[C@@]21C)C(C)C
REMARK SMILES IDX 5 1 4 2 3 3 2 4 1 5 28 6 29 7 30 8 6 9 7 10 8 11 9 12 26 13
REMARK SMILES IDX 10 14 11 15 25 16 27 17 12 18 24 19 23 20 13 21 21 22 14 23
REMARK SMILES IDX 15 24 20 25 22 26 16 27 19 28 17 29 18 30
REMARK H PARENT 18 31
REMARK Flexibility Score: inf
ROOT
ATOM      1  C   UNL     1      22.739  -1.785  21.708  1.00  0.00     0.004 C 
ENDROOT
BRANCH   1   2
ATOM      2  C   UNL     1      23.346  -0.397  21.406  1.00  0.00     0.004 C 
BRANCH   2   3
ATOM      3  C   UNL     1      23.833  -0.256  19.931  1.00  0.00    -0.009 C 
BRANCH   3   4
ATOM      4  C   UNL     1      23.624   1.200  19.406  1.00  0.00     0.000 C 
ATOM      5  C   UNL     1      22.327   1.875  19.869  1.00  0.00     0.004 C 
ENDBRANCH   3   4
BRANCH   3   6
ATOM      6  C   UNL     1      25.300  -0.790  19.741  1.00  0.00    -0.014 C 
ATOM      7  C   UNL     1      26.347   0.343  19.728  1.00  0.00     0.007 C 
ATOM      8  C   UNL     1      25.449  -1.590  18.427  1.00  0.00     0.007 C 
ENDBRANCH   3   6
ENDBRANCH   2   3
ENDBRANCH   1   2
BRANCH   1   9
ATOM      9  C   UNL     1      21.240  -1.900  21.321  1.00  0.00    -0.011 C 
ATOM     10  C   UNL     1      20.405  -2.162  22.597  1.00  0.00     0.008 C 
BRANCH   9  11
ATOM     11  C   UNL     1      21.018  -3.031  20.249  1.00  0.00    -0.002 C 
ATOM     12  C   UNL     1      19.798  -3.911  20.543  1.00  0.00     0.005 C 
ATOM     13  C   UNL     1      20.855  -2.607  18.732  1.00  0.00    -0.026 C 
ATOM     14  C   UNL     1      19.475  -4.600  19.238  1.00  0.00     0.005 C 
ATOM     15  C   UNL     1      19.714  -3.529  18.179  1.00  0.00    -0.001 C 
ATOM     16  C   UNL     1      22.185  -2.833  17.950  1.00  0.00     0.007 C 
ATOM     17  C   UNL     1      20.408  -1.133  18.546  1.00  0.00     0.012 C 
ATOM     18  C   UNL     1      19.943  -4.070  16.729  1.00  0.00     0.000 C 
ATOM     19  C   UNL     1      22.371  -4.300  17.552  1.00  0.00     0.005 C 
ATOM     20  C   UNL     1      21.355  -4.721  16.461  1.00  0.00     0.003 C 
ATOM     21  C   UNL     1      18.767  -4.941  16.257  1.00  0.00     0.031 C 
ATOM     22  C   UNL     1      21.341  -6.279  16.083  1.00  0.00    -0.008 C 
ATOM     23  C   UNL     1      18.919  -6.359  16.705  1.00  0.00    -0.027 C 
ATOM     24  C   UNL     1      20.105  -6.993  16.657  1.00  0.00    -0.065 C 
ATOM     25  C   UNL     1      22.648  -7.008  16.552  1.00  0.00     0.014 C 
ATOM     26  C   UNL     1      21.270  -6.409  14.534  1.00  0.00     0.016 C 
ATOM     27  C   UNL     1      20.091  -8.502  16.838  1.00  0.00     0.063 C 
ATOM     28  C   UNL     1      22.578  -8.534  16.449  1.00  0.00     0.033 C 
ATOM     29  C   UNL     1      21.429  -9.075  17.308  1.00  0.00     0.118 C 
BRANCH  29  30
ATOM     30  O   UNL     1      21.625  -8.758  18.662  1.00  0.00    -0.393 OA
ATOM     31  H   UNL     1      21.289  -9.531  19.190  1.00  0.00     0.210 HD
ENDBRANCH  29  30
ENDBRANCH   9  11
ENDBRANCH   1   9
TORSDOF 7
ENDMDL
MODEL 5
REMARK VINA RESULT:    -5.651      3.465      7.546
REMARK INTER + INTRA:          -9.220
REMARK INTER:                  -6.557
REMARK INTRA:                  -2.663
REMARK UNBOUND:                -1.421
REMARK SMILES CC[C@H](CC[C@H](C)[C@H]1CC[C@@H]2[C@@H]3CC=C4C[C@H](O)CC[C@]4(C)[C@@H]3CC[C@@]21C)C(C)C
REMARK SMILES IDX 5 1 4 2 3 3 2 4 1 5 28 6 29 7 30 8 6 9 7 10 8 11 9 12 26 13
REMARK SMILES IDX 10 14 11 15 25 16 27 17 12 18 24 19 23 20 13 21 21 22 14 23
REMARK SMILES IDX 15 24 20 25 22 26 16 27 19 28 17 29 18 30
REMARK H PARENT 18 31
REMARK Flexibility Score: inf
ROOT
ATOM      1  C   UNL     1      21.818  -8.258  13.040  1.00  0.00     0.004 C 
ENDROOT
BRANCH   1   2
ATOM      2  C   UNL     1      21.206  -6.852  12.853  1.00  0.00     0.004 C 
BRANCH   2   3
ATOM      3  C   UNL     1      19.929  -6.862  11.958  1.00  0.00    -0.009 C 
BRANCH   3   4
ATOM      4  C   UNL     1      19.369  -8.310  11.794  1.00  0.00     0.000 C 
ATOM      5  C   UNL     1      18.060  -8.588  12.544  1.00  0.00     0.004 C 
ENDBRANCH   3   4
BRANCH   3   6
ATOM      6  C   UNL     1      18.855  -5.823  12.451  1.00  0.00    -0.014 C 
ATOM      7  C   UNL     1      18.621  -4.686  11.436  1.00  0.00     0.007 C 
ATOM      8  C   UNL     1      19.258  -5.183  13.798  1.00  0.00     0.007 C 
ENDBRANCH   3   6
ENDBRANCH   2   3
ENDBRANCH   1   2
BRANCH   1   9
ATOM      9  C   UNL     1      21.819  -8.739  14.516  1.00  0.00    -0.011 C 
ATOM     10  C   UNL     1      21.138 -10.125  14.599  1.00  0.00     0.008 C 
BRANCH   9  11
ATOM     11  C   UNL     1      21.105  -7.693  15.452  1.00  0.00    -0.002 C 
ATOM     12  C   UNL     1      19.731  -8.161  15.943  1.00  0.00     0.005 C 
ATOM     13  C   UNL     1      21.861  -7.216  16.759  1.00  0.00    -0.026 C 
ATOM     14  C   UNL     1      19.416  -7.296  17.141  1.00  0.00     0.005 C 
ATOM     15  C   UNL     1      20.751  -7.155  17.864  1.00  0.00    -0.001 C 
ATOM     16  C   UNL     1      22.509  -5.814  16.540  1.00  0.00     0.007 C 
ATOM     17  C   UNL     1      22.956  -8.206  17.237  1.00  0.00     0.012 C 
ATOM     18  C   UNL     1      20.851  -5.936  18.839  1.00  0.00     0.000 C 
ATOM     19  C   UNL     1      21.486  -4.684  16.682  1.00  0.00     0.005 C 
ATOM     20  C   UNL     1      21.020  -4.527  18.151  1.00  0.00     0.003 C 
ATOM     21  C   UNL     1      19.744  -5.970  19.904  1.00  0.00     0.031 C 
ATOM     22  C   UNL     1      19.825  -3.487  18.397  1.00  0.00    -0.008 C 
ATOM     23  C   UNL     1      18.482  -5.341  19.405  1.00  0.00    -0.027 C 
ATOM     24  C   UNL     1      18.495  -4.206  18.684  1.00  0.00    -0.065 C 
ATOM     25  C   UNL     1      19.651  -2.498  17.192  1.00  0.00     0.014 C 
ATOM     26  C   UNL     1      20.167  -2.632  19.651  1.00  0.00     0.016 C 
ATOM     27  C   UNL     1      17.167  -3.492  18.495  1.00  0.00     0.063 C 
ATOM     28  C   UNL     1      18.371  -1.659  17.259  1.00  0.00     0.033 C 
ATOM     29  C   UNL     1      17.137  -2.568  17.276  1.00  0.00     0.118 C 
BRANCH  29  30
ATOM     30  O   UNL     1      17.068  -3.339  16.104  1.00  0.00    -0.393 OA
ATOM     31  H   UNL     1      16.271  -3.026  15.600  1.00  0.00     0.210 HD
ENDBRANCH  29  30
ENDBRANCH   9  11
ENDBRANCH   1   9
TORSDOF 7
ENDMDL
MODEL 6
REMARK VINA RESULT:    -5.593      4.233      6.591
REMARK INTER + INTRA:          -9.139
REMARK INTER:                  -7.457
REMARK INTRA:                  -1.682
REMARK UNBOUND:                -1.421
REMARK SMILES CC[C@H](CC[C@H](C)[C@H]1CC[C@@H]2[C@@H]3CC=C4C[C@H](O)CC[C@]4(C)[C@@H]3CC[C@@]21C)C(C)C
REMARK SMILES IDX 5 1 4 2 3 3 2 4 1 5 28 6 29 7 30 8 6 9 7 10 8 11 9 12 26 13
REMARK SMILES IDX 10 14 11 15 25 16 27 17 12 18 24 19 23 20 13 21 21 22 14 23
REMARK SMILES IDX 15 24 20 25 22 26 16 27 19 28 17 29 18 30
REMARK H PARENT 18 31
REMARK Flexibility Score: inf
ROOT
ATOM      1  C   UNL     1      22.260  -5.760  17.351  1.00  0.00     0.004 C 
ENDROOT
BRANCH   1   2
ATOM      2  C   UNL     1      22.199  -4.685  16.244  1.00  0.00     0.004 C 
BRANCH   2   3
ATOM      3  C   UNL     1      22.339  -3.234  16.800  1.00  0.00    -0.009 C 
BRANCH   3   4
ATOM      4  C   UNL     1      21.195  -2.907  17.810  1.00  0.00     0.000 C 
ATOM      5  C   UNL     1      19.778  -2.967  17.226  1.00  0.00     0.004 C 
ENDBRANCH   3   4
BRANCH   3   6
ATOM      6  C   UNL     1      23.779  -2.956  17.367  1.00  0.00    -0.014 C 
ATOM      7  C   UNL     1      23.754  -2.148  18.681  1.00  0.00     0.007 C 
ATOM      8  C   UNL     1      24.652  -2.185  16.351  1.00  0.00     0.007 C 
ENDBRANCH   3   6
ENDBRANCH   2   3
ENDBRANCH   1   2
BRANCH   1   9
ATOM      9  C   UNL     1      21.810  -7.167  16.870  1.00  0.00    -0.011 C 
ATOM     10  C   UNL     1      23.037  -8.108  16.837  1.00  0.00     0.008 C 
BRANCH   9  11
ATOM     11  C   UNL     1      21.112  -7.086  15.462  1.00  0.00    -0.002 C 
ATOM     12  C   UNL     1      21.705  -8.060  14.437  1.00  0.00     0.005 C 
ATOM     13  C   UNL     1      19.548  -7.320  15.384  1.00  0.00    -0.026 C 
ATOM     14  C   UNL     1      20.664  -8.181  13.349  1.00  0.00     0.005 C 
ATOM     15  C   UNL     1      19.336  -8.191  14.098  1.00  0.00    -0.001 C 
ATOM     16  C   UNL     1      18.791  -5.961  15.270  1.00  0.00     0.007 C 
ATOM     17  C   UNL     1      18.979  -8.111  16.593  1.00  0.00     0.012 C 
ATOM     18  C   UNL     1      18.087  -7.811  13.238  1.00  0.00     0.000 C 
ATOM     19  C   UNL     1      18.811  -5.416  13.839  1.00  0.00     0.005 C 
ATOM     20  C   UNL     1      17.937  -6.279  12.895  1.00  0.00     0.003 C 
ATOM     21  C   UNL     1      17.941  -8.730  12.014  1.00  0.00     0.031 C 
ATOM     22  C   UNL     1      18.013  -5.905  11.338  1.00  0.00    -0.008 C 
ATOM     23  C   UNL     1      18.759  -8.244  10.861  1.00  0.00    -0.027 C 
ATOM     24  C   UNL     1      18.829  -6.939  10.543  1.00  0.00    -0.065 C 
ATOM     25  C   UNL     1      18.598  -4.468  11.107  1.00  0.00     0.014 C 
ATOM     26  C   UNL     1      16.569  -5.914  10.759  1.00  0.00     0.016 C 
ATOM     27  C   UNL     1      19.426  -6.588   9.190  1.00  0.00     0.063 C 
ATOM     28  C   UNL     1      18.931  -4.162   9.644  1.00  0.00     0.033 C 
ATOM     29  C   UNL     1      19.966  -5.159   9.112  1.00  0.00     0.118 C 
BRANCH  29  30
ATOM     30  O   UNL     1      21.166  -5.070   9.839  1.00  0.00    -0.393 OA
ATOM     31  H   UNL     1      20.963  -4.556  10.665  1.00  0.00     0.210 HD
ENDBRANCH  29  30
ENDBRANCH   9  11
ENDBRANCH   1   9
TORSDOF 7
ENDMDL
MODEL 7
REMARK VINA RESULT:    -5.537      2.041      2.978
REMARK INTER + INTRA:          -9.061
REMARK INTER:                  -7.331
REMARK INTRA:                  -1.731
REMARK UNBOUND:                -1.421
REMARK SMILES CC[C@H](CC[C@H](C)[C@H]1CC[C@@H]2[C@@H]3CC=C4C[C@H](O)CC[C@]4(C)[C@@H]3CC[C@@]21C)C(C)C
REMARK SMILES IDX 5 1 4 2 3 3 2 4 1 5 28 6 29 7 30 8 6 9 7 10 8 11 9 12 26 13
REMARK SMILES IDX 10 14 11 15 25 16 27 17 12 18 24 19 23 20 13 21 21 22 14 23
REMARK SMILES IDX 15 24 20 25 22 26 16 27 19 28 17 29 18 30
REMARK H PARENT 18 31
REMARK Flexibility Score: inf
ROOT
ATOM      1  C   UNL     1      21.361  -1.379  18.972  1.00  0.00     0.004 C 
ENDROOT
BRANCH   1   2
ATOM      2  C   UNL     1      22.763  -1.777  19.482  1.00  0.00     0.004 C 
BRANCH   2   3
ATOM      3  C   UNL     1      23.699  -2.289  18.344  1.00  0.00    -0.009 C 
BRANCH   3   4
ATOM      4  C   UNL     1      22.932  -2.386  16.987  1.00  0.00     0.000 C 
ATOM      5  C   UNL     1      22.894  -3.787  16.364  1.00  0.00     0.004 C 
ENDBRANCH   3   4
BRANCH   3   6
ATOM      6  C   UNL     1      25.032  -1.460  18.257  1.00  0.00    -0.014 C 
ATOM      7  C   UNL     1      25.534  -1.293  16.808  1.00  0.00     0.007 C 
ATOM      8  C   UNL     1      26.165  -2.115  19.080  1.00  0.00     0.007 C 
ENDBRANCH   3   6
ENDBRANCH   2   3
ENDBRANCH   1   2
BRANCH   1   9
ATOM      9  C   UNL     1      20.236  -2.336  19.450  1.00  0.00    -0.011 C 
ATOM     10  C   UNL     1      20.487  -2.717  20.927  1.00  0.00     0.008 C 
BRANCH   9  11
ATOM     11  C   UNL     1      20.155  -3.614  18.534  1.00  0.00    -0.002 C 
ATOM     12  C   UNL     1      20.788  -4.855  19.173  1.00  0.00     0.005 C 
ATOM     13  C   UNL     1      18.730  -4.096  18.040  1.00  0.00    -0.026 C 
ATOM     14  C   UNL     1      20.230  -6.031  18.405  1.00  0.00     0.005 C 
ATOM     15  C   UNL     1      18.773  -5.659  18.155  1.00  0.00    -0.001 C 
ATOM     16  C   UNL     1      18.477  -3.650  16.567  1.00  0.00     0.007 C 
ATOM     17  C   UNL     1      17.562  -3.586  18.926  1.00  0.00     0.012 C 
ATOM     18  C   UNL     1      18.085  -6.429  16.980  1.00  0.00     0.000 C 
ATOM     19  C   UNL     1      19.171  -4.575  15.564  1.00  0.00     0.005 C 
ATOM     20  C   UNL     1      18.503  -5.972  15.530  1.00  0.00     0.003 C 
ATOM     21  C   UNL     1      18.150  -7.951  17.186  1.00  0.00     0.031 C 
ATOM     22  C   UNL     1      19.245  -7.080  14.640  1.00  0.00    -0.008 C 
ATOM     23  C   UNL     1      19.435  -8.520  16.676  1.00  0.00    -0.027 C 
ATOM     24  C   UNL     1      19.975  -8.116  15.512  1.00  0.00    -0.065 C 
ATOM     25  C   UNL     1      20.248  -6.437  13.619  1.00  0.00     0.014 C 
ATOM     26  C   UNL     1      18.173  -7.847  13.813  1.00  0.00     0.016 C 
ATOM     27  C   UNL     1      21.100  -8.963  14.940  1.00  0.00     0.063 C 
ATOM     28  C   UNL     1      21.166  -7.450  12.929  1.00  0.00     0.033 C 
ATOM     29  C   UNL     1      22.004  -8.205  13.967  1.00  0.00     0.118 C 
BRANCH  29  30
ATOM     30  O   UNL     1      22.826  -7.320  14.685  1.00  0.00    -0.393 OA
ATOM     31  H   UNL     1      23.724  -7.742  14.739  1.00  0.00     0.210 HD
ENDBRANCH  29  30
ENDBRANCH   9  11
ENDBRANCH   1   9
TORSDOF 7
ENDMDL
MODEL 8
REMARK VINA RESULT:    -5.314      4.510      7.177
REMARK INTER + INTRA:          -8.754
REMARK INTER:                  -6.700
REMARK INTRA:                  -2.053
REMARK UNBOUND:                -1.421
REMARK SMILES CC[C@H](CC[C@H](C)[C@H]1CC[C@@H]2[C@@H]3CC=C4C[C@H](O)CC[C@]4(C)[C@@H]3CC[C@@]21C)C(C)C
REMARK SMILES IDX 5 1 4 2 3 3 2 4 1 5 28 6 29 7 30 8 6 9 7 10 8 11 9 12 26 13
REMARK SMILES IDX 10 14 11 15 25 16 27 17 12 18 24 19 23 20 13 21 21 22 14 23
REMARK SMILES IDX 15 24 20 25 22 26 16 27 19 28 17 29 18 30
REMARK H PARENT 18 31
REMARK Flexibility Score: inf
ROOT
ATOM      1  C   UNL     1      22.605  -4.873  16.760  1.00  0.00     0.004 C 
ENDROOT
BRANCH   1   2
ATOM      2  C   UNL     1      22.027  -4.082  17.954  1.00  0.00     0.004 C 
BRANCH   2   3
ATOM      3  C   UNL     1      20.476  -4.207  18.068  1.00  0.00    -0.009 C 
BRANCH   3   4
ATOM      4  C   UNL     1      20.054  -4.662  19.501  1.00  0.00     0.000 C 
ATOM      5  C   UNL     1      20.093  -6.177  19.738  1.00  0.00     0.004 C 
ENDBRANCH   3   4
BRANCH   3   6
ATOM      6  C   UNL     1      19.741  -2.907  17.578  1.00  0.00    -0.014 C 
ATOM      7  C   UNL     1      20.236  -1.637  18.299  1.00  0.00     0.007 C 
ATOM      8  C   UNL     1      18.213  -3.005  17.782  1.00  0.00     0.007 C 
ENDBRANCH   3   6
ENDBRANCH   2   3
ENDBRANCH   1   2
BRANCH   1   9
ATOM      9  C   UNL     1      21.891  -6.230  16.513  1.00  0.00    -0.011 C 
ATOM     10  C   UNL     1      22.943  -7.362  16.491  1.00  0.00     0.008 C 
BRANCH   9  11
ATOM     11  C   UNL     1      21.058  -6.195  15.178  1.00  0.00    -0.002 C 
ATOM     12  C   UNL     1      21.731  -6.951  14.027  1.00  0.00     0.005 C 
ATOM     13  C   UNL     1      19.572  -6.740  15.204  1.00  0.00    -0.026 C 
ATOM     14  C   UNL     1      20.636  -7.206  13.018  1.00  0.00     0.005 C 
ATOM     15  C   UNL     1      19.415  -7.542  13.867  1.00  0.00    -0.001 C 
ATOM     16  C   UNL     1      18.553  -5.561  15.272  1.00  0.00     0.007 C 
ATOM     17  C   UNL     1      19.290  -7.714  16.380  1.00  0.00     0.012 C 
ATOM     18  C   UNL     1      18.038  -7.367  13.146  1.00  0.00     0.000 C 
ATOM     19  C   UNL     1      18.327  -4.923  13.898  1.00  0.00     0.005 C 
ATOM     20  C   UNL     1      17.555  -5.879  12.954  1.00  0.00     0.003 C 
ATOM     21  C   UNL     1      17.961  -8.208  11.861  1.00  0.00     0.031 C 
ATOM     22  C   UNL     1      17.405  -5.388  11.434  1.00  0.00    -0.008 C 
ATOM     23  C   UNL     1      18.552  -7.484  10.694  1.00  0.00    -0.027 C 
ATOM     24  C   UNL     1      18.330  -6.173  10.489  1.00  0.00    -0.065 C 
ATOM     25  C   UNL     1      17.668  -3.848  11.287  1.00  0.00     0.014 C 
ATOM     26  C   UNL     1      15.943  -5.653  10.974  1.00  0.00     0.016 C 
ATOM     27  C   UNL     1      18.713  -5.611   9.129  1.00  0.00     0.063 C 
ATOM     28  C   UNL     1      17.792  -3.377   9.835  1.00  0.00     0.033 C 
ATOM     29  C   UNL     1      18.949  -4.100   9.135  1.00  0.00     0.118 C 
BRANCH  29  30
ATOM     30  O   UNL     1      20.170  -3.818   9.770  1.00  0.00    -0.393 OA
ATOM     31  H   UNL     1      19.984  -3.126  10.458  1.00  0.00     0.210 HD
ENDBRANCH  29  30
ENDBRANCH   9  11
ENDBRANCH   1   9
TORSDOF 7
ENDMDL
MODEL 9
REMARK VINA RESULT:    -5.235      1.937      3.516
REMARK INTER + INTRA:          -8.645
REMARK INTER:                  -8.066
REMARK INTRA:                  -0.579
REMARK UNBOUND:                -1.421
REMARK SMILES CC[C@H](CC[C@H](C)[C@H]1CC[C@@H]2[C@@H]3CC=C4C[C@H](O)CC[C@]4(C)[C@@H]3CC[C@@]21C)C(C)C
REMARK SMILES IDX 5 1 4 2 3 3 2 4 1 5 28 6 29 7 30 8 6 9 7 10 8 11 9 12 26 13
REMARK SMILES IDX 10 14 11 15 25 16 27 17 12 18 24 19 23 20 13 21 21 22 14 23
REMARK SMILES IDX 15 24 20 25 22 26 16 27 19 28 17 29 18 30
REMARK H PARENT 18 31
REMARK Flexibility Score: inf
ROOT
ATOM      1  C   UNL     1      21.715  -2.559  19.542  1.00  0.00     0.004 C 
ENDROOT
BRANCH   1   2
ATOM      2  C   UNL     1      23.195  -2.213  19.818  1.00  0.00     0.004 C 
BRANCH   2   3
ATOM      3  C   UNL     1      23.831  -1.334  18.697  1.00  0.00    -0.009 C 
BRANCH   3   4
ATOM      4  C   UNL     1      24.174   0.094  19.229  1.00  0.00     0.000 C 
ATOM      5  C   UNL     1      23.032   0.800  19.970  1.00  0.00     0.004 C 
ENDBRANCH   3   4
BRANCH   3   6
ATOM      6  C   UNL     1      25.041  -2.054  17.998  1.00  0.00    -0.014 C 
ATOM      7  C   UNL     1      26.405  -1.485  18.439  1.00  0.00     0.007 C 
ATOM      8  C   UNL     1      24.955  -1.946  16.459  1.00  0.00     0.007 C 
ENDBRANCH   3   6
ENDBRANCH   2   3
ENDBRANCH   1   2
BRANCH   1   9
ATOM      9  C   UNL     1      21.345  -2.527  18.034  1.00  0.00    -0.011 C 
ATOM     10  C   UNL     1      19.998  -1.788  17.858  1.00  0.00     0.008 C 
BRANCH   9  11
ATOM     11  C   UNL     1      21.283  -3.982  17.437  1.00  0.00    -0.002 C 
ATOM     12  C   UNL     1      22.661  -4.641  17.308  1.00  0.00     0.005 C 
ATOM     13  C   UNL     1      20.388  -5.060  18.175  1.00  0.00    -0.026 C 
ATOM     14  C   UNL     1      22.388  -6.121  17.174  1.00  0.00     0.005 C 
ATOM     15  C   UNL     1      21.235  -6.379  18.137  1.00  0.00    -0.001 C 
ATOM     16  C   UNL     1      19.028  -5.247  17.435  1.00  0.00     0.007 C 
ATOM     17  C   UNL     1      20.106  -4.718  19.662  1.00  0.00     0.012 C 
ATOM     18  C   UNL     1      20.418  -7.683  17.859  1.00  0.00     0.000 C 
ATOM     19  C   UNL     1      19.165  -6.156  16.209  1.00  0.00     0.005 C 
ATOM     20  C   UNL     1      19.439  -7.623  16.624  1.00  0.00     0.003 C 
ATOM     21  C   UNL     1      21.320  -8.928  17.866  1.00  0.00     0.031 C 
ATOM     22  C   UNL     1      19.768  -8.637  15.427  1.00  0.00    -0.008 C 
ATOM     23  C   UNL     1      21.952  -9.157  16.530  1.00  0.00    -0.027 C 
ATOM     24  C   UNL     1      21.261  -9.004  15.385  1.00  0.00    -0.065 C 
ATOM     25  C   UNL     1      19.316  -8.069  14.036  1.00  0.00     0.014 C 
ATOM     26  C   UNL     1      18.976  -9.955  15.666  1.00  0.00     0.016 C 
ATOM     27  C   UNL     1      21.894  -9.553  14.117  1.00  0.00     0.063 C 
ATOM     28  C   UNL     1      19.834  -8.873  12.840  1.00  0.00     0.033 C 
ATOM     29  C   UNL     1      21.366  -8.901  12.838  1.00  0.00     0.118 C 
BRANCH  29  30
ATOM     30  O   UNL     1      21.889  -7.602  12.723  1.00  0.00    -0.393 OA
ATOM     31  H   UNL     1      21.960  -7.238  13.646  1.00  0.00     0.210 HD
ENDBRANCH  29  30
ENDBRANCH   9  11
ENDBRANCH   1   9
TORSDOF 7
ENDMDL
