MODEL 1
REMARK VINA RESULT:     6.276      0.000      0.000
REMARK INTER + INTRA:          16.558
REMARK INTER:                  16.549
REMARK INTRA:                   0.009
REMARK UNBOUND:                 0.009
REMARK SMILES CCCCCCCCCCCCCCCCCCCCCCCCCCCCCC(=O)[O-]
REMARK SMILES IDX 16 1 17 2 18 3 19 4 20 5 21 6 22 7 23 8 24 9 25 10 26 11
REMARK SMILES IDX 27 12 28 13 29 14 30 15 31 16 32 17 15 18 14 19 13 20 12 21
REMARK SMILES IDX 11 22 10 23 9 24 8 25 7 26 6 27 5 28 4 29 3 30 2 31 1 32
REMARK H PARENT
REMARK Flexibility Score: inf
ROOT
ATOM      1  C   UNL     1       5.280  75.431   0.784  1.00  0.00     0.000 C 
ENDROOT
BRANCH   1   2
ATOM      2  C   UNL     1       5.580  73.977   0.371  1.00  0.00     0.000 C 
BRANCH   2   3
ATOM      3  C   UNL     1       7.077  73.673   0.169  1.00  0.00     0.000 C 
BRANCH   3   4
ATOM      4  C   UNL     1       7.986  74.456   1.141  1.00  0.00     0.000 C 
BRANCH   4   5
ATOM      5  C   UNL     1       9.305  73.733   1.479  1.00  0.00     0.000 C 
BRANCH   5   6
ATOM      6  C   UNL     1      10.333  74.616   2.221  1.00  0.00     0.000 C 
BRANCH   6   7
ATOM      7  C   UNL     1      11.425  73.845   2.990  1.00  0.00     0.000 C 
BRANCH   7   8
ATOM      8  C   UNL     1      12.875  74.162   2.572  1.00  0.00     0.000 C 
BRANCH   8   9
ATOM      9  C   UNL     1      13.022  75.477   1.777  1.00  0.00     0.000 C 
BRANCH   9  10
ATOM     10  C   UNL     1      14.211  76.323   2.268  1.00  0.00     0.000 C 
BRANCH  10  11
ATOM     11  C   UNL     1      14.646  75.954   3.702  1.00  0.00     0.000 C 
BRANCH  11  12
ATOM     12  C   UNL     1      13.528  76.098   4.754  1.00  0.00     0.000 C 
BRANCH  12  13
ATOM     13  C   UNL     1      13.703  75.233   6.012  1.00  0.00     0.006 C 
BRANCH  13  14
ATOM     14  C   UNL     1      15.042  74.483   6.037  1.00  0.00     0.053 C 
BRANCH  14  15
ATOM     15  C   UNL     1      15.043  73.425   7.096  1.00  0.00     0.041 C 
ATOM     16  O   UNL     1      15.124  73.739   8.314  1.00  0.00    -0.550 OA
ATOM     17  O   UNL     1      14.988  72.083   6.736  1.00  0.00    -0.550 OA
ENDBRANCH  14  15
ENDBRANCH  13  14
ENDBRANCH  12  13
ENDBRANCH  11  12
ENDBRANCH  10  11
ENDBRANCH   9  10
ENDBRANCH   8   9
ENDBRANCH   7   8
ENDBRANCH   6   7
ENDBRANCH   5   6
ENDBRANCH   4   5
ENDBRANCH   3   4
ENDBRANCH   2   3
ENDBRANCH   1   2
BRANCH   1  18
ATOM     18  C   UNL     1       6.375  76.460   0.441  1.00  0.00     0.000 C 
BRANCH  18  19
ATOM     19  C   UNL     1       6.463  77.644   1.428  1.00  0.00     0.000 C 
BRANCH  19  20
ATOM     20  C   UNL     1       5.132  78.384   1.679  1.00  0.00     0.000 C 
BRANCH  20  21
ATOM     21  C   UNL     1       4.656  78.425   3.145  1.00  0.00     0.000 C 
BRANCH  21  22
ATOM     22  C   UNL     1       4.661  77.051   3.832  1.00  0.00     0.000 C 
BRANCH  22  23
ATOM     23  C   UNL     1       4.199  77.169   5.295  1.00  0.00     0.000 C 
BRANCH  23  24
ATOM     24  C   UNL     1       2.670  77.134   5.434  1.00  0.00    -0.000 C 
BRANCH  24  25
ATOM     25  C   UNL     1       2.155  78.051   6.558  1.00  0.00    -0.000 C 
BRANCH  25  26
ATOM     26  C   UNL     1       3.134  78.140   7.740  1.00  0.00    -0.000 C 
BRANCH  26  27
ATOM     27  C   UNL     1       3.298  76.796   8.472  1.00  0.00    -0.000 C 
BRANCH  27  28
ATOM     28  C   UNL     1       3.668  76.965   9.956  1.00  0.00    -0.000 C 
BRANCH  28  29
ATOM     29  C   UNL     1       3.357  78.355  10.543  1.00  0.00    -0.000 C 
BRANCH  29  30
ATOM     30  C   UNL     1       3.814  78.530  12.009  1.00  0.00    -0.000 C 
BRANCH  30  31
ATOM     31  C   UNL     1       5.312  78.846  12.119  1.00  0.00    -0.003 C 
ATOM     32  C   UNL     1       6.166  77.613  11.837  1.00  0.00     0.004 C 
ENDBRANCH  30  31
ENDBRANCH  29  30
ENDBRANCH  28  29
ENDBRANCH  27  28
ENDBRANCH  26  27
ENDBRANCH  25  26
ENDBRANCH  24  25
ENDBRANCH  23  24
ENDBRANCH  22  23
ENDBRANCH  21  22
ENDBRANCH  20  21
ENDBRANCH  19  20
ENDBRANCH  18  19
ENDBRANCH   1  18
TORSDOF 28
ENDMDL
MODEL 2
REMARK VINA RESULT:     7.333     16.165     18.977
REMARK INTER + INTRA:          19.344
REMARK INTER:                  19.171
REMARK INTRA:                   0.173
REMARK UNBOUND:                 0.009
REMARK SMILES CCCCCCCCCCCCCCCCCCCCCCCCCCCCCC(=O)[O-]
REMARK SMILES IDX 16 1 17 2 18 3 19 4 20 5 21 6 22 7 23 8 24 9 25 10 26 11
REMARK SMILES IDX 27 12 28 13 29 14 30 15 31 16 32 17 15 18 14 19 13 20 12 21
REMARK SMILES IDX 11 22 10 23 9 24 8 25 7 26 6 27 5 28 4 29 3 30 2 31 1 32
REMARK H PARENT
REMARK Flexibility Score: inf
ROOT
ATOM      1  C   UNL     1       1.738  67.256  -4.972  1.00  0.00     0.000 C 
ENDROOT
BRANCH   1   2
ATOM      2  C   UNL     1       3.224  67.157  -5.368  1.00  0.00     0.000 C 
BRANCH   2   3
ATOM      3  C   UNL     1       3.797  65.727  -5.316  1.00  0.00     0.000 C 
BRANCH   3   4
ATOM      4  C   UNL     1       2.908  64.695  -6.041  1.00  0.00     0.000 C 
BRANCH   4   5
ATOM      5  C   UNL     1       3.134  63.243  -5.578  1.00  0.00     0.000 C 
BRANCH   5   6
ATOM      6  C   UNL     1       2.433  62.185  -6.459  1.00  0.00     0.000 C 
BRANCH   6   7
ATOM      7  C   UNL     1       3.279  60.937  -6.783  1.00  0.00     0.000 C 
BRANCH   7   8
ATOM      8  C   UNL     1       2.485  59.713  -7.281  1.00  0.00     0.000 C 
BRANCH   8   9
ATOM      9  C   UNL     1       1.840  58.884  -6.149  1.00  0.00     0.000 C 
BRANCH   9  10
ATOM     10  C   UNL     1       0.462  59.432  -5.739  1.00  0.00     0.000 C 
BRANCH  10  11
ATOM     11  C   UNL     1       0.561  60.522  -4.650  1.00  0.00     0.000 C 
BRANCH  11  12
ATOM     12  C   UNL     1      -0.045  60.111  -3.293  1.00  0.00     0.000 C 
BRANCH  12  13
ATOM     13  C   UNL     1      -1.556  59.834  -3.312  1.00  0.00     0.006 C 
BRANCH  13  14
ATOM     14  C   UNL     1      -1.996  59.018  -4.536  1.00  0.00     0.053 C 
BRANCH  14  15
ATOM     15  C   UNL     1      -3.482  59.070  -4.706  1.00  0.00     0.041 C 
ATOM     16  O   UNL     1      -4.246  58.937  -3.712  1.00  0.00    -0.550 OA
ATOM     17  O   UNL     1      -4.029  59.231  -5.975  1.00  0.00    -0.550 OA
ENDBRANCH  14  15
ENDBRANCH  13  14
ENDBRANCH  12  13
ENDBRANCH  11  12
ENDBRANCH  10  11
ENDBRANCH   9  10
ENDBRANCH   8   9
ENDBRANCH   7   8
ENDBRANCH   6   7
ENDBRANCH   5   6
ENDBRANCH   4   5
ENDBRANCH   3   4
ENDBRANCH   2   3
ENDBRANCH   1   2
BRANCH   1  18
ATOM     18  C   UNL     1       0.758  67.537  -6.129  1.00  0.00     0.000 C 
BRANCH  18  19
ATOM     19  C   UNL     1      -0.043  68.848  -5.975  1.00  0.00     0.000 C 
BRANCH  19  20
ATOM     20  C   UNL     1      -1.457  68.825  -6.591  1.00  0.00     0.000 C 
BRANCH  20  21
ATOM     21  C   UNL     1      -2.616  69.109  -5.614  1.00  0.00     0.000 C 
BRANCH  21  22
ATOM     22  C   UNL     1      -3.887  68.302  -5.916  1.00  0.00     0.000 C 
BRANCH  22  23
ATOM     23  C   UNL     1      -5.096  69.234  -6.103  1.00  0.00     0.000 C 
BRANCH  23  24
ATOM     24  C   UNL     1      -4.795  70.405  -7.051  1.00  0.00    -0.000 C 
BRANCH  24  25
ATOM     25  C   UNL     1      -4.706  71.755  -6.317  1.00  0.00    -0.000 C 
BRANCH  25  26
ATOM     26  C   UNL     1      -4.707  72.951  -7.283  1.00  0.00    -0.000 C 
BRANCH  26  27
ATOM     27  C   UNL     1      -4.696  74.304  -6.547  1.00  0.00    -0.000 C 
BRANCH  27  28
ATOM     28  C   UNL     1      -4.705  75.506  -7.506  1.00  0.00    -0.000 C 
BRANCH  28  29
ATOM     29  C   UNL     1      -3.584  76.533  -7.264  1.00  0.00    -0.000 C 
BRANCH  29  30
ATOM     30  C   UNL     1      -3.851  77.913  -7.906  1.00  0.00    -0.000 C 
BRANCH  30  31
ATOM     31  C   UNL     1      -2.859  78.981  -7.426  1.00  0.00    -0.003 C 
ATOM     32  C   UNL     1      -1.440  78.683  -7.905  1.00  0.00     0.004 C 
ENDBRANCH  30  31
ENDBRANCH  29  30
ENDBRANCH  28  29
ENDBRANCH  27  28
ENDBRANCH  26  27
ENDBRANCH  25  26
ENDBRANCH  24  25
ENDBRANCH  23  24
ENDBRANCH  22  23
ENDBRANCH  21  22
ENDBRANCH  20  21
ENDBRANCH  19  20
ENDBRANCH  18  19
ENDBRANCH   1  18
TORSDOF 28
ENDMDL
MODEL 3
REMARK VINA RESULT:     7.893      2.036      2.860
REMARK INTER + INTRA:          20.822
REMARK INTER:                  21.276
REMARK INTRA:                  -0.454
REMARK UNBOUND:                 0.009
REMARK SMILES CCCCCCCCCCCCCCCCCCCCCCCCCCCCCC(=O)[O-]
REMARK SMILES IDX 16 1 17 2 18 3 19 4 20 5 21 6 22 7 23 8 24 9 25 10 26 11
REMARK SMILES IDX 27 12 28 13 29 14 30 15 31 16 32 17 15 18 14 19 13 20 12 21
REMARK SMILES IDX 11 22 10 23 9 24 8 25 7 26 6 27 5 28 4 29 3 30 2 31 1 32
REMARK H PARENT
REMARK Flexibility Score: inf
ROOT
ATOM      1  C   UNL     1       6.381  76.560   0.510  1.00  0.00     0.000 C 
ENDROOT
BRANCH   1   2
ATOM      2  C   UNL     1       5.290  75.472   0.494  1.00  0.00     0.000 C 
BRANCH   2   3
ATOM      3  C   UNL     1       5.833  74.035   0.379  1.00  0.00     0.000 C 
BRANCH   3   4
ATOM      4  C   UNL     1       7.375  73.973   0.368  1.00  0.00     0.000 C 
BRANCH   4   5
ATOM      5  C   UNL     1       8.022  74.319   1.724  1.00  0.00     0.000 C 
BRANCH   5   6
ATOM      6  C   UNL     1       9.452  73.762   1.899  1.00  0.00     0.000 C 
BRANCH   6   7
ATOM      7  C   UNL     1      10.517  74.803   2.296  1.00  0.00     0.000 C 
BRANCH   7   8
ATOM      8  C   UNL     1      11.825  74.223   2.870  1.00  0.00     0.000 C 
BRANCH   8   9
ATOM      9  C   UNL     1      11.720  73.786   4.346  1.00  0.00     0.000 C 
BRANCH   9  10
ATOM     10  C   UNL     1      12.428  74.768   5.296  1.00  0.00     0.000 C 
BRANCH  10  11
ATOM     11  C   UNL     1      13.726  74.182   5.892  1.00  0.00     0.000 C 
BRANCH  11  12
ATOM     12  C   UNL     1      14.998  74.534   5.096  1.00  0.00     0.000 C 
BRANCH  12  13
ATOM     13  C   UNL     1      14.842  75.697   4.103  1.00  0.00     0.006 C 
BRANCH  13  14
ATOM     14  C   UNL     1      14.722  75.223   2.647  1.00  0.00     0.053 C 
BRANCH  14  15
ATOM     15  C   UNL     1      14.107  76.285   1.789  1.00  0.00     0.041 C 
ATOM     16  O   UNL     1      13.813  76.045   0.586  1.00  0.00    -0.550 OA
ATOM     17  O   UNL     1      13.889  77.556   2.308  1.00  0.00    -0.550 OA
ENDBRANCH  14  15
ENDBRANCH  13  14
ENDBRANCH  12  13
ENDBRANCH  11  12
ENDBRANCH  10  11
ENDBRANCH   9  10
ENDBRANCH   8   9
ENDBRANCH   7   8
ENDBRANCH   6   7
ENDBRANCH   5   6
ENDBRANCH   4   5
ENDBRANCH   3   4
ENDBRANCH   2   3
ENDBRANCH   1   2
BRANCH   1  18
ATOM     18  C   UNL     1       5.872  78.014   0.579  1.00  0.00     0.000 C 
BRANCH  18  19
ATOM     19  C   UNL     1       5.181  78.380   1.911  1.00  0.00     0.000 C 
BRANCH  19  20
ATOM     20  C   UNL     1       5.488  77.431   3.088  1.00  0.00     0.000 C 
BRANCH  20  21
ATOM     21  C   UNL     1       4.678  77.679   4.376  1.00  0.00     0.000 C 
BRANCH  21  22
ATOM     22  C   UNL     1       5.097  76.781   5.549  1.00  0.00     0.000 C 
BRANCH  22  23
ATOM     23  C   UNL     1       3.985  76.712   6.609  1.00  0.00     0.000 C 
BRANCH  23  24
ATOM     24  C   UNL     1       2.628  77.191   6.072  1.00  0.00    -0.000 C 
BRANCH  24  25
ATOM     25  C   UNL     1       1.829  77.997   7.111  1.00  0.00    -0.000 C 
BRANCH  25  26
ATOM     26  C   UNL     1       2.681  79.074   7.802  1.00  0.00    -0.000 C 
BRANCH  26  27
ATOM     27  C   UNL     1       2.447  79.125   9.323  1.00  0.00    -0.000 C 
BRANCH  27  28
ATOM     28  C   UNL     1       3.631  78.565  10.130  1.00  0.00    -0.000 C 
BRANCH  28  29
ATOM     29  C   UNL     1       3.343  77.242  10.863  1.00  0.00    -0.000 C 
BRANCH  29  30
ATOM     30  C   UNL     1       4.208  77.026  12.125  1.00  0.00    -0.000 C 
BRANCH  30  31
ATOM     31  C   UNL     1       5.689  76.806  11.786  1.00  0.00    -0.003 C 
ATOM     32  C   UNL     1       6.399  78.127  11.500  1.00  0.00     0.004 C 
ENDBRANCH  30  31
ENDBRANCH  29  30
ENDBRANCH  28  29
ENDBRANCH  27  28
ENDBRANCH  26  27
ENDBRANCH  25  26
ENDBRANCH  24  25
ENDBRANCH  23  24
ENDBRANCH  22  23
ENDBRANCH  21  22
ENDBRANCH  20  21
ENDBRANCH  19  20
ENDBRANCH  18  19
ENDBRANCH   1  18
TORSDOF 28
ENDMDL
MODEL 4
REMARK VINA RESULT:     8.109      0.941      1.612
REMARK INTER + INTRA:          21.393
REMARK INTER:                  19.271
REMARK INTRA:                   2.121
REMARK UNBOUND:                 0.009
REMARK SMILES CCCCCCCCCCCCCCCCCCCCCCCCCCCCCC(=O)[O-]
REMARK SMILES IDX 16 1 17 2 18 3 19 4 20 5 21 6 22 7 23 8 24 9 25 10 26 11
REMARK SMILES IDX 27 12 28 13 29 14 30 15 31 16 32 17 15 18 14 19 13 20 12 21
REMARK SMILES IDX 11 22 10 23 9 24 8 25 7 26 6 27 5 28 4 29 3 30 2 31 1 32
REMARK H PARENT
REMARK Flexibility Score: inf
ROOT
ATOM      1  C   UNL     1       5.819  75.071   0.843  1.00  0.00     0.000 C 
ENDROOT
BRANCH   1   2
ATOM      2  C   UNL     1       6.523  73.718   1.067  1.00  0.00     0.000 C 
BRANCH   2   3
ATOM      3  C   UNL     1       8.041  73.745   0.804  1.00  0.00     0.000 C 
BRANCH   3   4
ATOM      4  C   UNL     1       8.859  74.178   2.039  1.00  0.00     0.000 C 
BRANCH   4   5
ATOM      5  C   UNL     1      10.278  73.580   2.088  1.00  0.00     0.000 C 
BRANCH   5   6
ATOM      6  C   UNL     1      11.112  74.038   3.305  1.00  0.00     0.000 C 
BRANCH   6   7
ATOM      7  C   UNL     1      12.592  74.350   3.004  1.00  0.00     0.000 C 
BRANCH   7   8
ATOM      8  C   UNL     1      12.891  74.805   1.562  1.00  0.00     0.000 C 
BRANCH   8   9
ATOM      9  C   UNL     1      13.780  76.064   1.475  1.00  0.00     0.000 C 
BRANCH   9  10
ATOM     10  C   UNL     1      14.031  76.695   2.856  1.00  0.00     0.000 C 
BRANCH  10  11
ATOM     11  C   UNL     1      13.783  75.702   4.013  1.00  0.00     0.000 C 
BRANCH  11  12
ATOM     12  C   UNL     1      13.594  76.375   5.387  1.00  0.00     0.000 C 
BRANCH  12  13
ATOM     13  C   UNL     1      13.949  75.495   6.596  1.00  0.00     0.006 C 
BRANCH  13  14
ATOM     14  C   UNL     1      15.123  74.545   6.316  1.00  0.00     0.053 C 
BRANCH  14  15
ATOM     15  C   UNL     1      14.982  73.277   7.100  1.00  0.00     0.041 C 
ATOM     16  O   UNL     1      14.818  72.175   6.509  1.00  0.00    -0.550 OA
ATOM     17  O   UNL     1      14.998  73.316   8.490  1.00  0.00    -0.550 OA
ENDBRANCH  14  15
ENDBRANCH  13  14
ENDBRANCH  12  13
ENDBRANCH  11  12
ENDBRANCH  10  11
ENDBRANCH   9  10
ENDBRANCH   8   9
ENDBRANCH   7   8
ENDBRANCH   6   7
ENDBRANCH   5   6
ENDBRANCH   4   5
ENDBRANCH   3   4
ENDBRANCH   2   3
ENDBRANCH   1   2
BRANCH   1  18
ATOM     18  C   UNL     1       6.655  76.146   0.122  1.00  0.00     0.000 C 
BRANCH  18  19
ATOM     19  C   UNL     1       6.844  77.448   0.930  1.00  0.00     0.000 C 
BRANCH  19  20
ATOM     20  C   UNL     1       5.542  78.203   1.266  1.00  0.00     0.000 C 
BRANCH  20  21
ATOM     21  C   UNL     1       5.238  78.377   2.768  1.00  0.00     0.000 C 
BRANCH  21  22
ATOM     22  C   UNL     1       5.037  77.048   3.512  1.00  0.00     0.000 C 
BRANCH  22  23
ATOM     23  C   UNL     1       5.261  77.228   5.023  1.00  0.00     0.000 C 
BRANCH  23  24
ATOM     24  C   UNL     1       3.989  76.965   5.843  1.00  0.00    -0.000 C 
BRANCH  24  25
ATOM     25  C   UNL     1       2.724  76.894   4.969  1.00  0.00    -0.000 C 
BRANCH  25  26
ATOM     26  C   UNL     1       1.753  78.055   5.243  1.00  0.00    -0.000 C 
BRANCH  26  27
ATOM     27  C   UNL     1       1.282  78.097   6.708  1.00  0.00    -0.000 C 
BRANCH  27  28
ATOM     28  C   UNL     1       2.324  77.528   7.688  1.00  0.00    -0.000 C 
BRANCH  28  29
ATOM     29  C   UNL     1       2.937  78.563   8.649  1.00  0.00    -0.000 C 
BRANCH  29  30
ATOM     30  C   UNL     1       4.098  78.010   9.505  1.00  0.00    -0.000 C 
BRANCH  30  31
ATOM     31  C   UNL     1       3.620  77.481  10.864  1.00  0.00    -0.003 C 
ATOM     32  C   UNL     1       3.568  78.592  11.910  1.00  0.00     0.004 C 
ENDBRANCH  30  31
ENDBRANCH  29  30
ENDBRANCH  28  29
ENDBRANCH  27  28
ENDBRANCH  26  27
ENDBRANCH  25  26
ENDBRANCH  24  25
ENDBRANCH  23  24
ENDBRANCH  22  23
ENDBRANCH  21  22
ENDBRANCH  20  21
ENDBRANCH  19  20
ENDBRANCH  18  19
ENDBRANCH   1  18
TORSDOF 28
ENDMDL
MODEL 5
REMARK VINA RESULT:     8.390     15.205     20.044
REMARK INTER + INTRA:          22.132
REMARK INTER:                  23.970
REMARK INTRA:                  -1.838
REMARK UNBOUND:                 0.009
REMARK SMILES CCCCCCCCCCCCCCCCCCCCCCCCCCCCCC(=O)[O-]
REMARK SMILES IDX 16 1 17 2 18 3 19 4 20 5 21 6 22 7 23 8 24 9 25 10 26 11
REMARK SMILES IDX 27 12 28 13 29 14 30 15 31 16 32 17 15 18 14 19 13 20 12 21
REMARK SMILES IDX 11 22 10 23 9 24 8 25 7 26 6 27 5 28 4 29 3 30 2 31 1 32
REMARK H PARENT
REMARK Flexibility Score: inf
ROOT
ATOM      1  C   UNL     1      -0.687  59.086  -6.438  1.00  0.00     0.000 C 
ENDROOT
BRANCH   1   2
ATOM      2  C   UNL     1      -1.444  58.885  -7.766  1.00  0.00     0.000 C 
BRANCH   2   3
ATOM      3  C   UNL     1      -2.978  58.882  -7.623  1.00  0.00     0.000 C 
BRANCH   3   4
ATOM      4  C   UNL     1      -3.633  60.188  -8.123  1.00  0.00     0.000 C 
BRANCH   4   5
ATOM      5  C   UNL     1      -4.110  61.118  -6.991  1.00  0.00     0.000 C 
BRANCH   5   6
ATOM      6  C   UNL     1      -4.910  60.400  -5.882  1.00  0.00     0.000 C 
BRANCH   6   7
ATOM      7  C   UNL     1      -4.194  60.295  -4.520  1.00  0.00     0.000 C 
BRANCH   7   8
ATOM      8  C   UNL     1      -3.281  59.065  -4.347  1.00  0.00     0.000 C 
BRANCH   8   9
ATOM      9  C   UNL     1      -2.677  58.929  -2.934  1.00  0.00     0.000 C 
BRANCH   9  10
ATOM     10  C   UNL     1      -1.739  60.099  -2.587  1.00  0.00     0.000 C 
BRANCH  10  11
ATOM     11  C   UNL     1      -0.532  60.191  -3.545  1.00  0.00     0.000 C 
BRANCH  11  12
ATOM     12  C   UNL     1       0.836  60.198  -2.833  1.00  0.00     0.000 C 
BRANCH  12  13
ATOM     13  C   UNL     1       0.772  60.336  -1.303  1.00  0.00     0.006 C 
BRANCH  13  14
ATOM     14  C   UNL     1       1.102  61.756  -0.820  1.00  0.00     0.053 C 
BRANCH  14  15
ATOM     15  C   UNL     1       1.534  61.745   0.613  1.00  0.00     0.041 C 
ATOM     16  O   UNL     1       2.632  62.264   0.954  1.00  0.00    -0.550 OA
ATOM     17  O   UNL     1       0.738  61.129   1.573  1.00  0.00    -0.550 OA
ENDBRANCH  14  15
ENDBRANCH  13  14
ENDBRANCH  12  13
ENDBRANCH  11  12
ENDBRANCH  10  11
ENDBRANCH   9  10
ENDBRANCH   8   9
ENDBRANCH   7   8
ENDBRANCH   6   7
ENDBRANCH   5   6
ENDBRANCH   4   5
ENDBRANCH   3   4
ENDBRANCH   2   3
ENDBRANCH   1   2
BRANCH   1  18
ATOM     18  C   UNL     1       0.839  58.875  -6.503  1.00  0.00     0.000 C 
BRANCH  18  19
ATOM     19  C   UNL     1       1.608  60.026  -7.188  1.00  0.00     0.000 C 
BRANCH  19  20
ATOM     20  C   UNL     1       2.700  60.688  -6.323  1.00  0.00     0.000 C 
BRANCH  20  21
ATOM     21  C   UNL     1       3.711  61.570  -7.081  1.00  0.00     0.000 C 
BRANCH  21  22
ATOM     22  C   UNL     1       3.088  62.836  -7.690  1.00  0.00     0.000 C 
BRANCH  22  23
ATOM     23  C   UNL     1       2.498  63.737  -6.592  1.00  0.00     0.000 C 
BRANCH  23  24
ATOM     24  C   UNL     1       3.249  65.071  -6.459  1.00  0.00    -0.000 C 
BRANCH  24  25
ATOM     25  C   UNL     1       2.689  65.957  -5.332  1.00  0.00    -0.000 C 
BRANCH  25  26
ATOM     26  C   UNL     1       2.168  67.308  -5.851  1.00  0.00    -0.000 C 
BRANCH  26  27
ATOM     27  C   UNL     1       0.699  67.238  -6.306  1.00  0.00    -0.000 C 
BRANCH  27  28
ATOM     28  C   UNL     1       0.002  68.609  -6.290  1.00  0.00    -0.000 C 
BRANCH  28  29
ATOM     29  C   UNL     1      -1.424  68.615  -6.871  1.00  0.00    -0.000 C 
BRANCH  29  30
ATOM     30  C   UNL     1      -2.530  68.819  -5.812  1.00  0.00    -0.000 C 
BRANCH  30  31
ATOM     31  C   UNL     1      -1.967  68.881  -4.386  1.00  0.00    -0.003 C 
ATOM     32  C   UNL     1      -2.010  70.302  -3.829  1.00  0.00     0.004 C 
ENDBRANCH  30  31
ENDBRANCH  29  30
ENDBRANCH  28  29
ENDBRANCH  27  28
ENDBRANCH  26  27
ENDBRANCH  25  26
ENDBRANCH  24  25
ENDBRANCH  23  24
ENDBRANCH  22  23
ENDBRANCH  21  22
ENDBRANCH  20  21
ENDBRANCH  19  20
ENDBRANCH  18  19
ENDBRANCH   1  18
TORSDOF 28
ENDMDL
MODEL 6
REMARK VINA RESULT:     9.007      3.265     10.056
REMARK INTER + INTRA:          23.761
REMARK INTER:                  23.654
REMARK INTRA:                   0.106
REMARK UNBOUND:                 0.009
REMARK SMILES CCCCCCCCCCCCCCCCCCCCCCCCCCCCCC(=O)[O-]
REMARK SMILES IDX 16 1 17 2 18 3 19 4 20 5 21 6 22 7 23 8 24 9 25 10 26 11
REMARK SMILES IDX 27 12 28 13 29 14 30 15 31 16 32 17 15 18 14 19 13 20 12 21
REMARK SMILES IDX 11 22 10 23 9 24 8 25 7 26 6 27 5 28 4 29 3 30 2 31 1 32
REMARK H PARENT
REMARK Flexibility Score: inf
ROOT
ATOM      1  C   UNL     1       5.588  75.804   0.466  1.00  0.00     0.000 C 
ENDROOT
BRANCH   1   2
ATOM      2  C   UNL     1       6.807  76.698   0.164  1.00  0.00     0.000 C 
BRANCH   2   3
ATOM      3  C   UNL     1       6.533  78.207   0.305  1.00  0.00     0.000 C 
BRANCH   3   4
ATOM      4  C   UNL     1       5.434  78.526   1.341  1.00  0.00     0.000 C 
BRANCH   4   5
ATOM      5  C   UNL     1       5.732  77.986   2.753  1.00  0.00     0.000 C 
BRANCH   5   6
ATOM      6  C   UNL     1       4.471  77.617   3.564  1.00  0.00     0.000 C 
BRANCH   6   7
ATOM      7  C   UNL     1       4.737  76.864   4.884  1.00  0.00     0.000 C 
BRANCH   7   8
ATOM      8  C   UNL     1       3.479  76.433   5.663  1.00  0.00     0.000 C 
BRANCH   8   9
ATOM      9  C   UNL     1       2.304  77.428   5.550  1.00  0.00     0.000 C 
BRANCH   9  10
ATOM     10  C   UNL     1       1.759  77.843   6.928  1.00  0.00     0.000 C 
BRANCH  10  11
ATOM     11  C   UNL     1       2.432  79.125   7.467  1.00  0.00     0.000 C 
BRANCH  11  12
ATOM     12  C   UNL     1       3.048  78.967   8.871  1.00  0.00     0.000 C 
BRANCH  12  13
ATOM     13  C   UNL     1       3.737  77.618   9.132  1.00  0.00     0.006 C 
BRANCH  13  14
ATOM     14  C   UNL     1       3.563  77.131  10.578  1.00  0.00     0.053 C 
BRANCH  14  15
ATOM     15  C   UNL     1       4.086  78.143  11.549  1.00  0.00     0.041 C 
ATOM     16  O   UNL     1       3.316  79.007  12.049  1.00  0.00    -0.550 OA
ATOM     17  O   UNL     1       5.437  78.154  11.878  1.00  0.00    -0.550 OA
ENDBRANCH  14  15
ENDBRANCH  13  14
ENDBRANCH  12  13
ENDBRANCH  11  12
ENDBRANCH  10  11
ENDBRANCH   9  10
ENDBRANCH   8   9
ENDBRANCH   7   8
ENDBRANCH   6   7
ENDBRANCH   5   6
ENDBRANCH   4   5
ENDBRANCH   3   4
ENDBRANCH   2   3
ENDBRANCH   1   2
BRANCH   1  18
ATOM     18  C   UNL     1       5.908  74.338   0.819  1.00  0.00     0.000 C 
BRANCH  18  19
ATOM     19  C   UNL     1       7.352  73.906   0.480  1.00  0.00     0.000 C 
BRANCH  19  20
ATOM     20  C   UNL     1       8.447  74.543   1.359  1.00  0.00     0.000 C 
BRANCH  20  21
ATOM     21  C   UNL     1       9.369  73.554   2.101  1.00  0.00     0.000 C 
BRANCH  21  22
ATOM     22  C   UNL     1      10.847  73.671   1.700  1.00  0.00     0.000 C 
BRANCH  22  23
ATOM     23  C   UNL     1      11.669  74.322   2.825  1.00  0.00     0.000 C 
BRANCH  23  24
ATOM     24  C   UNL     1      11.896  73.374   4.013  1.00  0.00    -0.000 C 
BRANCH  24  25
ATOM     25  C   UNL     1      11.707  74.070   5.372  1.00  0.00    -0.000 C 
BRANCH  25  26
ATOM     26  C   UNL     1      13.033  74.581   5.961  1.00  0.00    -0.000 C 
BRANCH  26  27
ATOM     27  C   UNL     1      14.068  74.924   4.874  1.00  0.00    -0.000 C 
BRANCH  27  28
ATOM     28  C   UNL     1      14.171  76.435   4.603  1.00  0.00    -0.000 C 
BRANCH  28  29
ATOM     29  C   UNL     1      13.257  76.951   3.476  1.00  0.00    -0.000 C 
BRANCH  29  30
ATOM     30  C   UNL     1      13.416  76.186   2.143  1.00  0.00    -0.000 C 
BRANCH  30  31
ATOM     31  C   UNL     1      14.704  76.569   1.401  1.00  0.00    -0.003 C 
ATOM     32  C   UNL     1      14.892  78.083   1.350  1.00  0.00     0.004 C 
ENDBRANCH  30  31
ENDBRANCH  29  30
ENDBRANCH  28  29
ENDBRANCH  27  28
ENDBRANCH  26  27
ENDBRANCH  25  26
ENDBRANCH  24  25
ENDBRANCH  23  24
ENDBRANCH  22  23
ENDBRANCH  21  22
ENDBRANCH  20  21
ENDBRANCH  19  20
ENDBRANCH  18  19
ENDBRANCH   1  18
TORSDOF 28
ENDMDL
MODEL 7
REMARK VINA RESULT:     9.008     15.506     18.066
REMARK INTER + INTRA:          23.761
REMARK INTER:                  24.406
REMARK INTRA:                  -0.645
REMARK UNBOUND:                 0.009
REMARK SMILES CCCCCCCCCCCCCCCCCCCCCCCCCCCCCC(=O)[O-]
REMARK SMILES IDX 16 1 17 2 18 3 19 4 20 5 21 6 22 7 23 8 24 9 25 10 26 11
REMARK SMILES IDX 27 12 28 13 29 14 30 15 31 16 32 17 15 18 14 19 13 20 12 21
REMARK SMILES IDX 11 22 10 23 9 24 8 25 7 26 6 27 5 28 4 29 3 30 2 31 1 32
REMARK H PARENT
REMARK Flexibility Score: inf
ROOT
ATOM      1  C   UNL     1       1.738  67.256  -4.972  1.00  0.00     0.000 C 
ENDROOT
BRANCH   1   2
ATOM      2  C   UNL     1       3.224  67.157  -5.368  1.00  0.00     0.000 C 
BRANCH   2   3
ATOM      3  C   UNL     1       3.797  65.727  -5.316  1.00  0.00     0.000 C 
BRANCH   3   4
ATOM      4  C   UNL     1       2.908  64.695  -6.041  1.00  0.00     0.000 C 
BRANCH   4   5
ATOM      5  C   UNL     1       3.134  63.243  -5.578  1.00  0.00     0.000 C 
BRANCH   5   6
ATOM      6  C   UNL     1       2.433  62.185  -6.459  1.00  0.00     0.000 C 
BRANCH   6   7
ATOM      7  C   UNL     1       3.279  60.937  -6.783  1.00  0.00     0.000 C 
BRANCH   7   8
ATOM      8  C   UNL     1       2.504  59.760  -7.408  1.00  0.00     0.000 C 
BRANCH   8   9
ATOM      9  C   UNL     1       1.756  58.887  -6.378  1.00  0.00     0.000 C 
BRANCH   9  10
ATOM     10  C   UNL     1       0.360  59.443  -6.048  1.00  0.00     0.000 C 
BRANCH  10  11
ATOM     11  C   UNL     1       0.391  60.472  -4.897  1.00  0.00     0.000 C 
BRANCH  11  12
ATOM     12  C   UNL     1      -0.636  60.196  -3.781  1.00  0.00     0.000 C 
BRANCH  12  13
ATOM     13  C   UNL     1      -0.032  59.791  -2.427  1.00  0.00     0.006 C 
BRANCH  13  14
ATOM     14  C   UNL     1      -0.086  60.922  -1.390  1.00  0.00     0.053 C 
BRANCH  14  15
ATOM     15  C   UNL     1       0.808  60.623  -0.226  1.00  0.00     0.041 C 
ATOM     16  O   UNL     1       0.869  59.457   0.250  1.00  0.00    -0.550 OA
ATOM     17  O   UNL     1       1.551  61.643   0.357  1.00  0.00    -0.550 OA
ENDBRANCH  14  15
ENDBRANCH  13  14
ENDBRANCH  12  13
ENDBRANCH  11  12
ENDBRANCH  10  11
ENDBRANCH   9  10
ENDBRANCH   8   9
ENDBRANCH   7   8
ENDBRANCH   6   7
ENDBRANCH   5   6
ENDBRANCH   4   5
ENDBRANCH   3   4
ENDBRANCH   2   3
ENDBRANCH   1   2
BRANCH   1  18
ATOM     18  C   UNL     1       0.758  67.537  -6.129  1.00  0.00     0.000 C 
BRANCH  18  19
ATOM     19  C   UNL     1      -0.043  68.848  -5.975  1.00  0.00     0.000 C 
BRANCH  19  20
ATOM     20  C   UNL     1      -1.457  68.825  -6.591  1.00  0.00     0.000 C 
BRANCH  20  21
ATOM     21  C   UNL     1      -2.616  69.109  -5.614  1.00  0.00     0.000 C 
BRANCH  21  22
ATOM     22  C   UNL     1      -3.887  68.302  -5.916  1.00  0.00     0.000 C 
BRANCH  22  23
ATOM     23  C   UNL     1      -5.096  69.234  -6.103  1.00  0.00     0.000 C 
BRANCH  23  24
ATOM     24  C   UNL     1      -4.795  70.405  -7.051  1.00  0.00    -0.000 C 
BRANCH  24  25
ATOM     25  C   UNL     1      -4.706  71.755  -6.317  1.00  0.00    -0.000 C 
BRANCH  25  26
ATOM     26  C   UNL     1      -4.707  72.951  -7.283  1.00  0.00    -0.000 C 
BRANCH  26  27
ATOM     27  C   UNL     1      -4.696  74.304  -6.547  1.00  0.00    -0.000 C 
BRANCH  27  28
ATOM     28  C   UNL     1      -4.705  75.506  -7.506  1.00  0.00    -0.000 C 
BRANCH  28  29
ATOM     29  C   UNL     1      -3.584  76.533  -7.264  1.00  0.00    -0.000 C 
BRANCH  29  30
ATOM     30  C   UNL     1      -3.851  77.913  -7.906  1.00  0.00    -0.000 C 
BRANCH  30  31
ATOM     31  C   UNL     1      -2.863  78.983  -7.421  1.00  0.00    -0.003 C 
ATOM     32  C   UNL     1      -1.442  78.687  -7.895  1.00  0.00     0.004 C 
ENDBRANCH  30  31
ENDBRANCH  29  30
ENDBRANCH  28  29
ENDBRANCH  27  28
ENDBRANCH  26  27
ENDBRANCH  25  26
ENDBRANCH  24  25
ENDBRANCH  23  24
ENDBRANCH  22  23
ENDBRANCH  21  22
ENDBRANCH  20  21
ENDBRANCH  19  20
ENDBRANCH  18  19
ENDBRANCH   1  18
TORSDOF 28
ENDMDL
