MODEL 1
REMARK VINA RESULT:    -6.837      0.000      0.000
REMARK INTER + INTRA:          -8.485
REMARK INTER:                  -8.235
REMARK INTRA:                  -0.250
REMARK UNBOUND:                -0.250
REMARK SMILES O=c1c(O)c(-c2ccc(O)c(O)c2)oc2cc(O)cc(O)c12
REMARK SMILES IDX 5 1 3 2 2 3 1 4 22 5 20 6 19 7 17 8 16 9 15 10 14 11 6 12
REMARK SMILES IDX 7 13 8 14 9 15 13 16 11 17 10 18 12 20 4 22 21 24 18 26
REMARK H PARENT 10 19 12 21 4 23 21 25 18 27
REMARK Flexibility Score: inf
ROOT
ATOM      1  C   UNL     1      32.385  -0.278 165.315  1.00  0.00     0.180 A 
ATOM      2  C   UNL     1      32.236  -1.080 164.170  1.00  0.00     0.208 A 
ATOM      3  C   UNL     1      31.107  -1.908 164.059  1.00  0.00     0.238 A 
ATOM      4  O   UNL     1      31.007  -2.663 163.058  1.00  0.00    -0.285 OA
ATOM      5  C   UNL     1      30.133  -1.910 165.085  1.00  0.00     0.111 A 
ATOM      6  C   UNL     1      28.930  -2.678 165.059  1.00  0.00     0.134 A 
ATOM      7  C   UNL     1      28.101  -2.703 166.188  1.00  0.00     0.093 A 
ATOM      8  C   UNL     1      28.398  -1.939 167.315  1.00  0.00     0.123 A 
ATOM      9  C   UNL     1      29.540  -1.137 167.329  1.00  0.00     0.094 A 
ATOM     10  C   UNL     1      30.405  -1.119 166.233  1.00  0.00     0.146 A 
ATOM     11  O   UNL     1      31.487  -0.352 166.289  1.00  0.00    -0.452 OA
ENDROOT
BRANCH   1  12
ATOM     12  C   UNL     1      33.535   0.637 165.492  1.00  0.00     0.025 A 
ATOM     13  C   UNL     1      33.385   2.031 165.382  1.00  0.00     0.016 A 
ATOM     14  C   UNL     1      34.480   2.877 165.578  1.00  0.00     0.051 A 
ATOM     15  C   UNL     1      35.734   2.348 165.899  1.00  0.00     0.157 A 
ATOM     16  C   UNL     1      34.790   0.111 165.835  1.00  0.00     0.062 A 
ATOM     17  C   UNL     1      35.891   0.958 166.031  1.00  0.00     0.158 A 
BRANCH  15  18
ATOM     18  O   UNL     1      36.809   3.216 166.086  1.00  0.00    -0.504 OA
ATOM     19  H   UNL     1      37.733   2.884 166.333  1.00  0.00     0.293 HD
ENDBRANCH  15  18
BRANCH  17  20
ATOM     20  O   UNL     1      37.138   0.425 166.357  1.00  0.00    -0.504 OA
ATOM     21  H   UNL     1      37.225  -0.420 166.911  1.00  0.00     0.293 HD
ENDBRANCH  17  20
ENDBRANCH   1  12
BRANCH   2  22
ATOM     22  O   UNL     1      33.222  -1.079 163.178  1.00  0.00    -0.502 OA
ATOM     23  H   UNL     1      33.412  -0.268 162.601  1.00  0.00     0.293 HD
ENDBRANCH   2  22
BRANCH   6  24
ATOM     24  O   UNL     1      28.493  -3.406 163.948  1.00  0.00    -0.507 OA
ATOM     25  H   UNL     1      28.383  -3.027 163.019  1.00  0.00     0.293 HD
ENDBRANCH   6  24
BRANCH   8  26
ATOM     26  O   UNL     1      27.542  -1.975 168.414  1.00  0.00    -0.508 OA
ATOM     27  H   UNL     1      27.831  -1.630 169.323  1.00  0.00     0.293 HD
ENDBRANCH   8  26
TORSDOF 6
ENDMDL
MODEL 2
REMARK VINA RESULT:    -6.773      1.399      3.296
REMARK INTER + INTRA:          -8.408
REMARK INTER:                  -8.305
REMARK INTRA:                  -0.104
REMARK UNBOUND:                -0.250
REMARK SMILES O=c1c(O)c(-c2ccc(O)c(O)c2)oc2cc(O)cc(O)c12
REMARK SMILES IDX 5 1 3 2 2 3 1 4 22 5 20 6 19 7 17 8 16 9 15 10 14 11 6 12
REMARK SMILES IDX 7 13 8 14 9 15 13 16 11 17 10 18 12 20 4 22 21 24 18 26
REMARK H PARENT 10 19 12 21 4 23 21 25 18 27
REMARK Flexibility Score: inf
ROOT
ATOM      1  C   UNL     1      31.882   0.346 166.260  1.00  0.00     0.180 A 
ATOM      2  C   UNL     1      31.155   0.640 167.426  1.00  0.00     0.208 A 
ATOM      3  C   UNL     1      29.991  -0.093 167.707  1.00  0.00     0.238 A 
ATOM      4  O   UNL     1      29.316   0.211 168.724  1.00  0.00    -0.285 OA
ATOM      5  C   UNL     1      29.578  -1.122 166.828  1.00  0.00     0.111 A 
ATOM      6  C   UNL     1      28.438  -1.956 167.035  1.00  0.00     0.134 A 
ATOM      7  C   UNL     1      28.049  -2.855 166.033  1.00  0.00     0.093 A 
ATOM      8  C   UNL     1      28.794  -2.996 164.864  1.00  0.00     0.123 A 
ATOM      9  C   UNL     1      29.944  -2.229 164.677  1.00  0.00     0.094 A 
ATOM     10  C   UNL     1      30.338  -1.298 165.641  1.00  0.00     0.146 A 
ATOM     11  O   UNL     1      31.432  -0.580 165.422  1.00  0.00    -0.452 OA
ENDROOT
BRANCH   1  12
ATOM     12  C   UNL     1      33.131   1.059 165.909  1.00  0.00     0.025 A 
ATOM     13  C   UNL     1      34.346   0.371 165.746  1.00  0.00     0.016 A 
ATOM     14  C   UNL     1      35.508   1.062 165.390  1.00  0.00     0.051 A 
ATOM     15  C   UNL     1      35.472   2.444 165.178  1.00  0.00     0.157 A 
ATOM     16  C   UNL     1      33.094   2.443 165.675  1.00  0.00     0.062 A 
ATOM     17  C   UNL     1      34.259   3.139 165.318  1.00  0.00     0.158 A 
BRANCH  15  18
ATOM     18  O   UNL     1      36.647   3.106 164.826  1.00  0.00    -0.504 OA
ATOM     19  H   UNL     1      37.128   3.727 165.467  1.00  0.00     0.293 HD
ENDBRANCH  15  18
BRANCH  17  20
ATOM     20  O   UNL     1      34.216   4.516 165.102  1.00  0.00    -0.504 OA
ATOM     21  H   UNL     1      33.348   4.990 164.879  1.00  0.00     0.293 HD
ENDBRANCH  17  20
ENDBRANCH   1  12
BRANCH   2  22
ATOM     22  O   UNL     1      31.569   1.676 168.269  1.00  0.00    -0.502 OA
ATOM     23  H   UNL     1      31.232   2.626 168.169  1.00  0.00     0.293 HD
ENDBRANCH   2  22
BRANCH   6  24
ATOM     24  O   UNL     1      27.676  -1.959 168.207  1.00  0.00    -0.507 OA
ATOM     25  H   UNL     1      27.995  -1.616 169.101  1.00  0.00     0.293 HD
ENDBRANCH   6  24
BRANCH   8  26
ATOM     26  O   UNL     1      28.386  -3.912 163.896  1.00  0.00    -0.508 OA
ATOM     27  H   UNL     1      27.929  -3.613 163.042  1.00  0.00     0.293 HD
ENDBRANCH   8  26
TORSDOF 6
ENDMDL
MODEL 3
REMARK VINA RESULT:    -6.756      1.930      6.989
REMARK INTER + INTRA:          -8.388
REMARK INTER:                  -8.697
REMARK INTRA:                   0.310
REMARK UNBOUND:                -0.250
REMARK SMILES O=c1c(O)c(-c2ccc(O)c(O)c2)oc2cc(O)cc(O)c12
REMARK SMILES IDX 5 1 3 2 2 3 1 4 22 5 20 6 19 7 17 8 16 9 15 10 14 11 6 12
REMARK SMILES IDX 7 13 8 14 9 15 13 16 11 17 10 18 12 20 4 22 21 24 18 26
REMARK H PARENT 10 19 12 21 4 23 21 25 18 27
REMARK Flexibility Score: inf
ROOT
ATOM      1  C   UNL     1      31.867   0.235 165.979  1.00  0.00     0.180 A 
ATOM      2  C   UNL     1      32.341   1.501 166.365  1.00  0.00     0.208 A 
ATOM      3  C   UNL     1      33.417   2.069 165.663  1.00  0.00     0.238 A 
ATOM      4  O   UNL     1      33.871   3.177 166.048  1.00  0.00    -0.285 OA
ATOM      5  C   UNL     1      33.994   1.372 164.575  1.00  0.00     0.111 A 
ATOM      6  C   UNL     1      35.061   1.870 163.768  1.00  0.00     0.134 A 
ATOM      7  C   UNL     1      35.641   1.039 162.800  1.00  0.00     0.093 A 
ATOM      8  C   UNL     1      35.151  -0.245 162.567  1.00  0.00     0.123 A 
ATOM      9  C   UNL     1      34.069  -0.720 163.309  1.00  0.00     0.094 A 
ATOM     10  C   UNL     1      33.493   0.071 164.306  1.00  0.00     0.146 A 
ATOM     11  O   UNL     1      32.472  -0.422 164.997  1.00  0.00    -0.452 OA
ENDROOT
BRANCH   1  12
ATOM     12  C   UNL     1      30.722  -0.417 166.655  1.00  0.00     0.025 A 
ATOM     13  C   UNL     1      30.410  -0.139 167.998  1.00  0.00     0.016 A 
ATOM     14  C   UNL     1      29.309  -0.748 168.607  1.00  0.00     0.051 A 
ATOM     15  C   UNL     1      28.498  -1.629 167.885  1.00  0.00     0.157 A 
ATOM     16  C   UNL     1      29.893  -1.286 165.927  1.00  0.00     0.062 A 
ATOM     17  C   UNL     1      28.789  -1.898 166.537  1.00  0.00     0.158 A 
BRANCH  15  18
ATOM     18  O   UNL     1      27.409  -2.222 168.521  1.00  0.00    -0.504 OA
ATOM     19  H   UNL     1      26.755  -1.688 169.081  1.00  0.00     0.293 HD
ENDBRANCH  15  18
BRANCH  17  20
ATOM     20  O   UNL     1      27.980  -2.771 165.811  1.00  0.00    -0.504 OA
ATOM     21  H   UNL     1      27.271  -2.429 165.172  1.00  0.00     0.293 HD
ENDBRANCH  17  20
ENDBRANCH   1  12
BRANCH   2  22
ATOM     22  O   UNL     1      31.771   2.162 167.457  1.00  0.00    -0.502 OA
ATOM     23  H   UNL     1      31.035   2.850 167.353  1.00  0.00     0.293 HD
ENDBRANCH   2  22
BRANCH   6  24
ATOM     24  O   UNL     1      35.565   3.170 163.858  1.00  0.00    -0.507 OA
ATOM     25  H   UNL     1      35.090   3.942 164.302  1.00  0.00     0.293 HD
ENDBRANCH   6  24
BRANCH   8  26
ATOM     26  O   UNL     1      35.741  -1.037 161.585  1.00  0.00    -0.508 OA
ATOM     27  H   UNL     1      36.320  -1.835 161.824  1.00  0.00     0.293 HD
ENDBRANCH   8  26
TORSDOF 6
ENDMDL
MODEL 4
REMARK VINA RESULT:    -6.714      1.488      6.707
REMARK INTER + INTRA:          -8.337
REMARK INTER:                  -8.592
REMARK INTRA:                   0.255
REMARK UNBOUND:                -0.250
REMARK SMILES O=c1c(O)c(-c2ccc(O)c(O)c2)oc2cc(O)cc(O)c12
REMARK SMILES IDX 5 1 3 2 2 3 1 4 22 5 20 6 19 7 17 8 16 9 15 10 14 11 6 12
REMARK SMILES IDX 7 13 8 14 9 15 13 16 11 17 10 18 12 20 4 22 21 24 18 26
REMARK H PARENT 10 19 12 21 4 23 21 25 18 27
REMARK Flexibility Score: inf
ROOT
ATOM      1  C   UNL     1      31.905  -0.241 165.753  1.00  0.00     0.180 A 
ATOM      2  C   UNL     1      32.549  -0.967 164.736  1.00  0.00     0.208 A 
ATOM      3  C   UNL     1      33.682  -0.413 164.116  1.00  0.00     0.238 A 
ATOM      4  O   UNL     1      34.222  -1.043 163.171  1.00  0.00    -0.285 OA
ATOM      5  C   UNL     1      34.164   0.851 164.532  1.00  0.00     0.111 A 
ATOM      6  C   UNL     1      35.327   1.488 164.002  1.00  0.00     0.134 A 
ATOM      7  C   UNL     1      35.636   2.797 164.396  1.00  0.00     0.093 A 
ATOM      8  C   UNL     1      34.865   3.464 165.346  1.00  0.00     0.123 A 
ATOM      9  C   UNL     1      33.762   2.828 165.915  1.00  0.00     0.094 A 
ATOM     10  C   UNL     1      33.406   1.537 165.517  1.00  0.00     0.146 A 
ATOM     11  O   UNL     1      32.343   0.971 166.074  1.00  0.00    -0.452 OA
ENDROOT
BRANCH   1  12
ATOM     12  C   UNL     1      30.721  -0.769 166.468  1.00  0.00     0.025 A 
ATOM     13  C   UNL     1      30.500  -0.483 167.828  1.00  0.00     0.016 A 
ATOM     14  C   UNL     1      29.362  -0.972 168.476  1.00  0.00     0.051 A 
ATOM     15  C   UNL     1      28.424  -1.738 167.777  1.00  0.00     0.157 A 
ATOM     16  C   UNL     1      29.767  -1.521 165.765  1.00  0.00     0.062 A 
ATOM     17  C   UNL     1      28.625  -2.013 166.414  1.00  0.00     0.158 A 
BRANCH  15  18
ATOM     18  O   UNL     1      27.301  -2.214 168.452  1.00  0.00    -0.504 OA
ATOM     19  H   UNL     1      26.689  -2.915 168.051  1.00  0.00     0.293 HD
ENDBRANCH  15  18
BRANCH  17  20
ATOM     20  O   UNL     1      27.690  -2.771 165.711  1.00  0.00    -0.504 OA
ATOM     21  H   UNL     1      27.063  -2.348 165.036  1.00  0.00     0.293 HD
ENDBRANCH  17  20
ENDBRANCH   1  12
BRANCH   2  22
ATOM     22  O   UNL     1      32.043  -2.203 164.326  1.00  0.00    -0.502 OA
ATOM     23  H   UNL     1      31.049  -2.386 164.252  1.00  0.00     0.293 HD
ENDBRANCH   2  22
BRANCH   6  24
ATOM     24  O   UNL     1      36.216   0.876 163.115  1.00  0.00    -0.507 OA
ATOM     25  H   UNL     1      36.666   1.340 162.340  1.00  0.00     0.293 HD
ENDBRANCH   6  24
BRANCH   8  26
ATOM     26  O   UNL     1      35.213   4.759 165.726  1.00  0.00    -0.508 OA
ATOM     27  H   UNL     1      35.418   4.991 166.691  1.00  0.00     0.293 HD
ENDBRANCH   8  26
TORSDOF 6
ENDMDL
MODEL 5
REMARK VINA RESULT:    -6.671      0.613      1.462
REMARK INTER + INTRA:          -8.285
REMARK INTER:                  -8.095
REMARK INTRA:                  -0.190
REMARK UNBOUND:                -0.250
REMARK SMILES O=c1c(O)c(-c2ccc(O)c(O)c2)oc2cc(O)cc(O)c12
REMARK SMILES IDX 5 1 3 2 2 3 1 4 22 5 20 6 19 7 17 8 16 9 15 10 14 11 6 12
REMARK SMILES IDX 7 13 8 14 9 15 13 16 11 17 10 18 12 20 4 22 21 24 18 26
REMARK H PARENT 10 19 12 21 4 23 21 25 18 27
REMARK Flexibility Score: inf
ROOT
ATOM      1  C   UNL     1      32.408  -0.373 165.252  1.00  0.00     0.180 A 
ATOM      2  C   UNL     1      32.252  -1.188 164.117  1.00  0.00     0.208 A 
ATOM      3  C   UNL     1      31.112  -2.002 164.013  1.00  0.00     0.238 A 
ATOM      4  O   UNL     1      31.006  -2.769 163.021  1.00  0.00    -0.285 OA
ATOM      5  C   UNL     1      30.135  -1.978 165.036  1.00  0.00     0.111 A 
ATOM      6  C   UNL     1      28.922  -2.731 165.016  1.00  0.00     0.134 A 
ATOM      7  C   UNL     1      28.090  -2.730 166.143  1.00  0.00     0.093 A 
ATOM      8  C   UNL     1      28.393  -1.955 167.261  1.00  0.00     0.123 A 
ATOM      9  C   UNL     1      29.546  -1.169 167.268  1.00  0.00     0.094 A 
ATOM     10  C   UNL     1      30.414  -1.176 166.175  1.00  0.00     0.146 A 
ATOM     11  O   UNL     1      31.506  -0.423 166.225  1.00  0.00    -0.452 OA
ENDROOT
BRANCH   1  12
ATOM     12  C   UNL     1      33.570   0.529 165.421  1.00  0.00     0.025 A 
ATOM     13  C   UNL     1      34.868   0.022 165.611  1.00  0.00     0.016 A 
ATOM     14  C   UNL     1      35.953   0.893 165.743  1.00  0.00     0.051 A 
ATOM     15  C   UNL     1      35.763   2.276 165.673  1.00  0.00     0.157 A 
ATOM     16  C   UNL     1      33.385   1.918 165.330  1.00  0.00     0.062 A 
ATOM     17  C   UNL     1      34.473   2.793 165.463  1.00  0.00     0.158 A 
BRANCH  15  18
ATOM     18  O   UNL     1      36.864   3.120 165.811  1.00  0.00    -0.504 OA
ATOM     19  H   UNL     1      37.243   3.643 165.031  1.00  0.00     0.293 HD
ENDBRANCH  15  18
BRANCH  17  20
ATOM     20  O   UNL     1      34.278   4.171 165.387  1.00  0.00    -0.504 OA
ATOM     21  H   UNL     1      33.974   4.617 164.529  1.00  0.00     0.293 HD
ENDBRANCH  17  20
ENDBRANCH   1  12
BRANCH   2  22
ATOM     22  O   UNL     1      33.241  -1.213 163.129  1.00  0.00    -0.502 OA
ATOM     23  H   UNL     1      33.441  -0.414 162.539  1.00  0.00     0.293 HD
ENDBRANCH   2  22
BRANCH   6  24
ATOM     24  O   UNL     1      28.479  -3.467 163.914  1.00  0.00    -0.507 OA
ATOM     25  H   UNL     1      27.977  -4.341 163.970  1.00  0.00     0.293 HD
ENDBRANCH   6  24
BRANCH   8  26
ATOM     26  O   UNL     1      27.534  -1.966 168.358  1.00  0.00    -0.508 OA
ATOM     27  H   UNL     1      26.533  -1.847 168.249  1.00  0.00     0.293 HD
ENDBRANCH   8  26
TORSDOF 6
ENDMDL
MODEL 6
REMARK VINA RESULT:    -6.549      2.384      7.061
REMARK INTER + INTRA:          -8.138
REMARK INTER:                  -8.406
REMARK INTRA:                   0.268
REMARK UNBOUND:                -0.250
REMARK SMILES O=c1c(O)c(-c2ccc(O)c(O)c2)oc2cc(O)cc(O)c12
REMARK SMILES IDX 5 1 3 2 2 3 1 4 22 5 20 6 19 7 17 8 16 9 15 10 14 11 6 12
REMARK SMILES IDX 7 13 8 14 9 15 13 16 11 17 10 18 12 20 4 22 21 24 18 26
REMARK H PARENT 10 19 12 21 4 23 21 25 18 27
REMARK Flexibility Score: inf
ROOT
ATOM      1  C   UNL     1      32.693   1.339 165.868  1.00  0.00     0.180 A 
ATOM      2  C   UNL     1      32.918   1.050 164.510  1.00  0.00     0.208 A 
ATOM      3  C   UNL     1      33.973   1.694 163.843  1.00  0.00     0.238 A 
ATOM      4  O   UNL     1      34.136   1.471 162.615  1.00  0.00    -0.285 OA
ATOM      5  C   UNL     1      34.797   2.605 164.544  1.00  0.00     0.111 A 
ATOM      6  C   UNL     1      35.918   3.284 163.977  1.00  0.00     0.134 A 
ATOM      7  C   UNL     1      36.584   4.263 164.727  1.00  0.00     0.093 A 
ATOM      8  C   UNL     1      36.211   4.541 166.041  1.00  0.00     0.123 A 
ATOM      9  C   UNL     1      35.154   3.841 166.624  1.00  0.00     0.094 A 
ATOM     10  C   UNL     1      34.448   2.885 165.891  1.00  0.00     0.146 A 
ATOM     11  O   UNL     1      33.442   2.248 166.479  1.00  0.00    -0.452 OA
ENDROOT
BRANCH   1  12
ATOM     12  C   UNL     1      31.617   0.683 166.645  1.00  0.00     0.025 A 
ATOM     13  C   UNL     1      31.162  -0.608 166.319  1.00  0.00     0.016 A 
ATOM     14  C   UNL     1      30.162  -1.217 167.083  1.00  0.00     0.051 A 
ATOM     15  C   UNL     1      29.613  -0.558 168.186  1.00  0.00     0.157 A 
ATOM     16  C   UNL     1      31.078   1.333 167.766  1.00  0.00     0.062 A 
ATOM     17  C   UNL     1      30.075   0.723 168.533  1.00  0.00     0.158 A 
BRANCH  15  18
ATOM     18  O   UNL     1      28.616  -1.191 168.927  1.00  0.00    -0.504 OA
ATOM     19  H   UNL     1      28.793  -1.581 169.845  1.00  0.00     0.293 HD
ENDBRANCH  15  18
BRANCH  17  20
ATOM     20  O   UNL     1      29.536   1.384 169.636  1.00  0.00    -0.504 OA
ATOM     21  H   UNL     1      29.443   2.393 169.657  1.00  0.00     0.293 HD
ENDBRANCH  17  20
ENDBRANCH   1  12
BRANCH   2  22
ATOM     22  O   UNL     1      32.078   0.163 163.832  1.00  0.00    -0.502 OA
ATOM     23  H   UNL     1      31.178   0.444 163.459  1.00  0.00     0.293 HD
ENDBRANCH   2  22
BRANCH   6  24
ATOM     24  O   UNL     1      36.431   3.017 162.705  1.00  0.00    -0.507 OA
ATOM     25  H   UNL     1      35.962   2.468 161.999  1.00  0.00     0.293 HD
ENDBRANCH   6  24
BRANCH   8  26
ATOM     26  O   UNL     1      36.905   5.509 166.762  1.00  0.00    -0.508 OA
ATOM     27  H   UNL     1      36.469   6.020 167.522  1.00  0.00     0.293 HD
ENDBRANCH   8  26
TORSDOF 6
ENDMDL
MODEL 7
REMARK VINA RESULT:    -6.239      2.074      2.515
REMARK INTER + INTRA:          -7.765
REMARK INTER:                  -7.453
REMARK INTRA:                  -0.312
REMARK UNBOUND:                -0.250
REMARK SMILES O=c1c(O)c(-c2ccc(O)c(O)c2)oc2cc(O)cc(O)c12
REMARK SMILES IDX 5 1 3 2 2 3 1 4 22 5 20 6 19 7 17 8 16 9 15 10 14 11 6 12
REMARK SMILES IDX 7 13 8 14 9 15 13 16 11 17 10 18 12 20 4 22 21 24 18 26
REMARK H PARENT 10 19 12 21 4 23 21 25 18 27
REMARK Flexibility Score: inf
ROOT
ATOM      1  C   UNL     1      33.481   1.030 164.946  1.00  0.00     0.180 A 
ATOM      2  C   UNL     1      33.088  -0.173 164.333  1.00  0.00     0.208 A 
ATOM      3  C   UNL     1      31.998  -0.884 164.863  1.00  0.00     0.238 A 
ATOM      4  O   UNL     1      31.686  -1.986 164.343  1.00  0.00    -0.285 OA
ATOM      5  C   UNL     1      31.306  -0.374 165.987  1.00  0.00     0.111 A 
ATOM      6  C   UNL     1      30.163  -0.990 166.581  1.00  0.00     0.134 A 
ATOM      7  C   UNL     1      29.637  -0.467 167.770  1.00  0.00     0.093 A 
ATOM      8  C   UNL     1      30.171   0.683 168.349  1.00  0.00     0.123 A 
ATOM      9  C   UNL     1      31.251   1.327 167.743  1.00  0.00     0.094 A 
ATOM     10  C   UNL     1      31.820   0.810 166.577  1.00  0.00     0.146 A 
ATOM     11  O   UNL     1      32.853   1.446 166.038  1.00  0.00    -0.452 OA
ENDROOT
BRANCH   1  12
ATOM     12  C   UNL     1      34.604   1.846 164.431  1.00  0.00     0.025 A 
ATOM     13  C   UNL     1      34.438   2.711 163.335  1.00  0.00     0.016 A 
ATOM     14  C   UNL     1      35.506   3.490 162.882  1.00  0.00     0.051 A 
ATOM     15  C   UNL     1      36.747   3.429 163.522  1.00  0.00     0.157 A 
ATOM     16  C   UNL     1      35.846   1.803 165.084  1.00  0.00     0.062 A 
ATOM     17  C   UNL     1      36.919   2.583 164.630  1.00  0.00     0.158 A 
BRANCH  15  18
ATOM     18  O   UNL     1      37.795   4.217 163.045  1.00  0.00    -0.504 OA
ATOM     19  H   UNL     1      38.370   3.931 162.262  1.00  0.00     0.293 HD
ENDBRANCH  15  18
BRANCH  17  20
ATOM     20  O   UNL     1      38.153   2.523 165.277  1.00  0.00    -0.504 OA
ATOM     21  H   UNL     1      38.393   1.755 165.892  1.00  0.00     0.293 HD
ENDBRANCH  17  20
ENDBRANCH   1  12
BRANCH   2  22
ATOM     22  O   UNL     1      33.800  -0.669 163.238  1.00  0.00    -0.502 OA
ATOM     23  H   UNL     1      34.656  -0.240 162.905  1.00  0.00     0.293 HD
ENDBRANCH   2  22
BRANCH   6  24
ATOM     24  O   UNL     1      29.496  -2.090 166.035  1.00  0.00    -0.507 OA
ATOM     25  H   UNL     1      28.515  -2.290 166.165  1.00  0.00     0.293 HD
ENDBRANCH   6  24
BRANCH   8  26
ATOM     26  O   UNL     1      29.613   1.184 169.523  1.00  0.00    -0.508 OA
ATOM     27  H   UNL     1      29.333   0.571 170.281  1.00  0.00     0.293 HD
ENDBRANCH   8  26
TORSDOF 6
ENDMDL
MODEL 8
REMARK VINA RESULT:    -6.158      2.067      3.028
REMARK INTER + INTRA:          -7.668
REMARK INTER:                  -7.355
REMARK INTRA:                  -0.313
REMARK UNBOUND:                -0.250
REMARK SMILES O=c1c(O)c(-c2ccc(O)c(O)c2)oc2cc(O)cc(O)c12
REMARK SMILES IDX 5 1 3 2 2 3 1 4 22 5 20 6 19 7 17 8 16 9 15 10 14 11 6 12
REMARK SMILES IDX 7 13 8 14 9 15 13 16 11 17 10 18 12 20 4 22 21 24 18 26
REMARK H PARENT 10 19 12 21 4 23 21 25 18 27
REMARK Flexibility Score: inf
ROOT
ATOM      1  C   UNL     1      33.473   2.211 165.786  1.00  0.00     0.180 A 
ATOM      2  C   UNL     1      33.670   1.153 164.880  1.00  0.00     0.208 A 
ATOM      3  C   UNL     1      32.831   0.029 164.954  1.00  0.00     0.238 A 
ATOM      4  O   UNL     1      33.047  -0.937 164.177  1.00  0.00    -0.285 OA
ATOM      5  C   UNL     1      31.798  -0.017 165.919  1.00  0.00     0.111 A 
ATOM      6  C   UNL     1      30.864  -1.088 166.056  1.00  0.00     0.134 A 
ATOM      7  C   UNL     1      29.965  -1.087 167.131  1.00  0.00     0.093 A 
ATOM      8  C   UNL     1      29.923  -0.025 168.033  1.00  0.00     0.123 A 
ATOM      9  C   UNL     1      30.791   1.056 167.873  1.00  0.00     0.094 A 
ATOM     10  C   UNL     1      31.723   1.067 166.833  1.00  0.00     0.146 A 
ATOM     11  O   UNL     1      32.538   2.109 166.722  1.00  0.00    -0.452 OA
ENDROOT
BRANCH   1  12
ATOM     12  C   UNL     1      34.301   3.438 165.755  1.00  0.00     0.025 A 
ATOM     13  C   UNL     1      34.045   4.470 164.835  1.00  0.00     0.016 A 
ATOM     14  C   UNL     1      34.824   5.631 164.841  1.00  0.00     0.051 A 
ATOM     15  C   UNL     1      35.857   5.785 165.770  1.00  0.00     0.157 A 
ATOM     16  C   UNL     1      35.326   3.605 166.699  1.00  0.00     0.062 A 
ATOM     17  C   UNL     1      36.109   4.768 166.706  1.00  0.00     0.158 A 
BRANCH  15  18
ATOM     18  O   UNL     1      36.619   6.952 165.749  1.00  0.00    -0.504 OA
ATOM     19  H   UNL     1      37.553   6.979 165.360  1.00  0.00     0.293 HD
ENDBRANCH  15  18
BRANCH  17  20
ATOM     20  O   UNL     1      37.134   4.919 167.639  1.00  0.00    -0.504 OA
ATOM     21  H   UNL     1      38.064   4.554 167.469  1.00  0.00     0.293 HD
ENDBRANCH  17  20
ENDBRANCH   1  12
BRANCH   2  22
ATOM     22  O   UNL     1      34.711   1.209 163.950  1.00  0.00    -0.502 OA
ATOM     23  H   UNL     1      35.672   1.389 164.218  1.00  0.00     0.293 HD
ENDBRANCH   2  22
BRANCH   6  24
ATOM     24  O   UNL     1      30.761  -2.153 165.157  1.00  0.00    -0.507 OA
ATOM     25  H   UNL     1      30.754  -3.128 165.419  1.00  0.00     0.293 HD
ENDBRANCH   6  24
BRANCH   8  26
ATOM     26  O   UNL     1      29.005  -0.050 169.081  1.00  0.00    -0.508 OA
ATOM     27  H   UNL     1      29.295   0.075 170.044  1.00  0.00     0.293 HD
ENDBRANCH   8  26
TORSDOF 6
ENDMDL
MODEL 9
REMARK VINA RESULT:    -6.020      1.364      3.023
REMARK INTER + INTRA:          -7.502
REMARK INTER:                  -7.205
REMARK INTRA:                  -0.297
REMARK UNBOUND:                -0.250
REMARK SMILES O=c1c(O)c(-c2ccc(O)c(O)c2)oc2cc(O)cc(O)c12
REMARK SMILES IDX 5 1 3 2 2 3 1 4 22 5 20 6 19 7 17 8 16 9 15 10 14 11 6 12
REMARK SMILES IDX 7 13 8 14 9 15 13 16 11 17 10 18 12 20 4 22 21 24 18 26
REMARK H PARENT 10 19 12 21 4 23 21 25 18 27
REMARK Flexibility Score: inf
ROOT
ATOM      1  C   UNL     1      32.501   0.374 165.641  1.00  0.00     0.180 A 
ATOM      2  C   UNL     1      31.577   0.122 166.670  1.00  0.00     0.208 A 
ATOM      3  C   UNL     1      30.503  -0.749 166.423  1.00  0.00     0.238 A 
ATOM      4  O   UNL     1      29.649  -0.927 167.330  1.00  0.00    -0.285 OA
ATOM      5  C   UNL     1      30.376  -1.370 165.158  1.00  0.00     0.111 A 
ATOM      6  C   UNL     1      29.351  -2.301 164.811  1.00  0.00     0.134 A 
ATOM      7  C   UNL     1      29.247  -2.753 163.489  1.00  0.00     0.093 A 
ATOM      8  C   UNL     1      30.167  -2.359 162.519  1.00  0.00     0.123 A 
ATOM      9  C   UNL     1      31.209  -1.496 162.862  1.00  0.00     0.094 A 
ATOM     10  C   UNL     1      31.319  -1.000 164.162  1.00  0.00     0.146 A 
ATOM     11  O   UNL     1      32.318  -0.173 164.445  1.00  0.00    -0.452 OA
ENDROOT
BRANCH   1  12
ATOM     12  C   UNL     1      33.671   1.260 165.833  1.00  0.00     0.025 A 
ATOM     13  C   UNL     1      33.549   2.659 165.756  1.00  0.00     0.016 A 
ATOM     14  C   UNL     1      34.663   3.477 165.966  1.00  0.00     0.051 A 
ATOM     15  C   UNL     1      35.907   2.915 166.267  1.00  0.00     0.157 A 
ATOM     16  C   UNL     1      34.917   0.700 166.156  1.00  0.00     0.062 A 
ATOM     17  C   UNL     1      36.036   1.520 166.366  1.00  0.00     0.158 A 
BRANCH  15  18
ATOM     18  O   UNL     1      37.000   3.757 166.468  1.00  0.00    -0.504 OA
ATOM     19  H   UNL     1      36.952   4.566 167.076  1.00  0.00     0.293 HD
ENDBRANCH  15  18
BRANCH  17  20
ATOM     20  O   UNL     1      37.273   0.954 166.672  1.00  0.00    -0.504 OA
ATOM     21  H   UNL     1      37.465   0.562 167.588  1.00  0.00     0.293 HD
ENDBRANCH  17  20
ENDBRANCH   1  12
BRANCH   2  22
ATOM     22  O   UNL     1      31.708   0.764 167.905  1.00  0.00    -0.502 OA
ATOM     23  H   UNL     1      32.427   0.514 168.574  1.00  0.00     0.293 HD
ENDBRANCH   2  22
BRANCH   6  24
ATOM     24  O   UNL     1      28.435  -2.829 165.725  1.00  0.00    -0.507 OA
ATOM     25  H   UNL     1      27.432  -2.786 165.624  1.00  0.00     0.293 HD
ENDBRANCH   6  24
BRANCH   8  26
ATOM     26  O   UNL     1      30.043  -2.841 161.218  1.00  0.00    -0.508 OA
ATOM     27  H   UNL     1      29.242  -2.610 160.641  1.00  0.00     0.293 HD
ENDBRANCH   8  26
TORSDOF 6
ENDMDL
