MODEL 1
REMARK VINA RESULT:    -3.276      0.000      0.000
REMARK INTER + INTRA:          -6.948
REMARK INTER:                  -5.574
REMARK INTRA:                  -1.374
REMARK UNBOUND:                -1.374
REMARK SMILES CCCCCCCCCCCCCC(=O)[O-]
REMARK SMILES IDX 8 1 9 2 10 3 11 4 12 5 13 6 14 7 15 8 16 9 7 10 6 11 5 12
REMARK SMILES IDX 4 13 3 14 2 15 1 16
REMARK H PARENT
REMARK Flexibility Score: inf
ROOT
ATOM      1  C   UNL     1      62.033  29.216  58.915  1.00  0.00     0.000 C 
ENDROOT
BRANCH   1   2
ATOM      2  C   UNL     1      62.567  30.418  58.115  1.00  0.00     0.000 C 
BRANCH   2   3
ATOM      3  C   UNL     1      62.607  31.750  58.886  1.00  0.00     0.000 C 
BRANCH   3   4
ATOM      4  C   UNL     1      64.026  32.334  58.999  1.00  0.00     0.000 C 
BRANCH   4   5
ATOM      5  C   UNL     1      64.047  33.689  59.737  1.00  0.00     0.006 C 
BRANCH   5   6
ATOM      6  C   UNL     1      64.955  33.698  60.977  1.00  0.00     0.053 C 
BRANCH   6   7
ATOM      7  C   UNL     1      65.005  35.040  61.636  1.00  0.00     0.041 C 
ATOM      8  O   UNL     1      63.941  35.614  61.985  1.00  0.00    -0.550 OA
ATOM      9  O   UNL     1      66.225  35.670  61.840  1.00  0.00    -0.550 OA
ENDBRANCH   6   7
ENDBRANCH   5   6
ENDBRANCH   4   5
ENDBRANCH   3   4
ENDBRANCH   2   3
ENDBRANCH   1   2
BRANCH   1  10
ATOM     10  C   UNL     1      61.532  29.607  60.317  1.00  0.00     0.000 C 
BRANCH  10  11
ATOM     11  C   UNL     1      62.281  28.876  61.442  1.00  0.00    -0.000 C 
BRANCH  11  12
ATOM     12  C   UNL     1      63.768  28.586  61.156  1.00  0.00    -0.000 C 
BRANCH  12  13
ATOM     13  C   UNL     1      64.704  29.773  61.463  1.00  0.00    -0.000 C 
BRANCH  13  14
ATOM     14  C   UNL     1      66.026  29.688  60.679  1.00  0.00    -0.000 C 
BRANCH  14  15
ATOM     15  C   UNL     1      66.701  28.313  60.805  1.00  0.00    -0.003 C 
ATOM     16  C   UNL     1      68.019  28.370  61.575  1.00  0.00     0.004 C 
ENDBRANCH  14  15
ENDBRANCH  13  14
ENDBRANCH  12  13
ENDBRANCH  11  12
ENDBRANCH  10  11
ENDBRANCH   1  10
TORSDOF 12
ENDMDL
MODEL 2
REMARK VINA RESULT:    -3.140      3.258      6.512
REMARK INTER + INTRA:          -6.717
REMARK INTER:                  -5.495
REMARK INTRA:                  -1.222
REMARK UNBOUND:                -1.374
REMARK SMILES CCCCCCCCCCCCCC(=O)[O-]
REMARK SMILES IDX 8 1 9 2 10 3 11 4 12 5 13 6 14 7 15 8 16 9 7 10 6 11 5 12
REMARK SMILES IDX 4 13 3 14 2 15 1 16
REMARK H PARENT
REMARK Flexibility Score: inf
ROOT
ATOM      1  C   UNL     1      65.087  34.427  61.396  1.00  0.00     0.000 C 
ENDROOT
BRANCH   1   2
ATOM      2  C   UNL     1      64.932  33.290  60.370  1.00  0.00     0.000 C 
BRANCH   2   3
ATOM      3  C   UNL     1      65.106  31.869  60.939  1.00  0.00     0.000 C 
BRANCH   3   4
ATOM      4  C   UNL     1      64.214  30.831  60.239  1.00  0.00     0.000 C 
BRANCH   4   5
ATOM      5  C   UNL     1      64.340  29.427  60.868  1.00  0.00     0.006 C 
BRANCH   5   6
ATOM      6  C   UNL     1      63.016  28.886  61.431  1.00  0.00     0.053 C 
BRANCH   6   7
ATOM      7  C   UNL     1      61.944  28.811  60.391  1.00  0.00     0.041 C 
ATOM      8  O   UNL     1      60.886  29.481  60.521  1.00  0.00    -0.550 OA
ATOM      9  O   UNL     1      62.101  27.980  59.289  1.00  0.00    -0.550 OA
ENDBRANCH   6   7
ENDBRANCH   5   6
ENDBRANCH   4   5
ENDBRANCH   3   4
ENDBRANCH   2   3
ENDBRANCH   1   2
BRANCH   1  10
ATOM     10  C   UNL     1      63.917  35.425  61.362  1.00  0.00     0.000 C 
BRANCH  10  11
ATOM     11  C   UNL     1      63.232  35.492  59.987  1.00  0.00    -0.000 C 
BRANCH  11  12
ATOM     12  C   UNL     1      61.703  35.686  60.028  1.00  0.00    -0.000 C 
BRANCH  12  13
ATOM     13  C   UNL     1      60.942  34.862  58.968  1.00  0.00    -0.000 C 
BRANCH  13  14
ATOM     14  C   UNL     1      61.844  33.817  58.287  1.00  0.00    -0.000 C 
BRANCH  14  15
ATOM     15  C   UNL     1      61.300  32.387  58.425  1.00  0.00    -0.003 C 
ATOM     16  C   UNL     1      59.775  32.339  58.502  1.00  0.00     0.004 C 
ENDBRANCH  14  15
ENDBRANCH  13  14
ENDBRANCH  12  13
ENDBRANCH  11  12
ENDBRANCH  10  11
ENDBRANCH   1  10
TORSDOF 12
ENDMDL
MODEL 3
REMARK VINA RESULT:    -3.123      4.105      6.616
REMARK INTER + INTRA:          -6.687
REMARK INTER:                  -5.315
REMARK INTRA:                  -1.372
REMARK UNBOUND:                -1.374
REMARK SMILES CCCCCCCCCCCCCC(=O)[O-]
REMARK SMILES IDX 8 1 9 2 10 3 11 4 12 5 13 6 14 7 15 8 16 9 7 10 6 11 5 12
REMARK SMILES IDX 4 13 3 14 2 15 1 16
REMARK H PARENT
REMARK Flexibility Score: inf
ROOT
ATOM      1  C   UNL     1      66.902  28.676  59.928  1.00  0.00     0.000 C 
ENDROOT
BRANCH   1   2
ATOM      2  C   UNL     1      67.348  28.203  61.324  1.00  0.00     0.000 C 
BRANCH   2   3
ATOM      3  C   UNL     1      68.794  28.567  61.707  1.00  0.00     0.000 C 
BRANCH   3   4
ATOM      4  C   UNL     1      69.806  28.248  60.593  1.00  0.00     0.000 C 
BRANCH   4   5
ATOM      5  C   UNL     1      70.718  29.450  60.266  1.00  0.00     0.006 C 
BRANCH   5   6
ATOM      6  C   UNL     1      71.428  30.034  61.498  1.00  0.00     0.053 C 
BRANCH   6   7
ATOM      7  C   UNL     1      72.861  29.615  61.580  1.00  0.00     0.041 C 
ATOM      8  O   UNL     1      73.214  28.477  61.175  1.00  0.00    -0.550 OA
ATOM      9  O   UNL     1      73.806  30.473  62.128  1.00  0.00    -0.550 OA
ENDBRANCH   6   7
ENDBRANCH   5   6
ENDBRANCH   4   5
ENDBRANCH   3   4
ENDBRANCH   2   3
ENDBRANCH   1   2
BRANCH   1  10
ATOM     10  C   UNL     1      66.658  30.194  59.863  1.00  0.00     0.000 C 
BRANCH  10  11
ATOM     11  C   UNL     1      65.443  30.637  60.694  1.00  0.00    -0.000 C 
BRANCH  11  12
ATOM     12  C   UNL     1      64.147  30.860  59.889  1.00  0.00    -0.000 C 
BRANCH  12  13
ATOM     13  C   UNL     1      63.072  29.780  60.129  1.00  0.00    -0.000 C 
BRANCH  13  14
ATOM     14  C   UNL     1      63.278  29.041  61.463  1.00  0.00    -0.000 C 
BRANCH  14  15
ATOM     15  C   UNL     1      63.475  27.528  61.276  1.00  0.00    -0.003 C 
ATOM     16  C   UNL     1      63.514  27.114  59.806  1.00  0.00     0.004 C 
ENDBRANCH  14  15
ENDBRANCH  13  14
ENDBRANCH  12  13
ENDBRANCH  11  12
ENDBRANCH  10  11
ENDBRANCH   1  10
TORSDOF 12
ENDMDL
MODEL 4
REMARK VINA RESULT:    -3.096      3.377      6.109
REMARK INTER + INTRA:          -6.641
REMARK INTER:                  -5.403
REMARK INTRA:                  -1.238
REMARK UNBOUND:                -1.374
REMARK SMILES CCCCCCCCCCCCCC(=O)[O-]
REMARK SMILES IDX 8 1 9 2 10 3 11 4 12 5 13 6 14 7 15 8 16 9 7 10 6 11 5 12
REMARK SMILES IDX 4 13 3 14 2 15 1 16
REMARK H PARENT
REMARK Flexibility Score: inf
ROOT
ATOM      1  C   UNL     1      64.383  31.886  58.408  1.00  0.00     0.000 C 
ENDROOT
BRANCH   1   2
ATOM      2  C   UNL     1      65.488  31.495  59.407  1.00  0.00     0.000 C 
BRANCH   2   3
ATOM      3  C   UNL     1      65.054  31.466  60.883  1.00  0.00     0.000 C 
BRANCH   3   4
ATOM      4  C   UNL     1      64.659  30.058  61.363  1.00  0.00     0.000 C 
BRANCH   4   5
ATOM      5  C   UNL     1      65.180  28.950  60.424  1.00  0.00     0.006 C 
BRANCH   5   6
ATOM      6  C   UNL     1      64.063  28.093  59.808  1.00  0.00     0.053 C 
BRANCH   6   7
ATOM      7  C   UNL     1      63.124  27.555  60.841  1.00  0.00     0.041 C 
ATOM      8  O   UNL     1      63.499  26.648  61.628  1.00  0.00    -0.550 OA
ATOM      9  O   UNL     1      61.823  28.037  60.917  1.00  0.00    -0.550 OA
ENDBRANCH   6   7
ENDBRANCH   5   6
ENDBRANCH   4   5
ENDBRANCH   3   4
ENDBRANCH   2   3
ENDBRANCH   1   2
BRANCH   1  10
ATOM     10  C   UNL     1      63.024  32.128  59.088  1.00  0.00     0.000 C 
BRANCH  10  11
ATOM     11  C   UNL     1      62.396  33.477  58.700  1.00  0.00    -0.000 C 
BRANCH  11  12
ATOM     12  C   UNL     1      63.202  34.719  59.128  1.00  0.00    -0.000 C 
BRANCH  12  13
ATOM     13  C   UNL     1      62.487  35.594  60.179  1.00  0.00    -0.000 C 
BRANCH  13  14
ATOM     14  C   UNL     1      63.370  35.859  61.411  1.00  0.00    -0.000 C 
BRANCH  14  15
ATOM     15  C   UNL     1      64.619  34.965  61.447  1.00  0.00    -0.003 C 
ATOM     16  C   UNL     1      65.854  35.695  61.973  1.00  0.00     0.004 C 
ENDBRANCH  14  15
ENDBRANCH  13  14
ENDBRANCH  12  13
ENDBRANCH  11  12
ENDBRANCH  10  11
ENDBRANCH   1  10
TORSDOF 12
ENDMDL
MODEL 5
REMARK VINA RESULT:    -3.086     11.137     13.288
REMARK INTER + INTRA:          -6.624
REMARK INTER:                  -5.218
REMARK INTRA:                  -1.407
REMARK UNBOUND:                -1.374
REMARK SMILES CCCCCCCCCCCCCC(=O)[O-]
REMARK SMILES IDX 8 1 9 2 10 3 11 4 12 5 13 6 14 7 15 8 16 9 7 10 6 11 5 12
REMARK SMILES IDX 4 13 3 14 2 15 1 16
REMARK H PARENT
REMARK Flexibility Score: inf
ROOT
ATOM      1  C   UNL     1      58.437  26.135  52.536  1.00  0.00     0.000 C 
ENDROOT
BRANCH   1   2
ATOM      2  C   UNL     1      58.102  25.004  51.546  1.00  0.00     0.000 C 
BRANCH   2   3
ATOM      3  C   UNL     1      58.505  25.274  50.085  1.00  0.00     0.000 C 
BRANCH   3   4
ATOM      4  C   UNL     1      59.860  24.648  49.712  1.00  0.00     0.000 C 
BRANCH   4   5
ATOM      5  C   UNL     1      61.050  25.556  50.088  1.00  0.00     0.006 C 
BRANCH   5   6
ATOM      6  C   UNL     1      60.939  26.979  49.518  1.00  0.00     0.053 C 
BRANCH   6   7
ATOM      7  C   UNL     1      61.805  27.954  50.251  1.00  0.00     0.041 C 
ATOM      8  O   UNL     1      61.673  28.110  51.494  1.00  0.00    -0.550 OA
ATOM      9  O   UNL     1      62.740  28.713  49.559  1.00  0.00    -0.550 OA
ENDBRANCH   6   7
ENDBRANCH   5   6
ENDBRANCH   4   5
ENDBRANCH   3   4
ENDBRANCH   2   3
ENDBRANCH   1   2
BRANCH   1  10
ATOM     10  C   UNL     1      58.240  27.536  51.929  1.00  0.00     0.000 C 
BRANCH  10  11
ATOM     11  C   UNL     1      57.185  28.366  52.678  1.00  0.00    -0.000 C 
BRANCH  11  12
ATOM     12  C   UNL     1      55.869  28.596  51.910  1.00  0.00    -0.000 C 
BRANCH  12  13
ATOM     13  C   UNL     1      55.123  27.294  51.549  1.00  0.00    -0.000 C 
BRANCH  13  14
ATOM     14  C   UNL     1      54.751  27.232  50.057  1.00  0.00    -0.000 C 
BRANCH  14  15
ATOM     15  C   UNL     1      54.786  25.801  49.499  1.00  0.00    -0.003 C 
ATOM     16  C   UNL     1      54.049  25.668  48.167  1.00  0.00     0.004 C 
ENDBRANCH  14  15
ENDBRANCH  13  14
ENDBRANCH  12  13
ENDBRANCH  11  12
ENDBRANCH  10  11
ENDBRANCH   1  10
TORSDOF 12
ENDMDL
MODEL 6
REMARK VINA RESULT:    -3.037      2.808      5.818
REMARK INTER + INTRA:          -6.540
REMARK INTER:                  -4.939
REMARK INTRA:                  -1.602
REMARK UNBOUND:                -1.374
REMARK SMILES CCCCCCCCCCCCCC(=O)[O-]
REMARK SMILES IDX 8 1 9 2 10 3 11 4 12 5 13 6 14 7 15 8 16 9 7 10 6 11 5 12
REMARK SMILES IDX 4 13 3 14 2 15 1 16
REMARK H PARENT
REMARK Flexibility Score: inf
ROOT
ATOM      1  C   UNL     1      63.977  31.732  58.350  1.00  0.00     0.000 C 
ENDROOT
BRANCH   1   2
ATOM      2  C   UNL     1      62.868  31.229  59.292  1.00  0.00     0.000 C 
BRANCH   2   3
ATOM      3  C   UNL     1      62.853  29.707  59.528  1.00  0.00     0.000 C 
BRANCH   3   4
ATOM      4  C   UNL     1      63.183  29.323  60.981  1.00  0.00     0.000 C 
BRANCH   4   5
ATOM      5  C   UNL     1      64.580  28.680  61.115  1.00  0.00     0.006 C 
BRANCH   5   6
ATOM      6  C   UNL     1      65.400  28.716  59.816  1.00  0.00     0.053 C 
BRANCH   6   7
ATOM      7  C   UNL     1      66.830  29.081  60.057  1.00  0.00     0.041 C 
ATOM      8  O   UNL     1      67.480  29.710  59.181  1.00  0.00    -0.550 OA
ATOM      9  O   UNL     1      67.456  28.702  61.237  1.00  0.00    -0.550 OA
ENDBRANCH   6   7
ENDBRANCH   5   6
ENDBRANCH   4   5
ENDBRANCH   3   4
ENDBRANCH   2   3
ENDBRANCH   1   2
BRANCH   1  10
ATOM     10  C   UNL     1      65.151  32.382  59.103  1.00  0.00     0.000 C 
BRANCH  10  11
ATOM     11  C   UNL     1      64.896  32.498  60.615  1.00  0.00    -0.000 C 
BRANCH  11  12
ATOM     12  C   UNL     1      65.019  33.923  61.190  1.00  0.00    -0.000 C 
BRANCH  12  13
ATOM     13  C   UNL     1      64.394  35.012  60.293  1.00  0.00    -0.000 C 
BRANCH  13  14
ATOM     14  C   UNL     1      63.266  35.778  61.008  1.00  0.00    -0.000 C 
BRANCH  14  15
ATOM     15  C   UNL     1      61.964  35.807  60.193  1.00  0.00    -0.003 C 
ATOM     16  C   UNL     1      61.961  34.798  59.046  1.00  0.00     0.004 C 
ENDBRANCH  14  15
ENDBRANCH  13  14
ENDBRANCH  12  13
ENDBRANCH  11  12
ENDBRANCH  10  11
ENDBRANCH   1  10
TORSDOF 12
ENDMDL
MODEL 7
REMARK VINA RESULT:    -3.023      2.455      5.480
REMARK INTER + INTRA:          -6.517
REMARK INTER:                  -5.351
REMARK INTRA:                  -1.167
REMARK UNBOUND:                -1.374
REMARK SMILES CCCCCCCCCCCCCC(=O)[O-]
REMARK SMILES IDX 8 1 9 2 10 3 11 4 12 5 13 6 14 7 15 8 16 9 7 10 6 11 5 12
REMARK SMILES IDX 4 13 3 14 2 15 1 16
REMARK H PARENT
REMARK Flexibility Score: inf
ROOT
ATOM      1  C   UNL     1      63.092  30.695  58.239  1.00  0.00     0.000 C 
ENDROOT
BRANCH   1   2
ATOM      2  C   UNL     1      61.695  30.069  58.402  1.00  0.00     0.000 C 
BRANCH   2   3
ATOM      3  C   UNL     1      61.630  28.857  59.350  1.00  0.00     0.000 C 
BRANCH   3   4
ATOM      4  C   UNL     1      61.596  29.260  60.834  1.00  0.00     0.000 C 
BRANCH   4   5
ATOM      5  C   UNL     1      62.747  28.623  61.642  1.00  0.00     0.006 C 
BRANCH   5   6
ATOM      6  C   UNL     1      63.986  28.299  60.793  1.00  0.00     0.053 C 
BRANCH   6   7
ATOM      7  C   UNL     1      65.119  29.238  61.061  1.00  0.00     0.041 C 
ATOM      8  O   UNL     1      66.308  28.826  61.012  1.00  0.00    -0.550 OA
ATOM      9  O   UNL     1      64.863  30.562  61.392  1.00  0.00    -0.550 OA
ENDBRANCH   6   7
ENDBRANCH   5   6
ENDBRANCH   4   5
ENDBRANCH   3   4
ENDBRANCH   2   3
ENDBRANCH   1   2
BRANCH   1  10
ATOM     10  C   UNL     1      63.153  32.153  58.725  1.00  0.00     0.000 C 
BRANCH  10  11
ATOM     11  C   UNL     1      61.896  32.957  58.354  1.00  0.00    -0.000 C 
BRANCH  11  12
ATOM     12  C   UNL     1      61.758  34.318  59.064  1.00  0.00    -0.000 C 
BRANCH  12  13
ATOM     13  C   UNL     1      63.093  34.884  59.590  1.00  0.00    -0.000 C 
BRANCH  13  14
ATOM     14  C   UNL     1      62.890  35.854  60.768  1.00  0.00    -0.000 C 
BRANCH  14  15
ATOM     15  C   UNL     1      64.004  35.745  61.821  1.00  0.00    -0.003 C 
ATOM     16  C   UNL     1      65.038  34.673  61.480  1.00  0.00     0.004 C 
ENDBRANCH  14  15
ENDBRANCH  13  14
ENDBRANCH  12  13
ENDBRANCH  11  12
ENDBRANCH  10  11
ENDBRANCH   1  10
TORSDOF 12
ENDMDL
MODEL 8
REMARK VINA RESULT:    -3.004      2.785      5.190
REMARK INTER + INTRA:          -6.485
REMARK INTER:                  -5.087
REMARK INTRA:                  -1.398
REMARK UNBOUND:                -1.374
REMARK SMILES CCCCCCCCCCCCCC(=O)[O-]
REMARK SMILES IDX 8 1 9 2 10 3 11 4 12 5 13 6 14 7 15 8 16 9 7 10 6 11 5 12
REMARK SMILES IDX 4 13 3 14 2 15 1 16
REMARK H PARENT
REMARK Flexibility Score: inf
ROOT
ATOM      1  C   UNL     1      61.840  29.151  59.128  1.00  0.00     0.000 C 
ENDROOT
BRANCH   1   2
ATOM      2  C   UNL     1      61.390  29.053  60.597  1.00  0.00     0.000 C 
BRANCH   2   3
ATOM      3  C   UNL     1      62.532  29.011  61.629  1.00  0.00     0.000 C 
BRANCH   3   4
ATOM      4  C   UNL     1      63.921  28.877  60.980  1.00  0.00     0.000 C 
BRANCH   4   5
ATOM      5  C   UNL     1      64.868  30.029  61.374  1.00  0.00     0.006 C 
BRANCH   5   6
ATOM      6  C   UNL     1      65.944  30.327  60.318  1.00  0.00     0.053 C 
BRANCH   6   7
ATOM      7  C   UNL     1      67.006  29.274  60.276  1.00  0.00     0.041 C 
ATOM      8  O   UNL     1      67.549  28.964  59.184  1.00  0.00    -0.550 OA
ATOM      9  O   UNL     1      67.378  28.615  61.441  1.00  0.00    -0.550 OA
ENDBRANCH   6   7
ENDBRANCH   5   6
ENDBRANCH   4   5
ENDBRANCH   3   4
ENDBRANCH   2   3
ENDBRANCH   1   2
BRANCH   1  10
ATOM     10  C   UNL     1      61.332  30.426  58.432  1.00  0.00     0.000 C 
BRANCH  10  11
ATOM     11  C   UNL     1      61.926  31.710  59.034  1.00  0.00    -0.000 C 
BRANCH  11  12
ATOM     12  C   UNL     1      63.271  32.155  58.425  1.00  0.00    -0.000 C 
BRANCH  12  13
ATOM     13  C   UNL     1      63.956  33.299  59.200  1.00  0.00    -0.000 C 
BRANCH  13  14
ATOM     14  C   UNL     1      63.033  34.518  59.376  1.00  0.00    -0.000 C 
BRANCH  14  15
ATOM     15  C   UNL     1      63.247  35.233  60.719  1.00  0.00    -0.003 C 
ATOM     16  C   UNL     1      64.622  34.954  61.324  1.00  0.00     0.004 C 
ENDBRANCH  14  15
ENDBRANCH  13  14
ENDBRANCH  12  13
ENDBRANCH  11  12
ENDBRANCH  10  11
ENDBRANCH   1  10
TORSDOF 12
ENDMDL
MODEL 9
REMARK VINA RESULT:    -2.997     14.052     16.301
REMARK INTER + INTRA:          -6.473
REMARK INTER:                  -4.685
REMARK INTRA:                  -1.788
REMARK UNBOUND:                -1.374
REMARK SMILES CCCCCCCCCCCCCC(=O)[O-]
REMARK SMILES IDX 8 1 9 2 10 3 11 4 12 5 13 6 14 7 15 8 16 9 7 10 6 11 5 12
REMARK SMILES IDX 4 13 3 14 2 15 1 16
REMARK H PARENT
REMARK Flexibility Score: inf
ROOT
ATOM      1  C   UNL     1      60.956  18.091  51.840  1.00  0.00     0.000 C 
ENDROOT
BRANCH   1   2
ATOM      2  C   UNL     1      60.571  19.493  52.347  1.00  0.00     0.000 C 
BRANCH   2   3
ATOM      3  C   UNL     1      59.901  20.404  51.303  1.00  0.00     0.000 C 
BRANCH   3   4
ATOM      4  C   UNL     1      60.383  20.126  49.868  1.00  0.00     0.000 C 
BRANCH   4   5
ATOM      5  C   UNL     1      60.896  21.399  49.164  1.00  0.00     0.006 C 
BRANCH   5   6
ATOM      6  C   UNL     1      61.664  22.349  50.097  1.00  0.00     0.053 C 
BRANCH   6   7
ATOM      7  C   UNL     1      61.076  23.724  50.117  1.00  0.00     0.041 C 
ATOM      8  O   UNL     1      59.827  23.879  50.164  1.00  0.00    -0.550 OA
ATOM      9  O   UNL     1      61.905  24.836  50.056  1.00  0.00    -0.550 OA
ENDBRANCH   6   7
ENDBRANCH   5   6
ENDBRANCH   4   5
ENDBRANCH   3   4
ENDBRANCH   2   3
ENDBRANCH   1   2
BRANCH   1  10
ATOM     10  C   UNL     1      60.132  16.971  52.498  1.00  0.00     0.000 C 
BRANCH  10  11
ATOM     11  C   UNL     1      59.516  16.004  51.473  1.00  0.00    -0.000 C 
BRANCH  11  12
ATOM     12  C   UNL     1      59.833  16.326  50.000  1.00  0.00    -0.000 C 
BRANCH  12  13
ATOM     13  C   UNL     1      58.664  16.987  49.241  1.00  0.00    -0.000 C 
BRANCH  13  14
ATOM     14  C   UNL     1      57.387  17.067  50.097  1.00  0.00    -0.000 C 
BRANCH  14  15
ATOM     15  C   UNL     1      57.004  18.512  50.453  1.00  0.00    -0.003 C 
ATOM     16  C   UNL     1      56.344  18.627  51.826  1.00  0.00     0.004 C 
ENDBRANCH  14  15
ENDBRANCH  13  14
ENDBRANCH  12  13
ENDBRANCH  11  12
ENDBRANCH  10  11
ENDBRANCH   1  10
TORSDOF 12
ENDMDL
