MODEL 1
REMARK VINA RESULT:    -7.234      0.000      0.000
REMARK INTER + INTRA:          -8.780
REMARK INTER:                  -8.502
REMARK INTRA:                  -0.278
REMARK UNBOUND:                -0.278
REMARK SMILES O=c1cc(-c2ccc(O)c(O)c2)oc2cc(O)cc(O)c12
REMARK SMILES IDX 4 1 3 2 2 3 1 4 21 5 19 6 18 7 16 8 15 9 14 10 13 11 5 12
REMARK SMILES IDX 6 13 7 14 8 15 12 16 10 17 9 18 11 20 20 22 17 24
REMARK H PARENT 9 19 11 21 20 23 17 25
REMARK Flexibility Score: inf
ROOT
ATOM      1  C   UNL     1     -32.411  95.838   7.507  1.00  0.00     0.138 A 
ATOM      2  C   UNL     1     -31.147  95.260   7.687  1.00  0.00     0.100 A 
ATOM      3  C   UNL     1     -30.991  93.880   7.538  1.00  0.00     0.197 A 
ATOM      4  O   UNL     1     -29.856  93.386   7.761  1.00  0.00    -0.289 OA
ATOM      5  C   UNL     1     -32.100  93.082   7.172  1.00  0.00     0.107 A 
ATOM      6  C   UNL     1     -32.053  91.671   6.957  1.00  0.00     0.134 A 
ATOM      7  C   UNL     1     -33.238  90.973   6.694  1.00  0.00     0.093 A 
ATOM      8  C   UNL     1     -34.459  91.643   6.580  1.00  0.00     0.123 A 
ATOM      9  C   UNL     1     -34.507  93.025   6.736  1.00  0.00     0.094 A 
ATOM     10  C   UNL     1     -33.349  93.746   7.034  1.00  0.00     0.146 A 
ATOM     11  O   UNL     1     -33.443  95.061   7.194  1.00  0.00    -0.456 OA
ENDROOT
BRANCH   1  12
ATOM     12  C   UNL     1     -32.634  97.299   7.649  1.00  0.00     0.021 A 
ATOM     13  C   UNL     1     -32.402  97.969   8.866  1.00  0.00     0.016 A 
ATOM     14  C   UNL     1     -32.631  99.343   8.973  1.00  0.00     0.051 A 
ATOM     15  C   UNL     1     -33.101 100.070   7.873  1.00  0.00     0.157 A 
ATOM     16  C   UNL     1     -33.120  98.034   6.553  1.00  0.00     0.062 A 
ATOM     17  C   UNL     1     -33.348  99.411   6.657  1.00  0.00     0.158 A 
BRANCH  15  18
ATOM     18  O   UNL     1     -33.327 101.441   7.982  1.00  0.00    -0.504 OA
ATOM     19  H   UNL     1     -32.636 102.062   8.387  1.00  0.00     0.293 HD
ENDBRANCH  15  18
BRANCH  17  20
ATOM     20  O   UNL     1     -33.821 100.105   5.544  1.00  0.00    -0.504 OA
ATOM     21  H   UNL     1     -33.206 100.642   4.944  1.00  0.00     0.293 HD
ENDBRANCH  17  20
ENDBRANCH   1  12
BRANCH   6  22
ATOM     22  O   UNL     1     -30.876  90.915   6.970  1.00  0.00    -0.507 OA
ATOM     23  H   UNL     1     -30.391  90.611   7.800  1.00  0.00     0.293 HD
ENDBRANCH   6  22
BRANCH   8  24
ATOM     24  O   UNL     1     -35.630  90.941   6.301  1.00  0.00    -0.508 OA
ATOM     25  H   UNL     1     -35.768  89.989   6.622  1.00  0.00     0.293 HD
ENDBRANCH   8  24
TORSDOF 5
ENDMDL
MODEL 2
REMARK VINA RESULT:    -7.059      1.289      3.042
REMARK INTER + INTRA:          -8.575
REMARK INTER:                  -8.304
REMARK INTRA:                  -0.271
REMARK UNBOUND:                -0.278
REMARK SMILES O=c1cc(-c2ccc(O)c(O)c2)oc2cc(O)cc(O)c12
REMARK SMILES IDX 4 1 3 2 2 3 1 4 21 5 19 6 18 7 16 8 15 9 14 10 13 11 5 12
REMARK SMILES IDX 6 13 7 14 8 15 12 16 10 17 9 18 11 20 20 22 17 24
REMARK H PARENT 9 19 11 21 20 23 17 25
REMARK Flexibility Score: inf
ROOT
ATOM      1  C   UNL     1     -33.176  95.851   7.495  1.00  0.00     0.138 A 
ATOM      2  C   UNL     1     -34.439  95.254   7.380  1.00  0.00     0.100 A 
ATOM      3  C   UNL     1     -34.535  93.880   7.157  1.00  0.00     0.197 A 
ATOM      4  O   UNL     1     -35.681  93.384   7.002  1.00  0.00    -0.289 OA
ATOM      5  C   UNL     1     -33.360  93.094   7.084  1.00  0.00     0.107 A 
ATOM      6  C   UNL     1     -33.336  91.679   6.894  1.00  0.00     0.134 A 
ATOM      7  C   UNL     1     -32.108  91.025   6.739  1.00  0.00     0.093 A 
ATOM      8  C   UNL     1     -30.902  91.725   6.826  1.00  0.00     0.123 A 
ATOM      9  C   UNL     1     -30.913  93.097   7.063  1.00  0.00     0.094 A 
ATOM     10  C   UNL     1     -32.122  93.785   7.186  1.00  0.00     0.146 A 
ATOM     11  O   UNL     1     -32.087  95.097   7.392  1.00  0.00    -0.456 OA
ENDROOT
BRANCH   1  12
ATOM     12  C   UNL     1     -33.016  97.308   7.737  1.00  0.00     0.021 A 
ATOM     13  C   UNL     1     -33.163  98.251   6.702  1.00  0.00     0.016 A 
ATOM     14  C   UNL     1     -32.995  99.614   6.958  1.00  0.00     0.051 A 
ATOM     15  C   UNL     1     -32.671 100.059   8.246  1.00  0.00     0.157 A 
ATOM     16  C   UNL     1     -32.676  97.761   9.025  1.00  0.00     0.062 A 
ATOM     17  C   UNL     1     -32.509  99.127   9.283  1.00  0.00     0.158 A 
BRANCH  15  18
ATOM     18  O   UNL     1     -32.505 101.420   8.497  1.00  0.00    -0.504 OA
ATOM     19  H   UNL     1     -32.775 102.121   7.817  1.00  0.00     0.293 HD
ENDBRANCH  15  18
BRANCH  17  20
ATOM     20  O   UNL     1     -32.181  99.535  10.575  1.00  0.00    -0.504 OA
ATOM     21  H   UNL     1     -31.525 100.288  10.752  1.00  0.00     0.293 HD
ENDBRANCH  17  20
ENDBRANCH   1  12
BRANCH   6  22
ATOM     22  O   UNL     1     -34.478  90.872   6.871  1.00  0.00    -0.507 OA
ATOM     23  H   UNL     1     -34.478  89.866   6.936  1.00  0.00     0.293 HD
ENDBRANCH   6  22
BRANCH   8  24
ATOM     24  O   UNL     1     -29.684  91.061   6.688  1.00  0.00    -0.508 OA
ATOM     25  H   UNL     1     -29.515  90.417   5.924  1.00  0.00     0.293 HD
ENDBRANCH   8  24
TORSDOF 5
ENDMDL
MODEL 3
REMARK VINA RESULT:    -6.956      4.227      7.575
REMARK INTER + INTRA:          -8.453
REMARK INTER:                  -8.180
REMARK INTRA:                  -0.273
REMARK UNBOUND:                -0.278
REMARK SMILES O=c1cc(-c2ccc(O)c(O)c2)oc2cc(O)cc(O)c12
REMARK SMILES IDX 4 1 3 2 2 3 1 4 21 5 19 6 18 7 16 8 15 9 14 10 13 11 5 12
REMARK SMILES IDX 6 13 7 14 8 15 12 16 10 17 9 18 11 20 20 22 17 24
REMARK H PARENT 9 19 11 21 20 23 17 25
REMARK Flexibility Score: inf
ROOT
ATOM      1  C   UNL     1     -30.285  91.143   7.629  1.00  0.00     0.138 A 
ATOM      2  C   UNL     1     -30.443  91.010   6.243  1.00  0.00     0.100 A 
ATOM      3  C   UNL     1     -31.596  91.502   5.629  1.00  0.00     0.197 A 
ATOM      4  O   UNL     1     -31.732  91.318   4.392  1.00  0.00    -0.289 OA
ATOM      5  C   UNL     1     -32.579  92.162   6.404  1.00  0.00     0.107 A 
ATOM      6  C   UNL     1     -33.779  92.734   5.882  1.00  0.00     0.134 A 
ATOM      7  C   UNL     1     -34.725  93.274   6.761  1.00  0.00     0.093 A 
ATOM      8  C   UNL     1     -34.488  93.316   8.138  1.00  0.00     0.123 A 
ATOM      9  C   UNL     1     -33.299  92.808   8.652  1.00  0.00     0.094 A 
ATOM     10  C   UNL     1     -32.350  92.230   7.805  1.00  0.00     0.146 A 
ATOM     11  O   UNL     1     -31.238  91.739   8.339  1.00  0.00    -0.456 OA
ENDROOT
BRANCH   1  12
ATOM     12  C   UNL     1     -29.077  90.643   8.334  1.00  0.00     0.021 A 
ATOM     13  C   UNL     1     -27.807  91.214   8.123  1.00  0.00     0.016 A 
ATOM     14  C   UNL     1     -26.687  90.714   8.792  1.00  0.00     0.051 A 
ATOM     15  C   UNL     1     -26.811  89.635   9.675  1.00  0.00     0.157 A 
ATOM     16  C   UNL     1     -29.192  89.550   9.211  1.00  0.00     0.062 A 
ATOM     17  C   UNL     1     -28.070  89.049   9.883  1.00  0.00     0.158 A 
BRANCH  15  18
ATOM     18  O   UNL     1     -25.691  89.140  10.341  1.00  0.00    -0.504 OA
ATOM     19  H   UNL     1     -25.189  89.699  11.020  1.00  0.00     0.293 HD
ENDBRANCH  15  18
BRANCH  17  20
ATOM     20  O   UNL     1     -28.229  87.970  10.752  1.00  0.00    -0.504 OA
ATOM     21  H   UNL     1     -28.733  88.053  11.627  1.00  0.00     0.293 HD
ENDBRANCH  17  20
ENDBRANCH   1  12
BRANCH   6  22
ATOM     22  O   UNL     1     -34.080  92.816   4.518  1.00  0.00    -0.507 OA
ATOM     23  H   UNL     1     -33.683  93.484   3.876  1.00  0.00     0.293 HD
ENDBRANCH   6  22
BRANCH   8  24
ATOM     24  O   UNL     1     -35.429  93.872   9.004  1.00  0.00    -0.508 OA
ATOM     25  H   UNL     1     -36.311  93.410   9.195  1.00  0.00     0.293 HD
ENDBRANCH   8  24
TORSDOF 5
ENDMDL
MODEL 4
REMARK VINA RESULT:    -6.820     16.896     17.983
REMARK INTER + INTRA:          -8.294
REMARK INTER:                  -8.029
REMARK INTRA:                  -0.265
REMARK UNBOUND:                -0.278
REMARK SMILES O=c1cc(-c2ccc(O)c(O)c2)oc2cc(O)cc(O)c12
REMARK SMILES IDX 4 1 3 2 2 3 1 4 21 5 19 6 18 7 16 8 15 9 14 10 13 11 5 12
REMARK SMILES IDX 6 13 7 14 8 15 12 16 10 17 9 18 11 20 20 22 17 24
REMARK H PARENT 9 19 11 21 20 23 17 25
REMARK Flexibility Score: inf
ROOT
ATOM      1  C   UNL     1     -21.066  97.324  -5.476  1.00  0.00     0.138 A 
ATOM      2  C   UNL     1     -21.861  96.172  -5.411  1.00  0.00     0.100 A 
ATOM      3  C   UNL     1     -21.310  94.979  -4.940  1.00  0.00     0.197 A 
ATOM      4  O   UNL     1     -22.033  93.950  -4.946  1.00  0.00    -0.289 OA
ATOM      5  C   UNL     1     -19.965  94.950  -4.500  1.00  0.00     0.107 A 
ATOM      6  C   UNL     1     -19.306  93.799  -3.969  1.00  0.00     0.134 A 
ATOM      7  C   UNL     1     -17.943  93.867  -3.659  1.00  0.00     0.093 A 
ATOM      8  C   UNL     1     -17.228  95.059  -3.805  1.00  0.00     0.123 A 
ATOM      9  C   UNL     1     -17.874  96.200  -4.274  1.00  0.00     0.094 A 
ATOM     10  C   UNL     1     -19.225  96.157  -4.626  1.00  0.00     0.146 A 
ATOM     11  O   UNL     1     -19.797  97.263  -5.086  1.00  0.00    -0.456 OA
ENDROOT
BRANCH   1  12
ATOM     12  C   UNL     1     -21.601  98.621  -5.964  1.00  0.00     0.021 A 
ATOM     13  C   UNL     1     -21.733  99.735  -5.112  1.00  0.00     0.016 A 
ATOM     14  C   UNL     1     -22.250 100.939  -5.597  1.00  0.00     0.051 A 
ATOM     15  C   UNL     1     -22.652 101.051  -6.934  1.00  0.00     0.157 A 
ATOM     16  C   UNL     1     -22.020  98.737  -7.301  1.00  0.00     0.062 A 
ATOM     17  C   UNL     1     -22.537  99.943  -7.789  1.00  0.00     0.158 A 
BRANCH  15  18
ATOM     18  O   UNL     1     -23.166 102.254  -7.414  1.00  0.00    -0.504 OA
ATOM     19  H   UNL     1     -23.043 103.123  -6.907  1.00  0.00     0.293 HD
ENDBRANCH  15  18
BRANCH  17  20
ATOM     20  O   UNL     1     -22.931 100.019  -9.124  1.00  0.00    -0.504 OA
ATOM     21  H   UNL     1     -23.098  99.190  -9.684  1.00  0.00     0.293 HD
ENDBRANCH  17  20
ENDBRANCH   1  12
BRANCH   6  22
ATOM     22  O   UNL     1     -19.943  92.582  -3.709  1.00  0.00    -0.507 OA
ATOM     23  H   UNL     1     -20.705  92.199  -4.248  1.00  0.00     0.293 HD
ENDBRANCH   6  22
BRANCH   8  24
ATOM     24  O   UNL     1     -15.875  95.121  -3.478  1.00  0.00    -0.508 OA
ATOM     25  H   UNL     1     -15.258  95.807  -3.898  1.00  0.00     0.293 HD
ENDBRANCH   8  24
TORSDOF 5
ENDMDL
MODEL 5
REMARK VINA RESULT:    -6.809      2.558      3.994
REMARK INTER + INTRA:          -8.280
REMARK INTER:                  -7.970
REMARK INTRA:                  -0.311
REMARK UNBOUND:                -0.278
REMARK SMILES O=c1cc(-c2ccc(O)c(O)c2)oc2cc(O)cc(O)c12
REMARK SMILES IDX 4 1 3 2 2 3 1 4 21 5 19 6 18 7 16 8 15 9 14 10 13 11 5 12
REMARK SMILES IDX 6 13 7 14 8 15 12 16 10 17 9 18 11 20 20 22 17 24
REMARK H PARENT 9 19 11 21 20 23 17 25
REMARK Flexibility Score: inf
ROOT
ATOM      1  C   UNL     1     -32.053  98.227   7.903  1.00  0.00     0.138 A 
ATOM      2  C   UNL     1     -33.447  98.205   8.046  1.00  0.00     0.100 A 
ATOM      3  C   UNL     1     -34.125  96.985   8.016  1.00  0.00     0.197 A 
ATOM      4  O   UNL     1     -35.380  97.004   8.090  1.00  0.00    -0.289 OA
ATOM      5  C   UNL     1     -33.398  95.779   7.877  1.00  0.00     0.107 A 
ATOM      6  C   UNL     1     -33.979  94.474   7.867  1.00  0.00     0.134 A 
ATOM      7  C   UNL     1     -33.166  93.360   7.624  1.00  0.00     0.093 A 
ATOM      8  C   UNL     1     -31.787  93.497   7.448  1.00  0.00     0.123 A 
ATOM      9  C   UNL     1     -31.204  94.760   7.507  1.00  0.00     0.094 A 
ATOM     10  C   UNL     1     -31.991  95.895   7.713  1.00  0.00     0.146 A 
ATOM     11  O   UNL     1     -31.397  97.083   7.743  1.00  0.00    -0.456 OA
ENDROOT
BRANCH   1  12
ATOM     12  C   UNL     1     -31.281  99.495   7.933  1.00  0.00     0.021 A 
ATOM     13  C   UNL     1     -31.788 100.657   8.546  1.00  0.00     0.016 A 
ATOM     14  C   UNL     1     -31.043 101.839   8.548  1.00  0.00     0.051 A 
ATOM     15  C   UNL     1     -29.785 101.885   7.934  1.00  0.00     0.157 A 
ATOM     16  C   UNL     1     -30.024  99.553   7.305  1.00  0.00     0.062 A 
ATOM     17  C   UNL     1     -29.275 100.737   7.308  1.00  0.00     0.158 A 
BRANCH  15  18
ATOM     18  O   UNL     1     -29.044 103.066   7.939  1.00  0.00    -0.504 OA
ATOM     19  H   UNL     1     -28.188 103.157   7.405  1.00  0.00     0.293 HD
ENDBRANCH  15  18
BRANCH  17  20
ATOM     20  O   UNL     1     -28.028 100.750   6.683  1.00  0.00    -0.504 OA
ATOM     21  H   UNL     1     -27.609 101.605   6.338  1.00  0.00     0.293 HD
ENDBRANCH  17  20
ENDBRANCH   1  12
BRANCH   6  22
ATOM     22  O   UNL     1     -35.332  94.216   8.110  1.00  0.00    -0.507 OA
ATOM     23  H   UNL     1     -36.096  94.798   7.805  1.00  0.00     0.293 HD
ENDBRANCH   6  22
BRANCH   8  24
ATOM     24  O   UNL     1     -30.985  92.380   7.223  1.00  0.00    -0.508 OA
ATOM     25  H   UNL     1     -31.130  91.513   7.727  1.00  0.00     0.293 HD
ENDBRANCH   8  24
TORSDOF 5
ENDMDL
MODEL 6
REMARK VINA RESULT:    -6.776     16.737     17.707
REMARK INTER + INTRA:          -8.242
REMARK INTER:                  -7.939
REMARK INTRA:                  -0.304
REMARK UNBOUND:                -0.278
REMARK SMILES O=c1cc(-c2ccc(O)c(O)c2)oc2cc(O)cc(O)c12
REMARK SMILES IDX 4 1 3 2 2 3 1 4 21 5 19 6 18 7 16 8 15 9 14 10 13 11 5 12
REMARK SMILES IDX 6 13 7 14 8 15 12 16 10 17 9 18 11 20 20 22 17 24
REMARK H PARENT 9 19 11 21 20 23 17 25
REMARK Flexibility Score: inf
ROOT
ATOM      1  C   UNL     1     -20.469  97.461  -5.470  1.00  0.00     0.138 A 
ATOM      2  C   UNL     1     -19.094  97.709  -5.352  1.00  0.00     0.100 A 
ATOM      3  C   UNL     1     -18.251  96.707  -4.868  1.00  0.00     0.197 A 
ATOM      4  O   UNL     1     -17.032  96.980  -4.722  1.00  0.00    -0.289 OA
ATOM      5  C   UNL     1     -18.783  95.440  -4.533  1.00  0.00     0.107 A 
ATOM      6  C   UNL     1     -18.014  94.332  -4.063  1.00  0.00     0.134 A 
ATOM      7  C   UNL     1     -18.667  93.157  -3.670  1.00  0.00     0.093 A 
ATOM      8  C   UNL     1     -20.054  93.029  -3.786  1.00  0.00     0.123 A 
ATOM      9  C   UNL     1     -20.807  94.085  -4.292  1.00  0.00     0.094 A 
ATOM     10  C   UNL     1     -20.190  95.283  -4.660  1.00  0.00     0.146 A 
ATOM     11  O   UNL     1     -20.948  96.272  -5.120  1.00  0.00    -0.456 OA
ENDROOT
BRANCH   1  12
ATOM     12  C   UNL     1     -21.411  98.488  -5.983  1.00  0.00     0.021 A 
ATOM     13  C   UNL     1     -21.021  99.432  -6.952  1.00  0.00     0.016 A 
ATOM     14  C   UNL     1     -21.927 100.393  -7.408  1.00  0.00     0.051 A 
ATOM     15  C   UNL     1     -23.231 100.435  -6.901  1.00  0.00     0.157 A 
ATOM     16  C   UNL     1     -22.718  98.545  -5.467  1.00  0.00     0.062 A 
ATOM     17  C   UNL     1     -23.627  99.507  -5.924  1.00  0.00     0.158 A 
BRANCH  15  18
ATOM     18  O   UNL     1     -24.132 101.395  -7.359  1.00  0.00    -0.504 OA
ATOM     19  H   UNL     1     -23.864 102.366  -7.463  1.00  0.00     0.293 HD
ENDBRANCH  15  18
BRANCH  17  20
ATOM     20  O   UNL     1     -24.917  99.523  -5.394  1.00  0.00    -0.504 OA
ATOM     21  H   UNL     1     -25.164  98.998  -4.564  1.00  0.00     0.293 HD
ENDBRANCH  17  20
ENDBRANCH   1  12
BRANCH   6  22
ATOM     22  O   UNL     1     -16.618  94.324  -3.982  1.00  0.00    -0.507 OA
ATOM     23  H   UNL     1     -16.024  95.122  -4.147  1.00  0.00     0.293 HD
ENDBRANCH   6  22
BRANCH   8  24
ATOM     24  O   UNL     1     -20.692  91.849  -3.408  1.00  0.00    -0.508 OA
ATOM     25  H   UNL     1     -20.357  90.943  -3.714  1.00  0.00     0.293 HD
ENDBRANCH   8  24
TORSDOF 5
ENDMDL
MODEL 7
REMARK VINA RESULT:    -6.592      1.767      6.912
REMARK INTER + INTRA:          -8.025
REMARK INTER:                  -7.762
REMARK INTRA:                  -0.264
REMARK UNBOUND:                -0.278
REMARK SMILES O=c1cc(-c2ccc(O)c(O)c2)oc2cc(O)cc(O)c12
REMARK SMILES IDX 4 1 3 2 2 3 1 4 21 5 19 6 18 7 16 8 15 9 14 10 13 11 5 12
REMARK SMILES IDX 6 13 7 14 8 15 12 16 10 17 9 18 11 20 20 22 17 24
REMARK H PARENT 9 19 11 21 20 23 17 25
REMARK Flexibility Score: inf
ROOT
ATOM      1  C   UNL     1     -33.499  95.168   8.168  1.00  0.00     0.138 A 
ATOM      2  C   UNL     1     -32.761  95.210   9.359  1.00  0.00     0.100 A 
ATOM      3  C   UNL     1     -32.346  96.442   9.870  1.00  0.00     0.197 A 
ATOM      4  O   UNL     1     -31.638  96.442  10.909  1.00  0.00    -0.289 OA
ATOM      5  C   UNL     1     -32.704  97.637   9.203  1.00  0.00     0.107 A 
ATOM      6  C   UNL     1     -32.367  98.951   9.649  1.00  0.00     0.134 A 
ATOM      7  C   UNL     1     -32.691 100.055   8.852  1.00  0.00     0.093 A 
ATOM      8  C   UNL     1     -33.393  99.898   7.653  1.00  0.00     0.123 A 
ATOM      9  C   UNL     1     -33.771  98.625   7.235  1.00  0.00     0.094 A 
ATOM     10  C   UNL     1     -33.431  97.500   7.990  1.00  0.00     0.146 A 
ATOM     11  O   UNL     1     -33.796  96.303   7.544  1.00  0.00    -0.456 OA
ENDROOT
BRANCH   1  12
ATOM     12  C   UNL     1     -33.970  93.887   7.581  1.00  0.00     0.021 A 
ATOM     13  C   UNL     1     -35.197  93.307   7.957  1.00  0.00     0.016 A 
ATOM     14  C   UNL     1     -35.608  92.096   7.396  1.00  0.00     0.051 A 
ATOM     15  C   UNL     1     -34.802  91.438   6.458  1.00  0.00     0.157 A 
ATOM     16  C   UNL     1     -33.159  93.214   6.650  1.00  0.00     0.062 A 
ATOM     17  C   UNL     1     -33.570  92.001   6.086  1.00  0.00     0.158 A 
BRANCH  15  18
ATOM     18  O   UNL     1     -35.216  90.230   5.900  1.00  0.00    -0.504 OA
ATOM     19  H   UNL     1     -34.865  89.342   6.238  1.00  0.00     0.293 HD
ENDBRANCH  15  18
BRANCH  17  20
ATOM     20  O   UNL     1     -32.741  91.370   5.159  1.00  0.00    -0.504 OA
ATOM     21  H   UNL     1     -32.154  91.894   4.519  1.00  0.00     0.293 HD
ENDBRANCH  17  20
ENDBRANCH   1  12
BRANCH   6  22
ATOM     22  O   UNL     1     -31.737  99.228  10.867  1.00  0.00    -0.507 OA
ATOM     23  H   UNL     1     -32.209  99.500  11.715  1.00  0.00     0.293 HD
ENDBRANCH   6  22
BRANCH   8  24
ATOM     24  O   UNL     1     -33.726 101.004   6.875  1.00  0.00    -0.508 OA
ATOM     25  H   UNL     1     -33.330 101.920   7.057  1.00  0.00     0.293 HD
ENDBRANCH   8  24
TORSDOF 5
ENDMDL
MODEL 8
REMARK VINA RESULT:    -6.489      4.180      7.508
REMARK INTER + INTRA:          -7.905
REMARK INTER:                  -7.640
REMARK INTRA:                  -0.265
REMARK UNBOUND:                -0.278
REMARK SMILES O=c1cc(-c2ccc(O)c(O)c2)oc2cc(O)cc(O)c12
REMARK SMILES IDX 4 1 3 2 2 3 1 4 21 5 19 6 18 7 16 8 15 9 14 10 13 11 5 12
REMARK SMILES IDX 6 13 7 14 8 15 12 16 10 17 9 18 11 20 20 22 17 24
REMARK H PARENT 9 19 11 21 20 23 17 25
REMARK Flexibility Score: inf
ROOT
ATOM      1  C   UNL     1     -30.699  91.640   8.970  1.00  0.00     0.138 A 
ATOM      2  C   UNL     1     -31.438  92.235  10.002  1.00  0.00     0.100 A 
ATOM      3  C   UNL     1     -32.666  92.833   9.715  1.00  0.00     0.197 A 
ATOM      4  O   UNL     1     -33.278  93.406  10.652  1.00  0.00    -0.289 OA
ATOM      5  C   UNL     1     -33.173  92.803   8.394  1.00  0.00     0.107 A 
ATOM      6  C   UNL     1     -34.429  93.350   7.990  1.00  0.00     0.134 A 
ATOM      7  C   UNL     1     -34.778  93.348   6.634  1.00  0.00     0.093 A 
ATOM      8  C   UNL     1     -33.944  92.766   5.676  1.00  0.00     0.123 A 
ATOM      9  C   UNL     1     -32.741  92.185   6.066  1.00  0.00     0.094 A 
ATOM     10  C   UNL     1     -32.347  92.202   7.406  1.00  0.00     0.146 A 
ATOM     11  O   UNL     1     -31.182  91.653   7.732  1.00  0.00    -0.456 OA
ENDROOT
BRANCH   1  12
ATOM     12  C   UNL     1     -29.389  90.986   9.218  1.00  0.00     0.021 A 
ATOM     13  C   UNL     1     -28.202  91.454   8.621  1.00  0.00     0.016 A 
ATOM     14  C   UNL     1     -26.986  90.811   8.865  1.00  0.00     0.051 A 
ATOM     15  C   UNL     1     -26.933  89.689   9.701  1.00  0.00     0.157 A 
ATOM     16  C   UNL     1     -29.330  89.849  10.045  1.00  0.00     0.062 A 
ATOM     17  C   UNL     1     -28.112  89.205  10.292  1.00  0.00     0.158 A 
BRANCH  15  18
ATOM     18  O   UNL     1     -25.717  89.051   9.943  1.00  0.00    -0.504 OA
ATOM     19  H   UNL     1     -25.653  88.252  10.563  1.00  0.00     0.293 HD
ENDBRANCH  15  18
BRANCH  17  20
ATOM     20  O   UNL     1     -28.095  88.087  11.125  1.00  0.00    -0.504 OA
ATOM     21  H   UNL     1     -28.622  87.249  10.910  1.00  0.00     0.293 HD
ENDBRANCH  17  20
ENDBRANCH   1  12
BRANCH   6  22
ATOM     22  O   UNL     1     -35.372  93.884   8.874  1.00  0.00    -0.507 OA
ATOM     23  H   UNL     1     -35.852  94.761   8.749  1.00  0.00     0.293 HD
ENDBRANCH   6  22
BRANCH   8  24
ATOM     24  O   UNL     1     -34.308  92.754   4.331  1.00  0.00    -0.508 OA
ATOM     25  H   UNL     1     -33.836  92.161   3.658  1.00  0.00     0.293 HD
ENDBRANCH   8  24
TORSDOF 5
ENDMDL
MODEL 9
REMARK VINA RESULT:    -5.774     18.202     19.281
REMARK INTER + INTRA:          -7.064
REMARK INTER:                  -6.787
REMARK INTRA:                  -0.278
REMARK UNBOUND:                -0.278
REMARK SMILES O=c1cc(-c2ccc(O)c(O)c2)oc2cc(O)cc(O)c12
REMARK SMILES IDX 4 1 3 2 2 3 1 4 21 5 19 6 18 7 16 8 15 9 14 10 13 11 5 12
REMARK SMILES IDX 6 13 7 14 8 15 12 16 10 17 9 18 11 20 20 22 17 24
REMARK H PARENT 9 19 11 21 20 23 17 25
REMARK Flexibility Score: inf
ROOT
ATOM      1  C   UNL     1     -19.773  97.548  -5.903  1.00  0.00     0.138 A 
ATOM      2  C   UNL     1     -19.385  97.332  -4.574  1.00  0.00     0.100 A 
ATOM      3  C   UNL     1     -18.320  96.473  -4.296  1.00  0.00     0.197 A 
ATOM      4  O   UNL     1     -18.033  96.257  -3.091  1.00  0.00    -0.289 OA
ATOM      5  C   UNL     1     -17.619  95.855  -5.359  1.00  0.00     0.107 A 
ATOM      6  C   UNL     1     -16.497  94.987  -5.198  1.00  0.00     0.134 A 
ATOM      7  C   UNL     1     -15.947  94.356  -6.321  1.00  0.00     0.093 A 
ATOM      8  C   UNL     1     -16.440  94.607  -7.603  1.00  0.00     0.123 A 
ATOM      9  C   UNL     1     -17.501  95.491  -7.776  1.00  0.00     0.094 A 
ATOM     10  C   UNL     1     -18.096  96.110  -6.673  1.00  0.00     0.146 A 
ATOM     11  O   UNL     1     -19.118  96.932  -6.881  1.00  0.00    -0.456 OA
ENDROOT
BRANCH   1  12
ATOM     12  C   UNL     1     -20.895  98.456  -6.256  1.00  0.00     0.021 A 
ATOM     13  C   UNL     1     -20.810  99.352  -7.339  1.00  0.00     0.016 A 
ATOM     14  C   UNL     1     -21.877 100.201  -7.640  1.00  0.00     0.051 A 
ATOM     15  C   UNL     1     -23.043 100.177  -6.865  1.00  0.00     0.157 A 
ATOM     16  C   UNL     1     -22.063  98.447  -5.473  1.00  0.00     0.062 A 
ATOM     17  C   UNL     1     -23.134  99.296  -5.774  1.00  0.00     0.158 A 
BRANCH  15  18
ATOM     18  O   UNL     1     -24.107 101.025  -7.169  1.00  0.00    -0.504 OA
ATOM     19  H   UNL     1     -24.833 101.228  -6.492  1.00  0.00     0.293 HD
ENDBRANCH  15  18
BRANCH  17  20
ATOM     20  O   UNL     1     -24.279  99.249  -4.979  1.00  0.00    -0.504 OA
ATOM     21  H   UNL     1     -24.951 100.007  -4.959  1.00  0.00     0.293 HD
ENDBRANCH  17  20
ENDBRANCH   1  12
BRANCH   6  22
ATOM     22  O   UNL     1     -15.875  94.728  -3.972  1.00  0.00    -0.507 OA
ATOM     23  H   UNL     1     -15.983  95.285  -3.139  1.00  0.00     0.293 HD
ENDBRANCH   6  22
BRANCH   8  24
ATOM     24  O   UNL     1     -15.875  93.987  -8.716  1.00  0.00    -0.508 OA
ATOM     25  H   UNL     1     -14.939  94.214  -9.032  1.00  0.00     0.293 HD
ENDBRANCH   8  24
TORSDOF 5
ENDMDL
