MODEL 1
REMARK VINA RESULT:    -7.699      0.000      0.000
REMARK INTER + INTRA:          -9.588
REMARK INTER:                  -9.274
REMARK INTRA:                  -0.315
REMARK UNBOUND:                -0.315
REMARK SMILES Oc1cc(O)c2cc(O)c(-c3ccc(O)c(O)c3)[o+]c2c1
REMARK SMILES IDX 10 1 19 2 20 3 21 4 2 5 3 6 4 7 6 8 7 9 8 10 11 11 12 12
REMARK SMILES IDX 13 13 14 14 18 15 16 16 15 17 17 19 9 21 1 23 5 25
REMARK H PARENT 15 18 17 20 9 22 1 24 5 26
REMARK Flexibility Score: inf
ROOT
ATOM      1  C   UNL     1     -36.881  -9.602  21.845  1.00  0.00     0.402 A 
ATOM      2  O   UNL     1     -35.928  -8.782  22.280  1.00  0.00    -0.202 OA
ATOM      3  C   UNL     1     -34.674  -9.168  22.493  1.00  0.00     0.368 A 
ATOM      4  C   UNL     1     -33.744  -8.233  22.953  1.00  0.00     0.162 A 
ATOM      5  C   UNL     1     -32.418  -8.613  23.188  1.00  0.00     0.128 A 
ATOM      6  C   UNL     1     -32.023  -9.933  22.963  1.00  0.00     0.093 A 
ATOM      7  C   UNL     1     -32.936 -10.889  22.501  1.00  0.00     0.136 A 
ATOM      8  C   UNL     1     -34.282 -10.509  22.258  1.00  0.00     0.125 A 
ATOM      9  C   UNL     1     -35.262 -11.395  21.783  1.00  0.00     0.078 A 
ATOM     10  C   UNL     1     -36.567 -10.944  21.563  1.00  0.00     0.223 A 
ENDROOT
BRANCH   1  11
ATOM     11  C   UNL     1     -38.243  -9.054  21.655  1.00  0.00     0.087 A 
ATOM     12  C   UNL     1     -39.106  -8.843  22.745  1.00  0.00     0.022 A 
ATOM     13  C   UNL     1     -40.378  -8.303  22.543  1.00  0.00     0.051 A 
ATOM     14  C   UNL     1     -40.803  -7.952  21.255  1.00  0.00     0.157 A 
ATOM     15  C   UNL     1     -38.665  -8.681  20.368  1.00  0.00     0.068 A 
ATOM     16  C   UNL     1     -39.939  -8.140  20.163  1.00  0.00     0.158 A 
BRANCH  14  17
ATOM     17  O   UNL     1     -42.074  -7.415  21.057  1.00  0.00    -0.504 OA
ATOM     18  H   UNL     1     -42.438  -7.243  20.127  1.00  0.00     0.293 HD
ENDBRANCH  14  17
BRANCH  16  19
ATOM     19  O   UNL     1     -40.328  -7.795  18.869  1.00  0.00    -0.504 OA
ATOM     20  H   UNL     1     -41.302  -7.730  18.600  1.00  0.00     0.293 HD
ENDBRANCH  16  19
ENDBRANCH   1  11
BRANCH  10  21
ATOM     21  O   UNL     1     -37.528 -11.812  21.044  1.00  0.00    -0.500 OA
ATOM     22  H   UNL     1     -37.996 -11.625  20.164  1.00  0.00     0.294 HD
ENDBRANCH  10  21
BRANCH   5  23
ATOM     23  O   UNL     1     -31.485  -7.686  23.647  1.00  0.00    -0.507 OA
ATOM     24  H   UNL     1     -30.818  -7.251  23.021  1.00  0.00     0.293 HD
ENDBRANCH   5  23
BRANCH   7  25
ATOM     25  O   UNL     1     -32.463 -12.190  22.304  1.00  0.00    -0.507 OA
ATOM     26  H   UNL     1     -32.581 -12.718  21.452  1.00  0.00     0.293 HD
ENDBRANCH   7  25
TORSDOF 6
ENDMDL
MODEL 2
REMARK VINA RESULT:    -7.128      0.704      1.484
REMARK INTER + INTRA:          -8.901
REMARK INTER:                  -8.576
REMARK INTRA:                  -0.325
REMARK UNBOUND:                -0.315
REMARK SMILES Oc1cc(O)c2cc(O)c(-c3ccc(O)c(O)c3)[o+]c2c1
REMARK SMILES IDX 10 1 19 2 20 3 21 4 2 5 3 6 4 7 6 8 7 9 8 10 11 11 12 12
REMARK SMILES IDX 13 13 14 14 18 15 16 16 15 17 17 19 9 21 1 23 5 25
REMARK H PARENT 15 18 17 20 9 22 1 24 5 26
REMARK Flexibility Score: inf
ROOT
ATOM      1  C   UNL     1     -36.558  -9.529  21.569  1.00  0.00     0.402 A 
ATOM      2  O   UNL     1     -35.600  -8.672  21.912  1.00  0.00    -0.202 OA
ATOM      3  C   UNL     1     -34.365  -9.046  22.232  1.00  0.00     0.368 A 
ATOM      4  C   UNL     1     -33.428  -8.070  22.580  1.00  0.00     0.162 A 
ATOM      5  C   UNL     1     -32.123  -8.437  22.924  1.00  0.00     0.128 A 
ATOM      6  C   UNL     1     -31.754  -9.783  22.920  1.00  0.00     0.093 A 
ATOM      7  C   UNL     1     -32.675 -10.780  22.573  1.00  0.00     0.136 A 
ATOM      8  C   UNL     1     -34.001 -10.414  22.221  1.00  0.00     0.125 A 
ATOM      9  C   UNL     1     -34.985 -11.343  21.848  1.00  0.00     0.078 A 
ATOM     10  C   UNL     1     -36.269 -10.906  21.509  1.00  0.00     0.223 A 
ENDROOT
BRANCH   1  11
ATOM     11  C   UNL     1     -37.897  -8.990  21.244  1.00  0.00     0.087 A 
ATOM     12  C   UNL     1     -38.302  -8.790  19.912  1.00  0.00     0.022 A 
ATOM     13  C   UNL     1     -39.580  -8.302  19.629  1.00  0.00     0.051 A 
ATOM     14  C   UNL     1     -40.477  -8.020  20.668  1.00  0.00     0.157 A 
ATOM     15  C   UNL     1     -38.807  -8.727  22.280  1.00  0.00     0.068 A 
ATOM     16  C   UNL     1     -40.088  -8.237  22.000  1.00  0.00     0.158 A 
BRANCH  14  17
ATOM     17  O   UNL     1     -41.751  -7.532  20.382  1.00  0.00    -0.504 OA
ATOM     18  H   UNL     1     -41.913  -6.891  19.614  1.00  0.00     0.293 HD
ENDBRANCH  14  17
BRANCH  16  19
ATOM     19  O   UNL     1     -40.959  -7.973  23.057  1.00  0.00    -0.504 OA
ATOM     20  H   UNL     1     -41.784  -8.535  23.227  1.00  0.00     0.293 HD
ENDBRANCH  16  19
ENDBRANCH   1  11
BRANCH  10  21
ATOM     21  O   UNL     1     -37.233 -11.823  21.091  1.00  0.00    -0.500 OA
ATOM     22  H   UNL     1     -38.208 -11.728  21.352  1.00  0.00     0.294 HD
ENDBRANCH  10  21
BRANCH   5  23
ATOM     23  O   UNL     1     -31.183  -7.468  23.272  1.00  0.00    -0.507 OA
ATOM     24  H   UNL     1     -30.663  -6.957  22.569  1.00  0.00     0.293 HD
ENDBRANCH   5  23
BRANCH   7  25
ATOM     25  O   UNL     1     -32.229 -12.105  22.597  1.00  0.00    -0.507 OA
ATOM     26  H   UNL     1     -32.223 -12.691  23.419  1.00  0.00     0.293 HD
ENDBRANCH   7  25
TORSDOF 6
ENDMDL
MODEL 3
REMARK VINA RESULT:    -6.651      3.399      6.068
REMARK INTER + INTRA:          -8.327
REMARK INTER:                  -8.565
REMARK INTRA:                   0.239
REMARK UNBOUND:                -0.315
REMARK SMILES Oc1cc(O)c2cc(O)c(-c3ccc(O)c(O)c3)[o+]c2c1
REMARK SMILES IDX 10 1 19 2 20 3 21 4 2 5 3 6 4 7 6 8 7 9 8 10 11 11 12 12
REMARK SMILES IDX 13 13 14 14 18 15 16 16 15 17 17 19 9 21 1 23 5 25
REMARK H PARENT 15 18 17 20 9 22 1 24 5 26
REMARK Flexibility Score: inf
ROOT
ATOM      1  C   UNL     1     -37.500  -8.052  20.065  1.00  0.00     0.402 A 
ATOM      2  O   UNL     1     -36.533  -7.178  20.330  1.00  0.00    -0.202 OA
ATOM      3  C   UNL     1     -36.529  -5.931  19.870  1.00  0.00     0.368 A 
ATOM      4  C   UNL     1     -35.465  -5.088  20.203  1.00  0.00     0.162 A 
ATOM      5  C   UNL     1     -35.435  -3.772  19.730  1.00  0.00     0.128 A 
ATOM      6  C   UNL     1     -36.471  -3.299  18.922  1.00  0.00     0.093 A 
ATOM      7  C   UNL     1     -37.548  -4.124  18.575  1.00  0.00     0.136 A 
ATOM      8  C   UNL     1     -37.585  -5.460  19.054  1.00  0.00     0.125 A 
ATOM      9  C   UNL     1     -38.631  -6.353  18.769  1.00  0.00     0.078 A 
ATOM     10  C   UNL     1     -38.600  -7.654  19.282  1.00  0.00     0.223 A 
ENDROOT
BRANCH   1  11
ATOM     11  C   UNL     1     -37.386  -9.416  20.628  1.00  0.00     0.087 A 
ATOM     12  C   UNL     1     -38.526 -10.173  20.952  1.00  0.00     0.022 A 
ATOM     13  C   UNL     1     -38.393 -11.467  21.460  1.00  0.00     0.051 A 
ATOM     14  C   UNL     1     -37.123 -12.031  21.639  1.00  0.00     0.157 A 
ATOM     15  C   UNL     1     -36.116  -9.994  20.788  1.00  0.00     0.068 A 
ATOM     16  C   UNL     1     -35.980 -11.290  21.297  1.00  0.00     0.158 A 
BRANCH  14  17
ATOM     17  O   UNL     1     -36.994 -13.322  22.147  1.00  0.00    -0.504 OA
ATOM     18  H   UNL     1     -36.132 -13.641  22.574  1.00  0.00     0.293 HD
ENDBRANCH  14  17
BRANCH  16  19
ATOM     19  O   UNL     1     -34.701 -11.824  21.457  1.00  0.00    -0.504 OA
ATOM     20  H   UNL     1     -34.400 -12.656  20.964  1.00  0.00     0.293 HD
ENDBRANCH  16  19
ENDBRANCH   1  11
BRANCH  10  21
ATOM     21  O   UNL     1     -39.662  -8.526  19.040  1.00  0.00    -0.500 OA
ATOM     22  H   UNL     1     -40.624  -8.208  19.046  1.00  0.00     0.294 HD
ENDBRANCH  10  21
BRANCH   5  23
ATOM     23  O   UNL     1     -34.378  -2.925  20.057  1.00  0.00    -0.507 OA
ATOM     24  H   UNL     1     -34.221  -2.057  19.560  1.00  0.00     0.293 HD
ENDBRANCH   5  23
BRANCH   7  25
ATOM     25  O   UNL     1     -38.543  -3.577  17.760  1.00  0.00    -0.507 OA
ATOM     26  H   UNL     1     -39.534  -3.677  17.922  1.00  0.00     0.293 HD
ENDBRANCH   7  25
TORSDOF 6
ENDMDL
MODEL 4
REMARK VINA RESULT:    -6.644      1.444      7.016
REMARK INTER + INTRA:          -8.318
REMARK INTER:                  -7.988
REMARK INTRA:                  -0.330
REMARK UNBOUND:                -0.315
REMARK SMILES Oc1cc(O)c2cc(O)c(-c3ccc(O)c(O)c3)[o+]c2c1
REMARK SMILES IDX 10 1 19 2 20 3 21 4 2 5 3 6 4 7 6 8 7 9 8 10 11 11 12 12
REMARK SMILES IDX 13 13 14 14 18 15 16 16 15 17 17 19 9 21 1 23 5 25
REMARK H PARENT 15 18 17 20 9 22 1 24 5 26
REMARK Flexibility Score: inf
ROOT
ATOM      1  C   UNL     1     -36.294  -8.706  21.959  1.00  0.00     0.402 A 
ATOM      2  O   UNL     1     -36.552  -8.214  20.750  1.00  0.00    -0.202 OA
ATOM      3  C   UNL     1     -37.781  -7.960  20.312  1.00  0.00     0.368 A 
ATOM      4  C   UNL     1     -37.950  -7.445  19.024  1.00  0.00     0.162 A 
ATOM      5  C   UNL     1     -39.232  -7.172  18.537  1.00  0.00     0.128 A 
ATOM      6  C   UNL     1     -40.348  -7.415  19.340  1.00  0.00     0.093 A 
ATOM      7  C   UNL     1     -40.205  -7.931  20.634  1.00  0.00     0.136 A 
ATOM      8  C   UNL     1     -38.906  -8.208  21.135  1.00  0.00     0.125 A 
ATOM      9  C   UNL     1     -38.666  -8.712  22.424  1.00  0.00     0.078 A 
ATOM     10  C   UNL     1     -37.356  -8.955  22.849  1.00  0.00     0.223 A 
ENDROOT
BRANCH   1  11
ATOM     11  C   UNL     1     -34.883  -8.955  22.328  1.00  0.00     0.087 A 
ATOM     12  C   UNL     1     -34.058  -7.923  22.810  1.00  0.00     0.022 A 
ATOM     13  C   UNL     1     -32.736  -8.188  23.174  1.00  0.00     0.051 A 
ATOM     14  C   UNL     1     -32.221  -9.487  23.077  1.00  0.00     0.157 A 
ATOM     15  C   UNL     1     -34.368 -10.260  22.252  1.00  0.00     0.068 A 
ATOM     16  C   UNL     1     -33.044 -10.528  22.616  1.00  0.00     0.158 A 
BRANCH  14  17
ATOM     17  O   UNL     1     -30.900  -9.747  23.439  1.00  0.00    -0.504 OA
ATOM     18  H   UNL     1     -30.632  -9.876  24.407  1.00  0.00     0.293 HD
ENDBRANCH  14  17
BRANCH  16  19
ATOM     19  O   UNL     1     -32.564 -11.834  22.513  1.00  0.00    -0.504 OA
ATOM     20  H   UNL     1     -32.425 -12.421  23.326  1.00  0.00     0.293 HD
ENDBRANCH  16  19
ENDBRANCH   1  11
BRANCH  10  21
ATOM     21  O   UNL     1     -37.115  -9.409  24.145  1.00  0.00    -0.500 OA
ATOM     22  H   UNL     1     -36.751  -8.796  24.865  1.00  0.00     0.294 HD
ENDBRANCH  10  21
BRANCH   5  23
ATOM     23  O   UNL     1     -39.409  -6.658  17.254  1.00  0.00    -0.507 OA
ATOM     24  H   UNL     1     -40.200  -6.069  17.023  1.00  0.00     0.293 HD
ENDBRANCH   5  23
BRANCH   7  25
ATOM     25  O   UNL     1     -41.371  -8.150  21.373  1.00  0.00    -0.507 OA
ATOM     26  H   UNL     1     -41.860  -7.437  21.894  1.00  0.00     0.293 HD
ENDBRANCH   7  25
TORSDOF 6
ENDMDL
MODEL 5
REMARK VINA RESULT:    -6.517      2.306      7.726
REMARK INTER + INTRA:          -8.165
REMARK INTER:                  -8.094
REMARK INTRA:                  -0.071
REMARK UNBOUND:                -0.315
REMARK SMILES Oc1cc(O)c2cc(O)c(-c3ccc(O)c(O)c3)[o+]c2c1
REMARK SMILES IDX 10 1 19 2 20 3 21 4 2 5 3 6 4 7 6 8 7 9 8 10 11 11 12 12
REMARK SMILES IDX 13 13 14 14 18 15 16 16 15 17 17 19 9 21 1 23 5 25
REMARK H PARENT 15 18 17 20 9 22 1 24 5 26
REMARK Flexibility Score: inf
ROOT
ATOM      1  C   UNL     1     -33.188  -9.438  22.179  1.00  0.00     0.402 A 
ATOM      2  O   UNL     1     -34.180 -10.323  22.230  1.00  0.00    -0.202 OA
ATOM      3  C   UNL     1     -35.365 -10.125  21.660  1.00  0.00     0.368 A 
ATOM      4  C   UNL     1     -36.345 -11.115  21.772  1.00  0.00     0.162 A 
ATOM      5  C   UNL     1     -37.601 -10.931  21.184  1.00  0.00     0.128 A 
ATOM      6  C   UNL     1     -37.877  -9.755  20.485  1.00  0.00     0.093 A 
ATOM      7  C   UNL     1     -36.911  -8.749  20.359  1.00  0.00     0.136 A 
ATOM      8  C   UNL     1     -35.633  -8.930  20.951  1.00  0.00     0.125 A 
ATOM      9  C   UNL     1     -34.601  -7.982  20.865  1.00  0.00     0.078 A 
ATOM     10  C   UNL     1     -33.366  -8.235  21.470  1.00  0.00     0.223 A 
ENDROOT
BRANCH   1  11
ATOM     11  C   UNL     1     -31.917  -9.769  22.862  1.00  0.00     0.087 A 
ATOM     12  C   UNL     1     -31.887 -10.120  24.223  1.00  0.00     0.022 A 
ATOM     13  C   UNL     1     -30.678 -10.452  24.840  1.00  0.00     0.051 A 
ATOM     14  C   UNL     1     -29.485 -10.453  24.106  1.00  0.00     0.157 A 
ATOM     15  C   UNL     1     -30.722  -9.793  22.125  1.00  0.00     0.068 A 
ATOM     16  C   UNL     1     -29.510 -10.124  22.740  1.00  0.00     0.158 A 
BRANCH  14  17
ATOM     17  O   UNL     1     -28.281 -10.783  24.724  1.00  0.00    -0.504 OA
ATOM     18  H   UNL     1     -27.877 -11.709  24.640  1.00  0.00     0.293 HD
ENDBRANCH  14  17
BRANCH  16  19
ATOM     19  O   UNL     1     -28.341 -10.122  21.978  1.00  0.00    -0.504 OA
ATOM     20  H   UNL     1     -27.604  -9.443  22.126  1.00  0.00     0.293 HD
ENDBRANCH  16  19
ENDBRANCH   1  11
BRANCH  10  21
ATOM     21  O   UNL     1     -32.324  -7.316  21.343  1.00  0.00    -0.500 OA
ATOM     22  H   UNL     1     -32.007  -6.758  22.127  1.00  0.00     0.294 HD
ENDBRANCH  10  21
BRANCH   5  23
ATOM     23  O   UNL     1     -38.584 -11.913  21.291  1.00  0.00    -0.507 OA
ATOM     24  H   UNL     1     -39.177 -11.982  22.108  1.00  0.00     0.293 HD
ENDBRANCH   5  23
BRANCH   7  25
ATOM     25  O   UNL     1     -37.266  -7.600  19.647  1.00  0.00    -0.507 OA
ATOM     26  H   UNL     1     -38.212  -7.353  19.395  1.00  0.00     0.293 HD
ENDBRANCH   7  25
TORSDOF 6
ENDMDL
MODEL 6
REMARK VINA RESULT:    -6.465      1.139      2.699
REMARK INTER + INTRA:          -8.102
REMARK INTER:                  -7.765
REMARK INTRA:                  -0.338
REMARK UNBOUND:                -0.315
REMARK SMILES Oc1cc(O)c2cc(O)c(-c3ccc(O)c(O)c3)[o+]c2c1
REMARK SMILES IDX 10 1 19 2 20 3 21 4 2 5 3 6 4 7 6 8 7 9 8 10 11 11 12 12
REMARK SMILES IDX 13 13 14 14 18 15 16 16 15 17 17 19 9 21 1 23 5 25
REMARK H PARENT 15 18 17 20 9 22 1 24 5 26
REMARK Flexibility Score: inf
ROOT
ATOM      1  C   UNL     1     -36.405  -8.143  21.978  1.00  0.00     0.402 A 
ATOM      2  O   UNL     1     -35.797  -9.325  22.043  1.00  0.00    -0.202 OA
ATOM      3  C   UNL     1     -34.502  -9.466  22.312  1.00  0.00     0.368 A 
ATOM      4  C   UNL     1     -33.954 -10.751  22.355  1.00  0.00     0.162 A 
ATOM      5  C   UNL     1     -32.595 -10.927  22.633  1.00  0.00     0.128 A 
ATOM      6  C   UNL     1     -31.782  -9.817  22.868  1.00  0.00     0.093 A 
ATOM      7  C   UNL     1     -32.308  -8.519  22.830  1.00  0.00     0.136 A 
ATOM      8  C   UNL     1     -33.688  -8.333  22.551  1.00  0.00     0.125 A 
ATOM      9  C   UNL     1     -34.304  -7.072  22.506  1.00  0.00     0.078 A 
ATOM     10  C   UNL     1     -35.671  -6.969  22.230  1.00  0.00     0.223 A 
ENDROOT
BRANCH   1  11
ATOM     11  C   UNL     1     -37.850  -8.116  21.661  1.00  0.00     0.087 A 
ATOM     12  C   UNL     1     -38.824  -8.278  22.662  1.00  0.00     0.022 A 
ATOM     13  C   UNL     1     -40.182  -8.224  22.341  1.00  0.00     0.051 A 
ATOM     14  C   UNL     1     -40.590  -7.995  21.020  1.00  0.00     0.157 A 
ATOM     15  C   UNL     1     -38.263  -7.865  20.342  1.00  0.00     0.068 A 
ATOM     16  C   UNL     1     -39.623  -7.811  20.017  1.00  0.00     0.158 A 
BRANCH  14  17
ATOM     17  O   UNL     1     -41.946  -7.944  20.703  1.00  0.00    -0.504 OA
ATOM     18  H   UNL     1     -42.514  -7.136  20.932  1.00  0.00     0.293 HD
ENDBRANCH  14  17
BRANCH  16  19
ATOM     19  O   UNL     1     -39.995  -7.574  18.694  1.00  0.00    -0.504 OA
ATOM     20  H   UNL     1     -40.366  -6.682  18.390  1.00  0.00     0.293 HD
ENDBRANCH  16  19
ENDBRANCH   1  11
BRANCH  10  21
ATOM     21  O   UNL     1     -36.293  -5.721  22.234  1.00  0.00    -0.500 OA
ATOM     22  H   UNL     1     -36.386  -5.169  21.389  1.00  0.00     0.294 HD
ENDBRANCH  10  21
BRANCH   5  23
ATOM     23  O   UNL     1     -32.041 -12.205  22.678  1.00  0.00    -0.507 OA
ATOM     24  H   UNL     1     -32.595 -13.030  22.480  1.00  0.00     0.293 HD
ENDBRANCH   5  23
BRANCH   7  25
ATOM     25  O   UNL     1     -31.429  -7.460  23.072  1.00  0.00    -0.507 OA
ATOM     26  H   UNL     1     -31.097  -7.190  23.986  1.00  0.00     0.293 HD
ENDBRANCH   7  25
TORSDOF 6
ENDMDL
MODEL 7
REMARK VINA RESULT:    -6.441      1.723      7.058
REMARK INTER + INTRA:          -8.074
REMARK INTER:                  -7.774
REMARK INTRA:                  -0.300
REMARK UNBOUND:                -0.315
REMARK SMILES Oc1cc(O)c2cc(O)c(-c3ccc(O)c(O)c3)[o+]c2c1
REMARK SMILES IDX 10 1 19 2 20 3 21 4 2 5 3 6 4 7 6 8 7 9 8 10 11 11 12 12
REMARK SMILES IDX 13 13 14 14 18 15 16 16 15 17 17 19 9 21 1 23 5 25
REMARK H PARENT 15 18 17 20 9 22 1 24 5 26
REMARK Flexibility Score: inf
ROOT
ATOM      1  C   UNL     1     -35.116  -8.783  22.291  1.00  0.00     0.402 A 
ATOM      2  O   UNL     1     -36.037  -8.552  23.223  1.00  0.00    -0.202 OA
ATOM      3  C   UNL     1     -37.336  -8.455  22.957  1.00  0.00     0.368 A 
ATOM      4  C   UNL     1     -38.227  -8.207  24.004  1.00  0.00     0.162 A 
ATOM      5  C   UNL     1     -39.598  -8.097  23.752  1.00  0.00     0.128 A 
ATOM      6  C   UNL     1     -40.079  -8.234  22.449  1.00  0.00     0.093 A 
ATOM      7  C   UNL     1     -39.206  -8.482  21.382  1.00  0.00     0.136 A 
ATOM      8  C   UNL     1     -37.814  -8.597  21.632  1.00  0.00     0.125 A 
ATOM      9  C   UNL     1     -36.868  -8.858  20.627  1.00  0.00     0.078 A 
ATOM     10  C   UNL     1     -35.511  -8.963  20.952  1.00  0.00     0.223 A 
ENDROOT
BRANCH   1  11
ATOM     11  C   UNL     1     -33.699  -8.861  22.711  1.00  0.00     0.087 A 
ATOM     12  C   UNL     1     -32.961  -7.704  23.019  1.00  0.00     0.022 A 
ATOM     13  C   UNL     1     -31.632  -7.805  23.436  1.00  0.00     0.051 A 
ATOM     14  C   UNL     1     -31.023  -9.060  23.566  1.00  0.00     0.157 A 
ATOM     15  C   UNL     1     -33.091 -10.118  22.863  1.00  0.00     0.068 A 
ATOM     16  C   UNL     1     -31.760 -10.222  23.281  1.00  0.00     0.158 A 
BRANCH  14  17
ATOM     17  O   UNL     1     -29.696  -9.157  23.981  1.00  0.00    -0.504 OA
ATOM     18  H   UNL     1     -29.390  -9.889  24.612  1.00  0.00     0.293 HD
ENDBRANCH  14  17
BRANCH  16  19
ATOM     19  O   UNL     1     -31.186 -11.487  23.406  1.00  0.00    -0.504 OA
ATOM     20  H   UNL     1     -30.183 -11.621  23.452  1.00  0.00     0.293 HD
ENDBRANCH  16  19
ENDBRANCH   1  11
BRANCH  10  21
ATOM     21  O   UNL     1     -34.577  -9.272  19.963  1.00  0.00    -0.500 OA
ATOM     22  H   UNL     1     -34.387 -10.229  19.690  1.00  0.00     0.294 HD
ENDBRANCH  10  21
BRANCH   5  23
ATOM     23  O   UNL     1     -40.493  -7.851  24.792  1.00  0.00    -0.507 OA
ATOM     24  H   UNL     1     -40.477  -6.981  25.309  1.00  0.00     0.293 HD
ENDBRANCH   5  23
BRANCH   7  25
ATOM     25  O   UNL     1     -39.766  -8.602  20.106  1.00  0.00    -0.507 OA
ATOM     26  H   UNL     1     -40.423  -7.948  19.707  1.00  0.00     0.293 HD
ENDBRANCH   7  25
TORSDOF 6
ENDMDL
MODEL 8
REMARK VINA RESULT:    -6.424      1.706      7.003
REMARK INTER + INTRA:          -8.053
REMARK INTER:                  -8.276
REMARK INTRA:                   0.224
REMARK UNBOUND:                -0.315
REMARK SMILES Oc1cc(O)c2cc(O)c(-c3ccc(O)c(O)c3)[o+]c2c1
REMARK SMILES IDX 10 1 19 2 20 3 21 4 2 5 3 6 4 7 6 8 7 9 8 10 11 11 12 12
REMARK SMILES IDX 13 13 14 14 18 15 16 16 15 17 17 19 9 21 1 23 5 25
REMARK H PARENT 15 18 17 20 9 22 1 24 5 26
REMARK Flexibility Score: inf
ROOT
ATOM      1  C   UNL     1     -34.517  -9.920  22.566  1.00  0.00     0.402 A 
ATOM      2  O   UNL     1     -35.273  -8.957  23.087  1.00  0.00    -0.202 OA
ATOM      3  C   UNL     1     -36.581  -8.858  22.871  1.00  0.00     0.368 A 
ATOM      4  C   UNL     1     -37.289  -7.808  23.462  1.00  0.00     0.162 A 
ATOM      5  C   UNL     1     -38.666  -7.679  23.248  1.00  0.00     0.128 A 
ATOM      6  C   UNL     1     -39.335  -8.601  22.442  1.00  0.00     0.093 A 
ATOM      7  C   UNL     1     -38.647  -9.662  21.839  1.00  0.00     0.136 A 
ATOM      8  C   UNL     1     -37.250  -9.800  22.053  1.00  0.00     0.125 A 
ATOM      9  C   UNL     1     -36.483 -10.839  21.501  1.00  0.00     0.078 A 
ATOM     10  C   UNL     1     -35.111 -10.912  21.763  1.00  0.00     0.223 A 
ENDROOT
BRANCH   1  11
ATOM     11  C   UNL     1     -33.069  -9.918  22.873  1.00  0.00     0.087 A 
ATOM     12  C   UNL     1     -32.334 -11.114  22.947  1.00  0.00     0.022 A 
ATOM     13  C   UNL     1     -30.964 -11.085  23.215  1.00  0.00     0.051 A 
ATOM     14  C   UNL     1     -30.303  -9.863  23.399  1.00  0.00     0.157 A 
ATOM     15  C   UNL     1     -32.400  -8.694  23.037  1.00  0.00     0.068 A 
ATOM     16  C   UNL     1     -31.027  -8.661  23.306  1.00  0.00     0.158 A 
BRANCH  14  17
ATOM     17  O   UNL     1     -28.936  -9.837  23.668  1.00  0.00    -0.504 OA
ATOM     18  H   UNL     1     -28.324  -9.154  23.237  1.00  0.00     0.293 HD
ENDBRANCH  14  17
BRANCH  16  19
ATOM     19  O   UNL     1     -30.399  -7.428  23.478  1.00  0.00    -0.504 OA
ATOM     20  H   UNL     1     -30.921  -6.581  23.666  1.00  0.00     0.293 HD
ENDBRANCH  16  19
ENDBRANCH   1  11
BRANCH  10  21
ATOM     21  O   UNL     1     -34.358 -11.970  21.255  1.00  0.00    -0.500 OA
ATOM     22  H   UNL     1     -33.591 -12.377  21.778  1.00  0.00     0.294 HD
ENDBRANCH  10  21
BRANCH   5  23
ATOM     23  O   UNL     1     -39.379  -6.635  23.834  1.00  0.00    -0.507 OA
ATOM     24  H   UNL     1     -39.554  -6.607  24.832  1.00  0.00     0.293 HD
ENDBRANCH   5  23
BRANCH   7  25
ATOM     25  O   UNL     1     -39.388 -10.540  21.042  1.00  0.00    -0.507 OA
ATOM     26  H   UNL     1     -39.273 -11.543  21.039  1.00  0.00     0.293 HD
ENDBRANCH   7  25
TORSDOF 6
ENDMDL
MODEL 9
REMARK VINA RESULT:    -6.324      2.270      4.417
REMARK INTER + INTRA:          -7.933
REMARK INTER:                  -8.325
REMARK INTRA:                   0.392
REMARK UNBOUND:                -0.315
REMARK SMILES Oc1cc(O)c2cc(O)c(-c3ccc(O)c(O)c3)[o+]c2c1
REMARK SMILES IDX 10 1 19 2 20 3 21 4 2 5 3 6 4 7 6 8 7 9 8 10 11 11 12 12
REMARK SMILES IDX 13 13 14 14 18 15 16 16 15 17 17 19 9 21 1 23 5 25
REMARK H PARENT 15 18 17 20 9 22 1 24 5 26
REMARK Flexibility Score: inf
ROOT
ATOM      1  C   UNL     1     -33.760  -9.412  22.494  1.00  0.00     0.402 A 
ATOM      2  O   UNL     1     -32.853 -10.336  22.799  1.00  0.00    -0.202 OA
ATOM      3  C   UNL     1     -31.598 -10.046  23.130  1.00  0.00     0.368 A 
ATOM      4  C   UNL     1     -30.718 -11.088  23.431  1.00  0.00     0.162 A 
ATOM      5  C   UNL     1     -29.392 -10.812  23.780  1.00  0.00     0.128 A 
ATOM      6  C   UNL     1     -28.945  -9.490  23.825  1.00  0.00     0.093 A 
ATOM      7  C   UNL     1     -29.809  -8.428  23.527  1.00  0.00     0.136 A 
ATOM      8  C   UNL     1     -31.157  -8.702  23.175  1.00  0.00     0.125 A 
ATOM      9  C   UNL     1     -32.095  -7.702  22.875  1.00  0.00     0.078 A 
ATOM     10  C   UNL     1     -33.408  -8.050  22.542  1.00  0.00     0.223 A 
ENDROOT
BRANCH   1  11
ATOM     11  C   UNL     1     -35.123  -9.861  22.132  1.00  0.00     0.087 A 
ATOM     12  C   UNL     1     -36.188  -8.950  22.015  1.00  0.00     0.022 A 
ATOM     13  C   UNL     1     -37.460  -9.394  21.649  1.00  0.00     0.051 A 
ATOM     14  C   UNL     1     -37.687 -10.751  21.381  1.00  0.00     0.157 A 
ATOM     15  C   UNL     1     -35.350 -11.216  21.842  1.00  0.00     0.068 A 
ATOM     16  C   UNL     1     -36.624 -11.665  21.476  1.00  0.00     0.158 A 
BRANCH  14  17
ATOM     17  O   UNL     1     -38.959 -11.191  21.018  1.00  0.00    -0.504 OA
ATOM     18  H   UNL     1     -39.469 -10.766  20.252  1.00  0.00     0.293 HD
ENDBRANCH  14  17
BRANCH  16  19
ATOM     19  O   UNL     1     -36.815 -13.021  21.209  1.00  0.00    -0.504 OA
ATOM     20  H   UNL     1     -36.559 -13.436  20.322  1.00  0.00     0.293 HD
ENDBRANCH  16  19
ENDBRANCH   1  11
BRANCH  10  21
ATOM     21  O   UNL     1     -34.353  -7.055  22.291  1.00  0.00    -0.500 OA
ATOM     22  H   UNL     1     -34.201  -6.093  22.572  1.00  0.00     0.294 HD
ENDBRANCH  10  21
BRANCH   5  23
ATOM     23  O   UNL     1     -28.508 -11.846  24.082  1.00  0.00    -0.507 OA
ATOM     24  H   UNL     1     -27.917 -12.263  23.373  1.00  0.00     0.293 HD
ENDBRANCH   5  23
BRANCH   7  25
ATOM     25  O   UNL     1     -29.284  -7.134  23.592  1.00  0.00    -0.507 OA
ATOM     26  H   UNL     1     -28.978  -6.683  24.442  1.00  0.00     0.293 HD
ENDBRANCH   7  25
TORSDOF 6
ENDMDL
