MODEL 1
REMARK VINA RESULT:    -5.007      0.000      0.000
REMARK INTER + INTRA:          -7.701
REMARK INTER:                  -6.910
REMARK INTRA:                  -0.791
REMARK UNBOUND:                -0.791
REMARK SMILES CC[C@H](CC[C@@H](C)[C@@H]1CC[C@@H]2[C@@H]3CC=C4C[C@@H](O)CC[C@]4(C)[C@@H]3CC[C@@]21C)C(C)C
REMARK SMILES IDX 5 1 4 2 3 3 2 4 1 5 28 6 29 7 30 8 6 9 7 10 8 11 9 12 26 13
REMARK SMILES IDX 10 14 11 15 25 16 27 17 12 18 24 19 23 20 13 21 21 22 14 23
REMARK SMILES IDX 15 24 20 25 22 26 16 27 19 28 17 29 18 30
REMARK H PARENT 18 31
REMARK Flexibility Score: inf
ROOT
ATOM      1  C   UNL     1       2.324  39.970  12.300  1.00  0.00     0.004 C 
ENDROOT
BRANCH   1   2
ATOM      2  C   UNL     1       1.442  39.612  13.517  1.00  0.00     0.004 C 
BRANCH   2   3
ATOM      3  C   UNL     1      -0.086  39.702  13.233  1.00  0.00    -0.009 C 
BRANCH   3   4
ATOM      4  C   UNL     1      -0.755  38.296  13.166  1.00  0.00     0.000 C 
ATOM      5  C   UNL     1       0.077  37.230  12.448  1.00  0.00     0.004 C 
ENDBRANCH   3   4
BRANCH   3   6
ATOM      6  C   UNL     1      -0.799  40.675  14.238  1.00  0.00    -0.014 C 
ATOM      7  C   UNL     1      -1.112  42.046  13.607  1.00  0.00     0.007 C 
ATOM      8  C   UNL     1       0.045  40.903  15.508  1.00  0.00     0.007 C 
ENDBRANCH   3   6
ENDBRANCH   2   3
ENDBRANCH   1   2
BRANCH   1   9
ATOM      9  C   UNL     1       2.915  41.404  12.355  1.00  0.00    -0.011 C 
ATOM     10  C   UNL     1       4.456  41.358  12.344  1.00  0.00     0.008 C 
BRANCH   9  11
ATOM     11  C   UNL     1       2.278  42.294  11.212  1.00  0.00    -0.002 C 
ATOM     12  C   UNL     1       2.673  42.009   9.755  1.00  0.00     0.005 C 
ATOM     13  C   UNL     1       2.456  43.830  11.381  1.00  0.00    -0.026 C 
ATOM     14  C   UNL     1       2.486  43.329   9.002  1.00  0.00     0.005 C 
ATOM     15  C   UNL     1       1.950  44.362  10.022  1.00  0.00    -0.001 C 
ATOM     16  C   UNL     1       3.969  44.214  11.610  1.00  0.00     0.007 C 
ATOM     17  C   UNL     1       1.551  44.318  12.545  1.00  0.00     0.012 C 
ATOM     18  C   UNL     1       2.251  45.886   9.734  1.00  0.00     0.000 C 
ATOM     19  C   UNL     1       4.493  45.421  10.795  1.00  0.00     0.005 C 
ATOM     20  C   UNL     1       3.391  46.481  10.610  1.00  0.00     0.003 C 
ATOM     21  C   UNL     1       2.478  46.157   8.237  1.00  0.00     0.031 C 
ATOM     22  C   UNL     1       3.817  47.971  10.206  1.00  0.00    -0.008 C 
ATOM     23  C   UNL     1       2.766  47.585   7.941  1.00  0.00    -0.027 C 
ATOM     24  C   UNL     1       3.544  48.335   8.737  1.00  0.00    -0.065 C 
ATOM     25  C   UNL     1       5.331  48.239  10.489  1.00  0.00     0.014 C 
ATOM     26  C   UNL     1       2.964  48.942  11.077  1.00  0.00     0.016 C 
ATOM     27  C   UNL     1       4.041  49.671   8.215  1.00  0.00     0.063 C 
ATOM     28  C   UNL     1       5.819  49.626  10.035  1.00  0.00     0.033 C 
ATOM     29  C   UNL     1       5.532  49.852   8.540  1.00  0.00     0.118 C 
BRANCH  29  30
ATOM     30  O   UNL     1       5.973  51.124   8.136  1.00  0.00    -0.393 OA
ATOM     31  H   UNL     1       6.946  51.054   7.937  1.00  0.00     0.210 HD
ENDBRANCH  29  30
ENDBRANCH   9  11
ENDBRANCH   1   9
TORSDOF 7
ENDMDL
MODEL 2
REMARK VINA RESULT:    -4.278      3.064      8.833
REMARK INTER + INTRA:          -6.695
REMARK INTER:                  -5.612
REMARK INTRA:                  -1.082
REMARK UNBOUND:                -0.791
REMARK SMILES CC[C@H](CC[C@@H](C)[C@@H]1CC[C@@H]2[C@@H]3CC=C4C[C@@H](O)CC[C@]4(C)[C@@H]3CC[C@@]21C)C(C)C
REMARK SMILES IDX 5 1 4 2 3 3 2 4 1 5 28 6 29 7 30 8 6 9 7 10 8 11 9 12 26 13
REMARK SMILES IDX 10 14 11 15 25 16 27 17 12 18 24 19 23 20 13 21 21 22 14 23
REMARK SMILES IDX 15 24 20 25 22 26 16 27 19 28 17 29 18 30
REMARK H PARENT 18 31
REMARK Flexibility Score: inf
ROOT
ATOM      1  C   UNL     1       1.063  50.012   7.779  1.00  0.00     0.004 C 
ENDROOT
BRANCH   1   2
ATOM      2  C   UNL     1       2.582  49.802   7.595  1.00  0.00     0.004 C 
BRANCH   2   3
ATOM      3  C   UNL     1       3.458  50.731   8.486  1.00  0.00    -0.009 C 
BRANCH   3   4
ATOM      4  C   UNL     1       2.737  51.125   9.810  1.00  0.00     0.000 C 
ATOM      5  C   UNL     1       3.124  50.272  11.021  1.00  0.00     0.004 C 
ENDBRANCH   3   4
BRANCH   3   6
ATOM      6  C   UNL     1       4.886  50.122   8.719  1.00  0.00    -0.014 C 
ATOM      7  C   UNL     1       6.013  51.089   8.307  1.00  0.00     0.007 C 
ATOM      8  C   UNL     1       5.074  48.798   7.951  1.00  0.00     0.007 C 
ENDBRANCH   3   6
ENDBRANCH   2   3
ENDBRANCH   1   2
BRANCH   1   9
ATOM      9  C   UNL     1       0.313  48.750   8.285  1.00  0.00    -0.011 C 
ATOM     10  C   UNL     1      -1.097  48.671   7.666  1.00  0.00     0.008 C 
BRANCH   9  11
ATOM     11  C   UNL     1       1.204  47.464   8.053  1.00  0.00    -0.002 C 
ATOM     12  C   UNL     1       0.683  46.372   7.105  1.00  0.00     0.005 C 
ATOM     13  C   UNL     1       1.632  46.704   9.341  1.00  0.00    -0.026 C 
ATOM     14  C   UNL     1       1.335  45.066   7.568  1.00  0.00     0.005 C 
ATOM     15  C   UNL     1       2.258  45.416   8.760  1.00  0.00    -0.001 C 
ATOM     16  C   UNL     1       0.389  46.365  10.251  1.00  0.00     0.007 C 
ATOM     17  C   UNL     1       2.692  47.549  10.098  1.00  0.00     0.012 C 
ATOM     18  C   UNL     1       2.553  44.271   9.807  1.00  0.00     0.000 C 
ATOM     19  C   UNL     1       0.340  44.927  10.825  1.00  0.00     0.005 C 
ATOM     20  C   UNL     1       1.756  44.409  11.136  1.00  0.00     0.003 C 
ATOM     21  C   UNL     1       2.398  42.871   9.189  1.00  0.00     0.031 C 
ATOM     22  C   UNL     1       1.918  43.165  12.130  1.00  0.00    -0.008 C 
ATOM     23  C   UNL     1       2.668  41.775  10.157  1.00  0.00    -0.027 C 
ATOM     24  C   UNL     1       2.262  41.837  11.435  1.00  0.00    -0.065 C 
ATOM     25  C   UNL     1       0.632  42.934  12.987  1.00  0.00     0.014 C 
ATOM     26  C   UNL     1       3.106  43.494  13.084  1.00  0.00     0.016 C 
ATOM     27  C   UNL     1       2.296  40.568  12.269  1.00  0.00     0.063 C 
ATOM     28  C   UNL     1       0.696  41.693  13.896  1.00  0.00     0.033 C 
ATOM     29  C   UNL     1       0.999  40.425  13.079  1.00  0.00     0.118 C 
BRANCH  29  30
ATOM     30  O   UNL     1       1.064  39.298  13.918  1.00  0.00    -0.393 OA
ATOM     31  H   UNL     1       2.025  39.130  14.119  1.00  0.00     0.210 HD
ENDBRANCH  29  30
ENDBRANCH   9  11
ENDBRANCH   1   9
TORSDOF 7
ENDMDL
MODEL 3
REMARK VINA RESULT:    -4.253      0.708      1.942
REMARK INTER + INTRA:          -6.660
REMARK INTER:                  -6.526
REMARK INTRA:                  -0.133
REMARK UNBOUND:                -0.791
REMARK SMILES CC[C@H](CC[C@@H](C)[C@@H]1CC[C@@H]2[C@@H]3CC=C4C[C@@H](O)CC[C@]4(C)[C@@H]3CC[C@@]21C)C(C)C
REMARK SMILES IDX 5 1 4 2 3 3 2 4 1 5 28 6 29 7 30 8 6 9 7 10 8 11 9 12 26 13
REMARK SMILES IDX 10 14 11 15 25 16 27 17 12 18 24 19 23 20 13 21 21 22 14 23
REMARK SMILES IDX 15 24 20 25 22 26 16 27 19 28 17 29 18 30
REMARK H PARENT 18 31
REMARK Flexibility Score: inf
ROOT
ATOM      1  C   UNL     1       2.688  39.921  11.697  1.00  0.00     0.004 C 
ENDROOT
BRANCH   1   2
ATOM      2  C   UNL     1       2.590  38.962  12.904  1.00  0.00     0.004 C 
BRANCH   2   3
ATOM      3  C   UNL     1       1.159  38.399  13.144  1.00  0.00    -0.009 C 
BRANCH   3   4
ATOM      4  C   UNL     1       0.109  39.531  13.352  1.00  0.00     0.000 C 
ATOM      5  C   UNL     1       0.461  40.529  14.458  1.00  0.00     0.004 C 
ENDBRANCH   3   4
BRANCH   3   6
ATOM      6  C   UNL     1       0.749  37.377  12.024  1.00  0.00    -0.014 C 
ATOM      7  C   UNL     1      -0.483  36.538  12.415  1.00  0.00     0.007 C 
ATOM      8  C   UNL     1       1.904  36.416  11.679  1.00  0.00     0.007 C 
ENDBRANCH   3   6
ENDBRANCH   2   3
ENDBRANCH   1   2
BRANCH   1   9
ATOM      9  C   UNL     1       2.954  41.399  12.091  1.00  0.00    -0.011 C 
ATOM     10  C   UNL     1       4.462  41.643  12.300  1.00  0.00     0.008 C 
BRANCH   9  11
ATOM     11  C   UNL     1       2.272  42.368  11.043  1.00  0.00    -0.002 C 
ATOM     12  C   UNL     1       2.525  42.125   9.547  1.00  0.00     0.005 C 
ATOM     13  C   UNL     1       2.546  43.884  11.255  1.00  0.00    -0.026 C 
ATOM     14  C   UNL     1       2.347  43.485   8.865  1.00  0.00     0.005 C 
ATOM     15  C   UNL     1       1.956  44.499   9.966  1.00  0.00    -0.001 C 
ATOM     16  C   UNL     1       4.091  44.181  11.366  1.00  0.00     0.007 C 
ATOM     17  C   UNL     1       1.770  44.367  12.511  1.00  0.00     0.012 C 
ATOM     18  C   UNL     1       2.313  46.017   9.712  1.00  0.00     0.000 C 
ATOM     19  C   UNL     1       4.609  45.394  10.555  1.00  0.00     0.005 C 
ATOM     20  C   UNL     1       3.554  46.515  10.507  1.00  0.00     0.003 C 
ATOM     21  C   UNL     1       2.427  46.339   8.211  1.00  0.00     0.031 C 
ATOM     22  C   UNL     1       4.024  47.997  10.125  1.00  0.00    -0.008 C 
ATOM     23  C   UNL     1       2.766  47.762   7.947  1.00  0.00    -0.027 C 
ATOM     24  C   UNL     1       3.648  48.437   8.700  1.00  0.00    -0.065 C 
ATOM     25  C   UNL     1       5.569  48.176  10.285  1.00  0.00     0.014 C 
ATOM     26  C   UNL     1       3.302  48.972  11.103  1.00  0.00     0.016 C 
ATOM     27  C   UNL     1       4.170  49.768   8.188  1.00  0.00     0.063 C 
ATOM     28  C   UNL     1       6.091  49.555   9.843  1.00  0.00     0.033 C 
ATOM     29  C   UNL     1       5.691  49.859   8.389  1.00  0.00     0.118 C 
BRANCH  29  30
ATOM     30  O   UNL     1       6.164  51.123   7.997  1.00  0.00    -0.393 OA
ATOM     31  H   UNL     1       5.666  51.388   7.177  1.00  0.00     0.210 HD
ENDBRANCH  29  30
ENDBRANCH   9  11
ENDBRANCH   1   9
TORSDOF 7
ENDMDL
MODEL 4
REMARK VINA RESULT:    -4.111      3.166      8.622
REMARK INTER + INTRA:          -6.464
REMARK INTER:                  -5.838
REMARK INTRA:                  -0.626
REMARK UNBOUND:                -0.791
REMARK SMILES CC[C@H](CC[C@@H](C)[C@@H]1CC[C@@H]2[C@@H]3CC=C4C[C@@H](O)CC[C@]4(C)[C@@H]3CC[C@@]21C)C(C)C
REMARK SMILES IDX 5 1 4 2 3 3 2 4 1 5 28 6 29 7 30 8 6 9 7 10 8 11 9 12 26 13
REMARK SMILES IDX 10 14 11 15 25 16 27 17 12 18 24 19 23 20 13 21 21 22 14 23
REMARK SMILES IDX 15 24 20 25 22 26 16 27 19 28 17 29 18 30
REMARK H PARENT 18 31
REMARK Flexibility Score: inf
ROOT
ATOM      1  C   UNL     1       1.908  50.618   7.396  1.00  0.00     0.004 C 
ENDROOT
BRANCH   1   2
ATOM      2  C   UNL     1       2.746  51.125   8.589  1.00  0.00     0.004 C 
BRANCH   2   3
ATOM      3  C   UNL     1       4.078  50.344   8.798  1.00  0.00    -0.009 C 
BRANCH   3   4
ATOM      4  C   UNL     1       5.309  51.124   8.246  1.00  0.00     0.000 C 
ATOM      5  C   UNL     1       6.640  50.762   8.910  1.00  0.00     0.004 C 
ENDBRANCH   3   4
BRANCH   3   6
ATOM      6  C   UNL     1       4.252  49.898  10.294  1.00  0.00    -0.014 C 
ATOM      7  C   UNL     1       4.590  48.400  10.426  1.00  0.00     0.007 C 
ATOM      8  C   UNL     1       2.987  50.189  11.127  1.00  0.00     0.007 C 
ENDBRANCH   3   6
ENDBRANCH   2   3
ENDBRANCH   1   2
BRANCH   1   9
ATOM      9  C   UNL     1       0.533  50.024   7.803  1.00  0.00    -0.011 C 
ATOM     10  C   UNL     1      -0.617  50.923   7.307  1.00  0.00     0.008 C 
BRANCH   9  11
ATOM     11  C   UNL     1       0.436  48.517   7.333  1.00  0.00    -0.002 C 
ATOM     12  C   UNL     1      -0.897  47.776   7.517  1.00  0.00     0.005 C 
ATOM     13  C   UNL     1       1.510  47.560   7.925  1.00  0.00    -0.026 C 
ATOM     14  C   UNL     1      -0.542  46.290   7.625  1.00  0.00     0.005 C 
ATOM     15  C   UNL     1       0.993  46.177   7.467  1.00  0.00    -0.001 C 
ATOM     16  C   UNL     1       1.560  47.651   9.499  1.00  0.00     0.007 C 
ATOM     17  C   UNL     1       2.886  47.884   7.281  1.00  0.00     0.012 C 
ATOM     18  C   UNL     1       1.700  44.932   8.136  1.00  0.00     0.000 C 
ATOM     19  C   UNL     1       1.626  46.301  10.255  1.00  0.00     0.005 C 
ATOM     20  C   UNL     1       2.444  45.265   9.462  1.00  0.00     0.003 C 
ATOM     21  C   UNL     1       0.737  43.744   8.303  1.00  0.00     0.031 C 
ATOM     22  C   UNL     1       3.014  43.983  10.233  1.00  0.00    -0.008 C 
ATOM     23  C   UNL     1       1.378  42.560   8.934  1.00  0.00    -0.027 C 
ATOM     24  C   UNL     1       2.253  42.678   9.945  1.00  0.00    -0.065 C 
ATOM     25  C   UNL     1       3.028  44.194  11.781  1.00  0.00     0.014 C 
ATOM     26  C   UNL     1       4.477  43.768   9.742  1.00  0.00     0.016 C 
ATOM     27  C   UNL     1       2.620  41.433  10.734  1.00  0.00     0.063 C 
ATOM     28  C   UNL     1       3.479  42.958  12.580  1.00  0.00     0.033 C 
ATOM     29  C   UNL     1       2.614  41.732  12.241  1.00  0.00     0.118 C 
BRANCH  29  30
ATOM     30  O   UNL     1       3.039  40.607  12.968  1.00  0.00    -0.393 OA
ATOM     31  H   UNL     1       3.554  40.936  13.754  1.00  0.00     0.210 HD
ENDBRANCH  29  30
ENDBRANCH   9  11
ENDBRANCH   1   9
TORSDOF 7
ENDMDL
MODEL 5
REMARK VINA RESULT:    -4.034      1.296      2.536
REMARK INTER + INTRA:          -6.358
REMARK INTER:                  -6.320
REMARK INTRA:                  -0.038
REMARK UNBOUND:                -0.791
REMARK SMILES CC[C@H](CC[C@@H](C)[C@@H]1CC[C@@H]2[C@@H]3CC=C4C[C@@H](O)CC[C@]4(C)[C@@H]3CC[C@@]21C)C(C)C
REMARK SMILES IDX 5 1 4 2 3 3 2 4 1 5 28 6 29 7 30 8 6 9 7 10 8 11 9 12 26 13
REMARK SMILES IDX 10 14 11 15 25 16 27 17 12 18 24 19 23 20 13 21 21 22 14 23
REMARK SMILES IDX 15 24 20 25 22 26 16 27 19 28 17 29 18 30
REMARK H PARENT 18 31
REMARK Flexibility Score: inf
ROOT
ATOM      1  C   UNL     1       2.629  41.979  11.845  1.00  0.00     0.004 C 
ENDROOT
BRANCH   1   2
ATOM      2  C   UNL     1       2.855  40.930  12.956  1.00  0.00     0.004 C 
BRANCH   2   3
ATOM      3  C   UNL     1       3.153  39.499  12.418  1.00  0.00    -0.009 C 
BRANCH   3   4
ATOM      4  C   UNL     1       4.636  39.081  12.652  1.00  0.00     0.000 C 
ATOM      5  C   UNL     1       5.330  39.815  13.802  1.00  0.00     0.004 C 
ENDBRANCH   3   4
BRANCH   3   6
ATOM      6  C   UNL     1       2.122  38.452  12.974  1.00  0.00    -0.014 C 
ATOM      7  C   UNL     1       1.850  37.309  11.977  1.00  0.00     0.007 C 
ATOM      8  C   UNL     1       0.778  39.113  13.338  1.00  0.00     0.007 C 
ENDBRANCH   3   6
ENDBRANCH   2   3
ENDBRANCH   1   2
BRANCH   1   9
ATOM      9  C   UNL     1       1.135  42.335  11.615  1.00  0.00    -0.011 C 
ATOM     10  C   UNL     1       0.497  42.869  12.914  1.00  0.00     0.008 C 
BRANCH   9  11
ATOM     11  C   UNL     1       0.998  43.303  10.371  1.00  0.00    -0.002 C 
ATOM     12  C   UNL     1       1.679  42.905   9.053  1.00  0.00     0.005 C 
ATOM     13  C   UNL     1       1.433  44.776  10.617  1.00  0.00    -0.026 C 
ATOM     14  C   UNL     1       1.956  44.215   8.310  1.00  0.00     0.005 C 
ATOM     15  C   UNL     1       1.401  45.362   9.188  1.00  0.00    -0.001 C 
ATOM     16  C   UNL     1       2.885  44.855  11.227  1.00  0.00     0.007 C 
ATOM     17  C   UNL     1       0.383  45.468  11.529  1.00  0.00     0.012 C 
ATOM     18  C   UNL     1       2.065  46.786   9.022  1.00  0.00     0.000 C 
ATOM     19  C   UNL     1       3.829  45.910  10.599  1.00  0.00     0.005 C 
ATOM     20  C   UNL     1       3.046  47.164  10.170  1.00  0.00     0.003 C 
ATOM     21  C   UNL     1       2.710  46.964   7.636  1.00  0.00     0.031 C 
ATOM     22  C   UNL     1       3.850  48.526   9.922  1.00  0.00    -0.008 C 
ATOM     23  C   UNL     1       3.344  48.296   7.457  1.00  0.00    -0.027 C 
ATOM     24  C   UNL     1       4.032  48.896   8.441  1.00  0.00    -0.065 C 
ATOM     25  C   UNL     1       5.266  48.492  10.582  1.00  0.00     0.014 C 
ATOM     26  C   UNL     1       3.019  49.672  10.574  1.00  0.00     0.016 C 
ATOM     27  C   UNL     1       4.903  50.091   8.092  1.00  0.00     0.063 C 
ATOM     28  C   UNL     1       6.122  49.740  10.298  1.00  0.00     0.033 C 
ATOM     29  C   UNL     1       6.270  49.977   8.785  1.00  0.00     0.118 C 
BRANCH  29  30
ATOM     30  O   UNL     1       7.044  51.123   8.535  1.00  0.00    -0.393 OA
ATOM     31  H   UNL     1       6.824  51.793   9.239  1.00  0.00     0.210 HD
ENDBRANCH  29  30
ENDBRANCH   9  11
ENDBRANCH   1   9
TORSDOF 7
ENDMDL
MODEL 6
REMARK VINA RESULT:    -3.516      3.290      8.650
REMARK INTER + INTRA:          -5.643
REMARK INTER:                  -4.623
REMARK INTRA:                  -1.020
REMARK UNBOUND:                -0.791
REMARK SMILES CC[C@H](CC[C@@H](C)[C@@H]1CC[C@@H]2[C@@H]3CC=C4C[C@@H](O)CC[C@]4(C)[C@@H]3CC[C@@]21C)C(C)C
REMARK SMILES IDX 5 1 4 2 3 3 2 4 1 5 28 6 29 7 30 8 6 9 7 10 8 11 9 12 26 13
REMARK SMILES IDX 10 14 11 15 25 16 27 17 12 18 24 19 23 20 13 21 21 22 14 23
REMARK SMILES IDX 15 24 20 25 22 26 16 27 19 28 17 29 18 30
REMARK H PARENT 18 31
REMARK Flexibility Score: inf
ROOT
ATOM      1  C   UNL     1      -0.743  47.690   7.369  1.00  0.00     0.004 C 
ENDROOT
BRANCH   1   2
ATOM      2  C   UNL     1      -0.158  48.809   8.258  1.00  0.00     0.004 C 
BRANCH   2   3
ATOM      3  C   UNL     1       0.886  49.707   7.531  1.00  0.00    -0.009 C 
BRANCH   3   4
ATOM      4  C   UNL     1       0.322  51.124   7.211  1.00  0.00     0.000 C 
ATOM      5  C   UNL     1      -1.078  51.125   6.591  1.00  0.00     0.004 C 
ENDBRANCH   3   4
BRANCH   3   6
ATOM      6  C   UNL     1       2.248  49.749   8.313  1.00  0.00    -0.014 C 
ATOM      7  C   UNL     1       2.393  51.018   9.175  1.00  0.00     0.007 C 
ATOM      8  C   UNL     1       3.456  49.666   7.358  1.00  0.00     0.007 C 
ENDBRANCH   3   6
ENDBRANCH   2   3
ENDBRANCH   1   2
BRANCH   1   9
ATOM      9  C   UNL     1      -0.283  46.264   7.774  1.00  0.00    -0.011 C 
ATOM     10  C   UNL     1       0.053  45.425   6.524  1.00  0.00     0.008 C 
BRANCH   9  11
ATOM     11  C   UNL     1       0.887  46.356   8.836  1.00  0.00    -0.002 C 
ATOM     12  C   UNL     1       2.335  46.413   8.327  1.00  0.00     0.005 C 
ATOM     13  C   UNL     1       0.890  45.247   9.927  1.00  0.00    -0.026 C 
ATOM     14  C   UNL     1       3.200  45.839   9.454  1.00  0.00     0.005 C 
ATOM     15  C   UNL     1       2.249  45.486  10.622  1.00  0.00    -0.001 C 
ATOM     16  C   UNL     1       0.829  43.807   9.286  1.00  0.00     0.007 C 
ATOM     17  C   UNL     1      -0.291  45.497  10.905  1.00  0.00     0.012 C 
ATOM     18  C   UNL     1       2.713  44.348  11.615  1.00  0.00     0.000 C 
ATOM     19  C   UNL     1       1.804  42.759   9.879  1.00  0.00     0.005 C 
ATOM     20  C   UNL     1       2.002  42.983  11.389  1.00  0.00     0.003 C 
ATOM     21  C   UNL     1       4.245  44.198  11.643  1.00  0.00     0.031 C 
ATOM     22  C   UNL     1       2.589  41.785  12.274  1.00  0.00    -0.008 C 
ATOM     23  C   UNL     1       4.707  43.130  12.568  1.00  0.00    -0.027 C 
ATOM     24  C   UNL     1       4.059  41.961  12.688  1.00  0.00    -0.065 C 
ATOM     25  C   UNL     1       2.463  40.408  11.544  1.00  0.00     0.014 C 
ATOM     26  C   UNL     1       1.753  41.735  13.588  1.00  0.00     0.016 C 
ATOM     27  C   UNL     1       4.754  40.817  13.406  1.00  0.00     0.063 C 
ATOM     28  C   UNL     1       3.095  39.231  12.308  1.00  0.00     0.033 C 
ATOM     29  C   UNL     1       4.576  39.507  12.624  1.00  0.00     0.118 C 
BRANCH  29  30
ATOM     30  O   UNL     1       5.142  38.431  13.329  1.00  0.00    -0.393 OA
ATOM     31  H   UNL     1       4.675  38.370  14.207  1.00  0.00     0.210 HD
ENDBRANCH  29  30
ENDBRANCH   9  11
ENDBRANCH   1   9
TORSDOF 7
ENDMDL
MODEL 7
REMARK VINA RESULT:    -3.352      2.069      3.287
REMARK INTER + INTRA:          -5.417
REMARK INTER:                  -5.909
REMARK INTRA:                   0.492
REMARK UNBOUND:                -0.791
REMARK SMILES CC[C@H](CC[C@@H](C)[C@@H]1CC[C@@H]2[C@@H]3CC=C4C[C@@H](O)CC[C@]4(C)[C@@H]3CC[C@@]21C)C(C)C
REMARK SMILES IDX 5 1 4 2 3 3 2 4 1 5 28 6 29 7 30 8 6 9 7 10 8 11 9 12 26 13
REMARK SMILES IDX 10 14 11 15 25 16 27 17 12 18 24 19 23 20 13 21 21 22 14 23
REMARK SMILES IDX 15 24 20 25 22 26 16 27 19 28 17 29 18 30
REMARK H PARENT 18 31
REMARK Flexibility Score: inf
ROOT
ATOM      1  C   UNL     1       2.109  41.568  11.819  1.00  0.00     0.004 C 
ENDROOT
BRANCH   1   2
ATOM      2  C   UNL     1       0.871  41.904  12.678  1.00  0.00     0.004 C 
BRANCH   2   3
ATOM      3  C   UNL     1       0.138  40.651  13.241  1.00  0.00    -0.009 C 
BRANCH   3   4
ATOM      4  C   UNL     1       1.129  39.508  13.616  1.00  0.00     0.000 C 
ATOM      5  C   UNL     1       0.789  38.146  13.006  1.00  0.00     0.004 C 
ENDBRANCH   3   4
BRANCH   3   6
ATOM      6  C   UNL     1      -0.832  41.034  14.416  1.00  0.00    -0.014 C 
ATOM      7  C   UNL     1      -1.106  42.549  14.482  1.00  0.00     0.007 C 
ATOM      8  C   UNL     1      -0.284  40.575  15.782  1.00  0.00     0.007 C 
ENDBRANCH   3   6
ENDBRANCH   2   3
ENDBRANCH   1   2
BRANCH   1   9
ATOM      9  C   UNL     1       3.442  42.111  12.401  1.00  0.00    -0.011 C 
ATOM     10  C   UNL     1       4.379  40.950  12.791  1.00  0.00     0.008 C 
BRANCH   9  11
ATOM     11  C   UNL     1       4.079  43.160  11.402  1.00  0.00    -0.002 C 
ATOM     12  C   UNL     1       4.829  44.367  11.986  1.00  0.00     0.005 C 
ATOM     13  C   UNL     1       3.103  43.765  10.353  1.00  0.00    -0.026 C 
ATOM     14  C   UNL     1       4.736  45.472  10.930  1.00  0.00     0.005 C 
ATOM     15  C   UNL     1       3.962  44.885   9.725  1.00  0.00    -0.001 C 
ATOM     16  C   UNL     1       1.814  44.361  11.041  1.00  0.00     0.007 C 
ATOM     17  C   UNL     1       2.749  42.676   9.304  1.00  0.00     0.012 C 
ATOM     18  C   UNL     1       3.183  45.902   8.800  1.00  0.00     0.000 C 
ATOM     19  C   UNL     1       1.362  45.755  10.541  1.00  0.00     0.005 C 
ATOM     20  C   UNL     1       1.645  45.919   9.036  1.00  0.00     0.003 C 
ATOM     21  C   UNL     1       3.787  47.316   8.861  1.00  0.00     0.031 C 
ATOM     22  C   UNL     1       0.872  47.065   8.229  1.00  0.00    -0.008 C 
ATOM     23  C   UNL     1       3.069  48.292   8.001  1.00  0.00    -0.027 C 
ATOM     24  C   UNL     1       1.732  48.294   7.888  1.00  0.00    -0.065 C 
ATOM     25  C   UNL     1      -0.392  47.567   8.999  1.00  0.00     0.014 C 
ATOM     26  C   UNL     1       0.419  46.443   6.873  1.00  0.00     0.016 C 
ATOM     27  C   UNL     1       1.059  49.498   7.251  1.00  0.00     0.063 C 
ATOM     28  C   UNL     1      -1.124  48.735   8.314  1.00  0.00     0.033 C 
ATOM     29  C   UNL     1      -0.171  49.919   8.070  1.00  0.00     0.118 C 
BRANCH  29  30
ATOM     30  O   UNL     1      -0.846  50.976   7.435  1.00  0.00    -0.393 OA
ATOM     31  H   UNL     1      -0.765  50.836   6.453  1.00  0.00     0.210 HD
ENDBRANCH  29  30
ENDBRANCH   9  11
ENDBRANCH   1   9
TORSDOF 7
ENDMDL
MODEL 8
REMARK VINA RESULT:    -3.003      3.077      8.583
REMARK INTER + INTRA:          -4.935
REMARK INTER:                  -5.191
REMARK INTRA:                   0.257
REMARK UNBOUND:                -0.791
REMARK SMILES CC[C@H](CC[C@@H](C)[C@@H]1CC[C@@H]2[C@@H]3CC=C4C[C@@H](O)CC[C@]4(C)[C@@H]3CC[C@@]21C)C(C)C
REMARK SMILES IDX 5 1 4 2 3 3 2 4 1 5 28 6 29 7 30 8 6 9 7 10 8 11 9 12 26 13
REMARK SMILES IDX 10 14 11 15 25 16 27 17 12 18 24 19 23 20 13 21 21 22 14 23
REMARK SMILES IDX 15 24 20 25 22 26 16 27 19 28 17 29 18 30
REMARK H PARENT 18 31
REMARK Flexibility Score: inf
ROOT
ATOM      1  C   UNL     1       1.261  49.369   7.456  1.00  0.00     0.004 C 
ENDROOT
BRANCH   1   2
ATOM      2  C   UNL     1       2.070  50.677   7.309  1.00  0.00     0.004 C 
BRANCH   2   3
ATOM      3  C   UNL     1       3.146  50.877   8.417  1.00  0.00    -0.009 C 
BRANCH   3   4
ATOM      4  C   UNL     1       2.511  51.070   9.826  1.00  0.00     0.000 C 
ATOM      5  C   UNL     1       2.892  49.995  10.848  1.00  0.00     0.004 C 
ENDBRANCH   3   4
BRANCH   3   6
ATOM      6  C   UNL     1       4.227  49.738   8.378  1.00  0.00    -0.014 C 
ATOM      7  C   UNL     1       5.664  50.287   8.461  1.00  0.00     0.007 C 
ATOM      8  C   UNL     1       4.104  48.877   7.105  1.00  0.00     0.007 C 
ENDBRANCH   3   6
ENDBRANCH   2   3
ENDBRANCH   1   2
BRANCH   1   9
ATOM      9  C   UNL     1      -0.225  49.593   7.847  1.00  0.00    -0.011 C 
ATOM     10  C   UNL     1      -1.052  50.022   6.618  1.00  0.00     0.008 C 
BRANCH   9  11
ATOM     11  C   UNL     1      -0.783  48.317   8.599  1.00  0.00    -0.002 C 
ATOM     12  C   UNL     1      -1.125  48.438  10.092  1.00  0.00     0.005 C 
ATOM     13  C   UNL     1       0.097  47.039   8.492  1.00  0.00    -0.026 C 
ATOM     14  C   UNL     1      -0.981  47.027  10.672  1.00  0.00     0.005 C 
ATOM     15  C   UNL     1      -0.590  46.093   9.502  1.00  0.00    -0.001 C 
ATOM     16  C   UNL     1       1.589  47.328   8.914  1.00  0.00     0.007 C 
ATOM     17  C   UNL     1       0.001  46.478   7.046  1.00  0.00     0.012 C 
ATOM     18  C   UNL     1       0.215  44.782   9.862  1.00  0.00     0.000 C 
ATOM     19  C   UNL     1       2.243  46.283   9.852  1.00  0.00     0.005 C 
ATOM     20  C   UNL     1       1.735  44.864   9.537  1.00  0.00     0.003 C 
ATOM     21  C   UNL     1      -0.037  44.330  11.311  1.00  0.00     0.031 C 
ATOM     22  C   UNL     1       2.584  43.610  10.055  1.00  0.00    -0.008 C 
ATOM     23  C   UNL     1       0.713  43.099  11.674  1.00  0.00    -0.027 C 
ATOM     24  C   UNL     1       1.974  42.885  11.265  1.00  0.00    -0.065 C 
ATOM     25  C   UNL     1       4.046  44.015  10.430  1.00  0.00     0.014 C 
ATOM     26  C   UNL     1       2.632  42.578   8.888  1.00  0.00     0.016 C 
ATOM     27  C   UNL     1       2.771  41.772  11.924  1.00  0.00     0.063 C 
ATOM     28  C   UNL     1       4.883  42.867  11.023  1.00  0.00     0.033 C 
ATOM     29  C   UNL     1       4.192  42.255  12.254  1.00  0.00     0.118 C 
BRANCH  29  30
ATOM     30  O   UNL     1       4.959  41.202  12.782  1.00  0.00    -0.393 OA
ATOM     31  H   UNL     1       4.660  41.056  13.721  1.00  0.00     0.210 HD
ENDBRANCH  29  30
ENDBRANCH   9  11
ENDBRANCH   1   9
TORSDOF 7
ENDMDL
MODEL 9
REMARK VINA RESULT:    -2.994      2.025      3.666
REMARK INTER + INTRA:          -4.923
REMARK INTER:                  -5.569
REMARK INTRA:                   0.647
REMARK UNBOUND:                -0.791
REMARK SMILES CC[C@H](CC[C@@H](C)[C@@H]1CC[C@@H]2[C@@H]3CC=C4C[C@@H](O)CC[C@]4(C)[C@@H]3CC[C@@]21C)C(C)C
REMARK SMILES IDX 5 1 4 2 3 3 2 4 1 5 28 6 29 7 30 8 6 9 7 10 8 11 9 12 26 13
REMARK SMILES IDX 10 14 11 15 25 16 27 17 12 18 24 19 23 20 13 21 21 22 14 23
REMARK SMILES IDX 15 24 20 25 22 26 16 27 19 28 17 29 18 30
REMARK H PARENT 18 31
REMARK Flexibility Score: inf
ROOT
ATOM      1  C   UNL     1       3.037  40.265  12.757  1.00  0.00     0.004 C 
ENDROOT
BRANCH   1   2
ATOM      2  C   UNL     1       2.409  38.930  12.303  1.00  0.00     0.004 C 
BRANCH   2   3
ATOM      3  C   UNL     1       1.203  38.474  13.176  1.00  0.00    -0.009 C 
BRANCH   3   4
ATOM      4  C   UNL     1       0.044  39.516  13.168  1.00  0.00     0.000 C 
ATOM      5  C   UNL     1      -0.370  40.016  14.554  1.00  0.00     0.004 C 
ENDBRANCH   3   4
BRANCH   3   6
ATOM      6  C   UNL     1       0.732  37.026  12.791  1.00  0.00    -0.014 C 
ATOM      7  C   UNL     1       1.537  36.438  11.616  1.00  0.00     0.007 C 
ATOM      8  C   UNL     1      -0.765  36.991  12.424  1.00  0.00     0.007 C 
ENDBRANCH   3   6
ENDBRANCH   2   3
ENDBRANCH   1   2
BRANCH   1   9
ATOM      9  C   UNL     1       2.195  41.514  12.380  1.00  0.00    -0.011 C 
ATOM     10  C   UNL     1       1.505  42.102  13.627  1.00  0.00     0.008 C 
BRANCH   9  11
ATOM     11  C   UNL     1       3.089  42.545  11.578  1.00  0.00    -0.002 C 
ATOM     12  C   UNL     1       3.849  43.623  12.365  1.00  0.00     0.005 C 
ATOM     13  C   UNL     1       2.363  43.318  10.440  1.00  0.00    -0.026 C 
ATOM     14  C   UNL     1       4.041  44.794  11.397  1.00  0.00     0.005 C 
ATOM     15  C   UNL     1       3.421  44.372  10.044  1.00  0.00    -0.001 C 
ATOM     16  C   UNL     1       1.045  44.009  10.962  1.00  0.00     0.007 C 
ATOM     17  C   UNL     1       2.080  42.340   9.266  1.00  0.00     0.012 C 
ATOM     18  C   UNL     1       2.909  45.523   9.091  1.00  0.00     0.000 C 
ATOM     19  C   UNL     1       0.821  45.473  10.508  1.00  0.00     0.005 C 
ATOM     20  C   UNL     1       1.362  45.697   9.084  1.00  0.00     0.003 C 
ATOM     21  C   UNL     1       3.633  46.855   9.357  1.00  0.00     0.031 C 
ATOM     22  C   UNL     1       0.850  46.969   8.258  1.00  0.00    -0.008 C 
ATOM     23  C   UNL     1       3.166  47.956   8.474  1.00  0.00    -0.027 C 
ATOM     24  C   UNL     1       1.872  48.113   8.154  1.00  0.00    -0.065 C 
ATOM     25  C   UNL     1      -0.466  47.560   8.858  1.00  0.00     0.014 C 
ATOM     26  C   UNL     1       0.566  46.485   6.804  1.00  0.00     0.016 C 
ATOM     27  C   UNL     1       1.436  49.421   7.515  1.00  0.00     0.063 C 
ATOM     28  C   UNL     1      -0.956  48.841   8.160  1.00  0.00     0.033 C 
ATOM     29  C   UNL     1       0.137  49.925   8.162  1.00  0.00     0.118 C 
BRANCH  29  30
ATOM     30  O   UNL     1      -0.316  51.087   7.514  1.00  0.00    -0.393 OA
ATOM     31  H   UNL     1       0.313  51.277   6.766  1.00  0.00     0.210 HD
ENDBRANCH  29  30
ENDBRANCH   9  11
ENDBRANCH   1   9
TORSDOF 7
ENDMDL
