MODEL 1
REMARK VINA RESULT:    -8.146      0.000      0.000
REMARK INTER + INTRA:         -12.295
REMARK INTER:                 -11.241
REMARK INTRA:                  -1.054
REMARK UNBOUND:                -1.054
REMARK SMILES CC[C@@H](CC[C@H](C)[C@H]1CC[C@H]2C3=CC[C@@H]4C[C@H](O)CC[C@]4(C)[C@H]3CC[C@@]12C)C(C)C
REMARK SMILES IDX 5 1 4 2 3 3 2 4 1 5 28 6 29 7 30 8 6 9 7 10 8 11 9 12 26 13
REMARK SMILES IDX 10 14 11 15 25 16 27 17 12 18 24 19 23 20 13 21 21 22 14 23
REMARK SMILES IDX 15 24 20 25 22 26 16 27 19 28 17 29 18 30
REMARK H PARENT 18 31
REMARK Flexibility Score: inf
ROOT
ATOM      1  C   UNL     1     119.271 130.401 129.334  1.00  0.00     0.004 C 
ENDROOT
BRANCH   1   2
ATOM      2  C   UNL     1     120.257 131.164 128.415  1.00  0.00     0.004 C 
BRANCH   2   3
ATOM      3  C   UNL     1     120.496 132.671 128.745  1.00  0.00    -0.009 C 
BRANCH   3   4
ATOM      4  C   UNL     1     119.313 133.603 128.374  1.00  0.00     0.000 C 
ATOM      5  C   UNL     1     119.181 133.815 126.862  1.00  0.00     0.004 C 
ENDBRANCH   3   4
BRANCH   3   6
ATOM      6  C   UNL     1     121.865 133.247 128.246  1.00  0.00    -0.014 C 
ATOM      7  C   UNL     1     122.967 132.197 128.052  1.00  0.00     0.007 C 
ATOM      8  C   UNL     1     122.376 134.394 129.135  1.00  0.00     0.007 C 
ENDBRANCH   3   6
ENDBRANCH   2   3
ENDBRANCH   1   2
BRANCH   1   9
ATOM      9  C   UNL     1     119.657 128.905 129.511  1.00  0.00    -0.011 C 
ATOM     10  C   UNL     1     121.193 128.738 129.478  1.00  0.00     0.008 C 
BRANCH   9  11
ATOM     11  C   UNL     1     118.882 127.996 128.481  1.00  0.00    -0.002 C 
ATOM     12  C   UNL     1     119.718 127.271 127.423  1.00  0.00     0.005 C 
ATOM     13  C   UNL     1     117.931 126.924 129.084  1.00  0.00    -0.023 C 
ATOM     14  C   UNL     1     118.885 126.067 126.986  1.00  0.00     0.009 C 
ATOM     15  C   UNL     1     117.598 126.047 127.844  1.00  0.00     0.021 C 
ATOM     16  C   UNL     1     118.642 126.028 130.150  1.00  0.00     0.008 C 
ATOM     17  C   UNL     1     116.666 127.615 129.687  1.00  0.00     0.012 C 
ATOM     18  C   UNL     1     117.126 124.637 128.213  1.00  0.00    -0.067 C 
ATOM     19  C   UNL     1     117.832 124.778 130.585  1.00  0.00     0.009 C 
ATOM     20  C   UNL     1     116.661 124.404 129.639  1.00  0.00     0.021 C 
ATOM     21  C   UNL     1     117.241 123.632 127.320  1.00  0.00    -0.027 C 
ATOM     22  C   UNL     1     115.991 122.992 129.908  1.00  0.00    -0.023 C 
ATOM     23  C   UNL     1     116.855 122.214 127.602  1.00  0.00     0.031 C 
ATOM     24  C   UNL     1     116.725 121.876 129.106  1.00  0.00     0.002 C 
ATOM     25  C   UNL     1     114.500 123.030 129.452  1.00  0.00     0.010 C 
ATOM     26  C   UNL     1     116.028 122.684 131.436  1.00  0.00     0.012 C 
ATOM     27  C   UNL     1     116.040 120.495 129.280  1.00  0.00     0.036 C 
ATOM     28  C   UNL     1     113.770 121.680 129.609  1.00  0.00     0.032 C 
ATOM     29  C   UNL     1     114.520 120.486 128.990  1.00  0.00     0.114 C 
BRANCH  29  30
ATOM     30  O   UNL     1     114.284 120.452 127.603  1.00  0.00    -0.393 OA
ATOM     31  H   UNL     1     115.007 119.919 127.181  1.00  0.00     0.210 HD
ENDBRANCH  29  30
ENDBRANCH   9  11
ENDBRANCH   1   9
TORSDOF 7
ENDMDL
MODEL 2
REMARK VINA RESULT:    -7.492      1.767      3.234
REMARK INTER + INTRA:         -11.393
REMARK INTER:                  -9.985
REMARK INTRA:                  -1.408
REMARK UNBOUND:                -1.054
REMARK SMILES CC[C@@H](CC[C@H](C)[C@H]1CC[C@H]2C3=CC[C@@H]4C[C@H](O)CC[C@]4(C)[C@H]3CC[C@@]12C)C(C)C
REMARK SMILES IDX 5 1 4 2 3 3 2 4 1 5 28 6 29 7 30 8 6 9 7 10 8 11 9 12 26 13
REMARK SMILES IDX 10 14 11 15 25 16 27 17 12 18 24 19 23 20 13 21 21 22 14 23
REMARK SMILES IDX 15 24 20 25 22 26 16 27 19 28 17 29 18 30
REMARK H PARENT 18 31
REMARK Flexibility Score: inf
ROOT
ATOM      1  C   UNL     1     120.124 128.218 128.014  1.00  0.00     0.004 C 
ENDROOT
BRANCH   1   2
ATOM      2  C   UNL     1     120.660 128.760 129.362  1.00  0.00     0.004 C 
BRANCH   2   3
ATOM      3  C   UNL     1     119.924 130.000 129.959  1.00  0.00    -0.009 C 
BRANCH   3   4
ATOM      4  C   UNL     1     118.377 129.901 129.928  1.00  0.00     0.000 C 
ATOM      5  C   UNL     1     117.814 129.082 131.095  1.00  0.00     0.004 C 
ENDBRANCH   3   4
BRANCH   3   6
ATOM      6  C   UNL     1     120.426 131.386 129.428  1.00  0.00    -0.014 C 
ATOM      7  C   UNL     1     119.429 132.122 128.522  1.00  0.00     0.007 C 
ATOM      8  C   UNL     1     121.797 131.286 128.738  1.00  0.00     0.007 C 
ENDBRANCH   3   6
ENDBRANCH   2   3
ENDBRANCH   1   2
BRANCH   1   9
ATOM      9  C   UNL     1     119.745 126.711 128.085  1.00  0.00    -0.011 C 
ATOM     10  C   UNL     1     119.922 126.047 126.701  1.00  0.00     0.008 C 
BRANCH   9  11
ATOM     11  C   UNL     1     118.314 126.518 128.721  1.00  0.00    -0.002 C 
ATOM     12  C   UNL     1     117.115 126.584 127.772  1.00  0.00     0.005 C 
ATOM     13  C   UNL     1     118.108 125.243 129.585  1.00  0.00    -0.023 C 
ATOM     14  C   UNL     1     115.995 125.806 128.461  1.00  0.00     0.009 C 
ATOM     15  C   UNL     1     116.565 125.222 129.775  1.00  0.00     0.021 C 
ATOM     16  C   UNL     1     118.534 123.938 128.834  1.00  0.00     0.008 C 
ATOM     17  C   UNL     1     118.878 125.387 130.937  1.00  0.00     0.012 C 
ATOM     18  C   UNL     1     116.019 123.833 130.120  1.00  0.00    -0.067 C 
ATOM     19  C   UNL     1     118.103 122.622 129.532  1.00  0.00     0.009 C 
ATOM     20  C   UNL     1     117.008 122.795 130.618  1.00  0.00     0.021 C 
ATOM     21  C   UNL     1     114.728 123.534 129.866  1.00  0.00    -0.027 C 
ATOM     22  C   UNL     1     116.362 121.450 131.155  1.00  0.00    -0.023 C 
ATOM     23  C   UNL     1     114.116 122.192 130.121  1.00  0.00     0.031 C 
ATOM     24  C   UNL     1     115.139 121.043 130.280  1.00  0.00     0.002 C 
ATOM     25  C   UNL     1     115.874 121.658 132.622  1.00  0.00     0.010 C 
ATOM     26  C   UNL     1     117.438 120.321 131.153  1.00  0.00     0.012 C 
ATOM     27  C   UNL     1     114.431 119.777 130.830  1.00  0.00     0.036 C 
ATOM     28  C   UNL     1     115.165 120.425 133.219  1.00  0.00     0.032 C 
ATOM     29  C   UNL     1     114.049 119.850 132.328  1.00  0.00     0.114 C 
BRANCH  29  30
ATOM     30  O   UNL     1     112.875 120.607 132.500  1.00  0.00    -0.393 OA
ATOM     31  H   UNL     1     112.450 120.722 131.610  1.00  0.00     0.210 HD
ENDBRANCH  29  30
ENDBRANCH   9  11
ENDBRANCH   1   9
TORSDOF 7
ENDMDL
MODEL 3
REMARK VINA RESULT:    -7.488      1.377      2.181
REMARK INTER + INTRA:         -11.387
REMARK INTER:                 -11.110
REMARK INTRA:                  -0.277
REMARK UNBOUND:                -1.054
REMARK SMILES CC[C@@H](CC[C@H](C)[C@H]1CC[C@H]2C3=CC[C@@H]4C[C@H](O)CC[C@]4(C)[C@H]3CC[C@@]12C)C(C)C
REMARK SMILES IDX 5 1 4 2 3 3 2 4 1 5 28 6 29 7 30 8 6 9 7 10 8 11 9 12 26 13
REMARK SMILES IDX 10 14 11 15 25 16 27 17 12 18 24 19 23 20 13 21 21 22 14 23
REMARK SMILES IDX 15 24 20 25 22 26 16 27 19 28 17 29 18 30
REMARK H PARENT 18 31
REMARK Flexibility Score: inf
ROOT
ATOM      1  C   UNL     1     119.698 129.810 129.107  1.00  0.00     0.004 C 
ENDROOT
BRANCH   1   2
ATOM      2  C   UNL     1     119.239 131.289 129.101  1.00  0.00     0.004 C 
BRANCH   2   3
ATOM      3  C   UNL     1     120.128 132.293 128.301  1.00  0.00    -0.009 C 
BRANCH   3   4
ATOM      4  C   UNL     1     121.527 132.543 128.921  1.00  0.00     0.000 C 
ATOM      5  C   UNL     1     122.665 132.011 128.042  1.00  0.00     0.004 C 
ENDBRANCH   3   4
BRANCH   3   6
ATOM      6  C   UNL     1     119.420 133.635 127.910  1.00  0.00    -0.014 C 
ATOM      7  C   UNL     1     120.131 134.901 128.408  1.00  0.00     0.007 C 
ATOM      8  C   UNL     1     117.940 133.660 128.328  1.00  0.00     0.007 C 
ENDBRANCH   3   6
ENDBRANCH   2   3
ENDBRANCH   1   2
BRANCH   1   9
ATOM      9  C   UNL     1     118.553 128.832 129.499  1.00  0.00    -0.011 C 
ATOM     10  C   UNL     1     118.293 128.892 131.021  1.00  0.00     0.008 C 
BRANCH   9  11
ATOM     11  C   UNL     1     118.834 127.383 128.943  1.00  0.00    -0.002 C 
ATOM     12  C   UNL     1     120.035 126.633 129.525  1.00  0.00     0.005 C 
ATOM     13  C   UNL     1     117.644 126.383 128.986  1.00  0.00    -0.023 C 
ATOM     14  C   UNL     1     119.746 125.148 129.309  1.00  0.00     0.009 C 
ATOM     15  C   UNL     1     118.342 125.030 128.672  1.00  0.00     0.021 C 
ATOM     16  C   UNL     1     116.995 126.290 130.406  1.00  0.00     0.008 C 
ATOM     17  C   UNL     1     116.582 126.776 127.909  1.00  0.00     0.012 C 
ATOM     18  C   UNL     1     117.545 123.815 129.157  1.00  0.00    -0.067 C 
ATOM     19  C   UNL     1     115.989 125.121 130.579  1.00  0.00     0.009 C 
ATOM     20  C   UNL     1     116.078 124.024 129.486  1.00  0.00     0.021 C 
ATOM     21  C   UNL     1     118.176 122.645 129.390  1.00  0.00    -0.027 C 
ATOM     22  C   UNL     1     115.258 122.699 129.781  1.00  0.00    -0.023 C 
ATOM     23  C   UNL     1     117.496 121.418 129.912  1.00  0.00     0.031 C 
ATOM     24  C   UNL     1     116.126 121.684 130.581  1.00  0.00     0.002 C 
ATOM     25  C   UNL     1     114.838 122.037 128.432  1.00  0.00     0.010 C 
ATOM     26  C   UNL     1     113.963 123.057 130.573  1.00  0.00     0.012 C 
ATOM     27  C   UNL     1     115.382 120.342 130.812  1.00  0.00     0.036 C 
ATOM     28  C   UNL     1     114.089 120.700 128.606  1.00  0.00     0.032 C 
ATOM     29  C   UNL     1     114.802 119.697 129.531  1.00  0.00     0.114 C 
BRANCH  29  30
ATOM     30  O   UNL     1     115.815 119.035 128.811  1.00  0.00    -0.393 OA
ATOM     31  H   UNL     1     115.553 119.021 127.854  1.00  0.00     0.210 HD
ENDBRANCH  29  30
ENDBRANCH   9  11
ENDBRANCH   1   9
TORSDOF 7
ENDMDL
MODEL 4
REMARK VINA RESULT:    -7.418      3.010      5.973
REMARK INTER + INTRA:         -11.291
REMARK INTER:                  -9.033
REMARK INTRA:                  -2.258
REMARK UNBOUND:                -1.054
REMARK SMILES CC[C@@H](CC[C@H](C)[C@H]1CC[C@H]2C3=CC[C@@H]4C[C@H](O)CC[C@]4(C)[C@H]3CC[C@@]12C)C(C)C
REMARK SMILES IDX 5 1 4 2 3 3 2 4 1 5 28 6 29 7 30 8 6 9 7 10 8 11 9 12 26 13
REMARK SMILES IDX 10 14 11 15 25 16 27 17 12 18 24 19 23 20 13 21 21 22 14 23
REMARK SMILES IDX 15 24 20 25 22 26 16 27 19 28 17 29 18 30
REMARK H PARENT 18 31
REMARK Flexibility Score: inf
ROOT
ATOM      1  C   UNL     1     116.669 126.032 130.313  1.00  0.00     0.004 C 
ENDROOT
BRANCH   1   2
ATOM      2  C   UNL     1     118.134 126.378 130.677  1.00  0.00     0.004 C 
BRANCH   2   3
ATOM      3  C   UNL     1     119.230 125.945 129.653  1.00  0.00    -0.009 C 
BRANCH   3   4
ATOM      4  C   UNL     1     120.391 125.123 130.268  1.00  0.00     0.000 C 
ATOM      5  C   UNL     1     120.984 124.110 129.283  1.00  0.00     0.004 C 
ENDBRANCH   3   4
BRANCH   3   6
ATOM      6  C   UNL     1     119.761 127.093 128.728  1.00  0.00    -0.014 C 
ATOM      7  C   UNL     1     119.213 128.488 129.063  1.00  0.00     0.007 C 
ATOM      8  C   UNL     1     119.552 126.786 127.235  1.00  0.00     0.007 C 
ENDBRANCH   3   6
ENDBRANCH   2   3
ENDBRANCH   1   2
BRANCH   1   9
ATOM      9  C   UNL     1     116.542 125.391 128.901  1.00  0.00    -0.011 C 
ATOM     10  C   UNL     1     115.839 126.366 127.930  1.00  0.00     0.008 C 
BRANCH   9  11
ATOM     11  C   UNL     1     115.873 123.965 128.987  1.00  0.00    -0.002 C 
ATOM     12  C   UNL     1     114.751 123.659 127.991  1.00  0.00     0.005 C 
ATOM     13  C   UNL     1     116.836 122.745 128.935  1.00  0.00    -0.023 C 
ATOM     14  C   UNL     1     114.706 122.136 127.868  1.00  0.00     0.009 C 
ATOM     15  C   UNL     1     115.852 121.559 128.731  1.00  0.00     0.021 C 
ATOM     16  C   UNL     1     117.805 122.803 127.708  1.00  0.00     0.008 C 
ATOM     17  C   UNL     1     117.634 122.641 130.274  1.00  0.00     0.012 C 
ATOM     18  C   UNL     1     116.518 120.321 128.123  1.00  0.00    -0.067 C 
ATOM     19  C   UNL     1     118.597 121.494 127.450  1.00  0.00     0.009 C 
ATOM     20  C   UNL     1     118.033 120.243 128.175  1.00  0.00     0.021 C 
ATOM     21  C   UNL     1     115.773 119.408 127.466  1.00  0.00    -0.027 C 
ATOM     22  C   UNL     1     118.653 118.856 127.723  1.00  0.00    -0.023 C 
ATOM     23  C   UNL     1     116.336 118.194 126.797  1.00  0.00     0.031 C 
ATOM     24  C   UNL     1     117.857 118.265 126.522  1.00  0.00     0.002 C 
ATOM     25  C   UNL     1     118.583 117.845 128.909  1.00  0.00     0.010 C 
ATOM     26  C   UNL     1     120.152 119.058 127.341  1.00  0.00     0.012 C 
ATOM     27  C   UNL     1     118.385 116.866 126.110  1.00  0.00     0.036 C 
ATOM     28  C   UNL     1     119.102 116.436 128.553  1.00  0.00     0.032 C 
ATOM     29  C   UNL     1     118.487 115.847 127.271  1.00  0.00     0.114 C 
BRANCH  29  30
ATOM     30  O   UNL     1     117.221 115.306 127.563  1.00  0.00    -0.393 OA
ATOM     31  H   UNL     1     117.184 115.121 128.538  1.00  0.00     0.210 HD
ENDBRANCH  29  30
ENDBRANCH   9  11
ENDBRANCH   1   9
TORSDOF 7
ENDMDL
MODEL 5
REMARK VINA RESULT:    -7.117      3.226      9.001
REMARK INTER + INTRA:         -10.875
REMARK INTER:                  -9.279
REMARK INTRA:                  -1.597
REMARK UNBOUND:                -1.054
REMARK SMILES CC[C@@H](CC[C@H](C)[C@H]1CC[C@H]2C3=CC[C@@H]4C[C@H](O)CC[C@]4(C)[C@H]3CC[C@@]12C)C(C)C
REMARK SMILES IDX 5 1 4 2 3 3 2 4 1 5 28 6 29 7 30 8 6 9 7 10 8 11 9 12 26 13
REMARK SMILES IDX 10 14 11 15 25 16 27 17 12 18 24 19 23 20 13 21 21 22 14 23
REMARK SMILES IDX 15 24 20 25 22 26 16 27 19 28 17 29 18 30
REMARK H PARENT 18 31
REMARK Flexibility Score: inf
ROOT
ATOM      1  C   UNL     1     115.899 119.754 129.624  1.00  0.00     0.004 C 
ENDROOT
BRANCH   1   2
ATOM      2  C   UNL     1     114.470 120.093 129.134  1.00  0.00     0.004 C 
BRANCH   2   3
ATOM      3  C   UNL     1     114.341 121.276 128.123  1.00  0.00    -0.009 C 
BRANCH   3   4
ATOM      4  C   UNL     1     113.662 122.543 128.705  1.00  0.00     0.000 C 
ATOM      5  C   UNL     1     113.283 122.384 130.181  1.00  0.00     0.004 C 
ENDBRANCH   3   4
BRANCH   3   6
ATOM      6  C   UNL     1     113.746 120.889 126.726  1.00  0.00    -0.014 C 
ATOM      7  C   UNL     1     114.508 119.777 125.993  1.00  0.00     0.007 C 
ATOM      8  C   UNL     1     113.573 122.110 125.806  1.00  0.00     0.007 C 
ENDBRANCH   3   6
ENDBRANCH   2   3
ENDBRANCH   1   2
BRANCH   1   9
ATOM      9  C   UNL     1     116.998 120.213 128.623  1.00  0.00    -0.011 C 
ATOM     10  C   UNL     1     117.600 118.993 127.890  1.00  0.00     0.008 C 
BRANCH   9  11
ATOM     11  C   UNL     1     118.062 121.133 129.336  1.00  0.00    -0.002 C 
ATOM     12  C   UNL     1     119.462 121.190 128.718  1.00  0.00     0.005 C 
ATOM     13  C   UNL     1     117.644 122.610 129.585  1.00  0.00    -0.023 C 
ATOM     14  C   UNL     1     120.067 122.517 129.176  1.00  0.00     0.009 C 
ATOM     15  C   UNL     1     118.992 123.267 129.995  1.00  0.00     0.021 C 
ATOM     16  C   UNL     1     117.125 123.309 128.285  1.00  0.00     0.008 C 
ATOM     17  C   UNL     1     116.573 122.674 130.721  1.00  0.00     0.012 C 
ATOM     18  C   UNL     1     119.008 124.785 129.789  1.00  0.00    -0.067 C 
ATOM     19  C   UNL     1     116.951 124.845 128.406  1.00  0.00     0.009 C 
ATOM     20  C   UNL     1     117.672 125.485 129.622  1.00  0.00     0.021 C 
ATOM     21  C   UNL     1     120.183 125.433 129.645  1.00  0.00    -0.027 C 
ATOM     22  C   UNL     1     117.735 127.069 129.622  1.00  0.00    -0.023 C 
ATOM     23  C   UNL     1     120.301 126.903 129.391  1.00  0.00     0.031 C 
ATOM     24  C   UNL     1     119.005 127.566 128.869  1.00  0.00     0.002 C 
ATOM     25  C   UNL     1     117.797 127.586 131.092  1.00  0.00     0.010 C 
ATOM     26  C   UNL     1     116.445 127.639 128.957  1.00  0.00     0.012 C 
ATOM     27  C   UNL     1     119.142 129.111 128.924  1.00  0.00     0.036 C 
ATOM     28  C   UNL     1     117.929 129.120 131.204  1.00  0.00     0.032 C 
ATOM     29  C   UNL     1     119.061 129.715 130.346  1.00  0.00     0.114 C 
BRANCH  29  30
ATOM     30  O   UNL     1     120.288 129.561 131.018  1.00  0.00    -0.393 OA
ATOM     31  H   UNL     1     120.116 129.078 131.867  1.00  0.00     0.210 HD
ENDBRANCH  29  30
ENDBRANCH   9  11
ENDBRANCH   1   9
TORSDOF 7
ENDMDL
MODEL 6
REMARK VINA RESULT:    -7.113      6.271      9.025
REMARK INTER + INTRA:         -10.869
REMARK INTER:                  -8.838
REMARK INTRA:                  -2.032
REMARK UNBOUND:                -1.054
REMARK SMILES CC[C@@H](CC[C@H](C)[C@H]1CC[C@H]2C3=CC[C@@H]4C[C@H](O)CC[C@]4(C)[C@H]3CC[C@@]12C)C(C)C
REMARK SMILES IDX 5 1 4 2 3 3 2 4 1 5 28 6 29 7 30 8 6 9 7 10 8 11 9 12 26 13
REMARK SMILES IDX 10 14 11 15 25 16 27 17 12 18 24 19 23 20 13 21 21 22 14 23
REMARK SMILES IDX 15 24 20 25 22 26 16 27 19 28 17 29 18 30
REMARK H PARENT 18 31
REMARK Flexibility Score: inf
ROOT
ATOM      1  C   UNL     1     116.202 123.549 130.976  1.00  0.00     0.004 C 
ENDROOT
BRANCH   1   2
ATOM      2  C   UNL     1     114.737 123.190 130.629  1.00  0.00     0.004 C 
BRANCH   2   3
ATOM      3  C   UNL     1     114.520 122.237 129.411  1.00  0.00    -0.009 C 
BRANCH   3   4
ATOM      4  C   UNL     1     113.607 122.818 128.300  1.00  0.00     0.000 C 
ATOM      5  C   UNL     1     114.035 122.379 126.896  1.00  0.00     0.004 C 
ENDBRANCH   3   4
BRANCH   3   6
ATOM      6  C   UNL     1     114.117 120.770 129.783  1.00  0.00    -0.014 C 
ATOM      7  C   UNL     1     113.996 120.503 131.290  1.00  0.00     0.007 C 
ATOM      8  C   UNL     1     115.041 119.726 129.133  1.00  0.00     0.007 C 
ENDBRANCH   3   6
ENDBRANCH   2   3
ENDBRANCH   1   2
BRANCH   1   9
ATOM      9  C   UNL     1     117.170 122.344 130.797  1.00  0.00    -0.011 C 
ATOM     10  C   UNL     1     117.441 121.666 132.159  1.00  0.00     0.008 C 
BRANCH   9  11
ATOM     11  C   UNL     1     118.470 122.775 130.015  1.00  0.00    -0.002 C 
ATOM     12  C   UNL     1     119.802 122.665 130.762  1.00  0.00     0.005 C 
ATOM     13  C   UNL     1     118.699 122.107 128.631  1.00  0.00    -0.023 C 
ATOM     14  C   UNL     1     120.877 122.547 129.682  1.00  0.00     0.009 C 
ATOM     15  C   UNL     1     120.165 122.511 128.310  1.00  0.00     0.021 C 
ATOM     16  C   UNL     1     118.616 120.546 128.701  1.00  0.00     0.008 C 
ATOM     17  C   UNL     1     117.678 122.674 127.592  1.00  0.00     0.012 C 
ATOM     18  C   UNL     1     120.836 121.583 127.292  1.00  0.00    -0.067 C 
ATOM     19  C   UNL     1     119.100 119.817 127.421  1.00  0.00     0.009 C 
ATOM     20  C   UNL     1     119.936 120.694 126.452  1.00  0.00     0.021 C 
ATOM     21  C   UNL     1     122.182 121.491 127.248  1.00  0.00    -0.027 C 
ATOM     22  C   UNL     1     120.663 119.914 125.279  1.00  0.00    -0.023 C 
ATOM     23  C   UNL     1     122.928 120.579 126.326  1.00  0.00     0.031 C 
ATOM     24  C   UNL     1     122.073 119.433 125.732  1.00  0.00     0.002 C 
ATOM     25  C   UNL     1     120.834 120.863 124.053  1.00  0.00     0.010 C 
ATOM     26  C   UNL     1     119.785 118.702 124.841  1.00  0.00     0.012 C 
ATOM     27  C   UNL     1     122.846 118.740 124.579  1.00  0.00     0.036 C 
ATOM     28  C   UNL     1     121.593 120.219 122.874  1.00  0.00     0.032 C 
ATOM     29  C   UNL     1     122.928 119.563 123.271  1.00  0.00     0.114 C 
BRANCH  29  30
ATOM     30  O   UNL     1     123.925 120.551 123.373  1.00  0.00    -0.393 OA
ATOM     31  H   UNL     1     123.481 121.414 123.583  1.00  0.00     0.210 HD
ENDBRANCH  29  30
ENDBRANCH   9  11
ENDBRANCH   1   9
TORSDOF 7
ENDMDL
MODEL 7
REMARK VINA RESULT:    -7.031      6.314      9.160
REMARK INTER + INTRA:         -10.757
REMARK INTER:                  -9.139
REMARK INTRA:                  -1.618
REMARK UNBOUND:                -1.054
REMARK SMILES CC[C@@H](CC[C@H](C)[C@H]1CC[C@H]2C3=CC[C@@H]4C[C@H](O)CC[C@]4(C)[C@H]3CC[C@@]12C)C(C)C
REMARK SMILES IDX 5 1 4 2 3 3 2 4 1 5 28 6 29 7 30 8 6 9 7 10 8 11 9 12 26 13
REMARK SMILES IDX 10 14 11 15 25 16 27 17 12 18 24 19 23 20 13 21 21 22 14 23
REMARK SMILES IDX 15 24 20 25 22 26 16 27 19 28 17 29 18 30
REMARK H PARENT 18 31
REMARK Flexibility Score: inf
ROOT
ATOM      1  C   UNL     1     115.881 123.415 130.695  1.00  0.00     0.004 C 
ENDROOT
BRANCH   1   2
ATOM      2  C   UNL     1     114.459 122.878 130.984  1.00  0.00     0.004 C 
BRANCH   2   3
ATOM      3  C   UNL     1     113.958 121.705 130.083  1.00  0.00    -0.009 C 
BRANCH   3   4
ATOM      4  C   UNL     1     114.238 120.292 130.657  1.00  0.00     0.000 C 
ATOM      5  C   UNL     1     113.909 120.185 132.150  1.00  0.00     0.004 C 
ENDBRANCH   3   4
BRANCH   3   6
ATOM      6  C   UNL     1     114.368 121.809 128.575  1.00  0.00    -0.014 C 
ATOM      7  C   UNL     1     113.595 122.866 127.774  1.00  0.00     0.007 C 
ATOM      8  C   UNL     1     114.307 120.450 127.857  1.00  0.00     0.007 C 
ENDBRANCH   3   6
ENDBRANCH   2   3
ENDBRANCH   1   2
BRANCH   1   9
ATOM      9  C   UNL     1     116.967 122.303 130.776  1.00  0.00    -0.011 C 
ATOM     10  C   UNL     1     117.182 121.869 132.243  1.00  0.00     0.008 C 
BRANCH   9  11
ATOM     11  C   UNL     1     118.284 122.745 130.029  1.00  0.00    -0.002 C 
ATOM     12  C   UNL     1     119.597 122.641 130.809  1.00  0.00     0.005 C 
ATOM     13  C   UNL     1     118.552 122.081 128.649  1.00  0.00    -0.023 C 
ATOM     14  C   UNL     1     120.700 122.533 129.757  1.00  0.00     0.009 C 
ATOM     15  C   UNL     1     120.024 122.495 128.367  1.00  0.00     0.021 C 
ATOM     16  C   UNL     1     118.478 120.520 128.715  1.00  0.00     0.008 C 
ATOM     17  C   UNL     1     117.555 122.644 127.586  1.00  0.00     0.012 C 
ATOM     18  C   UNL     1     120.727 121.573 127.365  1.00  0.00    -0.067 C 
ATOM     19  C   UNL     1     119.000 119.796 127.446  1.00  0.00     0.009 C 
ATOM     20  C   UNL     1     119.854 120.681 126.501  1.00  0.00     0.021 C 
ATOM     21  C   UNL     1     122.074 121.490 127.356  1.00  0.00    -0.027 C 
ATOM     22  C   UNL     1     120.617 119.908 125.345  1.00  0.00    -0.023 C 
ATOM     23  C   UNL     1     122.849 120.584 126.452  1.00  0.00     0.031 C 
ATOM     24  C   UNL     1     122.018 119.435 125.834  1.00  0.00     0.002 C 
ATOM     25  C   UNL     1     120.813 120.859 124.126  1.00  0.00     0.010 C 
ATOM     26  C   UNL     1     119.758 118.691 124.883  1.00  0.00     0.012 C 
ATOM     27  C   UNL     1     122.825 118.749 124.700  1.00  0.00     0.036 C 
ATOM     28  C   UNL     1     121.607 120.224 122.966  1.00  0.00     0.032 C 
ATOM     29  C   UNL     1     122.935 119.575 123.396  1.00  0.00     0.114 C 
BRANCH  29  30
ATOM     30  O   UNL     1     123.922 120.569 123.526  1.00  0.00    -0.393 OA
ATOM     31  H   UNL     1     124.035 120.767 124.492  1.00  0.00     0.210 HD
ENDBRANCH  29  30
ENDBRANCH   9  11
ENDBRANCH   1   9
TORSDOF 7
ENDMDL
MODEL 8
REMARK VINA RESULT:    -7.006      4.380      6.937
REMARK INTER + INTRA:         -10.723
REMARK INTER:                  -8.743
REMARK INTRA:                  -1.979
REMARK UNBOUND:                -1.054
REMARK SMILES CC[C@@H](CC[C@H](C)[C@H]1CC[C@H]2C3=CC[C@@H]4C[C@H](O)CC[C@]4(C)[C@H]3CC[C@@]12C)C(C)C
REMARK SMILES IDX 5 1 4 2 3 3 2 4 1 5 28 6 29 7 30 8 6 9 7 10 8 11 9 12 26 13
REMARK SMILES IDX 10 14 11 15 25 16 27 17 12 18 24 19 23 20 13 21 21 22 14 23
REMARK SMILES IDX 15 24 20 25 22 26 16 27 19 28 17 29 18 30
REMARK H PARENT 18 31
REMARK Flexibility Score: inf
ROOT
ATOM      1  C   UNL     1     116.388 124.587 130.625  1.00  0.00     0.004 C 
ENDROOT
BRANCH   1   2
ATOM      2  C   UNL     1     116.560 125.732 129.597  1.00  0.00     0.004 C 
BRANCH   2   3
ATOM      3  C   UNL     1     117.477 126.922 130.024  1.00  0.00    -0.009 C 
BRANCH   3   4
ATOM      4  C   UNL     1     116.728 128.091 130.716  1.00  0.00     0.000 C 
ATOM      5  C   UNL     1     117.324 128.446 132.082  1.00  0.00     0.004 C 
ENDBRANCH   3   4
BRANCH   3   6
ATOM      6  C   UNL     1     118.451 127.438 128.910  1.00  0.00    -0.014 C 
ATOM      7  C   UNL     1     118.195 126.849 127.515  1.00  0.00     0.007 C 
ATOM      8  C   UNL     1     119.929 127.260 129.297  1.00  0.00     0.007 C 
ENDBRANCH   3   6
ENDBRANCH   2   3
ENDBRANCH   1   2
BRANCH   1   9
ATOM      9  C   UNL     1     117.127 123.287 130.198  1.00  0.00    -0.011 C 
ATOM     10  C   UNL     1     117.352 122.370 131.422  1.00  0.00     0.008 C 
BRANCH   9  11
ATOM     11  C   UNL     1     118.438 123.622 129.388  1.00  0.00    -0.002 C 
ATOM     12  C   UNL     1     119.757 123.626 130.165  1.00  0.00     0.005 C 
ATOM     13  C   UNL     1     118.697 122.777 128.109  1.00  0.00    -0.023 C 
ATOM     14  C   UNL     1     120.852 123.375 129.129  1.00  0.00     0.009 C 
ATOM     15  C   UNL     1     120.166 123.148 127.762  1.00  0.00     0.021 C 
ATOM     16  C   UNL     1     118.625 121.239 128.387  1.00  0.00     0.008 C 
ATOM     17  C   UNL     1     117.691 123.190 126.986  1.00  0.00     0.012 C 
ATOM     18  C   UNL     1     120.862 122.099 126.889  1.00  0.00    -0.067 C 
ATOM     19  C   UNL     1     119.137 120.349 127.224  1.00  0.00     0.009 C 
ATOM     20  C   UNL     1     119.984 121.098 126.161  1.00  0.00     0.021 C 
ATOM     21  C   UNL     1     122.209 122.015 126.882  1.00  0.00    -0.027 C 
ATOM     22  C   UNL     1     120.738 120.174 125.115  1.00  0.00    -0.023 C 
ATOM     23  C   UNL     1     122.978 120.995 126.103  1.00  0.00     0.031 C 
ATOM     24  C   UNL     1     122.143 119.772 125.654  1.00  0.00     0.002 C 
ATOM     25  C   UNL     1     120.924 120.952 123.776  1.00  0.00     0.010 C 
ATOM     26  C   UNL     1     119.876 118.906 124.829  1.00  0.00     0.012 C 
ATOM     27  C   UNL     1     122.942 118.938 124.617  1.00  0.00     0.036 C 
ATOM     28  C   UNL     1     121.709 120.164 122.707  1.00  0.00     0.032 C 
ATOM     29  C   UNL     1     123.041 119.579 123.212  1.00  0.00     0.114 C 
BRANCH  29  30
ATOM     30  O   UNL     1     124.029 120.582 123.198  1.00  0.00    -0.393 OA
ATOM     31  H   UNL     1     123.572 121.463 123.156  1.00  0.00     0.210 HD
ENDBRANCH  29  30
ENDBRANCH   9  11
ENDBRANCH   1   9
TORSDOF 7
ENDMDL
MODEL 9
REMARK VINA RESULT:    -6.763      6.451      9.720
REMARK INTER + INTRA:         -10.387
REMARK INTER:                  -8.452
REMARK INTRA:                  -1.935
REMARK UNBOUND:                -1.054
REMARK SMILES CC[C@@H](CC[C@H](C)[C@H]1CC[C@H]2C3=CC[C@@H]4C[C@H](O)CC[C@]4(C)[C@H]3CC[C@@]12C)C(C)C
REMARK SMILES IDX 5 1 4 2 3 3 2 4 1 5 28 6 29 7 30 8 6 9 7 10 8 11 9 12 26 13
REMARK SMILES IDX 10 14 11 15 25 16 27 17 12 18 24 19 23 20 13 21 21 22 14 23
REMARK SMILES IDX 15 24 20 25 22 26 16 27 19 28 17 29 18 30
REMARK H PARENT 18 31
REMARK Flexibility Score: inf
ROOT
ATOM      1  C   UNL     1     113.874 122.431 131.060  1.00  0.00     0.004 C 
ENDROOT
BRANCH   1   2
ATOM      2  C   UNL     1     113.727 122.498 129.520  1.00  0.00     0.004 C 
BRANCH   2   3
ATOM      3  C   UNL     1     114.783 121.709 128.683  1.00  0.00    -0.009 C 
BRANCH   3   4
ATOM      4  C   UNL     1     115.535 122.566 127.631  1.00  0.00     0.000 C 
ATOM      5  C   UNL     1     115.488 124.065 127.949  1.00  0.00     0.004 C 
ENDBRANCH   3   4
BRANCH   3   6
ATOM      6  C   UNL     1     114.269 120.362 128.071  1.00  0.00    -0.014 C 
ATOM      7  C   UNL     1     115.110 119.131 128.440  1.00  0.00     0.007 C 
ATOM      8  C   UNL     1     114.089 120.443 126.546  1.00  0.00     0.007 C 
ENDBRANCH   3   6
ENDBRANCH   2   3
ENDBRANCH   1   2
BRANCH   1   9
ATOM      9  C   UNL     1     114.625 121.154 131.533  1.00  0.00    -0.011 C 
ATOM     10  C   UNL     1     113.621 120.105 132.062  1.00  0.00     0.008 C 
BRANCH   9  11
ATOM     11  C   UNL     1     115.777 121.519 132.547  1.00  0.00    -0.002 C 
ATOM     12  C   UNL     1     115.813 120.749 133.869  1.00  0.00     0.005 C 
ATOM     13  C   UNL     1     117.227 121.480 131.989  1.00  0.00    -0.023 C 
ATOM     14  C   UNL     1     117.259 120.829 134.359  1.00  0.00     0.009 C 
ATOM     15  C   UNL     1     118.080 121.578 133.285  1.00  0.00     0.021 C 
ATOM     16  C   UNL     1     117.556 120.125 131.278  1.00  0.00     0.008 C 
ATOM     17  C   UNL     1     117.459 122.688 131.024  1.00  0.00     0.012 C 
ATOM     18  C   UNL     1     119.504 121.040 133.111  1.00  0.00    -0.067 C 
ATOM     19  C   UNL     1     119.057 119.921 130.944  1.00  0.00     0.009 C 
ATOM     20  C   UNL     1     120.024 120.875 131.694  1.00  0.00     0.021 C 
ATOM     21  C   UNL     1     120.203 120.623 134.187  1.00  0.00    -0.027 C 
ATOM     22  C   UNL     1     121.564 120.516 131.579  1.00  0.00    -0.023 C 
ATOM     23  C   UNL     1     121.578 120.037 134.116  1.00  0.00     0.031 C 
ATOM     24  C   UNL     1     121.983 119.532 132.710  1.00  0.00     0.002 C 
ATOM     25  C   UNL     1     122.412 121.818 131.714  1.00  0.00     0.010 C 
ATOM     26  C   UNL     1     121.846 119.892 130.177  1.00  0.00     0.012 C 
ATOM     27  C   UNL     1     123.504 119.227 132.677  1.00  0.00     0.036 C 
ATOM     28  C   UNL     1     123.934 121.571 131.682  1.00  0.00     0.032 C 
ATOM     29  C   UNL     1     124.413 120.480 132.657  1.00  0.00     0.114 C 
BRANCH  29  30
ATOM     30  O   UNL     1     124.530 121.024 133.949  1.00  0.00    -0.393 OA
ATOM     31  H   UNL     1     124.844 120.306 134.558  1.00  0.00     0.210 HD
ENDBRANCH  29  30
ENDBRANCH   9  11
ENDBRANCH   1   9
TORSDOF 7
ENDMDL
