MODEL 1
REMARK VINA RESULT:    -3.870      0.000      0.000
REMARK INTER + INTRA:          -7.621
REMARK INTER:                  -6.132
REMARK INTRA:                  -1.489
REMARK UNBOUND:                -1.489
REMARK SMILES CCCCCCCCCCCC(=O)[O-]
REMARK SMILES IDX 7 1 8 2 9 3 10 4 11 5 12 6 13 7 14 8 6 9 5 10 4 11 3 12 2 13
REMARK SMILES IDX 1 14
REMARK H PARENT
REMARK Flexibility Score: inf
ROOT
ATOM      1  C   UNL     1      53.239  24.932  34.904  1.00  0.00     0.000 C 
ENDROOT
BRANCH   1   2
ATOM      2  C   UNL     1      53.057  25.828  33.670  1.00  0.00     0.000 C 
BRANCH   2   3
ATOM      3  C   UNL     1      53.074  27.330  34.009  1.00  0.00     0.000 C 
BRANCH   3   4
ATOM      4  C   UNL     1      52.792  27.665  35.486  1.00  0.00     0.006 C 
BRANCH   4   5
ATOM      5  C   UNL     1      52.521  29.156  35.719  1.00  0.00     0.053 C 
BRANCH   5   6
ATOM      6  C   UNL     1      53.512  29.723  36.685  1.00  0.00     0.041 C 
ATOM      7  O   UNL     1      53.123  30.426  37.654  1.00  0.00    -0.550 OA
ATOM      8  O   UNL     1      54.864  29.434  36.544  1.00  0.00    -0.550 OA
ENDBRANCH   5   6
ENDBRANCH   4   5
ENDBRANCH   3   4
ENDBRANCH   2   3
ENDBRANCH   1   2
BRANCH   1   9
ATOM      9  C   UNL     1      52.028  24.005  35.092  1.00  0.00     0.000 C 
BRANCH   9  10
ATOM     10  C   UNL     1      51.162  24.399  36.298  1.00  0.00    -0.000 C 
BRANCH  10  11
ATOM     11  C   UNL     1      49.707  24.711  35.908  1.00  0.00    -0.000 C 
BRANCH  11  12
ATOM     12  C   UNL     1      49.463  26.224  35.730  1.00  0.00    -0.000 C 
BRANCH  12  13
ATOM     13  C   UNL     1      49.394  26.667  34.257  1.00  0.00    -0.003 C 
ATOM     14  C   UNL     1      49.076  25.519  33.302  1.00  0.00     0.004 C 
ENDBRANCH  12  13
ENDBRANCH  11  12
ENDBRANCH  10  11
ENDBRANCH   9  10
ENDBRANCH   1   9
TORSDOF 10
ENDMDL
MODEL 2
REMARK VINA RESULT:    -3.791      1.118      2.646
REMARK INTER + INTRA:          -7.496
REMARK INTER:                  -6.428
REMARK INTRA:                  -1.068
REMARK UNBOUND:                -1.489
REMARK SMILES CCCCCCCCCCCC(=O)[O-]
REMARK SMILES IDX 7 1 8 2 9 3 10 4 11 5 12 6 13 7 14 8 6 9 5 10 4 11 3 12 2 13
REMARK SMILES IDX 1 14
REMARK H PARENT
REMARK Flexibility Score: inf
ROOT
ATOM      1  C   UNL     1      50.836  26.198  33.215  1.00  0.00     0.000 C 
ENDROOT
BRANCH   1   2
ATOM      2  C   UNL     1      52.139  26.445  33.988  1.00  0.00     0.000 C 
BRANCH   2   3
ATOM      3  C   UNL     1      52.052  27.648  34.946  1.00  0.00     0.000 C 
BRANCH   3   4
ATOM      4  C   UNL     1      53.027  28.798  34.634  1.00  0.00     0.006 C 
BRANCH   4   5
ATOM      5  C   UNL     1      52.814  30.023  35.533  1.00  0.00     0.053 C 
BRANCH   5   6
ATOM      6  C   UNL     1      53.593  29.880  36.802  1.00  0.00     0.041 C 
ATOM      7  O   UNL     1      54.714  29.306  36.797  1.00  0.00    -0.550 OA
ATOM      8  O   UNL     1      53.105  30.426  37.983  1.00  0.00    -0.550 OA
ENDBRANCH   5   6
ENDBRANCH   4   5
ENDBRANCH   3   4
ENDBRANCH   2   3
ENDBRANCH   1   2
BRANCH   1   9
ATOM      9  C   UNL     1      49.642  26.847  33.931  1.00  0.00     0.000 C 
BRANCH   9  10
ATOM     10  C   UNL     1      48.848  25.846  34.785  1.00  0.00    -0.000 C 
BRANCH  10  11
ATOM     11  C   UNL     1      48.932  24.408  34.246  1.00  0.00    -0.000 C 
BRANCH  11  12
ATOM     12  C   UNL     1      49.380  23.405  35.329  1.00  0.00    -0.000 C 
BRANCH  12  13
ATOM     13  C   UNL     1      50.907  23.240  35.421  1.00  0.00    -0.003 C 
ATOM     14  C   UNL     1      51.525  24.024  36.577  1.00  0.00     0.004 C 
ENDBRANCH  12  13
ENDBRANCH  11  12
ENDBRANCH  10  11
ENDBRANCH   9  10
ENDBRANCH   1   9
TORSDOF 10
ENDMDL
MODEL 3
REMARK VINA RESULT:    -3.752      1.592      3.356
REMARK INTER + INTRA:          -7.435
REMARK INTER:                  -6.155
REMARK INTRA:                  -1.280
REMARK UNBOUND:                -1.489
REMARK SMILES CCCCCCCCCCCC(=O)[O-]
REMARK SMILES IDX 7 1 8 2 9 3 10 4 11 5 12 6 13 7 14 8 6 9 5 10 4 11 3 12 2 13
REMARK SMILES IDX 1 14
REMARK H PARENT
REMARK Flexibility Score: inf
ROOT
ATOM      1  C   UNL     1      48.654  25.523  32.909  1.00  0.00     0.000 C 
ENDROOT
BRANCH   1   2
ATOM      2  C   UNL     1      49.724  26.461  33.486  1.00  0.00     0.000 C 
BRANCH   2   3
ATOM      3  C   UNL     1      51.157  26.053  33.096  1.00  0.00     0.000 C 
BRANCH   3   4
ATOM      4  C   UNL     1      52.268  26.668  33.967  1.00  0.00     0.006 C 
BRANCH   4   5
ATOM      5  C   UNL     1      51.733  27.676  34.993  1.00  0.00     0.053 C 
BRANCH   5   6
ATOM      6  C   UNL     1      52.705  28.798  35.178  1.00  0.00     0.041 C 
ATOM      7  O   UNL     1      53.615  28.995  34.329  1.00  0.00    -0.550 OA
ATOM      8  O   UNL     1      52.576  29.658  36.260  1.00  0.00    -0.550 OA
ENDBRANCH   5   6
ENDBRANCH   4   5
ENDBRANCH   3   4
ENDBRANCH   2   3
ENDBRANCH   1   2
BRANCH   1   9
ATOM      9  C   UNL     1      48.162  24.531  33.973  1.00  0.00     0.000 C 
BRANCH   9  10
ATOM     10  C   UNL     1      48.803  23.142  33.831  1.00  0.00    -0.000 C 
BRANCH  10  11
ATOM     11  C   UNL     1      49.335  22.595  35.167  1.00  0.00    -0.000 C 
BRANCH  11  12
ATOM     12  C   UNL     1      50.808  22.985  35.412  1.00  0.00    -0.000 C 
BRANCH  12  13
ATOM     13  C   UNL     1      50.977  24.204  36.335  1.00  0.00    -0.003 C 
ATOM     14  C   UNL     1      52.400  24.363  36.862  1.00  0.00     0.004 C 
ENDBRANCH  12  13
ENDBRANCH  11  12
ENDBRANCH  10  11
ENDBRANCH   9  10
ENDBRANCH   1   9
TORSDOF 10
ENDMDL
MODEL 4
REMARK VINA RESULT:    -3.696      1.365      2.189
REMARK INTER + INTRA:          -7.346
REMARK INTER:                  -6.285
REMARK INTRA:                  -1.061
REMARK UNBOUND:                -1.489
REMARK SMILES CCCCCCCCCCCC(=O)[O-]
REMARK SMILES IDX 7 1 8 2 9 3 10 4 11 5 12 6 13 7 14 8 6 9 5 10 4 11 3 12 2 13
REMARK SMILES IDX 1 14
REMARK H PARENT
REMARK Flexibility Score: inf
ROOT
ATOM      1  C   UNL     1      52.207  25.182  33.610  1.00  0.00     0.000 C 
ENDROOT
BRANCH   1   2
ATOM      2  C   UNL     1      52.847  26.180  34.586  1.00  0.00     0.000 C 
BRANCH   2   3
ATOM      3  C   UNL     1      54.009  26.974  33.959  1.00  0.00     0.000 C 
BRANCH   3   4
ATOM      4  C   UNL     1      53.950  28.496  34.184  1.00  0.00     0.006 C 
BRANCH   4   5
ATOM      5  C   UNL     1      52.849  28.913  35.167  1.00  0.00     0.053 C 
BRANCH   5   6
ATOM      6  C   UNL     1      53.414  29.781  36.246  1.00  0.00     0.041 C 
ATOM      7  O   UNL     1      53.129  31.007  36.288  1.00  0.00    -0.550 OA
ATOM      8  O   UNL     1      54.214  29.227  37.237  1.00  0.00    -0.550 OA
ENDBRANCH   5   6
ENDBRANCH   4   5
ENDBRANCH   3   4
ENDBRANCH   2   3
ENDBRANCH   1   2
BRANCH   1   9
ATOM      9  C   UNL     1      50.964  25.787  32.942  1.00  0.00     0.000 C 
BRANCH   9  10
ATOM     10  C   UNL     1      50.147  26.668  33.900  1.00  0.00    -0.000 C 
BRANCH  10  11
ATOM     11  C   UNL     1      48.851  25.987  34.373  1.00  0.00    -0.000 C 
BRANCH  11  12
ATOM     12  C   UNL     1      48.496  24.752  33.518  1.00  0.00    -0.000 C 
BRANCH  12  13
ATOM     13  C   UNL     1      48.266  23.476  34.347  1.00  0.00    -0.003 C 
ATOM     14  C   UNL     1      49.491  23.059  35.156  1.00  0.00     0.004 C 
ENDBRANCH  12  13
ENDBRANCH  11  12
ENDBRANCH  10  11
ENDBRANCH   9  10
ENDBRANCH   1   9
TORSDOF 10
ENDMDL
MODEL 5
REMARK VINA RESULT:    -3.648      1.720      2.911
REMARK INTER + INTRA:          -7.270
REMARK INTER:                  -6.046
REMARK INTRA:                  -1.224
REMARK UNBOUND:                -1.489
REMARK SMILES CCCCCCCCCCCC(=O)[O-]
REMARK SMILES IDX 7 1 8 2 9 3 10 4 11 5 12 6 13 7 14 8 6 9 5 10 4 11 3 12 2 13
REMARK SMILES IDX 1 14
REMARK H PARENT
REMARK Flexibility Score: inf
ROOT
ATOM      1  C   UNL     1      51.067  26.016  32.938  1.00  0.00     0.000 C 
ENDROOT
BRANCH   1   2
ATOM      2  C   UNL     1      52.395  26.339  33.637  1.00  0.00     0.000 C 
BRANCH   2   3
ATOM      3  C   UNL     1      52.275  27.483  34.661  1.00  0.00     0.000 C 
BRANCH   3   4
ATOM      4  C   UNL     1      53.327  28.599  34.514  1.00  0.00     0.006 C 
BRANCH   4   5
ATOM      5  C   UNL     1      54.642  28.102  33.901  1.00  0.00     0.053 C 
BRANCH   5   6
ATOM      6  C   UNL     1      55.633  27.787  34.976  1.00  0.00     0.041 C 
ATOM      7  O   UNL     1      56.216  28.717  35.593  1.00  0.00    -0.550 OA
ATOM      8  O   UNL     1      55.876  26.467  35.333  1.00  0.00    -0.550 OA
ENDBRANCH   5   6
ENDBRANCH   4   5
ENDBRANCH   3   4
ENDBRANCH   2   3
ENDBRANCH   1   2
BRANCH   1   9
ATOM      9  C   UNL     1      49.905  26.784  33.587  1.00  0.00     0.000 C 
BRANCH   9  10
ATOM     10  C   UNL     1      48.956  25.868  34.375  1.00  0.00    -0.000 C 
BRANCH  10  11
ATOM     11  C   UNL     1      49.309  25.792  35.870  1.00  0.00    -0.000 C 
BRANCH  11  12
ATOM     12  C   UNL     1      50.238  24.602  36.189  1.00  0.00    -0.000 C 
BRANCH  12  13
ATOM     13  C   UNL     1      49.948  23.351  35.342  1.00  0.00    -0.003 C 
ATOM     14  C   UNL     1      51.207  22.729  34.743  1.00  0.00     0.004 C 
ENDBRANCH  12  13
ENDBRANCH  11  12
ENDBRANCH  10  11
ENDBRANCH   9  10
ENDBRANCH   1   9
TORSDOF 10
ENDMDL
MODEL 6
REMARK VINA RESULT:    -3.648      1.191      2.043
REMARK INTER + INTRA:          -7.270
REMARK INTER:                  -5.780
REMARK INTRA:                  -1.490
REMARK UNBOUND:                -1.489
REMARK SMILES CCCCCCCCCCCC(=O)[O-]
REMARK SMILES IDX 7 1 8 2 9 3 10 4 11 5 12 6 13 7 14 8 6 9 5 10 4 11 3 12 2 13
REMARK SMILES IDX 1 14
REMARK H PARENT
REMARK Flexibility Score: inf
ROOT
ATOM      1  C   UNL     1      51.666  24.274  36.263  1.00  0.00     0.000 C 
ENDROOT
BRANCH   1   2
ATOM      2  C   UNL     1      52.482  25.568  36.125  1.00  0.00     0.000 C 
BRANCH   2   3
ATOM      3  C   UNL     1      53.595  25.468  35.065  1.00  0.00     0.000 C 
BRANCH   3   4
ATOM      4  C   UNL     1      53.778  26.724  34.194  1.00  0.00     0.006 C 
BRANCH   4   5
ATOM      5  C   UNL     1      52.859  27.879  34.612  1.00  0.00     0.053 C 
BRANCH   5   6
ATOM      6  C   UNL     1      53.597  28.846  35.482  1.00  0.00     0.041 C 
ATOM      7  O   UNL     1      52.969  29.735  36.116  1.00  0.00    -0.550 OA
ATOM      8  O   UNL     1      54.973  28.735  35.634  1.00  0.00    -0.550 OA
ENDBRANCH   5   6
ENDBRANCH   4   5
ENDBRANCH   3   4
ENDBRANCH   2   3
ENDBRANCH   1   2
BRANCH   1   9
ATOM      9  C   UNL     1      50.160  24.568  36.210  1.00  0.00     0.000 C 
BRANCH   9  10
ATOM     10  C   UNL     1      49.852  26.016  35.797  1.00  0.00    -0.000 C 
BRANCH  10  11
ATOM     11  C   UNL     1      48.676  26.115  34.810  1.00  0.00    -0.000 C 
BRANCH  11  12
ATOM     12  C   UNL     1      48.978  25.411  33.471  1.00  0.00    -0.000 C 
BRANCH  12  13
ATOM     13  C   UNL     1      50.355  25.769  32.884  1.00  0.00    -0.003 C 
ATOM     14  C   UNL     1      51.159  24.544  32.456  1.00  0.00     0.004 C 
ENDBRANCH  12  13
ENDBRANCH  11  12
ENDBRANCH  10  11
ENDBRANCH   9  10
ENDBRANCH   1   9
TORSDOF 10
ENDMDL
MODEL 7
REMARK VINA RESULT:    -3.638      3.164      5.182
REMARK INTER + INTRA:          -7.254
REMARK INTER:                  -6.062
REMARK INTRA:                  -1.192
REMARK UNBOUND:                -1.489
REMARK SMILES CCCCCCCCCCCC(=O)[O-]
REMARK SMILES IDX 7 1 8 2 9 3 10 4 11 5 12 6 13 7 14 8 6 9 5 10 4 11 3 12 2 13
REMARK SMILES IDX 1 14
REMARK H PARENT
REMARK Flexibility Score: inf
ROOT
ATOM      1  C   UNL     1      52.495  23.945  35.387  1.00  0.00     0.000 C 
ENDROOT
BRANCH   1   2
ATOM      2  C   UNL     1      51.751  25.067  36.125  1.00  0.00     0.000 C 
BRANCH   2   3
ATOM      3  C   UNL     1      50.224  24.868  36.140  1.00  0.00     0.000 C 
BRANCH   3   4
ATOM      4  C   UNL     1      49.405  26.097  35.703  1.00  0.00     0.006 C 
BRANCH   4   5
ATOM      5  C   UNL     1      49.659  26.496  34.244  1.00  0.00     0.053 C 
BRANCH   5   6
ATOM      6  C   UNL     1      49.447  25.326  33.337  1.00  0.00     0.041 C 
ATOM      7  O   UNL     1      50.395  24.890  32.632  1.00  0.00    -0.550 OA
ATOM      8  O   UNL     1      48.216  24.683  33.308  1.00  0.00    -0.550 OA
ENDBRANCH   5   6
ENDBRANCH   4   5
ENDBRANCH   3   4
ENDBRANCH   2   3
ENDBRANCH   1   2
BRANCH   1   9
ATOM      9  C   UNL     1      53.637  24.515  34.533  1.00  0.00     0.000 C 
BRANCH   9  10
ATOM     10  C   UNL     1      53.311  25.901  33.955  1.00  0.00    -0.000 C 
BRANCH  10  11
ATOM     11  C   UNL     1      54.522  26.850  33.972  1.00  0.00    -0.000 C 
BRANCH  11  12
ATOM     12  C   UNL     1      54.102  28.326  34.141  1.00  0.00    -0.000 C 
BRANCH  12  13
ATOM     13  C   UNL     1      52.764  28.504  34.879  1.00  0.00    -0.003 C 
ATOM     14  C   UNL     1      52.759  29.701  35.826  1.00  0.00     0.004 C 
ENDBRANCH  12  13
ENDBRANCH  11  12
ENDBRANCH  10  11
ENDBRANCH   9  10
ENDBRANCH   1   9
TORSDOF 10
ENDMDL
MODEL 8
REMARK VINA RESULT:    -3.621      3.097      5.690
REMARK INTER + INTRA:          -7.226
REMARK INTER:                  -6.143
REMARK INTRA:                  -1.084
REMARK UNBOUND:                -1.489
REMARK SMILES CCCCCCCCCCCC(=O)[O-]
REMARK SMILES IDX 7 1 8 2 9 3 10 4 11 5 12 6 13 7 14 8 6 9 5 10 4 11 3 12 2 13
REMARK SMILES IDX 1 14
REMARK H PARENT
REMARK Flexibility Score: inf
ROOT
ATOM      1  C   UNL     1      49.012  26.251  34.469  1.00  0.00     0.000 C 
ENDROOT
BRANCH   1   2
ATOM      2  C   UNL     1      48.707  25.348  33.265  1.00  0.00     0.000 C 
BRANCH   2   3
ATOM      3  C   UNL     1      48.013  24.031  33.662  1.00  0.00     0.000 C 
BRANCH   3   4
ATOM      4  C   UNL     1      48.951  22.816  33.790  1.00  0.00     0.006 C 
BRANCH   4   5
ATOM      5  C   UNL     1      49.457  22.601  35.221  1.00  0.00     0.053 C 
BRANCH   5   6
ATOM      6  C   UNL     1      50.843  23.142  35.372  1.00  0.00     0.041 C 
ATOM      7  O   UNL     1      51.102  23.980  36.276  1.00  0.00    -0.550 OA
ATOM      8  O   UNL     1      51.862  22.683  34.547  1.00  0.00    -0.550 OA
ENDBRANCH   5   6
ENDBRANCH   4   5
ENDBRANCH   3   4
ENDBRANCH   2   3
ENDBRANCH   1   2
BRANCH   1   9
ATOM      9  C   UNL     1      50.383  26.926  34.314  1.00  0.00     0.000 C 
BRANCH   9  10
ATOM     10  C   UNL     1      51.300  26.187  33.327  1.00  0.00    -0.000 C 
BRANCH  10  11
ATOM     11  C   UNL     1      52.750  26.079  33.831  1.00  0.00    -0.000 C 
BRANCH  11  12
ATOM     12  C   UNL     1      53.141  27.263  34.740  1.00  0.00    -0.000 C 
BRANCH  12  13
ATOM     13  C   UNL     1      53.941  28.358  34.014  1.00  0.00    -0.003 C 
ATOM     14  C   UNL     1      55.428  28.034  33.896  1.00  0.00     0.004 C 
ENDBRANCH  12  13
ENDBRANCH  11  12
ENDBRANCH  10  11
ENDBRANCH   9  10
ENDBRANCH   1   9
TORSDOF 10
ENDMDL
MODEL 9
REMARK VINA RESULT:    -3.576      1.381      2.105
REMARK INTER + INTRA:          -7.155
REMARK INTER:                  -6.234
REMARK INTRA:                  -0.921
REMARK UNBOUND:                -1.489
REMARK SMILES CCCCCCCCCCCC(=O)[O-]
REMARK SMILES IDX 7 1 8 2 9 3 10 4 11 5 12 6 13 7 14 8 6 9 5 10 4 11 3 12 2 13
REMARK SMILES IDX 1 14
REMARK H PARENT
REMARK Flexibility Score: inf
ROOT
ATOM      1  C   UNL     1      54.066  26.988  34.186  1.00  0.00     0.000 C 
ENDROOT
BRANCH   1   2
ATOM      2  C   UNL     1      53.875  28.500  34.001  1.00  0.00     0.000 C 
BRANCH   2   3
ATOM      3  C   UNL     1      53.008  29.137  35.103  1.00  0.00     0.000 C 
BRANCH   3   4
ATOM      4  C   UNL     1      53.658  29.175  36.499  1.00  0.00     0.006 C 
BRANCH   4   5
ATOM      5  C   UNL     1      53.499  30.533  37.195  1.00  0.00     0.053 C 
BRANCH   5   6
ATOM      6  C   UNL     1      54.828  31.042  37.656  1.00  0.00     0.041 C 
ATOM      7  O   UNL     1      55.625  30.276  38.261  1.00  0.00    -0.550 OA
ATOM      8  O   UNL     1      55.208  32.348  37.376  1.00  0.00    -0.550 OA
ENDBRANCH   5   6
ENDBRANCH   4   5
ENDBRANCH   3   4
ENDBRANCH   2   3
ENDBRANCH   1   2
BRANCH   1   9
ATOM      9  C   UNL     1      52.730  26.244  34.034  1.00  0.00     0.000 C 
BRANCH   9  10
ATOM     10  C   UNL     1      52.434  25.311  35.218  1.00  0.00    -0.000 C 
BRANCH  10  11
ATOM     11  C   UNL     1      51.049  25.561  35.839  1.00  0.00    -0.000 C 
BRANCH  11  12
ATOM     12  C   UNL     1      50.274  26.676  35.105  1.00  0.00    -0.000 C 
BRANCH  12  13
ATOM     13  C   UNL     1      48.998  26.179  34.404  1.00  0.00    -0.003 C 
ATOM     14  C   UNL     1      49.187  25.957  32.905  1.00  0.00     0.004 C 
ENDBRANCH  12  13
ENDBRANCH  11  12
ENDBRANCH  10  11
ENDBRANCH   9  10
ENDBRANCH   1   9
TORSDOF 10
ENDMDL
