MODEL 1
REMARK VINA RESULT:    -3.133      0.000      0.000
REMARK INTER + INTRA:          -6.766
REMARK INTER:                  -5.698
REMARK INTRA:                  -1.068
REMARK UNBOUND:                -1.068
REMARK SMILES CCCCCCCCCCCCCCCC(=O)[O-]
REMARK SMILES IDX 9 1 10 2 11 3 12 4 13 5 14 6 15 7 16 8 17 9 18 10 8 11 7 12
REMARK SMILES IDX 6 13 5 14 4 15 3 16 2 17 1 18
REMARK H PARENT
REMARK Flexibility Score: inf
ROOT
ATOM      1  C   UNL     1       3.090  12.851  15.840  1.00  0.00     0.000 C 
ENDROOT
BRANCH   1   2
ATOM      2  C   UNL     1       2.383  14.173  16.196  1.00  0.00     0.000 C 
BRANCH   2   3
ATOM      3  C   UNL     1       1.945  14.265  17.674  1.00  0.00     0.000 C 
BRANCH   3   4
ATOM      4  C   UNL     1       1.004  15.454  17.929  1.00  0.00     0.000 C 
BRANCH   4   5
ATOM      5  C   UNL     1      -0.310  15.037  18.610  1.00  0.00     0.000 C 
BRANCH   5   6
ATOM      6  C   UNL     1      -1.382  16.140  18.554  1.00  0.00     0.006 C 
BRANCH   6   7
ATOM      7  C   UNL     1      -0.968  17.388  19.343  1.00  0.00     0.053 C 
BRANCH   7   8
ATOM      8  C   UNL     1      -0.628  18.533  18.439  1.00  0.00     0.041 C 
ATOM      9  O   UNL     1      -1.536  19.125  17.797  1.00  0.00    -0.550 OA
ATOM     10  O   UNL     1       0.687  18.967  18.328  1.00  0.00    -0.550 OA
ENDBRANCH   7   8
ENDBRANCH   6   7
ENDBRANCH   5   6
ENDBRANCH   4   5
ENDBRANCH   3   4
ENDBRANCH   2   3
ENDBRANCH   1   2
BRANCH   1  11
ATOM     11  C   UNL     1       4.047  12.935  14.639  1.00  0.00     0.000 C 
BRANCH  11  12
ATOM     12  C   UNL     1       5.511  12.570  14.953  1.00  0.00    -0.000 C 
BRANCH  12  13
ATOM     13  C   UNL     1       5.658  11.500  16.055  1.00  0.00    -0.000 C 
BRANCH  13  14
ATOM     14  C   UNL     1       6.483  12.005  17.252  1.00  0.00    -0.000 C 
BRANCH  14  15
ATOM     15  C   UNL     1       6.208  11.216  18.545  1.00  0.00    -0.000 C 
BRANCH  15  16
ATOM     16  C   UNL     1       4.925  11.624  19.293  1.00  0.00    -0.000 C 
BRANCH  16  17
ATOM     17  C   UNL     1       3.924  10.469  19.436  1.00  0.00    -0.003 C 
ATOM     18  C   UNL     1       2.846  10.538  18.357  1.00  0.00     0.004 C 
ENDBRANCH  16  17
ENDBRANCH  15  16
ENDBRANCH  14  15
ENDBRANCH  13  14
ENDBRANCH  12  13
ENDBRANCH  11  12
ENDBRANCH   1  11
TORSDOF 14
ENDMDL
MODEL 2
REMARK VINA RESULT:    -3.058      3.143      7.479
REMARK INTER + INTRA:          -6.629
REMARK INTER:                  -5.551
REMARK INTRA:                  -1.079
REMARK UNBOUND:                -1.068
REMARK SMILES CCCCCCCCCCCCCCCC(=O)[O-]
REMARK SMILES IDX 9 1 10 2 11 3 12 4 13 5 14 6 15 7 16 8 17 9 18 10 8 11 7 12
REMARK SMILES IDX 6 13 5 14 4 15 3 16 2 17 1 18
REMARK H PARENT
REMARK Flexibility Score: inf
ROOT
ATOM      1  C   UNL     1       2.809  12.849  15.776  1.00  0.00     0.000 C 
ENDROOT
BRANCH   1   2
ATOM      2  C   UNL     1       3.612  12.800  14.462  1.00  0.00     0.000 C 
BRANCH   2   3
ATOM      3  C   UNL     1       5.130  12.606  14.670  1.00  0.00     0.000 C 
BRANCH   3   4
ATOM      4  C   UNL     1       5.540  12.761  16.144  1.00  0.00     0.000 C 
BRANCH   4   5
ATOM      5  C   UNL     1       6.438  11.613  16.635  1.00  0.00     0.000 C 
BRANCH   5   6
ATOM      6  C   UNL     1       6.203  11.270  18.116  1.00  0.00     0.006 C 
BRANCH   6   7
ATOM      7  C   UNL     1       4.893  11.867  18.647  1.00  0.00     0.053 C 
BRANCH   7   8
ATOM      8  C   UNL     1       3.953  10.807  19.134  1.00  0.00     0.041 C 
ATOM      9  O   UNL     1       2.938  10.500  18.455  1.00  0.00    -0.550 OA
ATOM     10  O   UNL     1       4.213  10.137  20.322  1.00  0.00    -0.550 OA
ENDBRANCH   7   8
ENDBRANCH   6   7
ENDBRANCH   5   6
ENDBRANCH   4   5
ENDBRANCH   3   4
ENDBRANCH   2   3
ENDBRANCH   1   2
BRANCH   1  11
ATOM     11  C   UNL     1       2.329  14.252  16.188  1.00  0.00     0.000 C 
BRANCH  11  12
ATOM     12  C   UNL     1       1.826  14.361  17.640  1.00  0.00    -0.000 C 
BRANCH  12  13
ATOM     13  C   UNL     1       1.034  15.655  17.925  1.00  0.00    -0.000 C 
BRANCH  13  14
ATOM     14  C   UNL     1      -0.366  15.369  18.495  1.00  0.00    -0.000 C 
BRANCH  14  15
ATOM     15  C   UNL     1      -1.336  16.552  18.324  1.00  0.00    -0.000 C 
BRANCH  15  16
ATOM     16  C   UNL     1      -1.644  17.330  19.616  1.00  0.00    -0.000 C 
BRANCH  16  17
ATOM     17  C   UNL     1      -0.942  18.695  19.674  1.00  0.00    -0.003 C 
ATOM     18  C   UNL     1      -0.379  19.082  18.309  1.00  0.00     0.004 C 
ENDBRANCH  16  17
ENDBRANCH  15  16
ENDBRANCH  14  15
ENDBRANCH  13  14
ENDBRANCH  12  13
ENDBRANCH  11  12
ENDBRANCH   1  11
TORSDOF 14
ENDMDL
MODEL 3
REMARK VINA RESULT:    -3.023      1.497      1.899
REMARK INTER + INTRA:          -6.566
REMARK INTER:                  -5.286
REMARK INTRA:                  -1.280
REMARK UNBOUND:                -1.068
REMARK SMILES CCCCCCCCCCCCCCCC(=O)[O-]
REMARK SMILES IDX 9 1 10 2 11 3 12 4 13 5 14 6 15 7 16 8 17 9 18 10 8 11 7 12
REMARK SMILES IDX 6 13 5 14 4 15 3 16 2 17 1 18
REMARK H PARENT
REMARK Flexibility Score: inf
ROOT
ATOM      1  C   UNL     1       3.375  12.475  14.722  1.00  0.00     0.000 C 
ENDROOT
BRANCH   1   2
ATOM      2  C   UNL     1       2.493  13.623  15.248  1.00  0.00     0.000 C 
BRANCH   2   3
ATOM      3  C   UNL     1       2.613  13.851  16.770  1.00  0.00     0.000 C 
BRANCH   3   4
ATOM      4  C   UNL     1       1.368  14.539  17.355  1.00  0.00     0.000 C 
BRANCH   4   5
ATOM      5  C   UNL     1       1.650  15.974  17.830  1.00  0.00     0.000 C 
BRANCH   5   6
ATOM      6  C   UNL     1       0.407  16.654  18.430  1.00  0.00     0.006 C 
BRANCH   6   7
ATOM      7  C   UNL     1      -0.824  15.738  18.401  1.00  0.00     0.053 C 
BRANCH   7   8
ATOM      8  C   UNL     1      -1.733  15.988  19.565  1.00  0.00     0.041 C 
ATOM      9  O   UNL     1      -2.124  15.028  20.280  1.00  0.00    -0.550 OA
ATOM     10  O   UNL     1      -2.124  17.283  19.879  1.00  0.00    -0.550 OA
ENDBRANCH   7   8
ENDBRANCH   6   7
ENDBRANCH   5   6
ENDBRANCH   4   5
ENDBRANCH   3   4
ENDBRANCH   2   3
ENDBRANCH   1   2
BRANCH   1  11
ATOM     11  C   UNL     1       4.785  12.899  14.272  1.00  0.00     0.000 C 
BRANCH  11  12
ATOM     12  C   UNL     1       5.877  12.755  15.349  1.00  0.00    -0.000 C 
BRANCH  12  13
ATOM     13  C   UNL     1       5.569  11.670  16.402  1.00  0.00    -0.000 C 
BRANCH  13  14
ATOM     14  C   UNL     1       6.719  11.490  17.408  1.00  0.00    -0.000 C 
BRANCH  14  15
ATOM     15  C   UNL     1       6.228  11.129  18.822  1.00  0.00    -0.000 C 
BRANCH  15  16
ATOM     16  C   UNL     1       4.808  11.619  19.159  1.00  0.00    -0.000 C 
BRANCH  16  17
ATOM     17  C   UNL     1       3.816  10.468  19.382  1.00  0.00    -0.003 C 
ATOM     18  C   UNL     1       2.672  10.524  18.374  1.00  0.00     0.004 C 
ENDBRANCH  16  17
ENDBRANCH  15  16
ENDBRANCH  14  15
ENDBRANCH  13  14
ENDBRANCH  12  13
ENDBRANCH  11  12
ENDBRANCH   1  11
TORSDOF 14
ENDMDL
MODEL 4
REMARK VINA RESULT:    -2.788      1.021      3.236
REMARK INTER + INTRA:          -6.138
REMARK INTER:                  -4.828
REMARK INTRA:                  -1.311
REMARK UNBOUND:                -1.068
REMARK SMILES CCCCCCCCCCCCCCCC(=O)[O-]
REMARK SMILES IDX 9 1 10 2 11 3 12 4 13 5 14 6 15 7 16 8 17 9 18 10 8 11 7 12
REMARK SMILES IDX 6 13 5 14 4 15 3 16 2 17 1 18
REMARK H PARENT
REMARK Flexibility Score: inf
ROOT
ATOM      1  C   UNL     1       3.864  10.649  18.993  1.00  0.00     0.000 C 
ENDROOT
BRANCH   1   2
ATOM      2  C   UNL     1       3.015  11.544  18.072  1.00  0.00     0.000 C 
BRANCH   2   3
ATOM      3  C   UNL     1       2.620  12.893  18.711  1.00  0.00     0.000 C 
BRANCH   3   4
ATOM      4  C   UNL     1       2.479  14.013  17.665  1.00  0.00     0.000 C 
BRANCH   4   5
ATOM      5  C   UNL     1       1.086  14.664  17.676  1.00  0.00     0.000 C 
BRANCH   5   6
ATOM      6  C   UNL     1       1.130  16.147  18.084  1.00  0.00     0.006 C 
BRANCH   6   7
ATOM      7  C   UNL     1      -0.214  16.634  18.640  1.00  0.00     0.053 C 
BRANCH   7   8
ATOM      8  C   UNL     1      -0.215  18.112  18.885  1.00  0.00     0.041 C 
ATOM      9  O   UNL     1      -1.109  18.635  19.602  1.00  0.00    -0.550 OA
ATOM     10  O   UNL     1       0.788  18.908  18.348  1.00  0.00    -0.550 OA
ENDBRANCH   7   8
ENDBRANCH   6   7
ENDBRANCH   5   6
ENDBRANCH   4   5
ENDBRANCH   3   4
ENDBRANCH   2   3
ENDBRANCH   1   2
BRANCH   1  11
ATOM     11  C   UNL     1       5.150  11.306  19.526  1.00  0.00     0.000 C 
BRANCH  11  12
ATOM     12  C   UNL     1       6.430  10.947  18.746  1.00  0.00    -0.000 C 
BRANCH  12  13
ATOM     13  C   UNL     1       6.781  11.956  17.634  1.00  0.00    -0.000 C 
BRANCH  13  14
ATOM     14  C   UNL     1       6.075  11.631  16.306  1.00  0.00    -0.000 C 
BRANCH  14  15
ATOM     15  C   UNL     1       5.502  12.879  15.610  1.00  0.00    -0.000 C 
BRANCH  15  16
ATOM     16  C   UNL     1       4.545  12.587  14.440  1.00  0.00    -0.000 C 
BRANCH  16  17
ATOM     17  C   UNL     1       3.168  13.243  14.616  1.00  0.00    -0.003 C 
ATOM     18  C   UNL     1       2.046  12.270  14.265  1.00  0.00     0.004 C 
ENDBRANCH  16  17
ENDBRANCH  15  16
ENDBRANCH  14  15
ENDBRANCH  13  14
ENDBRANCH  12  13
ENDBRANCH  11  12
ENDBRANCH   1  11
TORSDOF 14
ENDMDL
MODEL 5
REMARK VINA RESULT:    -2.748      2.823      7.000
REMARK INTER + INTRA:          -6.065
REMARK INTER:                  -5.874
REMARK INTRA:                  -0.191
REMARK UNBOUND:                -1.068
REMARK SMILES CCCCCCCCCCCCCCCC(=O)[O-]
REMARK SMILES IDX 9 1 10 2 11 3 12 4 13 5 14 6 15 7 16 8 17 9 18 10 8 11 7 12
REMARK SMILES IDX 6 13 5 14 4 15 3 16 2 17 1 18
REMARK H PARENT
REMARK Flexibility Score: inf
ROOT
ATOM      1  C   UNL     1       3.598  12.791  14.569  1.00  0.00     0.000 C 
ENDROOT
BRANCH   1   2
ATOM      2  C   UNL     1       4.895  12.944  15.386  1.00  0.00     0.000 C 
BRANCH   2   3
ATOM      3  C   UNL     1       5.160  11.771  16.354  1.00  0.00     0.000 C 
BRANCH   3   4
ATOM      4  C   UNL     1       6.561  11.844  16.986  1.00  0.00     0.000 C 
BRANCH   4   5
ATOM      5  C   UNL     1       6.622  11.181  18.373  1.00  0.00     0.000 C 
BRANCH   5   6
ATOM      6  C   UNL     1       5.477  11.634  19.295  1.00  0.00     0.006 C 
BRANCH   6   7
ATOM      7  C   UNL     1       4.387  10.563  19.433  1.00  0.00     0.053 C 
BRANCH   7   8
ATOM      8  C   UNL     1       3.100  10.991  18.799  1.00  0.00     0.041 C 
ATOM      9  O   UNL     1       2.739  12.196  18.848  1.00  0.00    -0.550 OA
ATOM     10  O   UNL     1       2.312  10.065  18.127  1.00  0.00    -0.550 OA
ENDBRANCH   7   8
ENDBRANCH   6   7
ENDBRANCH   5   6
ENDBRANCH   4   5
ENDBRANCH   3   4
ENDBRANCH   2   3
ENDBRANCH   1   2
BRANCH   1  11
ATOM     11  C   UNL     1       2.369  13.494  15.172  1.00  0.00     0.000 C 
BRANCH  11  12
ATOM     12  C   UNL     1       2.637  14.242  16.492  1.00  0.00    -0.000 C 
BRANCH  12  13
ATOM     13  C   UNL     1       1.353  14.622  17.260  1.00  0.00    -0.000 C 
BRANCH  13  14
ATOM     14  C   UNL     1       1.486  15.973  17.984  1.00  0.00    -0.000 C 
BRANCH  14  15
ATOM     15  C   UNL     1       0.127  16.566  18.400  1.00  0.00    -0.000 C 
BRANCH  15  16
ATOM     16  C   UNL     1       0.144  18.076  18.701  1.00  0.00    -0.000 C 
BRANCH  16  17
ATOM     17  C   UNL     1      -1.079  18.539  19.506  1.00  0.00    -0.003 C 
ATOM     18  C   UNL     1      -2.125  17.432  19.603  1.00  0.00     0.004 C 
ENDBRANCH  16  17
ENDBRANCH  15  16
ENDBRANCH  14  15
ENDBRANCH  13  14
ENDBRANCH  12  13
ENDBRANCH  11  12
ENDBRANCH   1  11
TORSDOF 14
ENDMDL
MODEL 6
REMARK VINA RESULT:    -2.691      0.945      2.942
REMARK INTER + INTRA:          -5.961
REMARK INTER:                  -5.032
REMARK INTRA:                  -0.929
REMARK UNBOUND:                -1.068
REMARK SMILES CCCCCCCCCCCCCCCC(=O)[O-]
REMARK SMILES IDX 9 1 10 2 11 3 12 4 13 5 14 6 15 7 16 8 17 9 18 10 8 11 7 12
REMARK SMILES IDX 6 13 5 14 4 15 3 16 2 17 1 18
REMARK H PARENT
REMARK Flexibility Score: inf
ROOT
ATOM      1  C   UNL     1       3.064  11.489  18.100  1.00  0.00     0.000 C 
ENDROOT
BRANCH   1   2
ATOM      2  C   UNL     1       2.464  12.771  18.708  1.00  0.00     0.000 C 
BRANCH   2   3
ATOM      3  C   UNL     1       2.612  14.014  17.804  1.00  0.00     0.000 C 
BRANCH   3   4
ATOM      4  C   UNL     1       1.250  14.589  17.378  1.00  0.00     0.000 C 
BRANCH   4   5
ATOM      5  C   UNL     1       0.906  15.901  18.104  1.00  0.00     0.000 C 
BRANCH   5   6
ATOM      6  C   UNL     1      -0.528  15.910  18.661  1.00  0.00     0.006 C 
BRANCH   6   7
ATOM      7  C   UNL     1      -1.276  17.203  18.311  1.00  0.00     0.053 C 
BRANCH   7   8
ATOM      8  C   UNL     1      -0.599  18.411  18.883  1.00  0.00     0.041 C 
ATOM      9  O   UNL     1      -0.987  18.895  19.979  1.00  0.00    -0.550 OA
ATOM     10  O   UNL     1       0.480  18.984  18.223  1.00  0.00    -0.550 OA
ENDBRANCH   7   8
ENDBRANCH   6   7
ENDBRANCH   5   6
ENDBRANCH   4   5
ENDBRANCH   3   4
ENDBRANCH   2   3
ENDBRANCH   1   2
BRANCH   1  11
ATOM     11  C   UNL     1       3.929  10.660  19.067  1.00  0.00     0.000 C 
BRANCH  11  12
ATOM     12  C   UNL     1       5.255  11.327  19.479  1.00  0.00    -0.000 C 
BRANCH  12  13
ATOM     13  C   UNL     1       6.437  10.979  18.550  1.00  0.00    -0.000 C 
BRANCH  13  14
ATOM     14  C   UNL     1       6.622  12.015  17.428  1.00  0.00    -0.000 C 
BRANCH  14  15
ATOM     15  C   UNL     1       5.763  11.715  16.187  1.00  0.00    -0.000 C 
BRANCH  15  16
ATOM     16  C   UNL     1       5.334  12.954  15.380  1.00  0.00    -0.000 C 
BRANCH  16  17
ATOM     17  C   UNL     1       4.412  12.610  14.201  1.00  0.00    -0.003 C 
ATOM     18  C   UNL     1       2.945  12.810  14.573  1.00  0.00     0.004 C 
ENDBRANCH  16  17
ENDBRANCH  15  16
ENDBRANCH  14  15
ENDBRANCH  13  14
ENDBRANCH  12  13
ENDBRANCH  11  12
ENDBRANCH   1  11
TORSDOF 14
ENDMDL
MODEL 7
REMARK VINA RESULT:    -2.514      3.532      8.023
REMARK INTER + INTRA:          -5.640
REMARK INTER:                  -4.909
REMARK INTRA:                  -0.730
REMARK UNBOUND:                -1.068
REMARK SMILES CCCCCCCCCCCCCCCC(=O)[O-]
REMARK SMILES IDX 9 1 10 2 11 3 12 4 13 5 14 6 15 7 16 8 17 9 18 10 8 11 7 12
REMARK SMILES IDX 6 13 5 14 4 15 3 16 2 17 1 18
REMARK H PARENT
REMARK Flexibility Score: inf
ROOT
ATOM      1  C   UNL     1       2.131  14.566  16.500  1.00  0.00     0.000 C 
ENDROOT
BRANCH   1   2
ATOM      2  C   UNL     1       2.530  13.148  16.048  1.00  0.00     0.000 C 
BRANCH   2   3
ATOM      3  C   UNL     1       3.208  13.107  14.662  1.00  0.00     0.000 C 
BRANCH   3   4
ATOM      4  C   UNL     1       4.688  12.696  14.749  1.00  0.00     0.000 C 
BRANCH   4   5
ATOM      5  C   UNL     1       5.299  12.964  16.135  1.00  0.00     0.000 C 
BRANCH   5   6
ATOM      6  C   UNL     1       5.758  11.675  16.838  1.00  0.00     0.006 C 
BRANCH   6   7
ATOM      7  C   UNL     1       4.814  11.270  17.977  1.00  0.00     0.053 C 
BRANCH   7   8
ATOM      8  C   UNL     1       5.558  10.988  19.246  1.00  0.00     0.041 C 
ATOM      9  O   UNL     1       4.929  10.725  20.305  1.00  0.00    -0.550 OA
ATOM     10  O   UNL     1       6.947  10.984  19.253  1.00  0.00    -0.550 OA
ENDBRANCH   7   8
ENDBRANCH   6   7
ENDBRANCH   5   6
ENDBRANCH   4   5
ENDBRANCH   3   4
ENDBRANCH   2   3
ENDBRANCH   1   2
BRANCH   1  11
ATOM     11  C   UNL     1       1.401  14.630  17.853  1.00  0.00     0.000 C 
BRANCH  11  12
ATOM     12  C   UNL     1       0.387  15.783  17.986  1.00  0.00    -0.000 C 
BRANCH  12  13
ATOM     13  C   UNL     1      -0.912  15.384  18.716  1.00  0.00    -0.000 C 
BRANCH  13  14
ATOM     14  C   UNL     1      -1.952  16.518  18.716  1.00  0.00    -0.000 C 
BRANCH  14  15
ATOM     15  C   UNL     1      -1.786  17.484  19.904  1.00  0.00    -0.000 C 
BRANCH  15  16
ATOM     16  C   UNL     1      -1.561  18.956  19.516  1.00  0.00    -0.000 C 
BRANCH  16  17
ATOM     17  C   UNL     1      -0.833  19.116  18.173  1.00  0.00    -0.003 C 
ATOM     18  C   UNL     1       0.681  19.125  18.365  1.00  0.00     0.004 C 
ENDBRANCH  16  17
ENDBRANCH  15  16
ENDBRANCH  14  15
ENDBRANCH  13  14
ENDBRANCH  12  13
ENDBRANCH  11  12
ENDBRANCH   1  11
TORSDOF 14
ENDMDL
MODEL 8
REMARK VINA RESULT:    -2.452      2.975      7.616
REMARK INTER + INTRA:          -5.527
REMARK INTER:                  -4.894
REMARK INTRA:                  -0.633
REMARK UNBOUND:                -1.068
REMARK SMILES CCCCCCCCCCCCCCCC(=O)[O-]
REMARK SMILES IDX 9 1 10 2 11 3 12 4 13 5 14 6 15 7 16 8 17 9 18 10 8 11 7 12
REMARK SMILES IDX 6 13 5 14 4 15 3 16 2 17 1 18
REMARK H PARENT
REMARK Flexibility Score: inf
ROOT
ATOM      1  C   UNL     1       2.894  12.369  17.808  1.00  0.00     0.000 C 
ENDROOT
BRANCH   1   2
ATOM      2  C   UNL     1       2.833  11.151  18.749  1.00  0.00     0.000 C 
BRANCH   2   3
ATOM      3  C   UNL     1       4.221  10.600  19.141  1.00  0.00     0.000 C 
BRANCH   3   4
ATOM      4  C   UNL     1       5.324  11.667  19.030  1.00  0.00     0.000 C 
BRANCH   4   5
ATOM      5  C   UNL     1       6.431  11.276  18.036  1.00  0.00     0.000 C 
BRANCH   5   6
ATOM      6  C   UNL     1       5.955  11.321  16.574  1.00  0.00     0.006 C 
BRANCH   6   7
ATOM      7  C   UNL     1       5.687  12.754  16.097  1.00  0.00     0.053 C 
BRANCH   7   8
ATOM      8  C   UNL     1       5.043  12.781  14.744  1.00  0.00     0.041 C 
ATOM      9  O   UNL     1       5.754  12.789  13.704  1.00  0.00    -0.550 OA
ATOM     10  O   UNL     1       3.659  12.765  14.630  1.00  0.00    -0.550 OA
ENDBRANCH   7   8
ENDBRANCH   6   7
ENDBRANCH   5   6
ENDBRANCH   4   5
ENDBRANCH   3   4
ENDBRANCH   2   3
ENDBRANCH   1   2
BRANCH   1  11
ATOM     11  C   UNL     1       2.331  13.673  18.402  1.00  0.00     0.000 C 
BRANCH  11  12
ATOM     12  C   UNL     1       1.675  14.618  17.378  1.00  0.00    -0.000 C 
BRANCH  12  13
ATOM     13  C   UNL     1       0.945  15.817  18.020  1.00  0.00    -0.000 C 
BRANCH  13  14
ATOM     14  C   UNL     1      -0.512  15.485  18.385  1.00  0.00    -0.000 C 
BRANCH  14  15
ATOM     15  C   UNL     1      -1.170  16.564  19.264  1.00  0.00    -0.000 C 
BRANCH  15  16
ATOM     16  C   UNL     1      -1.968  17.631  18.491  1.00  0.00    -0.000 C 
BRANCH  16  17
ATOM     17  C   UNL     1      -1.447  19.056  18.729  1.00  0.00    -0.003 C 
ATOM     18  C   UNL     1       0.067  19.125  18.549  1.00  0.00     0.004 C 
ENDBRANCH  16  17
ENDBRANCH  15  16
ENDBRANCH  14  15
ENDBRANCH  13  14
ENDBRANCH  12  13
ENDBRANCH  11  12
ENDBRANCH   1  11
TORSDOF 14
ENDMDL
MODEL 9
REMARK VINA RESULT:    -2.162      3.305      7.571
REMARK INTER + INTRA:          -5.000
REMARK INTER:                  -4.424
REMARK INTRA:                  -0.576
REMARK UNBOUND:                -1.068
REMARK SMILES CCCCCCCCCCCCCCCC(=O)[O-]
REMARK SMILES IDX 9 1 10 2 11 3 12 4 13 5 14 6 15 7 16 8 17 9 18 10 8 11 7 12
REMARK SMILES IDX 6 13 5 14 4 15 3 16 2 17 1 18
REMARK H PARENT
REMARK Flexibility Score: inf
ROOT
ATOM      1  C   UNL     1       2.282  14.585  16.530  1.00  0.00     0.000 C 
ENDROOT
BRANCH   1   2
ATOM      2  C   UNL     1       2.818  13.178  16.204  1.00  0.00     0.000 C 
BRANCH   2   3
ATOM      3  C   UNL     1       3.232  12.999  14.728  1.00  0.00     0.000 C 
BRANCH   3   4
ATOM      4  C   UNL     1       4.740  12.737  14.573  1.00  0.00     0.000 C 
BRANCH   4   5
ATOM      5  C   UNL     1       5.505  12.870  15.901  1.00  0.00     0.000 C 
BRANCH   5   6
ATOM      6  C   UNL     1       5.902  11.507  16.493  1.00  0.00     0.006 C 
BRANCH   6   7
ATOM      7  C   UNL     1       6.253  11.604  17.984  1.00  0.00     0.053 C 
BRANCH   7   8
ATOM      8  C   UNL     1       5.151  11.078  18.852  1.00  0.00     0.041 C 
ATOM      9  O   UNL     1       5.358  10.860  20.075  1.00  0.00    -0.550 OA
ATOM     10  O   UNL     1       3.888  10.856  18.318  1.00  0.00    -0.550 OA
ENDBRANCH   7   8
ENDBRANCH   6   7
ENDBRANCH   5   6
ENDBRANCH   4   5
ENDBRANCH   3   4
ENDBRANCH   2   3
ENDBRANCH   1   2
BRANCH   1  11
ATOM     11  C   UNL     1       1.633  14.722  17.919  1.00  0.00     0.000 C 
BRANCH  11  12
ATOM     12  C   UNL     1       0.388  15.629  17.963  1.00  0.00    -0.000 C 
BRANCH  12  13
ATOM     13  C   UNL     1       0.665  17.034  18.537  1.00  0.00    -0.000 C 
BRANCH  13  14
ATOM     14  C   UNL     1      -0.630  17.818  18.812  1.00  0.00    -0.000 C 
BRANCH  14  15
ATOM     15  C   UNL     1      -1.878  16.917  18.853  1.00  0.00    -0.000 C 
BRANCH  15  16
ATOM     16  C   UNL     1      -2.125  16.211  20.199  1.00  0.00    -0.000 C 
BRANCH  16  17
ATOM     17  C   UNL     1      -2.111  14.680  20.082  1.00  0.00    -0.003 C 
ATOM     18  C   UNL     1      -2.125  14.023  21.459  1.00  0.00     0.004 C 
ENDBRANCH  16  17
ENDBRANCH  15  16
ENDBRANCH  14  15
ENDBRANCH  13  14
ENDBRANCH  12  13
ENDBRANCH  11  12
ENDBRANCH   1  11
TORSDOF 14
ENDMDL
