MODEL 1
REMARK VINA RESULT:    -4.256      0.000      0.000
REMARK INTER + INTRA:         -12.960
REMARK INTER:                  -9.730
REMARK INTRA:                  -3.230
REMARK UNBOUND:                -3.230
REMARK SMILES CCCCCCCCCCCCCCCCCCCCCCCC(=O)[O-]
REMARK SMILES IDX 13 1 14 2 15 3 16 4 17 5 18 6 19 7 20 8 21 9 22 10 23 11
REMARK SMILES IDX 24 12 25 13 26 14 12 15 11 16 10 17 9 18 8 19 7 20 6 21 5 22
REMARK SMILES IDX 4 23 3 24 2 25 1 26
REMARK H PARENT
REMARK Flexibility Score: inf
ROOT
ATOM      1  C   UNL     1      -9.694   5.896  -5.891  1.00  0.00     0.000 C 
ENDROOT
BRANCH   1   2
ATOM      2  C   UNL     1      -8.844   6.018  -7.164  1.00  0.00     0.000 C 
BRANCH   2   3
ATOM      3  C   UNL     1      -7.372   5.641  -6.934  1.00  0.00     0.000 C 
BRANCH   3   4
ATOM      4  C   UNL     1      -6.403   6.774  -7.319  1.00  0.00     0.000 C 
BRANCH   4   5
ATOM      5  C   UNL     1      -5.987   7.630  -6.112  1.00  0.00     0.000 C 
BRANCH   5   6
ATOM      6  C   UNL     1      -4.932   6.939  -5.231  1.00  0.00     0.000 C 
BRANCH   6   7
ATOM      7  C   UNL     1      -5.254   7.045  -3.725  1.00  0.00     0.000 C 
BRANCH   7   8
ATOM      8  C   UNL     1      -5.199   5.697  -2.980  1.00  0.00     0.000 C 
BRANCH   8   9
ATOM      9  C   UNL     1      -5.924   4.532  -3.682  1.00  0.00     0.000 C 
BRANCH   9  10
ATOM     10  C   UNL     1      -6.208   3.306  -2.788  1.00  0.00     0.006 C 
BRANCH  10  11
ATOM     11  C   UNL     1      -6.880   3.637  -1.447  1.00  0.00     0.053 C 
BRANCH  11  12
ATOM     12  C   UNL     1      -7.653   2.475  -0.905  1.00  0.00     0.041 C 
ATOM     13  O   UNL     1      -8.852   2.621  -0.550  1.00  0.00    -0.550 OA
ATOM     14  O   UNL     1      -7.037   1.239  -0.756  1.00  0.00    -0.550 OA
ENDBRANCH  11  12
ENDBRANCH  10  11
ENDBRANCH   9  10
ENDBRANCH   8   9
ENDBRANCH   7   8
ENDBRANCH   6   7
ENDBRANCH   5   6
ENDBRANCH   4   5
ENDBRANCH   3   4
ENDBRANCH   2   3
ENDBRANCH   1   2
BRANCH   1  15
ATOM     15  C   UNL     1      -8.806   5.874  -4.640  1.00  0.00     0.000 C 
BRANCH  15  16
ATOM     16  C   UNL     1      -9.126   7.058  -3.715  1.00  0.00     0.000 C 
BRANCH  16  17
ATOM     17  C   UNL     1      -8.656   6.823  -2.271  1.00  0.00     0.000 C 
BRANCH  17  18
ATOM     18  C   UNL     1      -9.734   6.154  -1.399  1.00  0.00    -0.000 C 
BRANCH  18  19
ATOM     19  C   UNL     1     -10.264   7.080  -0.292  1.00  0.00    -0.000 C 
BRANCH  19  20
ATOM     20  C   UNL     1     -11.549   7.818  -0.704  1.00  0.00    -0.000 C 
BRANCH  20  21
ATOM     21  C   UNL     1     -11.369   9.346  -0.769  1.00  0.00    -0.000 C 
BRANCH  21  22
ATOM     22  C   UNL     1     -10.849   9.895  -2.112  1.00  0.00    -0.000 C 
BRANCH  22  23
ATOM     23  C   UNL     1     -11.914   9.871  -3.222  1.00  0.00    -0.000 C 
BRANCH  23  24
ATOM     24  C   UNL     1     -13.264  10.457  -2.772  1.00  0.00    -0.000 C 
BRANCH  24  25
ATOM     25  C   UNL     1     -13.672  11.770  -3.464  1.00  0.00    -0.003 C 
ATOM     26  C   UNL     1     -12.571  12.829  -3.439  1.00  0.00     0.004 C 
ENDBRANCH  24  25
ENDBRANCH  23  24
ENDBRANCH  22  23
ENDBRANCH  21  22
ENDBRANCH  20  21
ENDBRANCH  19  20
ENDBRANCH  18  19
ENDBRANCH  17  18
ENDBRANCH  16  17
ENDBRANCH  15  16
ENDBRANCH   1  15
TORSDOF 22
ENDMDL
MODEL 2
REMARK VINA RESULT:    -4.136      5.479      9.688
REMARK INTER + INTRA:         -12.685
REMARK INTER:                 -10.499
REMARK INTRA:                  -2.186
REMARK UNBOUND:                -3.230
REMARK SMILES CCCCCCCCCCCCCCCCCCCCCCCC(=O)[O-]
REMARK SMILES IDX 13 1 14 2 15 3 16 4 17 5 18 6 19 7 20 8 21 9 22 10 23 11
REMARK SMILES IDX 24 12 25 13 26 14 12 15 11 16 10 17 9 18 8 19 7 20 6 21 5 22
REMARK SMILES IDX 4 23 3 24 2 25 1 26
REMARK H PARENT
REMARK Flexibility Score: inf
ROOT
ATOM      1  C   UNL     1      -9.098   5.617  -8.202  1.00  0.00     0.000 C 
ENDROOT
BRANCH   1   2
ATOM      2  C   UNL     1      -7.772   5.519  -7.433  1.00  0.00     0.000 C 
BRANCH   2   3
ATOM      3  C   UNL     1      -6.569   5.995  -8.261  1.00  0.00     0.000 C 
BRANCH   3   4
ATOM      4  C   UNL     1      -5.720   7.047  -7.523  1.00  0.00     0.000 C 
BRANCH   4   5
ATOM      5  C   UNL     1      -6.243   7.340  -6.108  1.00  0.00     0.000 C 
BRANCH   5   6
ATOM      6  C   UNL     1      -5.199   7.047  -5.018  1.00  0.00     0.000 C 
BRANCH   6   7
ATOM      7  C   UNL     1      -5.802   6.310  -3.802  1.00  0.00     0.000 C 
BRANCH   7   8
ATOM      8  C   UNL     1      -6.940   5.336  -4.167  1.00  0.00     0.000 C 
BRANCH   8   9
ATOM      9  C   UNL     1      -8.300   5.647  -3.514  1.00  0.00     0.000 C 
BRANCH   9  10
ATOM     10  C   UNL     1      -9.164   6.684  -4.265  1.00  0.00     0.006 C 
BRANCH  10  11
ATOM     11  C   UNL     1      -9.167   8.086  -3.637  1.00  0.00     0.053 C 
BRANCH  11  12
ATOM     12  C   UNL     1     -10.424   8.353  -2.868  1.00  0.00     0.041 C 
ATOM     13  O   UNL     1     -11.302   9.125  -3.335  1.00  0.00    -0.550 OA
ATOM     14  O   UNL     1     -10.608   7.778  -1.617  1.00  0.00    -0.550 OA
ENDBRANCH  11  12
ENDBRANCH  10  11
ENDBRANCH   9  10
ENDBRANCH   8   9
ENDBRANCH   7   8
ENDBRANCH   6   7
ENDBRANCH   5   6
ENDBRANCH   4   5
ENDBRANCH   3   4
ENDBRANCH   2   3
ENDBRANCH   1   2
BRANCH   1  15
ATOM     15  C   UNL     1      -9.209   4.499  -9.246  1.00  0.00     0.000 C 
BRANCH  15  16
ATOM     16  C   UNL     1      -9.527   5.070 -10.636  1.00  0.00     0.000 C 
BRANCH  16  17
ATOM     17  C   UNL     1      -8.275   5.220 -11.515  1.00  0.00     0.000 C 
BRANCH  17  18
ATOM     18  C   UNL     1      -8.413   4.502 -12.869  1.00  0.00    -0.000 C 
BRANCH  18  19
ATOM     19  C   UNL     1      -7.398   4.998 -13.912  1.00  0.00    -0.000 C 
BRANCH  19  20
ATOM     20  C   UNL     1      -6.546   3.858 -14.495  1.00  0.00    -0.000 C 
BRANCH  20  21
ATOM     21  C   UNL     1      -5.169   4.331 -14.994  1.00  0.00    -0.000 C 
BRANCH  21  22
ATOM     22  C   UNL     1      -4.933   5.853 -14.940  1.00  0.00    -0.000 C 
BRANCH  22  23
ATOM     23  C   UNL     1      -4.537   6.448 -16.302  1.00  0.00    -0.000 C 
BRANCH  23  24
ATOM     24  C   UNL     1      -5.456   7.601 -16.743  1.00  0.00    -0.000 C 
BRANCH  24  25
ATOM     25  C   UNL     1      -6.710   7.177 -17.527  1.00  0.00    -0.003 C 
ATOM     26  C   UNL     1      -7.997   7.297 -16.713  1.00  0.00     0.004 C 
ENDBRANCH  24  25
ENDBRANCH  23  24
ENDBRANCH  22  23
ENDBRANCH  21  22
ENDBRANCH  20  21
ENDBRANCH  19  20
ENDBRANCH  18  19
ENDBRANCH  17  18
ENDBRANCH  16  17
ENDBRANCH  15  16
ENDBRANCH   1  15
TORSDOF 22
ENDMDL
MODEL 3
REMARK VINA RESULT:    -4.123      5.874      9.674
REMARK INTER + INTRA:         -12.657
REMARK INTER:                 -10.803
REMARK INTRA:                  -1.853
REMARK UNBOUND:                -3.230
REMARK SMILES CCCCCCCCCCCCCCCCCCCCCCCC(=O)[O-]
REMARK SMILES IDX 13 1 14 2 15 3 16 4 17 5 18 6 19 7 20 8 21 9 22 10 23 11
REMARK SMILES IDX 24 12 25 13 26 14 12 15 11 16 10 17 9 18 8 19 7 20 6 21 5 22
REMARK SMILES IDX 4 23 3 24 2 25 1 26
REMARK H PARENT
REMARK Flexibility Score: inf
ROOT
ATOM      1  C   UNL     1      -9.149   5.429  -8.366  1.00  0.00     0.000 C 
ENDROOT
BRANCH   1   2
ATOM      2  C   UNL     1      -7.736   5.520  -7.770  1.00  0.00     0.000 C 
BRANCH   2   3
ATOM      3  C   UNL     1      -7.740   5.557  -6.234  1.00  0.00     0.000 C 
BRANCH   3   4
ATOM      4  C   UNL     1      -9.162   5.601  -5.646  1.00  0.00     0.000 C 
BRANCH   4   5
ATOM      5  C   UNL     1      -9.460   6.922  -4.920  1.00  0.00     0.000 C 
BRANCH   5   6
ATOM      6  C   UNL     1      -8.187   7.729  -4.612  1.00  0.00     0.000 C 
BRANCH   6   7
ATOM      7  C   UNL     1      -8.318   8.576  -3.327  1.00  0.00     0.000 C 
BRANCH   7   8
ATOM      8  C   UNL     1      -9.568   8.244  -2.488  1.00  0.00     0.000 C 
BRANCH   8   9
ATOM      9  C   UNL     1      -9.283   7.762  -1.053  1.00  0.00     0.000 C 
BRANCH   9  10
ATOM     10  C   UNL     1      -9.779   6.335  -0.733  1.00  0.00     0.006 C 
BRANCH  10  11
ATOM     11  C   UNL     1      -9.302   5.258  -1.719  1.00  0.00     0.053 C 
BRANCH  11  12
ATOM     12  C   UNL     1      -7.825   5.026  -1.625  1.00  0.00     0.041 C 
ATOM     13  O   UNL     1      -7.125   4.967  -2.669  1.00  0.00    -0.550 OA
ATOM     14  O   UNL     1      -7.229   4.837  -0.385  1.00  0.00    -0.550 OA
ENDBRANCH  11  12
ENDBRANCH  10  11
ENDBRANCH   9  10
ENDBRANCH   8   9
ENDBRANCH   7   8
ENDBRANCH   6   7
ENDBRANCH   5   6
ENDBRANCH   4   5
ENDBRANCH   3   4
ENDBRANCH   2   3
ENDBRANCH   1   2
BRANCH   1  15
ATOM     15  C   UNL     1      -9.194   4.412  -9.513  1.00  0.00     0.000 C 
BRANCH  15  16
ATOM     16  C   UNL     1      -9.428   5.110 -10.861  1.00  0.00     0.000 C 
BRANCH  16  17
ATOM     17  C   UNL     1      -8.176   5.108 -11.753  1.00  0.00     0.000 C 
BRANCH  17  18
ATOM     18  C   UNL     1      -8.391   4.349 -13.074  1.00  0.00    -0.000 C 
BRANCH  18  19
ATOM     19  C   UNL     1      -7.075   4.037 -13.804  1.00  0.00    -0.000 C 
BRANCH  19  20
ATOM     20  C   UNL     1      -6.419   5.293 -14.401  1.00  0.00    -0.000 C 
BRANCH  20  21
ATOM     21  C   UNL     1      -6.866   5.575 -15.847  1.00  0.00    -0.000 C 
BRANCH  21  22
ATOM     22  C   UNL     1      -8.111   6.473 -15.991  1.00  0.00    -0.000 C 
BRANCH  22  23
ATOM     23  C   UNL     1      -7.876   7.682 -16.913  1.00  0.00    -0.000 C 
BRANCH  23  24
ATOM     24  C   UNL     1      -8.215   7.388 -18.385  1.00  0.00    -0.000 C 
BRANCH  24  25
ATOM     25  C   UNL     1      -9.717   7.279 -18.703  1.00  0.00    -0.003 C 
ATOM     26  C   UNL     1     -10.229   8.417 -19.584  1.00  0.00     0.004 C 
ENDBRANCH  24  25
ENDBRANCH  23  24
ENDBRANCH  22  23
ENDBRANCH  21  22
ENDBRANCH  20  21
ENDBRANCH  19  20
ENDBRANCH  18  19
ENDBRANCH  17  18
ENDBRANCH  16  17
ENDBRANCH  15  16
ENDBRANCH   1  15
TORSDOF 22
ENDMDL
MODEL 4
REMARK VINA RESULT:    -4.122      7.583     10.561
REMARK INTER + INTRA:         -12.653
REMARK INTER:                 -10.723
REMARK INTRA:                  -1.930
REMARK UNBOUND:                -3.230
REMARK SMILES CCCCCCCCCCCCCCCCCCCCCCCC(=O)[O-]
REMARK SMILES IDX 13 1 14 2 15 3 16 4 17 5 18 6 19 7 20 8 21 9 22 10 23 11
REMARK SMILES IDX 24 12 25 13 26 14 12 15 11 16 10 17 9 18 8 19 7 20 6 21 5 22
REMARK SMILES IDX 4 23 3 24 2 25 1 26
REMARK H PARENT
REMARK Flexibility Score: inf
ROOT
ATOM      1  C   UNL     1      -9.346   4.534  -9.147  1.00  0.00     0.000 C 
ENDROOT
BRANCH   1   2
ATOM      2  C   UNL     1      -9.563   5.146 -10.539  1.00  0.00     0.000 C 
BRANCH   2   3
ATOM      3  C   UNL     1      -8.346   4.972 -11.460  1.00  0.00     0.000 C 
BRANCH   3   4
ATOM      4  C   UNL     1      -8.737   4.534 -12.884  1.00  0.00     0.000 C 
BRANCH   4   5
ATOM      5  C   UNL     1      -7.926   5.261 -13.968  1.00  0.00     0.000 C 
BRANCH   5   6
ATOM      6  C   UNL     1      -6.422   5.309 -13.651  1.00  0.00     0.000 C 
BRANCH   6   7
ATOM      7  C   UNL     1      -5.561   5.600 -14.899  1.00  0.00     0.000 C 
BRANCH   7   8
ATOM      8  C   UNL     1      -6.316   5.418 -16.231  1.00  0.00     0.000 C 
BRANCH   8   9
ATOM      9  C   UNL     1      -6.551   6.713 -17.031  1.00  0.00     0.000 C 
BRANCH   9  10
ATOM     10  C   UNL     1      -8.011   7.218 -17.043  1.00  0.00     0.006 C 
BRANCH  10  11
ATOM     11  C   UNL     1      -8.564   7.537 -18.440  1.00  0.00     0.053 C 
BRANCH  11  12
ATOM     12  C   UNL     1      -9.521   6.488 -18.916  1.00  0.00     0.041 C 
ATOM     13  O   UNL     1      -9.201   5.271 -18.876  1.00  0.00    -0.550 OA
ATOM     14  O   UNL     1     -10.752   6.859 -19.442  1.00  0.00    -0.550 OA
ENDBRANCH  11  12
ENDBRANCH  10  11
ENDBRANCH   9  10
ENDBRANCH   8   9
ENDBRANCH   7   8
ENDBRANCH   6   7
ENDBRANCH   5   6
ENDBRANCH   4   5
ENDBRANCH   3   4
ENDBRANCH   2   3
ENDBRANCH   1   2
BRANCH   1  15
ATOM     15  C   UNL     1      -8.987   5.618  -8.123  1.00  0.00     0.000 C 
BRANCH  15  16
ATOM     16  C   UNL     1      -7.640   5.316  -7.448  1.00  0.00     0.000 C 
BRANCH  16  17
ATOM     17  C   UNL     1      -6.577   6.385  -7.747  1.00  0.00     0.000 C 
BRANCH  17  18
ATOM     18  C   UNL     1      -6.312   7.309  -6.544  1.00  0.00    -0.000 C 
BRANCH  18  19
ATOM     19  C   UNL     1      -4.815   7.563  -6.306  1.00  0.00    -0.000 C 
BRANCH  19  20
ATOM     20  C   UNL     1      -4.355   7.116  -4.908  1.00  0.00    -0.000 C 
BRANCH  20  21
ATOM     21  C   UNL     1      -5.512   6.605  -4.029  1.00  0.00    -0.000 C 
BRANCH  21  22
ATOM     22  C   UNL     1      -5.434   5.118  -3.633  1.00  0.00    -0.000 C 
BRANCH  22  23
ATOM     23  C   UNL     1      -6.792   4.402  -3.719  1.00  0.00    -0.000 C 
BRANCH  23  24
ATOM     24  C   UNL     1      -7.975   5.374  -3.878  1.00  0.00    -0.000 C 
BRANCH  24  25
ATOM     25  C   UNL     1      -8.789   5.630  -2.598  1.00  0.00    -0.003 C 
ATOM     26  C   UNL     1      -9.214   7.089  -2.438  1.00  0.00     0.004 C 
ENDBRANCH  24  25
ENDBRANCH  23  24
ENDBRANCH  22  23
ENDBRANCH  21  22
ENDBRANCH  20  21
ENDBRANCH  19  20
ENDBRANCH  18  19
ENDBRANCH  17  18
ENDBRANCH  16  17
ENDBRANCH  15  16
ENDBRANCH   1  15
TORSDOF 22
ENDMDL
MODEL 5
REMARK VINA RESULT:    -4.120      5.955     10.488
REMARK INTER + INTRA:         -12.648
REMARK INTER:                 -11.116
REMARK INTRA:                  -1.533
REMARK UNBOUND:                -3.230
REMARK SMILES CCCCCCCCCCCCCCCCCCCCCCCC(=O)[O-]
REMARK SMILES IDX 13 1 14 2 15 3 16 4 17 5 18 6 19 7 20 8 21 9 22 10 23 11
REMARK SMILES IDX 24 12 25 13 26 14 12 15 11 16 10 17 9 18 8 19 7 20 6 21 5 22
REMARK SMILES IDX 4 23 3 24 2 25 1 26
REMARK H PARENT
REMARK Flexibility Score: inf
ROOT
ATOM      1  C   UNL     1      -9.143   5.585  -8.206  1.00  0.00     0.000 C 
ENDROOT
BRANCH   1   2
ATOM      2  C   UNL     1      -7.766   5.608  -7.525  1.00  0.00     0.000 C 
BRANCH   2   3
ATOM      3  C   UNL     1      -7.862   5.710  -5.995  1.00  0.00     0.000 C 
BRANCH   3   4
ATOM      4  C   UNL     1      -9.299   5.971  -5.507  1.00  0.00     0.000 C 
BRANCH   4   5
ATOM      5  C   UNL     1      -9.376   7.118  -4.487  1.00  0.00     0.000 C 
BRANCH   5   6
ATOM      6  C   UNL     1      -7.996   7.511  -3.932  1.00  0.00     0.000 C 
BRANCH   6   7
ATOM      7  C   UNL     1      -8.092   8.483  -2.736  1.00  0.00     0.000 C 
BRANCH   7   8
ATOM      8  C   UNL     1      -8.874   9.774  -3.045  1.00  0.00     0.000 C 
BRANCH   8   9
ATOM      9  C   UNL     1     -10.185   9.950  -2.254  1.00  0.00     0.000 C 
BRANCH   9  10
ATOM     10  C   UNL     1     -11.476   9.775  -3.081  1.00  0.00     0.006 C 
BRANCH  10  11
ATOM     11  C   UNL     1     -12.750  10.284  -2.390  1.00  0.00     0.053 C 
BRANCH  11  12
ATOM     12  C   UNL     1     -13.554  11.178  -3.283  1.00  0.00     0.041 C 
ATOM     13  O   UNL     1     -14.604  10.750  -3.830  1.00  0.00    -0.550 OA
ATOM     14  O   UNL     1     -13.121  12.472  -3.542  1.00  0.00    -0.550 OA
ENDBRANCH  11  12
ENDBRANCH  10  11
ENDBRANCH   9  10
ENDBRANCH   8   9
ENDBRANCH   7   8
ENDBRANCH   6   7
ENDBRANCH   5   6
ENDBRANCH   4   5
ENDBRANCH   3   4
ENDBRANCH   2   3
ENDBRANCH   1   2
BRANCH   1  15
ATOM     15  C   UNL     1      -9.197   4.502  -9.292  1.00  0.00     0.000 C 
BRANCH  15  16
ATOM     16  C   UNL     1      -9.521   5.112 -10.664  1.00  0.00     0.000 C 
BRANCH  16  17
ATOM     17  C   UNL     1      -8.304   5.137 -11.602  1.00  0.00     0.000 C 
BRANCH  17  18
ATOM     18  C   UNL     1      -8.571   4.420 -12.938  1.00  0.00    -0.000 C 
BRANCH  18  19
ATOM     19  C   UNL     1      -7.293   4.204 -13.764  1.00  0.00    -0.000 C 
BRANCH  19  20
ATOM     20  C   UNL     1      -6.127   5.088 -13.292  1.00  0.00    -0.000 C 
BRANCH  20  21
ATOM     21  C   UNL     1      -5.228   5.565 -14.447  1.00  0.00    -0.000 C 
BRANCH  21  22
ATOM     22  C   UNL     1      -5.273   4.699 -15.721  1.00  0.00    -0.000 C 
BRANCH  22  23
ATOM     23  C   UNL     1      -6.074   5.351 -16.861  1.00  0.00    -0.000 C 
BRANCH  23  24
ATOM     24  C   UNL     1      -5.580   6.767 -17.209  1.00  0.00    -0.000 C 
BRANCH  24  25
ATOM     25  C   UNL     1      -6.654   7.867 -17.157  1.00  0.00    -0.003 C 
ATOM     26  C   UNL     1      -7.981   7.385 -16.572  1.00  0.00     0.004 C 
ENDBRANCH  24  25
ENDBRANCH  23  24
ENDBRANCH  22  23
ENDBRANCH  21  22
ENDBRANCH  20  21
ENDBRANCH  19  20
ENDBRANCH  18  19
ENDBRANCH  17  18
ENDBRANCH  16  17
ENDBRANCH  15  16
ENDBRANCH   1  15
TORSDOF 22
ENDMDL
MODEL 6
REMARK VINA RESULT:    -4.072      6.430     10.295
REMARK INTER + INTRA:         -12.540
REMARK INTER:                 -10.574
REMARK INTRA:                  -1.966
REMARK UNBOUND:                -3.230
REMARK SMILES CCCCCCCCCCCCCCCCCCCCCCCC(=O)[O-]
REMARK SMILES IDX 13 1 14 2 15 3 16 4 17 5 18 6 19 7 20 8 21 9 22 10 23 11
REMARK SMILES IDX 24 12 25 13 26 14 12 15 11 16 10 17 9 18 8 19 7 20 6 21 5 22
REMARK SMILES IDX 4 23 3 24 2 25 1 26
REMARK H PARENT
REMARK Flexibility Score: inf
ROOT
ATOM      1  C   UNL     1      -9.100   4.608  -9.072  1.00  0.00     0.000 C 
ENDROOT
BRANCH   1   2
ATOM      2  C   UNL     1      -9.088   5.616  -7.913  1.00  0.00     0.000 C 
BRANCH   2   3
ATOM      3  C   UNL     1      -7.848   5.476  -7.017  1.00  0.00     0.000 C 
BRANCH   3   4
ATOM      4  C   UNL     1      -6.657   6.312  -7.518  1.00  0.00     0.000 C 
BRANCH   4   5
ATOM      5  C   UNL     1      -6.302   7.464  -6.565  1.00  0.00     0.000 C 
BRANCH   5   6
ATOM      6  C   UNL     1      -4.967   7.240  -5.834  1.00  0.00     0.000 C 
BRANCH   6   7
ATOM      7  C   UNL     1      -5.151   7.025  -4.316  1.00  0.00     0.000 C 
BRANCH   7   8
ATOM      8  C   UNL     1      -5.868   5.708  -3.956  1.00  0.00     0.000 C 
BRANCH   8   9
ATOM      9  C   UNL     1      -6.963   5.834  -2.880  1.00  0.00     0.000 C 
BRANCH   9  10
ATOM     10  C   UNL     1      -8.407   5.909  -3.424  1.00  0.00     0.006 C 
BRANCH  10  11
ATOM     11  C   UNL     1      -8.836   7.304  -3.903  1.00  0.00     0.053 C 
BRANCH  11  12
ATOM     12  C   UNL     1      -9.829   7.934  -2.976  1.00  0.00     0.041 C 
ATOM     13  O   UNL     1      -9.691   7.825  -1.729  1.00  0.00    -0.550 OA
ATOM     14  O   UNL     1     -10.928   8.609  -3.490  1.00  0.00    -0.550 OA
ENDBRANCH  11  12
ENDBRANCH  10  11
ENDBRANCH   9  10
ENDBRANCH   8   9
ENDBRANCH   7   8
ENDBRANCH   6   7
ENDBRANCH   5   6
ENDBRANCH   4   5
ENDBRANCH   3   4
ENDBRANCH   2   3
ENDBRANCH   1   2
BRANCH   1  15
ATOM     15  C   UNL     1      -9.629   5.258 -10.357  1.00  0.00     0.000 C 
BRANCH  15  16
ATOM     16  C   UNL     1      -9.066   4.557 -11.603  1.00  0.00     0.000 C 
BRANCH  16  17
ATOM     17  C   UNL     1      -7.863   5.299 -12.205  1.00  0.00     0.000 C 
BRANCH  17  18
ATOM     18  C   UNL     1      -7.884   5.310 -13.744  1.00  0.00    -0.000 C 
BRANCH  18  19
ATOM     19  C   UNL     1      -6.476   5.314 -14.360  1.00  0.00    -0.000 C 
BRANCH  19  20
ATOM     20  C   UNL     1      -6.461   5.866 -15.796  1.00  0.00    -0.000 C 
BRANCH  20  21
ATOM     21  C   UNL     1      -7.822   6.435 -16.236  1.00  0.00    -0.000 C 
BRANCH  21  22
ATOM     22  C   UNL     1      -7.761   7.547 -17.301  1.00  0.00    -0.000 C 
BRANCH  22  23
ATOM     23  C   UNL     1      -8.745   7.321 -18.461  1.00  0.00    -0.000 C 
BRANCH  23  24
ATOM     24  C   UNL     1      -9.304   5.888 -18.505  1.00  0.00    -0.000 C 
BRANCH  24  25
ATOM     25  C   UNL     1      -8.783   5.016 -19.661  1.00  0.00    -0.003 C 
ATOM     26  C   UNL     1      -7.397   4.431 -19.395  1.00  0.00     0.004 C 
ENDBRANCH  24  25
ENDBRANCH  23  24
ENDBRANCH  22  23
ENDBRANCH  21  22
ENDBRANCH  20  21
ENDBRANCH  19  20
ENDBRANCH  18  19
ENDBRANCH  17  18
ENDBRANCH  16  17
ENDBRANCH  15  16
ENDBRANCH   1  15
TORSDOF 22
ENDMDL
MODEL 7
REMARK VINA RESULT:    -4.053      6.336     10.551
REMARK INTER + INTRA:         -12.495
REMARK INTER:                 -10.098
REMARK INTRA:                  -2.397
REMARK UNBOUND:                -3.230
REMARK SMILES CCCCCCCCCCCCCCCCCCCCCCCC(=O)[O-]
REMARK SMILES IDX 13 1 14 2 15 3 16 4 17 5 18 6 19 7 20 8 21 9 22 10 23 11
REMARK SMILES IDX 24 12 25 13 26 14 12 15 11 16 10 17 9 18 8 19 7 20 6 21 5 22
REMARK SMILES IDX 4 23 3 24 2 25 1 26
REMARK H PARENT
REMARK Flexibility Score: inf
ROOT
ATOM      1  C   UNL     1      -9.503   5.226 -10.643  1.00  0.00     0.000 C 
ENDROOT
BRANCH   1   2
ATOM      2  C   UNL     1      -9.408   4.486  -9.300  1.00  0.00     0.000 C 
BRANCH   2   3
ATOM      3  C   UNL     1      -9.079   5.423  -8.128  1.00  0.00     0.000 C 
BRANCH   3   4
ATOM      4  C   UNL     1      -7.564   5.616  -7.929  1.00  0.00     0.000 C 
BRANCH   4   5
ATOM      5  C   UNL     1      -7.206   6.039  -6.496  1.00  0.00     0.000 C 
BRANCH   5   6
ATOM      6  C   UNL     1      -7.731   5.053  -5.439  1.00  0.00     0.000 C 
BRANCH   6   7
ATOM      7  C   UNL     1      -6.881   5.057  -4.150  1.00  0.00     0.000 C 
BRANCH   7   8
ATOM      8  C   UNL     1      -6.375   6.455  -3.742  1.00  0.00     0.000 C 
BRANCH   8   9
ATOM      9  C   UNL     1      -7.347   7.272  -2.870  1.00  0.00     0.000 C 
BRANCH   9  10
ATOM     10  C   UNL     1      -8.207   8.300  -3.636  1.00  0.00     0.006 C 
BRANCH  10  11
ATOM     11  C   UNL     1      -9.659   7.861  -3.881  1.00  0.00     0.053 C 
BRANCH  11  12
ATOM     12  C   UNL     1     -10.593   8.413  -2.849  1.00  0.00     0.041 C 
ATOM     13  O   UNL     1     -10.744   7.822  -1.748  1.00  0.00    -0.550 OA
ATOM     14  O   UNL     1     -11.326   9.562  -3.120  1.00  0.00    -0.550 OA
ENDBRANCH  11  12
ENDBRANCH  10  11
ENDBRANCH   9  10
ENDBRANCH   8   9
ENDBRANCH   7   8
ENDBRANCH   6   7
ENDBRANCH   5   6
ENDBRANCH   4   5
ENDBRANCH   3   4
ENDBRANCH   2   3
ENDBRANCH   1   2
BRANCH   1  15
ATOM     15  C   UNL     1      -8.280   4.928 -11.519  1.00  0.00     0.000 C 
BRANCH  15  16
ATOM     16  C   UNL     1      -8.705   4.461 -12.920  1.00  0.00     0.000 C 
BRANCH  16  17
ATOM     17  C   UNL     1      -7.527   4.398 -13.905  1.00  0.00     0.000 C 
BRANCH  17  18
ATOM     18  C   UNL     1      -6.518   5.542 -13.695  1.00  0.00    -0.000 C 
BRANCH  18  19
ATOM     19  C   UNL     1      -5.229   5.358 -14.512  1.00  0.00    -0.000 C 
BRANCH  19  20
ATOM     20  C   UNL     1      -5.294   4.140 -15.450  1.00  0.00    -0.000 C 
BRANCH  20  21
ATOM     21  C   UNL     1      -5.043   4.504 -16.925  1.00  0.00    -0.000 C 
BRANCH  21  22
ATOM     22  C   UNL     1      -6.211   4.207 -17.886  1.00  0.00    -0.000 C 
BRANCH  22  23
ATOM     23  C   UNL     1      -6.934   5.478 -18.363  1.00  0.00    -0.000 C 
BRANCH  23  24
ATOM     24  C   UNL     1      -8.037   5.940 -17.394  1.00  0.00    -0.000 C 
BRANCH  24  25
ATOM     25  C   UNL     1      -7.812   7.322 -16.755  1.00  0.00    -0.003 C 
ATOM     26  C   UNL     1      -6.498   7.973 -17.181  1.00  0.00     0.004 C 
ENDBRANCH  24  25
ENDBRANCH  23  24
ENDBRANCH  22  23
ENDBRANCH  21  22
ENDBRANCH  20  21
ENDBRANCH  19  20
ENDBRANCH  18  19
ENDBRANCH  17  18
ENDBRANCH  16  17
ENDBRANCH  15  16
ENDBRANCH   1  15
TORSDOF 22
ENDMDL
MODEL 8
REMARK VINA RESULT:    -4.046      6.766      9.507
REMARK INTER + INTRA:         -12.480
REMARK INTER:                 -10.377
REMARK INTRA:                  -2.103
REMARK UNBOUND:                -3.230
REMARK SMILES CCCCCCCCCCCCCCCCCCCCCCCC(=O)[O-]
REMARK SMILES IDX 13 1 14 2 15 3 16 4 17 5 18 6 19 7 20 8 21 9 22 10 23 11
REMARK SMILES IDX 24 12 25 13 26 14 12 15 11 16 10 17 9 18 8 19 7 20 6 21 5 22
REMARK SMILES IDX 4 23 3 24 2 25 1 26
REMARK H PARENT
REMARK Flexibility Score: inf
ROOT
ATOM      1  C   UNL     1      -9.100   5.618  -7.914  1.00  0.00     0.000 C 
ENDROOT
BRANCH   1   2
ATOM      2  C   UNL     1      -9.233   4.570  -9.029  1.00  0.00     0.000 C 
BRANCH   2   3
ATOM      3  C   UNL     1      -9.592   5.191 -10.388  1.00  0.00     0.000 C 
BRANCH   3   4
ATOM      4  C   UNL     1      -8.397   5.224 -11.359  1.00  0.00     0.000 C 
BRANCH   4   5
ATOM      5  C   UNL     1      -8.678   4.468 -12.667  1.00  0.00     0.000 C 
BRANCH   5   6
ATOM      6  C   UNL     1      -7.727   4.878 -13.804  1.00  0.00     0.000 C 
BRANCH   6   7
ATOM      7  C   UNL     1      -6.309   5.219 -13.297  1.00  0.00     0.000 C 
BRANCH   7   8
ATOM      8  C   UNL     1      -5.295   5.494 -14.425  1.00  0.00     0.000 C 
BRANCH   8   9
ATOM      9  C   UNL     1      -5.906   5.645 -15.831  1.00  0.00     0.000 C 
BRANCH   9  10
ATOM     10  C   UNL     1      -5.453   6.900 -16.609  1.00  0.00     0.006 C 
BRANCH  10  11
ATOM     11  C   UNL     1      -6.426   7.355 -17.707  1.00  0.00     0.053 C 
BRANCH  11  12
ATOM     12  C   UNL     1      -7.843   6.995 -17.385  1.00  0.00     0.041 C 
ATOM     13  O   UNL     1      -8.415   6.057 -17.998  1.00  0.00    -0.550 OA
ATOM     14  O   UNL     1      -8.545   7.724 -16.433  1.00  0.00    -0.550 OA
ENDBRANCH  11  12
ENDBRANCH  10  11
ENDBRANCH   9  10
ENDBRANCH   8   9
ENDBRANCH   7   8
ENDBRANCH   6   7
ENDBRANCH   5   6
ENDBRANCH   4   5
ENDBRANCH   3   4
ENDBRANCH   2   3
ENDBRANCH   1   2
BRANCH   1  15
ATOM     15  C   UNL     1      -7.797   5.418  -7.129  1.00  0.00     0.000 C 
BRANCH  15  16
ATOM     16  C   UNL     1      -6.689   6.343  -7.653  1.00  0.00     0.000 C 
BRANCH  16  17
ATOM     17  C   UNL     1      -6.351   7.477  -6.672  1.00  0.00     0.000 C 
BRANCH  17  18
ATOM     18  C   UNL     1      -4.906   7.396  -6.148  1.00  0.00    -0.000 C 
BRANCH  18  19
ATOM     19  C   UNL     1      -4.829   7.364  -4.613  1.00  0.00    -0.000 C 
BRANCH  19  20
ATOM     20  C   UNL     1      -4.811   5.932  -4.052  1.00  0.00    -0.000 C 
BRANCH  20  21
ATOM     21  C   UNL     1      -6.220   5.386  -3.753  1.00  0.00    -0.000 C 
BRANCH  21  22
ATOM     22  C   UNL     1      -7.234   6.424  -3.234  1.00  0.00    -0.000 C 
BRANCH  22  23
ATOM     23  C   UNL     1      -8.687   6.078  -3.602  1.00  0.00    -0.000 C 
BRANCH  23  24
ATOM     24  C   UNL     1      -9.438   7.254  -4.251  1.00  0.00    -0.000 C 
BRANCH  24  25
ATOM     25  C   UNL     1      -9.819   8.398  -3.294  1.00  0.00    -0.003 C 
ATOM     26  C   UNL     1     -10.449   7.906  -1.992  1.00  0.00     0.004 C 
ENDBRANCH  24  25
ENDBRANCH  23  24
ENDBRANCH  22  23
ENDBRANCH  21  22
ENDBRANCH  20  21
ENDBRANCH  19  20
ENDBRANCH  18  19
ENDBRANCH  17  18
ENDBRANCH  16  17
ENDBRANCH  15  16
ENDBRANCH   1  15
TORSDOF 22
ENDMDL
MODEL 9
REMARK VINA RESULT:    -4.026      7.763     10.830
REMARK INTER + INTRA:         -12.435
REMARK INTER:                 -10.256
REMARK INTRA:                  -2.179
REMARK UNBOUND:                -3.230
REMARK SMILES CCCCCCCCCCCCCCCCCCCCCCCC(=O)[O-]
REMARK SMILES IDX 13 1 14 2 15 3 16 4 17 5 18 6 19 7 20 8 21 9 22 10 23 11
REMARK SMILES IDX 24 12 25 13 26 14 12 15 11 16 10 17 9 18 8 19 7 20 6 21 5 22
REMARK SMILES IDX 4 23 3 24 2 25 1 26
REMARK H PARENT
REMARK Flexibility Score: inf
ROOT
ATOM      1  C   UNL     1      -9.506   5.124 -10.508  1.00  0.00     0.000 C 
ENDROOT
BRANCH   1   2
ATOM      2  C   UNL     1      -8.362   4.902 -11.508  1.00  0.00     0.000 C 
BRANCH   2   3
ATOM      3  C   UNL     1      -8.864   4.537 -12.913  1.00  0.00     0.000 C 
BRANCH   3   4
ATOM      4  C   UNL     1      -8.071   5.244 -14.028  1.00  0.00     0.000 C 
BRANCH   4   5
ATOM      5  C   UNL     1      -6.559   5.271 -13.751  1.00  0.00     0.000 C 
BRANCH   5   6
ATOM      6  C   UNL     1      -5.789   4.215 -14.561  1.00  0.00     0.000 C 
BRANCH   6   7
ATOM      7  C   UNL     1      -5.020   4.827 -15.752  1.00  0.00     0.000 C 
BRANCH   7   8
ATOM      8  C   UNL     1      -5.029   6.368 -15.773  1.00  0.00     0.000 C 
BRANCH   8   9
ATOM      9  C   UNL     1      -5.741   7.001 -16.984  1.00  0.00     0.000 C 
BRANCH   9  10
ATOM     10  C   UNL     1      -6.778   6.093 -17.680  1.00  0.00     0.006 C 
BRANCH  10  11
ATOM     11  C   UNL     1      -8.242   6.476 -17.414  1.00  0.00     0.053 C 
BRANCH  11  12
ATOM     12  C   UNL     1      -8.984   6.768 -18.682  1.00  0.00     0.041 C 
ATOM     13  O   UNL     1      -9.625   7.844 -18.808  1.00  0.00    -0.550 OA
ATOM     14  O   UNL     1      -8.999   5.833 -19.709  1.00  0.00    -0.550 OA
ENDBRANCH  11  12
ENDBRANCH  10  11
ENDBRANCH   9  10
ENDBRANCH   8   9
ENDBRANCH   7   8
ENDBRANCH   6   7
ENDBRANCH   5   6
ENDBRANCH   4   5
ENDBRANCH   3   4
ENDBRANCH   2   3
ENDBRANCH   1   2
BRANCH   1  15
ATOM     15  C   UNL     1      -9.154   4.537  -9.135  1.00  0.00     0.000 C 
BRANCH  15  16
ATOM     16  C   UNL     1      -9.216   5.614  -8.041  1.00  0.00     0.000 C 
BRANCH  16  17
ATOM     17  C   UNL     1      -7.900   5.733  -7.256  1.00  0.00     0.000 C 
BRANCH  17  18
ATOM     18  C   UNL     1      -6.680   5.941  -8.171  1.00  0.00    -0.000 C 
BRANCH  18  19
ATOM     19  C   UNL     1      -5.712   7.011  -7.640  1.00  0.00    -0.000 C 
BRANCH  19  20
ATOM     20  C   UNL     1      -6.058   7.463  -6.211  1.00  0.00    -0.000 C 
BRANCH  20  21
ATOM     21  C   UNL     1      -4.882   7.303  -5.230  1.00  0.00    -0.000 C 
BRANCH  21  22
ATOM     22  C   UNL     1      -5.273   7.188  -3.744  1.00  0.00    -0.000 C 
BRANCH  22  23
ATOM     23  C   UNL     1      -6.794   7.111  -3.527  1.00  0.00    -0.000 C 
BRANCH  23  24
ATOM     24  C   UNL     1      -7.260   5.731  -3.028  1.00  0.00    -0.000 C 
BRANCH  24  25
ATOM     25  C   UNL     1      -7.033   4.568  -4.009  1.00  0.00    -0.003 C 
ATOM     26  C   UNL     1      -6.113   3.483  -3.452  1.00  0.00     0.004 C 
ENDBRANCH  24  25
ENDBRANCH  23  24
ENDBRANCH  22  23
ENDBRANCH  21  22
ENDBRANCH  20  21
ENDBRANCH  19  20
ENDBRANCH  18  19
ENDBRANCH  17  18
ENDBRANCH  16  17
ENDBRANCH  15  16
ENDBRANCH   1  15
TORSDOF 22
ENDMDL
