MODEL 1
REMARK VINA RESULT:    -5.581      0.000      0.000
REMARK INTER + INTRA:         -14.856
REMARK INTER:                 -12.759
REMARK INTRA:                  -2.097
REMARK UNBOUND:                -2.097
REMARK SMILES CCCCCCCCCCCCCCCCCCCCCCCC(=O)[O-]
REMARK SMILES IDX 13 1 14 2 15 3 16 4 17 5 18 6 19 7 20 8 21 9 22 10 23 11
REMARK SMILES IDX 24 12 25 13 26 14 12 15 11 16 10 17 9 18 8 19 7 20 6 21 5 22
REMARK SMILES IDX 4 23 3 24 2 25 1 26
REMARK H PARENT
REMARK Flexibility Score: inf
ROOT
ATOM      1  C   UNL     1      -7.000  28.146 -24.415  1.00  0.00     0.000 C 
ENDROOT
BRANCH   1   2
ATOM      2  C   UNL     1      -6.951  28.706 -22.983  1.00  0.00     0.000 C 
BRANCH   2   3
ATOM      3  C   UNL     1      -5.584  29.314 -22.604  1.00  0.00     0.000 C 
BRANCH   3   4
ATOM      4  C   UNL     1      -4.762  28.376 -21.703  1.00  0.00     0.000 C 
BRANCH   4   5
ATOM      5  C   UNL     1      -5.595  27.784 -20.554  1.00  0.00     0.000 C 
BRANCH   5   6
ATOM      6  C   UNL     1      -5.391  28.539 -19.229  1.00  0.00     0.000 C 
BRANCH   6   7
ATOM      7  C   UNL     1      -6.666  29.267 -18.772  1.00  0.00     0.000 C 
BRANCH   7   8
ATOM      8  C   UNL     1      -6.468  30.787 -18.653  1.00  0.00     0.000 C 
BRANCH   8   9
ATOM      9  C   UNL     1      -6.808  31.523 -19.968  1.00  0.00     0.000 C 
BRANCH   9  10
ATOM     10  C   UNL     1      -5.939  32.770 -20.212  1.00  0.00     0.006 C 
BRANCH  10  11
ATOM     11  C   UNL     1      -4.444  32.550 -19.934  1.00  0.00     0.053 C 
BRANCH  11  12
ATOM     12  C   UNL     1      -3.695  32.176 -21.176  1.00  0.00     0.041 C 
ATOM     13  O   UNL     1      -2.832  31.259 -21.141  1.00  0.00    -0.550 OA
ATOM     14  O   UNL     1      -3.955  32.829 -22.373  1.00  0.00    -0.550 OA
ENDBRANCH  11  12
ENDBRANCH  10  11
ENDBRANCH   9  10
ENDBRANCH   8   9
ENDBRANCH   7   8
ENDBRANCH   6   7
ENDBRANCH   5   6
ENDBRANCH   4   5
ENDBRANCH   3   4
ENDBRANCH   2   3
ENDBRANCH   1   2
BRANCH   1  15
ATOM     15  C   UNL     1      -8.388  27.606 -24.793  1.00  0.00     0.000 C 
BRANCH  15  16
ATOM     16  C   UNL     1      -8.701  27.757 -26.294  1.00  0.00     0.000 C 
BRANCH  16  17
ATOM     17  C   UNL     1      -7.641  27.171 -27.249  1.00  0.00     0.000 C 
BRANCH  17  18
ATOM     18  C   UNL     1      -8.106  25.960 -28.081  1.00  0.00    -0.000 C 
BRANCH  18  19
ATOM     19  C   UNL     1      -9.423  25.319 -27.607  1.00  0.00    -0.000 C 
BRANCH  19  20
ATOM     20  C   UNL     1      -9.219  24.328 -26.448  1.00  0.00    -0.000 C 
BRANCH  20  21
ATOM     21  C   UNL     1     -10.504  23.562 -26.096  1.00  0.00    -0.000 C 
BRANCH  21  22
ATOM     22  C   UNL     1     -10.223  22.264 -25.324  1.00  0.00    -0.000 C 
BRANCH  22  23
ATOM     23  C   UNL     1      -9.277  22.522 -24.143  1.00  0.00    -0.000 C 
BRANCH  23  24
ATOM     24  C   UNL     1     -10.000  23.090 -22.908  1.00  0.00    -0.000 C 
BRANCH  24  25
ATOM     25  C   UNL     1      -9.236  22.933 -21.582  1.00  0.00    -0.003 C 
ATOM     26  C   UNL     1     -10.086  22.318 -20.471  1.00  0.00     0.004 C 
ENDBRANCH  24  25
ENDBRANCH  23  24
ENDBRANCH  22  23
ENDBRANCH  21  22
ENDBRANCH  20  21
ENDBRANCH  19  20
ENDBRANCH  18  19
ENDBRANCH  17  18
ENDBRANCH  16  17
ENDBRANCH  15  16
ENDBRANCH   1  15
TORSDOF 22
ENDMDL
MODEL 2
REMARK VINA RESULT:    -5.411      1.402      2.029
REMARK INTER + INTRA:         -14.467
REMARK INTER:                 -12.637
REMARK INTRA:                  -1.830
REMARK UNBOUND:                -2.097
REMARK SMILES CCCCCCCCCCCCCCCCCCCCCCCC(=O)[O-]
REMARK SMILES IDX 13 1 14 2 15 3 16 4 17 5 18 6 19 7 20 8 21 9 22 10 23 11
REMARK SMILES IDX 24 12 25 13 26 14 12 15 11 16 10 17 9 18 8 19 7 20 6 21 5 22
REMARK SMILES IDX 4 23 3 24 2 25 1 26
REMARK H PARENT
REMARK Flexibility Score: inf
ROOT
ATOM      1  C   UNL     1      -7.606  28.298 -23.932  1.00  0.00     0.000 C 
ENDROOT
BRANCH   1   2
ATOM      2  C   UNL     1      -6.691  28.516 -22.715  1.00  0.00     0.000 C 
BRANCH   2   3
ATOM      3  C   UNL     1      -5.303  29.085 -23.080  1.00  0.00     0.000 C 
BRANCH   3   4
ATOM      4  C   UNL     1      -4.709  29.935 -21.944  1.00  0.00     0.000 C 
BRANCH   4   5
ATOM      5  C   UNL     1      -3.743  29.136 -21.053  1.00  0.00     0.000 C 
BRANCH   5   6
ATOM      6  C   UNL     1      -4.038  29.317 -19.554  1.00  0.00     0.000 C 
BRANCH   6   7
ATOM      7  C   UNL     1      -5.015  28.257 -19.021  1.00  0.00     0.000 C 
BRANCH   7   8
ATOM      8  C   UNL     1      -6.479  28.722 -19.075  1.00  0.00     0.000 C 
BRANCH   8   9
ATOM      9  C   UNL     1      -6.918  29.412 -17.764  1.00  0.00     0.000 C 
BRANCH   9  10
ATOM     10  C   UNL     1      -6.891  30.950 -17.845  1.00  0.00     0.006 C 
BRANCH  10  11
ATOM     11  C   UNL     1      -6.926  31.498 -19.279  1.00  0.00     0.053 C 
BRANCH  11  12
ATOM     12  C   UNL     1      -6.470  32.923 -19.342  1.00  0.00     0.041 C 
ATOM     13  O   UNL     1      -6.750  33.719 -18.407  1.00  0.00    -0.550 OA
ATOM     14  O   UNL     1      -5.727  33.372 -20.426  1.00  0.00    -0.550 OA
ENDBRANCH  11  12
ENDBRANCH  10  11
ENDBRANCH   9  10
ENDBRANCH   8   9
ENDBRANCH   7   8
ENDBRANCH   6   7
ENDBRANCH   5   6
ENDBRANCH   4   5
ENDBRANCH   3   4
ENDBRANCH   2   3
ENDBRANCH   1   2
BRANCH   1  15
ATOM     15  C   UNL     1      -6.820  28.130 -25.242  1.00  0.00     0.000 C 
BRANCH  15  16
ATOM     16  C   UNL     1      -7.718  27.748 -26.434  1.00  0.00     0.000 C 
BRANCH  16  17
ATOM     17  C   UNL     1      -7.018  26.955 -27.557  1.00  0.00     0.000 C 
BRANCH  17  18
ATOM     18  C   UNL     1      -7.815  25.757 -28.108  1.00  0.00    -0.000 C 
BRANCH  18  19
ATOM     19  C   UNL     1      -9.332  25.819 -27.855  1.00  0.00    -0.000 C 
BRANCH  19  20
ATOM     20  C   UNL     1      -9.895  24.504 -27.290  1.00  0.00    -0.000 C 
BRANCH  20  21
ATOM     21  C   UNL     1      -9.280  24.138 -25.930  1.00  0.00    -0.000 C 
BRANCH  21  22
ATOM     22  C   UNL     1      -9.557  22.681 -25.530  1.00  0.00    -0.000 C 
BRANCH  22  23
ATOM     23  C   UNL     1     -10.217  22.609 -24.146  1.00  0.00    -0.000 C 
BRANCH  23  24
ATOM     24  C   UNL     1      -9.228  22.870 -22.996  1.00  0.00    -0.000 C 
BRANCH  24  25
ATOM     25  C   UNL     1      -9.846  22.823 -21.587  1.00  0.00    -0.003 C 
ATOM     26  C   UNL     1      -8.804  22.910 -20.473  1.00  0.00     0.004 C 
ENDBRANCH  24  25
ENDBRANCH  23  24
ENDBRANCH  22  23
ENDBRANCH  21  22
ENDBRANCH  20  21
ENDBRANCH  19  20
ENDBRANCH  18  19
ENDBRANCH  17  18
ENDBRANCH  16  17
ENDBRANCH  15  16
ENDBRANCH   1  15
TORSDOF 22
ENDMDL
MODEL 3
REMARK VINA RESULT:    -5.244      1.511      2.117
REMARK INTER + INTRA:         -14.086
REMARK INTER:                 -12.153
REMARK INTRA:                  -1.933
REMARK UNBOUND:                -2.097
REMARK SMILES CCCCCCCCCCCCCCCCCCCCCCCC(=O)[O-]
REMARK SMILES IDX 13 1 14 2 15 3 16 4 17 5 18 6 19 7 20 8 21 9 22 10 23 11
REMARK SMILES IDX 24 12 25 13 26 14 12 15 11 16 10 17 9 18 8 19 7 20 6 21 5 22
REMARK SMILES IDX 4 23 3 24 2 25 1 26
REMARK H PARENT
REMARK Flexibility Score: inf
ROOT
ATOM      1  C   UNL     1      -6.401  28.569 -24.246  1.00  0.00     0.000 C 
ENDROOT
BRANCH   1   2
ATOM      2  C   UNL     1      -5.657  29.059 -22.992  1.00  0.00     0.000 C 
BRANCH   2   3
ATOM      3  C   UNL     1      -6.595  29.564 -21.875  1.00  0.00     0.000 C 
BRANCH   3   4
ATOM      4  C   UNL     1      -6.378  28.812 -20.551  1.00  0.00     0.000 C 
BRANCH   4   5
ATOM      5  C   UNL     1      -5.907  27.364 -20.766  1.00  0.00     0.000 C 
BRANCH   5   6
ATOM      6  C   UNL     1      -5.082  26.831 -19.581  1.00  0.00     0.000 C 
BRANCH   6   7
ATOM      7  C   UNL     1      -3.602  26.633 -19.944  1.00  0.00     0.000 C 
BRANCH   7   8
ATOM      8  C   UNL     1      -2.969  27.895 -20.553  1.00  0.00     0.000 C 
BRANCH   8   9
ATOM      9  C   UNL     1      -2.749  29.002 -19.497  1.00  0.00     0.000 C 
BRANCH   9  10
ATOM     10  C   UNL     1      -3.082  30.414 -20.015  1.00  0.00     0.006 C 
BRANCH  10  11
ATOM     11  C   UNL     1      -1.904  31.396 -19.943  1.00  0.00     0.053 C 
BRANCH  11  12
ATOM     12  C   UNL     1      -2.255  32.731 -20.524  1.00  0.00     0.041 C 
ATOM     13  O   UNL     1      -1.345  33.511 -20.912  1.00  0.00    -0.550 OA
ATOM     14  O   UNL     1      -3.584  33.111 -20.652  1.00  0.00    -0.550 OA
ENDBRANCH  11  12
ENDBRANCH  10  11
ENDBRANCH   9  10
ENDBRANCH   8   9
ENDBRANCH   7   8
ENDBRANCH   6   7
ENDBRANCH   5   6
ENDBRANCH   4   5
ENDBRANCH   3   4
ENDBRANCH   2   3
ENDBRANCH   1   2
BRANCH   1  15
ATOM     15  C   UNL     1      -7.864  28.196 -23.959  1.00  0.00     0.000 C 
BRANCH  15  16
ATOM     16  C   UNL     1      -8.528  27.440 -25.125  1.00  0.00     0.000 C 
BRANCH  16  17
ATOM     17  C   UNL     1      -7.797  27.544 -26.479  1.00  0.00     0.000 C 
BRANCH  17  18
ATOM     18  C   UNL     1      -8.211  26.496 -27.530  1.00  0.00    -0.000 C 
BRANCH  18  19
ATOM     19  C   UNL     1      -9.460  25.674 -27.165  1.00  0.00    -0.000 C 
BRANCH  19  20
ATOM     20  C   UNL     1      -9.113  24.314 -26.534  1.00  0.00    -0.000 C 
BRANCH  20  21
ATOM     21  C   UNL     1     -10.361  23.538 -26.087  1.00  0.00    -0.000 C 
BRANCH  21  22
ATOM     22  C   UNL     1     -10.024  22.364 -25.155  1.00  0.00    -0.000 C 
BRANCH  22  23
ATOM     23  C   UNL     1      -9.200  22.841 -23.950  1.00  0.00    -0.000 C 
BRANCH  23  24
ATOM     24  C   UNL     1     -10.024  22.917 -22.652  1.00  0.00    -0.000 C 
BRANCH  24  25
ATOM     25  C   UNL     1      -9.198  22.842 -21.356  1.00  0.00    -0.003 C 
ATOM     26  C   UNL     1     -10.054  22.589 -20.115  1.00  0.00     0.004 C 
ENDBRANCH  24  25
ENDBRANCH  23  24
ENDBRANCH  22  23
ENDBRANCH  21  22
ENDBRANCH  20  21
ENDBRANCH  19  20
ENDBRANCH  18  19
ENDBRANCH  17  18
ENDBRANCH  16  17
ENDBRANCH  15  16
ENDBRANCH   1  15
TORSDOF 22
ENDMDL
MODEL 4
REMARK VINA RESULT:    -5.154      3.654     10.379
REMARK INTER + INTRA:         -13.880
REMARK INTER:                 -12.331
REMARK INTRA:                  -1.550
REMARK UNBOUND:                -2.097
REMARK SMILES CCCCCCCCCCCCCCCCCCCCCCCC(=O)[O-]
REMARK SMILES IDX 13 1 14 2 15 3 16 4 17 5 18 6 19 7 20 8 21 9 22 10 23 11
REMARK SMILES IDX 24 12 25 13 26 14 12 15 11 16 10 17 9 18 8 19 7 20 6 21 5 22
REMARK SMILES IDX 4 23 3 24 2 25 1 26
REMARK H PARENT
REMARK Flexibility Score: inf
ROOT
ATOM      1  C   UNL     1      -6.086  28.746 -22.885  1.00  0.00     0.000 C 
ENDROOT
BRANCH   1   2
ATOM      2  C   UNL     1      -7.394  28.496 -23.655  1.00  0.00     0.000 C 
BRANCH   2   3
ATOM      3  C   UNL     1      -7.176  27.933 -25.076  1.00  0.00     0.000 C 
BRANCH   3   4
ATOM      4  C   UNL     1      -8.502  27.558 -25.761  1.00  0.00     0.000 C 
BRANCH   4   5
ATOM      5  C   UNL     1      -8.294  26.994 -27.176  1.00  0.00     0.000 C 
BRANCH   5   6
ATOM      6  C   UNL     1      -9.281  25.860 -27.508  1.00  0.00     0.000 C 
BRANCH   6   7
ATOM      7  C   UNL     1      -8.871  24.526 -26.866  1.00  0.00     0.000 C 
BRANCH   7   8
ATOM      8  C   UNL     1      -9.956  23.958 -25.938  1.00  0.00     0.000 C 
BRANCH   8   9
ATOM      9  C   UNL     1      -9.555  22.591 -25.340  1.00  0.00     0.000 C 
BRANCH   9  10
ATOM     10  C   UNL     1      -9.004  22.690 -23.905  1.00  0.00     0.006 C 
BRANCH  10  11
ATOM     11  C   UNL     1     -10.056  23.099 -22.863  1.00  0.00     0.053 C 
BRANCH  11  12
ATOM     12  C   UNL     1      -9.596  22.816 -21.466  1.00  0.00     0.041 C 
ATOM     13  O   UNL     1     -10.357  22.221 -20.658  1.00  0.00    -0.550 OA
ATOM     14  O   UNL     1      -8.324  23.197 -21.058  1.00  0.00    -0.550 OA
ENDBRANCH  11  12
ENDBRANCH  10  11
ENDBRANCH   9  10
ENDBRANCH   8   9
ENDBRANCH   7   8
ENDBRANCH   6   7
ENDBRANCH   5   6
ENDBRANCH   4   5
ENDBRANCH   3   4
ENDBRANCH   2   3
ENDBRANCH   1   2
BRANCH   1  15
ATOM     15  C   UNL     1      -6.218  28.450 -21.382  1.00  0.00     0.000 C 
BRANCH  15  16
ATOM     16  C   UNL     1      -5.057  27.598 -20.836  1.00  0.00     0.000 C 
BRANCH  16  17
ATOM     17  C   UNL     1      -3.647  28.179 -21.071  1.00  0.00     0.000 C 
BRANCH  17  18
ATOM     18  C   UNL     1      -2.858  28.523 -19.793  1.00  0.00    -0.000 C 
BRANCH  18  19
ATOM     19  C   UNL     1      -2.273  29.946 -19.758  1.00  0.00    -0.000 C 
BRANCH  19  20
ATOM     20  C   UNL     1      -3.309  31.023 -20.128  1.00  0.00    -0.000 C 
BRANCH  20  21
ATOM     21  C   UNL     1      -2.679  32.416 -20.281  1.00  0.00    -0.000 C 
BRANCH  21  22
ATOM     22  C   UNL     1      -2.063  32.636 -21.671  1.00  0.00    -0.000 C 
BRANCH  22  23
ATOM     23  C   UNL     1      -0.640  33.202 -21.557  1.00  0.00    -0.000 C 
BRANCH  23  24
ATOM     24  C   UNL     1      -0.068  33.101 -20.131  1.00  0.00    -0.000 C 
BRANCH  24  25
ATOM     25  C   UNL     1       0.958  31.972 -19.925  1.00  0.00    -0.003 C 
ATOM     26  C   UNL     1       2.035  31.937 -21.009  1.00  0.00     0.004 C 
ENDBRANCH  24  25
ENDBRANCH  23  24
ENDBRANCH  22  23
ENDBRANCH  21  22
ENDBRANCH  20  21
ENDBRANCH  19  20
ENDBRANCH  18  19
ENDBRANCH  17  18
ENDBRANCH  16  17
ENDBRANCH  15  16
ENDBRANCH   1  15
TORSDOF 22
ENDMDL
MODEL 5
REMARK VINA RESULT:    -5.134      3.447      9.704
REMARK INTER + INTRA:         -13.834
REMARK INTER:                 -11.614
REMARK INTRA:                  -2.220
REMARK UNBOUND:                -2.097
REMARK SMILES CCCCCCCCCCCCCCCCCCCCCCCC(=O)[O-]
REMARK SMILES IDX 13 1 14 2 15 3 16 4 17 5 18 6 19 7 20 8 21 9 22 10 23 11
REMARK SMILES IDX 24 12 25 13 26 14 12 15 11 16 10 17 9 18 8 19 7 20 6 21 5 22
REMARK SMILES IDX 4 23 3 24 2 25 1 26
REMARK H PARENT
REMARK Flexibility Score: inf
ROOT
ATOM      1  C   UNL     1      -4.439  29.330 -22.092  1.00  0.00     0.000 C 
ENDROOT
BRANCH   1   2
ATOM      2  C   UNL     1      -5.419  29.043 -23.242  1.00  0.00     0.000 C 
BRANCH   2   3
ATOM      3  C   UNL     1      -6.843  28.684 -22.765  1.00  0.00     0.000 C 
BRANCH   3   4
ATOM      4  C   UNL     1      -7.718  28.142 -23.909  1.00  0.00     0.000 C 
BRANCH   4   5
ATOM      5  C   UNL     1      -6.957  28.052 -25.241  1.00  0.00     0.000 C 
BRANCH   5   6
ATOM      6  C   UNL     1      -7.872  27.668 -26.417  1.00  0.00     0.000 C 
BRANCH   6   7
ATOM      7  C   UNL     1      -7.109  26.937 -27.534  1.00  0.00     0.000 C 
BRANCH   7   8
ATOM      8  C   UNL     1      -7.758  25.596 -27.913  1.00  0.00     0.000 C 
BRANCH   8   9
ATOM      9  C   UNL     1      -9.175  25.446 -27.315  1.00  0.00     0.000 C 
BRANCH   9  10
ATOM     10  C   UNL     1      -9.365  24.143 -26.517  1.00  0.00     0.006 C 
BRANCH  10  11
ATOM     11  C   UNL     1      -9.676  24.365 -25.029  1.00  0.00     0.053 C 
BRANCH  11  12
ATOM     12  C   UNL     1     -10.044  23.087 -24.339  1.00  0.00     0.041 C 
ATOM     13  O   UNL     1     -10.616  22.165 -24.979  1.00  0.00    -0.550 OA
ATOM     14  O   UNL     1      -9.746  22.906 -22.995  1.00  0.00    -0.550 OA
ENDBRANCH  11  12
ENDBRANCH  10  11
ENDBRANCH   9  10
ENDBRANCH   8   9
ENDBRANCH   7   8
ENDBRANCH   6   7
ENDBRANCH   5   6
ENDBRANCH   4   5
ENDBRANCH   3   4
ENDBRANCH   2   3
ENDBRANCH   1   2
BRANCH   1  15
ATOM     15  C   UNL     1      -3.759  28.059 -21.561  1.00  0.00     0.000 C 
BRANCH  15  16
ATOM     16  C   UNL     1      -4.112  27.760 -20.092  1.00  0.00     0.000 C 
BRANCH  16  17
ATOM     17  C   UNL     1      -5.605  27.489 -19.816  1.00  0.00     0.000 C 
BRANCH  17  18
ATOM     18  C   UNL     1      -6.243  28.376 -18.729  1.00  0.00    -0.000 C 
BRANCH  18  19
ATOM     19  C   UNL     1      -6.745  29.744 -19.225  1.00  0.00    -0.000 C 
BRANCH  19  20
ATOM     20  C   UNL     1      -6.801  30.798 -18.106  1.00  0.00    -0.000 C 
BRANCH  20  21
ATOM     21  C   UNL     1      -6.782  32.234 -18.650  1.00  0.00    -0.000 C 
BRANCH  21  22
ATOM     22  C   UNL     1      -6.274  32.310 -20.098  1.00  0.00    -0.000 C 
BRANCH  22  23
ATOM     23  C   UNL     1      -4.808  32.763 -20.141  1.00  0.00    -0.000 C 
BRANCH  23  24
ATOM     24  C   UNL     1      -4.646  34.228 -20.586  1.00  0.00    -0.000 C 
BRANCH  24  25
ATOM     25  C   UNL     1      -4.391  34.422 -22.091  1.00  0.00    -0.003 C 
ATOM     26  C   UNL     1      -3.641  33.252 -22.727  1.00  0.00     0.004 C 
ENDBRANCH  24  25
ENDBRANCH  23  24
ENDBRANCH  22  23
ENDBRANCH  21  22
ENDBRANCH  20  21
ENDBRANCH  19  20
ENDBRANCH  18  19
ENDBRANCH  17  18
ENDBRANCH  16  17
ENDBRANCH  15  16
ENDBRANCH   1  15
TORSDOF 22
ENDMDL
MODEL 6
REMARK VINA RESULT:    -5.110      3.344      8.813
REMARK INTER + INTRA:         -13.780
REMARK INTER:                 -11.747
REMARK INTRA:                  -2.033
REMARK UNBOUND:                -2.097
REMARK SMILES CCCCCCCCCCCCCCCCCCCCCCCC(=O)[O-]
REMARK SMILES IDX 13 1 14 2 15 3 16 4 17 5 18 6 19 7 20 8 21 9 22 10 23 11
REMARK SMILES IDX 24 12 25 13 26 14 12 15 11 16 10 17 9 18 8 19 7 20 6 21 5 22
REMARK SMILES IDX 4 23 3 24 2 25 1 26
REMARK H PARENT
REMARK Flexibility Score: inf
ROOT
ATOM      1  C   UNL     1      -7.047  28.080 -25.374  1.00  0.00     0.000 C 
ENDROOT
BRANCH   1   2
ATOM      2  C   UNL     1      -8.145  27.338 -26.154  1.00  0.00     0.000 C 
BRANCH   2   3
ATOM      3  C   UNL     1      -7.772  27.048 -27.623  1.00  0.00     0.000 C 
BRANCH   3   4
ATOM      4  C   UNL     1      -8.576  25.873 -28.206  1.00  0.00     0.000 C 
BRANCH   4   5
ATOM      5  C   UNL     1      -8.865  24.782 -27.161  1.00  0.00     0.000 C 
BRANCH   5   6
ATOM      6  C   UNL     1     -10.369  24.626 -26.875  1.00  0.00     0.000 C 
BRANCH   6   7
ATOM      7  C   UNL     1     -10.666  23.422 -25.966  1.00  0.00     0.000 C 
BRANCH   7   8
ATOM      8  C   UNL     1      -9.439  22.518 -25.763  1.00  0.00     0.000 C 
BRANCH   8   9
ATOM      9  C   UNL     1      -8.904  22.583 -24.315  1.00  0.00     0.000 C 
BRANCH   9  10
ATOM     10  C   UNL     1     -10.002  22.414 -23.249  1.00  0.00     0.006 C 
BRANCH  10  11
ATOM     11  C   UNL     1      -9.932  23.447 -22.115  1.00  0.00     0.053 C 
BRANCH  11  12
ATOM     12  C   UNL     1      -9.548  22.818 -20.811  1.00  0.00     0.041 C 
ATOM     13  O   UNL     1      -8.473  23.146 -20.243  1.00  0.00    -0.550 OA
ATOM     14  O   UNL     1     -10.380  21.879 -20.215  1.00  0.00    -0.550 OA
ENDBRANCH  11  12
ENDBRANCH  10  11
ENDBRANCH   9  10
ENDBRANCH   8   9
ENDBRANCH   7   8
ENDBRANCH   6   7
ENDBRANCH   5   6
ENDBRANCH   4   5
ENDBRANCH   3   4
ENDBRANCH   2   3
ENDBRANCH   1   2
BRANCH   1  15
ATOM     15  C   UNL     1      -7.433  28.342 -23.910  1.00  0.00     0.000 C 
BRANCH  15  16
ATOM     16  C   UNL     1      -6.258  28.868 -23.065  1.00  0.00     0.000 C 
BRANCH  16  17
ATOM     17  C   UNL     1      -6.645  29.455 -21.692  1.00  0.00     0.000 C 
BRANCH  17  18
ATOM     18  C   UNL     1      -5.650  30.480 -21.114  1.00  0.00    -0.000 C 
BRANCH  18  19
ATOM     19  C   UNL     1      -4.230  30.406 -21.704  1.00  0.00    -0.000 C 
BRANCH  19  20
ATOM     20  C   UNL     1      -3.138  30.707 -20.663  1.00  0.00    -0.000 C 
BRANCH  20  21
ATOM     21  C   UNL     1      -2.910  29.535 -19.696  1.00  0.00    -0.000 C 
BRANCH  21  22
ATOM     22  C   UNL     1      -2.926  28.172 -20.405  1.00  0.00    -0.000 C 
BRANCH  22  23
ATOM     23  C   UNL     1      -3.428  27.070 -19.461  1.00  0.00    -0.000 C 
BRANCH  23  24
ATOM     24  C   UNL     1      -4.489  26.163 -20.109  1.00  0.00    -0.000 C 
BRANCH  24  25
ATOM     25  C   UNL     1      -5.938  26.663 -19.974  1.00  0.00    -0.003 C 
ATOM     26  C   UNL     1      -6.152  27.549 -18.747  1.00  0.00     0.004 C 
ENDBRANCH  24  25
ENDBRANCH  23  24
ENDBRANCH  22  23
ENDBRANCH  21  22
ENDBRANCH  20  21
ENDBRANCH  19  20
ENDBRANCH  18  19
ENDBRANCH  17  18
ENDBRANCH  16  17
ENDBRANCH  15  16
ENDBRANCH   1  15
TORSDOF 22
ENDMDL
MODEL 7
REMARK VINA RESULT:    -5.044      2.718      5.455
REMARK INTER + INTRA:         -13.628
REMARK INTER:                 -11.230
REMARK INTRA:                  -2.398
REMARK UNBOUND:                -2.097
REMARK SMILES CCCCCCCCCCCCCCCCCCCCCCCC(=O)[O-]
REMARK SMILES IDX 13 1 14 2 15 3 16 4 17 5 18 6 19 7 20 8 21 9 22 10 23 11
REMARK SMILES IDX 24 12 25 13 26 14 12 15 11 16 10 17 9 18 8 19 7 20 6 21 5 22
REMARK SMILES IDX 4 23 3 24 2 25 1 26
REMARK H PARENT
REMARK Flexibility Score: inf
ROOT
ATOM      1  C   UNL     1      -4.314  26.620 -20.108  1.00  0.00     0.000 C 
ENDROOT
BRANCH   1   2
ATOM      2  C   UNL     1      -5.771  26.634 -19.616  1.00  0.00     0.000 C 
BRANCH   2   3
ATOM      3  C   UNL     1      -6.297  28.047 -19.283  1.00  0.00     0.000 C 
BRANCH   3   4
ATOM      4  C   UNL     1      -6.808  28.149 -17.836  1.00  0.00     0.000 C 
BRANCH   4   5
ATOM      5  C   UNL     1      -7.305  29.561 -17.485  1.00  0.00     0.000 C 
BRANCH   5   6
ATOM      6  C   UNL     1      -6.809  30.624 -18.481  1.00  0.00     0.000 C 
BRANCH   6   7
ATOM      7  C   UNL     1      -6.893  32.047 -17.904  1.00  0.00     0.000 C 
BRANCH   7   8
ATOM      8  C   UNL     1      -6.624  33.130 -18.961  1.00  0.00     0.000 C 
BRANCH   8   9
ATOM      9  C   UNL     1      -5.850  32.575 -20.178  1.00  0.00     0.000 C 
BRANCH   9  10
ATOM     10  C   UNL     1      -4.971  33.630 -20.875  1.00  0.00     0.006 C 
BRANCH  10  11
ATOM     11  C   UNL     1      -4.059  33.054 -21.969  1.00  0.00     0.053 C 
BRANCH  11  12
ATOM     12  C   UNL     1      -3.693  34.087 -22.991  1.00  0.00     0.041 C 
ATOM     13  O   UNL     1      -4.192  34.037 -24.146  1.00  0.00    -0.550 OA
ATOM     14  O   UNL     1      -2.813  35.111 -22.667  1.00  0.00    -0.550 OA
ENDBRANCH  11  12
ENDBRANCH  10  11
ENDBRANCH   9  10
ENDBRANCH   8   9
ENDBRANCH   7   8
ENDBRANCH   6   7
ENDBRANCH   5   6
ENDBRANCH   4   5
ENDBRANCH   3   4
ENDBRANCH   2   3
ENDBRANCH   1   2
BRANCH   1  15
ATOM     15  C   UNL     1      -3.406  27.559 -19.298  1.00  0.00     0.000 C 
BRANCH  15  16
ATOM     16  C   UNL     1      -2.749  28.650 -20.164  1.00  0.00     0.000 C 
BRANCH  16  17
ATOM     17  C   UNL     1      -3.725  29.651 -20.815  1.00  0.00     0.000 C 
BRANCH  17  18
ATOM     18  C   UNL     1      -4.302  29.214 -22.175  1.00  0.00    -0.000 C 
BRANCH  18  19
ATOM     19  C   UNL     1      -5.757  29.647 -22.428  1.00  0.00    -0.000 C 
BRANCH  19  20
ATOM     20  C   UNL     1      -6.666  28.471 -22.826  1.00  0.00    -0.000 C 
BRANCH  20  21
ATOM     21  C   UNL     1      -6.939  28.423 -24.337  1.00  0.00    -0.000 C 
BRANCH  21  22
ATOM     22  C   UNL     1      -8.249  27.697 -24.678  1.00  0.00    -0.000 C 
BRANCH  22  23
ATOM     23  C   UNL     1      -8.456  27.626 -26.198  1.00  0.00    -0.000 C 
BRANCH  23  24
ATOM     24  C   UNL     1      -7.168  27.268 -26.963  1.00  0.00    -0.000 C 
BRANCH  24  25
ATOM     25  C   UNL     1      -7.328  26.153 -28.011  1.00  0.00    -0.003 C 
ATOM     26  C   UNL     1      -8.743  25.577 -28.061  1.00  0.00     0.004 C 
ENDBRANCH  24  25
ENDBRANCH  23  24
ENDBRANCH  22  23
ENDBRANCH  21  22
ENDBRANCH  20  21
ENDBRANCH  19  20
ENDBRANCH  18  19
ENDBRANCH  17  18
ENDBRANCH  16  17
ENDBRANCH  15  16
ENDBRANCH   1  15
TORSDOF 22
ENDMDL
MODEL 8
REMARK VINA RESULT:    -5.034      1.605      2.732
REMARK INTER + INTRA:         -13.605
REMARK INTER:                 -11.881
REMARK INTRA:                  -1.724
REMARK UNBOUND:                -2.097
REMARK SMILES CCCCCCCCCCCCCCCCCCCCCCCC(=O)[O-]
REMARK SMILES IDX 13 1 14 2 15 3 16 4 17 5 18 6 19 7 20 8 21 9 22 10 23 11
REMARK SMILES IDX 24 12 25 13 26 14 12 15 11 16 10 17 9 18 8 19 7 20 6 21 5 22
REMARK SMILES IDX 4 23 3 24 2 25 1 26
REMARK H PARENT
REMARK Flexibility Score: inf
ROOT
ATOM      1  C   UNL     1      -6.626  28.484 -24.222  1.00  0.00     0.000 C 
ENDROOT
BRANCH   1   2
ATOM      2  C   UNL     1      -6.147  28.909 -22.823  1.00  0.00     0.000 C 
BRANCH   2   3
ATOM      3  C   UNL     1      -4.683  29.400 -22.795  1.00  0.00     0.000 C 
BRANCH   3   4
ATOM      4  C   UNL     1      -4.353  30.166 -21.501  1.00  0.00     0.000 C 
BRANCH   4   5
ATOM      5  C   UNL     1      -4.337  31.689 -21.707  1.00  0.00     0.000 C 
BRANCH   5   6
ATOM      6  C   UNL     1      -4.519  32.463 -20.389  1.00  0.00     0.000 C 
BRANCH   6   7
ATOM      7  C   UNL     1      -5.993  32.796 -20.108  1.00  0.00     0.000 C 
BRANCH   7   8
ATOM      8  C   UNL     1      -6.860  31.540 -19.930  1.00  0.00     0.000 C 
BRANCH   8   9
ATOM      9  C   UNL     1      -6.873  31.045 -18.467  1.00  0.00     0.000 C 
BRANCH   9  10
ATOM     10  C   UNL     1      -6.053  29.759 -18.249  1.00  0.00     0.006 C 
BRANCH  10  11
ATOM     11  C   UNL     1      -6.575  28.549 -19.037  1.00  0.00     0.053 C 
BRANCH  11  12
ATOM     12  C   UNL     1      -5.470  27.608 -19.410  1.00  0.00     0.041 C 
ATOM     13  O   UNL     1      -5.716  26.591 -20.111  1.00  0.00    -0.550 OA
ATOM     14  O   UNL     1      -4.169  27.858 -18.996  1.00  0.00    -0.550 OA
ENDBRANCH  11  12
ENDBRANCH  10  11
ENDBRANCH   9  10
ENDBRANCH   8   9
ENDBRANCH   7   8
ENDBRANCH   6   7
ENDBRANCH   5   6
ENDBRANCH   4   5
ENDBRANCH   3   4
ENDBRANCH   2   3
ENDBRANCH   1   2
BRANCH   1  15
ATOM     15  C   UNL     1      -8.096  28.036 -24.234  1.00  0.00     0.000 C 
BRANCH  15  16
ATOM     16  C   UNL     1      -8.607  27.697 -25.646  1.00  0.00     0.000 C 
BRANCH  16  17
ATOM     17  C   UNL     1      -7.510  27.413 -26.693  1.00  0.00     0.000 C 
BRANCH  17  18
ATOM     18  C   UNL     1      -7.897  26.406 -27.792  1.00  0.00    -0.000 C 
BRANCH  18  19
ATOM     19  C   UNL     1      -9.247  25.698 -27.573  1.00  0.00    -0.000 C 
BRANCH  19  20
ATOM     20  C   UNL     1      -9.093  24.319 -26.908  1.00  0.00    -0.000 C 
BRANCH  20  21
ATOM     21  C   UNL     1     -10.352  23.896 -26.135  1.00  0.00    -0.000 C 
BRANCH  21  22
ATOM     22  C   UNL     1     -10.080  22.753 -25.145  1.00  0.00    -0.000 C 
BRANCH  22  23
ATOM     23  C   UNL     1      -9.458  23.288 -23.848  1.00  0.00    -0.000 C 
BRANCH  23  24
ATOM     24  C   UNL     1      -9.805  22.429 -22.618  1.00  0.00    -0.000 C 
BRANCH  24  25
ATOM     25  C   UNL     1      -9.267  22.968 -21.281  1.00  0.00    -0.003 C 
ATOM     26  C   UNL     1     -10.364  23.178 -20.236  1.00  0.00     0.004 C 
ENDBRANCH  24  25
ENDBRANCH  23  24
ENDBRANCH  22  23
ENDBRANCH  21  22
ENDBRANCH  20  21
ENDBRANCH  19  20
ENDBRANCH  18  19
ENDBRANCH  17  18
ENDBRANCH  16  17
ENDBRANCH  15  16
ENDBRANCH   1  15
TORSDOF 22
ENDMDL
MODEL 9
REMARK VINA RESULT:    -4.935      4.883      9.748
REMARK INTER + INTRA:         -13.378
REMARK INTER:                  -9.978
REMARK INTRA:                  -3.400
REMARK UNBOUND:                -2.097
REMARK SMILES CCCCCCCCCCCCCCCCCCCCCCCC(=O)[O-]
REMARK SMILES IDX 13 1 14 2 15 3 16 4 17 5 18 6 19 7 20 8 21 9 22 10 23 11
REMARK SMILES IDX 24 12 25 13 26 14 12 15 11 16 10 17 9 18 8 19 7 20 6 21 5 22
REMARK SMILES IDX 4 23 3 24 2 25 1 26
REMARK H PARENT
REMARK Flexibility Score: inf
ROOT
ATOM      1  C   UNL     1      -2.810  30.257 -20.031  1.00  0.00     0.000 C 
ENDROOT
BRANCH   1   2
ATOM      2  C   UNL     1      -2.255  29.006 -19.330  1.00  0.00     0.000 C 
BRANCH   2   3
ATOM      3  C   UNL     1      -3.338  27.962 -18.981  1.00  0.00     0.000 C 
BRANCH   3   4
ATOM      4  C   UNL     1      -3.399  26.822 -20.013  1.00  0.00     0.000 C 
BRANCH   4   5
ATOM      5  C   UNL     1      -4.796  26.189 -20.109  1.00  0.00     0.000 C 
BRANCH   5   6
ATOM      6  C   UNL     1      -5.923  27.232 -20.008  1.00  0.00     0.000 C 
BRANCH   6   7
ATOM      7  C   UNL     1      -6.004  28.123 -21.258  1.00  0.00     0.000 C 
BRANCH   7   8
ATOM      8  C   UNL     1      -6.380  29.576 -20.925  1.00  0.00     0.000 C 
BRANCH   8   9
ATOM      9  C   UNL     1      -6.477  29.816 -19.402  1.00  0.00     0.000 C 
BRANCH   9  10
ATOM     10  C   UNL     1      -6.692  31.295 -19.030  1.00  0.00     0.006 C 
BRANCH  10  11
ATOM     11  C   UNL     1      -6.054  32.284 -20.017  1.00  0.00     0.053 C 
BRANCH  11  12
ATOM     12  C   UNL     1      -6.238  33.705 -19.581  1.00  0.00     0.041 C 
ATOM     13  O   UNL     1      -5.934  34.648 -20.358  1.00  0.00    -0.550 OA
ATOM     14  O   UNL     1      -6.757  33.989 -18.325  1.00  0.00    -0.550 OA
ENDBRANCH  11  12
ENDBRANCH  10  11
ENDBRANCH   9  10
ENDBRANCH   8   9
ENDBRANCH   7   8
ENDBRANCH   6   7
ENDBRANCH   5   6
ENDBRANCH   4   5
ENDBRANCH   3   4
ENDBRANCH   2   3
ENDBRANCH   1   2
BRANCH   1  15
ATOM     15  C   UNL     1      -1.914  31.491 -19.838  1.00  0.00     0.000 C 
BRANCH  15  16
ATOM     16  C   UNL     1      -2.514  32.769 -20.453  1.00  0.00     0.000 C 
BRANCH  16  17
ATOM     17  C   UNL     1      -2.850  32.680 -21.956  1.00  0.00     0.000 C 
BRANCH  17  18
ATOM     18  C   UNL     1      -1.878  33.425 -22.891  1.00  0.00    -0.000 C 
BRANCH  18  19
ATOM     19  C   UNL     1      -0.618  33.979 -22.202  1.00  0.00    -0.000 C 
BRANCH  19  20
ATOM     20  C   UNL     1       0.624  33.932 -23.110  1.00  0.00    -0.000 C 
BRANCH  20  21
ATOM     21  C   UNL     1       1.788  33.155 -22.474  1.00  0.00    -0.000 C 
BRANCH  21  22
ATOM     22  C   UNL     1       1.324  32.206 -21.360  1.00  0.00    -0.000 C 
BRANCH  22  23
ATOM     23  C   UNL     1       2.302  32.231 -20.176  1.00  0.00    -0.000 C 
BRANCH  23  24
ATOM     24  C   UNL     1       1.606  32.490 -18.828  1.00  0.00    -0.000 C 
BRANCH  24  25
ATOM     25  C   UNL     1       0.758  33.774 -18.775  1.00  0.00    -0.003 C 
ATOM     26  C   UNL     1       1.579  35.042 -19.007  1.00  0.00     0.004 C 
ENDBRANCH  24  25
ENDBRANCH  23  24
ENDBRANCH  22  23
ENDBRANCH  21  22
ENDBRANCH  20  21
ENDBRANCH  19  20
ENDBRANCH  18  19
ENDBRANCH  17  18
ENDBRANCH  16  17
ENDBRANCH  15  16
ENDBRANCH   1  15
TORSDOF 22
ENDMDL
