MODEL 1
REMARK VINA RESULT:    -5.674      0.000      0.000
REMARK INTER + INTRA:         -18.658
REMARK INTER:                 -14.962
REMARK INTRA:                  -3.696
REMARK UNBOUND:                -3.696
REMARK SMILES CCCCCCCCCCCCCCCCCCCCCCCCCCCCCC(=O)[O-]
REMARK SMILES IDX 16 1 17 2 18 3 19 4 20 5 21 6 22 7 23 8 24 9 25 10 26 11
REMARK SMILES IDX 27 12 28 13 29 14 30 15 31 16 32 17 15 18 14 19 13 20 12 21
REMARK SMILES IDX 11 22 10 23 9 24 8 25 7 26 6 27 5 28 4 29 3 30 2 31 1 32
REMARK H PARENT
REMARK Flexibility Score: inf
ROOT
ATOM      1  C   UNL     1      17.638 -46.515 -21.893  1.00  0.00     0.000 C 
ENDROOT
BRANCH   1   2
ATOM      2  C   UNL     1      18.364 -47.868 -22.011  1.00  0.00     0.000 C 
BRANCH   2   3
ATOM      3  C   UNL     1      19.752 -47.858 -21.353  1.00  0.00     0.000 C 
BRANCH   3   4
ATOM      4  C   UNL     1      20.352 -46.447 -21.242  1.00  0.00     0.000 C 
BRANCH   4   5
ATOM      5  C   UNL     1      21.501 -46.206 -22.237  1.00  0.00     0.000 C 
BRANCH   5   6
ATOM      6  C   UNL     1      21.418 -44.824 -22.905  1.00  0.00     0.000 C 
BRANCH   6   7
ATOM      7  C   UNL     1      20.501 -43.853 -22.137  1.00  0.00     0.000 C 
BRANCH   7   8
ATOM      8  C   UNL     1      20.435 -42.462 -22.803  1.00  0.00     0.000 C 
BRANCH   8   9
ATOM      9  C   UNL     1      20.368 -42.517 -24.340  1.00  0.00     0.000 C 
BRANCH   9  10
ATOM     10  C   UNL     1      19.364 -41.517 -24.931  1.00  0.00     0.000 C 
BRANCH  10  11
ATOM     11  C   UNL     1      18.191 -41.275 -23.972  1.00  0.00     0.000 C 
BRANCH  11  12
ATOM     12  C   UNL     1      17.062 -42.288 -24.220  1.00  0.00     0.000 C 
BRANCH  12  13
ATOM     13  C   UNL     1      16.042 -42.345 -23.069  1.00  0.00     0.006 C 
BRANCH  13  14
ATOM     14  C   UNL     1      16.279 -41.309 -21.959  1.00  0.00     0.053 C 
BRANCH  14  15
ATOM     15  C   UNL     1      16.456 -41.954 -20.618  1.00  0.00     0.041 C 
ATOM     16  O   UNL     1      17.389 -42.778 -20.428  1.00  0.00    -0.550 OA
ATOM     17  O   UNL     1      15.574 -41.662 -19.586  1.00  0.00    -0.550 OA
ENDBRANCH  14  15
ENDBRANCH  13  14
ENDBRANCH  12  13
ENDBRANCH  11  12
ENDBRANCH  10  11
ENDBRANCH   9  10
ENDBRANCH   8   9
ENDBRANCH   7   8
ENDBRANCH   6   7
ENDBRANCH   5   6
ENDBRANCH   4   5
ENDBRANCH   3   4
ENDBRANCH   2   3
ENDBRANCH   1   2
BRANCH   1  18
ATOM     18  C   UNL     1      17.307 -45.865 -23.253  1.00  0.00     0.000 C 
BRANCH  18  19
ATOM     19  C   UNL     1      18.134 -46.464 -24.402  1.00  0.00     0.000 C 
BRANCH  19  20
ATOM     20  C   UNL     1      18.721 -45.395 -25.341  1.00  0.00     0.000 C 
BRANCH  20  21
ATOM     21  C   UNL     1      17.791 -45.024 -26.515  1.00  0.00     0.000 C 
BRANCH  21  22
ATOM     22  C   UNL     1      18.309 -45.547 -27.865  1.00  0.00     0.000 C 
BRANCH  22  23
ATOM     23  C   UNL     1      17.161 -45.887 -28.844  1.00  0.00     0.000 C 
BRANCH  23  24
ATOM     24  C   UNL     1      17.299 -47.281 -29.482  1.00  0.00    -0.000 C 
BRANCH  24  25
ATOM     25  C   UNL     1      17.761 -47.255 -30.950  1.00  0.00    -0.000 C 
BRANCH  25  26
ATOM     26  C   UNL     1      19.264 -47.570 -31.131  1.00  0.00    -0.000 C 
BRANCH  26  27
ATOM     27  C   UNL     1      19.530 -48.511 -32.318  1.00  0.00    -0.000 C 
BRANCH  27  28
ATOM     28  C   UNL     1      20.195 -49.832 -31.895  1.00  0.00    -0.000 C 
BRANCH  28  29
ATOM     29  C   UNL     1      19.854 -50.995 -32.845  1.00  0.00    -0.000 C 
BRANCH  29  30
ATOM     30  C   UNL     1      21.103 -51.763 -33.308  1.00  0.00    -0.000 C 
BRANCH  30  31
ATOM     31  C   UNL     1      20.940 -53.285 -33.191  1.00  0.00    -0.003 C 
ATOM     32  C   UNL     1      19.470 -53.688 -33.265  1.00  0.00     0.004 C 
ENDBRANCH  30  31
ENDBRANCH  29  30
ENDBRANCH  28  29
ENDBRANCH  27  28
ENDBRANCH  26  27
ENDBRANCH  25  26
ENDBRANCH  24  25
ENDBRANCH  23  24
ENDBRANCH  22  23
ENDBRANCH  21  22
ENDBRANCH  20  21
ENDBRANCH  19  20
ENDBRANCH  18  19
ENDBRANCH   1  18
TORSDOF 28
ENDMDL
MODEL 2
REMARK VINA RESULT:    -5.614      2.077      4.110
REMARK INTER + INTRA:         -18.501
REMARK INTER:                 -15.322
REMARK INTRA:                  -3.179
REMARK UNBOUND:                -3.696
REMARK SMILES CCCCCCCCCCCCCCCCCCCCCCCCCCCCCC(=O)[O-]
REMARK SMILES IDX 16 1 17 2 18 3 19 4 20 5 21 6 22 7 23 8 24 9 25 10 26 11
REMARK SMILES IDX 27 12 28 13 29 14 30 15 31 16 32 17 15 18 14 19 13 20 12 21
REMARK SMILES IDX 11 22 10 23 9 24 8 25 7 26 6 27 5 28 4 29 3 30 2 31 1 32
REMARK H PARENT
REMARK Flexibility Score: inf
ROOT
ATOM      1  C   UNL     1      19.504 -45.421 -24.994  1.00  0.00     0.000 C 
ENDROOT
BRANCH   1   2
ATOM      2  C   UNL     1      20.214 -44.173 -25.550  1.00  0.00     0.000 C 
BRANCH   2   3
ATOM      3  C   UNL     1      20.188 -42.989 -24.571  1.00  0.00     0.000 C 
BRANCH   3   4
ATOM      4  C   UNL     1      19.546 -41.728 -25.174  1.00  0.00     0.000 C 
BRANCH   4   5
ATOM      5  C   UNL     1      18.347 -41.219 -24.353  1.00  0.00     0.000 C 
BRANCH   5   6
ATOM      6  C   UNL     1      17.216 -42.256 -24.263  1.00  0.00     0.000 C 
BRANCH   6   7
ATOM      7  C   UNL     1      15.909 -41.656 -23.708  1.00  0.00     0.000 C 
BRANCH   7   8
ATOM      8  C   UNL     1      15.652 -42.071 -22.244  1.00  0.00     0.000 C 
BRANCH   8   9
ATOM      9  C   UNL     1      16.625 -41.427 -21.241  1.00  0.00     0.000 C 
BRANCH   9  10
ATOM     10  C   UNL     1      17.433 -42.459 -20.443  1.00  0.00     0.000 C 
BRANCH  10  11
ATOM     11  C   UNL     1      18.741 -42.815 -21.161  1.00  0.00     0.000 C 
BRANCH  11  12
ATOM     12  C   UNL     1      18.725 -44.277 -21.636  1.00  0.00     0.000 C 
BRANCH  12  13
ATOM     13  C   UNL     1      17.367 -44.966 -21.414  1.00  0.00     0.006 C 
BRANCH  13  14
ATOM     14  C   UNL     1      16.956 -45.935 -22.534  1.00  0.00     0.053 C 
BRANCH  14  15
ATOM     15  C   UNL     1      16.731 -47.324 -22.020  1.00  0.00     0.041 C 
ATOM     16  O   UNL     1      15.563 -47.732 -21.785  1.00  0.00    -0.550 OA
ATOM     17  O   UNL     1      17.814 -48.158 -21.777  1.00  0.00    -0.550 OA
ENDBRANCH  14  15
ENDBRANCH  13  14
ENDBRANCH  12  13
ENDBRANCH  11  12
ENDBRANCH  10  11
ENDBRANCH   9  10
ENDBRANCH   8   9
ENDBRANCH   7   8
ENDBRANCH   6   7
ENDBRANCH   5   6
ENDBRANCH   4   5
ENDBRANCH   3   4
ENDBRANCH   2   3
ENDBRANCH   1   2
BRANCH   1  18
ATOM     18  C   UNL     1      18.195 -45.773 -25.733  1.00  0.00     0.000 C 
BRANCH  18  19
ATOM     19  C   UNL     1      17.861 -44.761 -26.842  1.00  0.00     0.000 C 
BRANCH  19  20
ATOM     20  C   UNL     1      17.261 -45.421 -28.096  1.00  0.00     0.000 C 
BRANCH  20  21
ATOM     21  C   UNL     1      18.302 -45.722 -29.195  1.00  0.00     0.000 C 
BRANCH  21  22
ATOM     22  C   UNL     1      17.740 -45.512 -30.612  1.00  0.00     0.000 C 
BRANCH  22  23
ATOM     23  C   UNL     1      18.077 -46.689 -31.557  1.00  0.00     0.000 C 
BRANCH  23  24
ATOM     24  C   UNL     1      19.108 -47.667 -30.967  1.00  0.00    -0.000 C 
BRANCH  24  25
ATOM     25  C   UNL     1      19.261 -48.974 -31.767  1.00  0.00    -0.000 C 
BRANCH  25  26
ATOM     26  C   UNL     1      20.121 -48.820 -33.043  1.00  0.00    -0.000 C 
BRANCH  26  27
ATOM     27  C   UNL     1      20.677 -50.164 -33.544  1.00  0.00    -0.000 C 
BRANCH  27  28
ATOM     28  C   UNL     1      20.516 -51.298 -32.519  1.00  0.00    -0.000 C 
BRANCH  28  29
ATOM     29  C   UNL     1      21.435 -52.496 -32.815  1.00  0.00    -0.000 C 
BRANCH  29  30
ATOM     30  C   UNL     1      21.012 -53.266 -34.076  1.00  0.00    -0.000 C 
BRANCH  30  31
ATOM     31  C   UNL     1      20.353 -54.615 -33.755  1.00  0.00    -0.003 C 
ATOM     32  C   UNL     1      18.832 -54.492 -33.725  1.00  0.00     0.004 C 
ENDBRANCH  30  31
ENDBRANCH  29  30
ENDBRANCH  28  29
ENDBRANCH  27  28
ENDBRANCH  26  27
ENDBRANCH  25  26
ENDBRANCH  24  25
ENDBRANCH  23  24
ENDBRANCH  22  23
ENDBRANCH  21  22
ENDBRANCH  20  21
ENDBRANCH  19  20
ENDBRANCH  18  19
ENDBRANCH   1  18
TORSDOF 28
ENDMDL
MODEL 3
REMARK VINA RESULT:    -5.549      2.009      4.175
REMARK INTER + INTRA:         -18.330
REMARK INTER:                 -15.146
REMARK INTRA:                  -3.184
REMARK UNBOUND:                -3.696
REMARK SMILES CCCCCCCCCCCCCCCCCCCCCCCCCCCCCC(=O)[O-]
REMARK SMILES IDX 16 1 17 2 18 3 19 4 20 5 21 6 22 7 23 8 24 9 25 10 26 11
REMARK SMILES IDX 27 12 28 13 29 14 30 15 31 16 32 17 15 18 14 19 13 20 12 21
REMARK SMILES IDX 11 22 10 23 9 24 8 25 7 26 6 27 5 28 4 29 3 30 2 31 1 32
REMARK H PARENT
REMARK Flexibility Score: inf
ROOT
ATOM      1  C   UNL     1      17.446 -42.325 -24.286  1.00  0.00     0.000 C 
ENDROOT
BRANCH   1   2
ATOM      2  C   UNL     1      16.246 -41.745 -23.515  1.00  0.00     0.000 C 
BRANCH   2   3
ATOM      3  C   UNL     1      16.671 -40.877 -22.321  1.00  0.00     0.000 C 
BRANCH   3   4
ATOM      4  C   UNL     1      16.540 -41.607 -20.974  1.00  0.00     0.000 C 
BRANCH   4   5
ATOM      5  C   UNL     1      17.819 -42.368 -20.580  1.00  0.00     0.000 C 
BRANCH   5   6
ATOM      6  C   UNL     1      19.097 -41.609 -20.974  1.00  0.00     0.000 C 
BRANCH   6   7
ATOM      7  C   UNL     1      20.008 -42.432 -21.904  1.00  0.00     0.000 C 
BRANCH   7   8
ATOM      8  C   UNL     1      19.903 -43.947 -21.634  1.00  0.00     0.000 C 
BRANCH   8   9
ATOM      9  C   UNL     1      21.195 -44.722 -21.951  1.00  0.00     0.000 C 
BRANCH   9  10
ATOM     10  C   UNL     1      20.929 -46.136 -22.485  1.00  0.00     0.000 C 
BRANCH  10  11
ATOM     11  C   UNL     1      19.816 -46.830 -21.689  1.00  0.00     0.000 C 
BRANCH  11  12
ATOM     12  C   UNL     1      18.535 -46.949 -22.529  1.00  0.00     0.000 C 
BRANCH  12  13
ATOM     13  C   UNL     1      17.269 -46.537 -21.756  1.00  0.00     0.006 C 
BRANCH  13  14
ATOM     14  C   UNL     1      15.967 -47.149 -22.297  1.00  0.00     0.053 C 
BRANCH  14  15
ATOM     15  C   UNL     1      15.416 -48.198 -21.381  1.00  0.00     0.041 C 
ATOM     16  O   UNL     1      14.229 -48.119 -20.966  1.00  0.00    -0.550 OA
ATOM     17  O   UNL     1      16.223 -49.249 -20.965  1.00  0.00    -0.550 OA
ENDBRANCH  14  15
ENDBRANCH  13  14
ENDBRANCH  12  13
ENDBRANCH  11  12
ENDBRANCH  10  11
ENDBRANCH   9  10
ENDBRANCH   8   9
ENDBRANCH   7   8
ENDBRANCH   6   7
ENDBRANCH   5   6
ENDBRANCH   4   5
ENDBRANCH   3   4
ENDBRANCH   2   3
ENDBRANCH   1   2
BRANCH   1  18
ATOM     18  C   UNL     1      17.410 -43.862 -24.430  1.00  0.00     0.000 C 
BRANCH  18  19
ATOM     19  C   UNL     1      18.646 -44.407 -25.165  1.00  0.00     0.000 C 
BRANCH  19  20
ATOM     20  C   UNL     1      18.337 -45.651 -26.017  1.00  0.00     0.000 C 
BRANCH  20  21
ATOM     21  C   UNL     1      17.640 -45.326 -27.356  1.00  0.00     0.000 C 
BRANCH  21  22
ATOM     22  C   UNL     1      17.928 -46.379 -28.440  1.00  0.00     0.000 C 
BRANCH  22  23
ATOM     23  C   UNL     1      18.741 -45.799 -29.621  1.00  0.00     0.000 C 
BRANCH  23  24
ATOM     24  C   UNL     1      17.877 -45.466 -30.849  1.00  0.00    -0.000 C 
BRANCH  24  25
ATOM     25  C   UNL     1      18.025 -46.466 -32.010  1.00  0.00    -0.000 C 
BRANCH  25  26
ATOM     26  C   UNL     1      19.225 -47.428 -31.849  1.00  0.00    -0.000 C 
BRANCH  26  27
ATOM     27  C   UNL     1      19.880 -47.786 -33.193  1.00  0.00    -0.000 C 
BRANCH  27  28
ATOM     28  C   UNL     1      20.126 -49.295 -33.355  1.00  0.00    -0.000 C 
BRANCH  28  29
ATOM     29  C   UNL     1      20.442 -49.988 -32.017  1.00  0.00    -0.000 C 
BRANCH  29  30
ATOM     30  C   UNL     1      20.597 -51.510 -32.164  1.00  0.00    -0.000 C 
BRANCH  30  31
ATOM     31  C   UNL     1      19.389 -52.166 -32.849  1.00  0.00    -0.003 C 
ATOM     32  C   UNL     1      19.681 -53.622 -33.201  1.00  0.00     0.004 C 
ENDBRANCH  30  31
ENDBRANCH  29  30
ENDBRANCH  28  29
ENDBRANCH  27  28
ENDBRANCH  26  27
ENDBRANCH  25  26
ENDBRANCH  24  25
ENDBRANCH  23  24
ENDBRANCH  22  23
ENDBRANCH  21  22
ENDBRANCH  20  21
ENDBRANCH  19  20
ENDBRANCH  18  19
ENDBRANCH   1  18
TORSDOF 28
ENDMDL
MODEL 4
REMARK VINA RESULT:    -5.532      4.788     12.031
REMARK INTER + INTRA:         -18.282
REMARK INTER:                 -15.313
REMARK INTRA:                  -2.970
REMARK UNBOUND:                -3.696
REMARK SMILES CCCCCCCCCCCCCCCCCCCCCCCCCCCCCC(=O)[O-]
REMARK SMILES IDX 16 1 17 2 18 3 19 4 20 5 21 6 22 7 23 8 24 9 25 10 26 11
REMARK SMILES IDX 27 12 28 13 29 14 30 15 31 16 32 17 15 18 14 19 13 20 12 21
REMARK SMILES IDX 11 22 10 23 9 24 8 25 7 26 6 27 5 28 4 29 3 30 2 31 1 32
REMARK H PARENT
REMARK Flexibility Score: inf
ROOT
ATOM      1  C   UNL     1      17.645 -45.326 -27.525  1.00  0.00     0.000 C 
ENDROOT
BRANCH   1   2
ATOM      2  C   UNL     1      17.930 -46.655 -28.248  1.00  0.00     0.000 C 
BRANCH   2   3
ATOM      3  C   UNL     1      17.373 -46.684 -29.679  1.00  0.00     0.000 C 
BRANCH   3   4
ATOM      4  C   UNL     1      18.250 -45.911 -30.678  1.00  0.00     0.000 C 
BRANCH   4   5
ATOM      5  C   UNL     1      18.218 -46.515 -32.094  1.00  0.00     0.000 C 
BRANCH   5   6
ATOM      6  C   UNL     1      19.455 -47.378 -32.391  1.00  0.00     0.000 C 
BRANCH   6   7
ATOM      7  C   UNL     1      19.255 -48.852 -31.993  1.00  0.00     0.000 C 
BRANCH   7   8
ATOM      8  C   UNL     1      20.182 -49.801 -32.781  1.00  0.00     0.000 C 
BRANCH   8   9
ATOM      9  C   UNL     1      20.262 -51.219 -32.188  1.00  0.00     0.000 C 
BRANCH   9  10
ATOM     10  C   UNL     1      21.371 -52.071 -32.821  1.00  0.00     0.000 C 
BRANCH  10  11
ATOM     11  C   UNL     1      21.449 -51.843 -34.336  1.00  0.00     0.000 C 
BRANCH  11  12
ATOM     12  C   UNL     1      21.850 -53.136 -35.064  1.00  0.00     0.000 C 
BRANCH  12  13
ATOM     13  C   UNL     1      21.374 -54.407 -34.339  1.00  0.00     0.006 C 
BRANCH  13  14
ATOM     14  C   UNL     1      20.278 -55.189 -35.080  1.00  0.00     0.053 C 
BRANCH  14  15
ATOM     15  C   UNL     1      18.919 -54.936 -34.502  1.00  0.00     0.041 C 
ATOM     16  O   UNL     1      18.792 -54.243 -33.458  1.00  0.00    -0.550 OA
ATOM     17  O   UNL     1      17.797 -55.489 -35.103  1.00  0.00    -0.550 OA
ENDBRANCH  14  15
ENDBRANCH  13  14
ENDBRANCH  12  13
ENDBRANCH  11  12
ENDBRANCH  10  11
ENDBRANCH   9  10
ENDBRANCH   8   9
ENDBRANCH   7   8
ENDBRANCH   6   7
ENDBRANCH   5   6
ENDBRANCH   4   5
ENDBRANCH   3   4
ENDBRANCH   2   3
ENDBRANCH   1   2
BRANCH   1  18
ATOM     18  C   UNL     1      18.638 -45.012 -26.384  1.00  0.00     0.000 C 
BRANCH  18  19
ATOM     19  C   UNL     1      18.099 -43.942 -25.421  1.00  0.00     0.000 C 
BRANCH  19  20
ATOM     20  C   UNL     1      19.151 -42.879 -25.055  1.00  0.00     0.000 C 
BRANCH  20  21
ATOM     21  C   UNL     1      18.542 -41.530 -24.620  1.00  0.00     0.000 C 
BRANCH  21  22
ATOM     22  C   UNL     1      17.200 -41.697 -23.888  1.00  0.00     0.000 C 
BRANCH  22  23
ATOM     23  C   UNL     1      17.251 -41.166 -22.436  1.00  0.00     0.000 C 
BRANCH  23  24
ATOM     24  C   UNL     1      16.791 -42.200 -21.394  1.00  0.00    -0.000 C 
BRANCH  24  25
ATOM     25  C   UNL     1      17.772 -43.370 -21.197  1.00  0.00    -0.000 C 
BRANCH  25  26
ATOM     26  C   UNL     1      19.253 -42.980 -21.414  1.00  0.00    -0.000 C 
BRANCH  26  27
ATOM     27  C   UNL     1      20.165 -44.204 -21.596  1.00  0.00    -0.000 C 
BRANCH  27  28
ATOM     28  C   UNL     1      19.385 -45.528 -21.646  1.00  0.00    -0.000 C 
BRANCH  28  29
ATOM     29  C   UNL     1      19.578 -46.277 -22.977  1.00  0.00    -0.000 C 
BRANCH  29  30
ATOM     30  C   UNL     1      18.333 -47.080 -23.388  1.00  0.00    -0.000 C 
BRANCH  30  31
ATOM     31  C   UNL     1      17.025 -46.425 -22.921  1.00  0.00    -0.003 C 
ATOM     32  C   UNL     1      16.336 -47.273 -21.854  1.00  0.00     0.004 C 
ENDBRANCH  30  31
ENDBRANCH  29  30
ENDBRANCH  28  29
ENDBRANCH  27  28
ENDBRANCH  26  27
ENDBRANCH  25  26
ENDBRANCH  24  25
ENDBRANCH  23  24
ENDBRANCH  22  23
ENDBRANCH  21  22
ENDBRANCH  20  21
ENDBRANCH  19  20
ENDBRANCH  18  19
ENDBRANCH   1  18
TORSDOF 28
ENDMDL
MODEL 5
REMARK VINA RESULT:    -5.517      2.161      4.450
REMARK INTER + INTRA:         -18.244
REMARK INTER:                 -15.541
REMARK INTRA:                  -2.703
REMARK UNBOUND:                -3.696
REMARK SMILES CCCCCCCCCCCCCCCCCCCCCCCCCCCCCC(=O)[O-]
REMARK SMILES IDX 16 1 17 2 18 3 19 4 20 5 21 6 22 7 23 8 24 9 25 10 26 11
REMARK SMILES IDX 27 12 28 13 29 14 30 15 31 16 32 17 15 18 14 19 13 20 12 21
REMARK SMILES IDX 11 22 10 23 9 24 8 25 7 26 6 27 5 28 4 29 3 30 2 31 1 32
REMARK H PARENT
REMARK Flexibility Score: inf
ROOT
ATOM      1  C   UNL     1      18.328 -45.454 -26.154  1.00  0.00     0.000 C 
ENDROOT
BRANCH   1   2
ATOM      2  C   UNL     1      18.591 -44.074 -25.523  1.00  0.00     0.000 C 
BRANCH   2   3
ATOM      3  C   UNL     1      20.074 -43.675 -25.562  1.00  0.00     0.000 C 
BRANCH   3   4
ATOM      4  C   UNL     1      20.849 -44.125 -24.313  1.00  0.00     0.000 C 
BRANCH   4   5
ATOM      5  C   UNL     1      20.121 -43.778 -23.001  1.00  0.00     0.000 C 
BRANCH   5   6
ATOM      6  C   UNL     1      20.084 -42.264 -22.734  1.00  0.00     0.000 C 
BRANCH   6   7
ATOM      7  C   UNL     1      18.695 -41.781 -22.277  1.00  0.00     0.000 C 
BRANCH   7   8
ATOM      8  C   UNL     1      17.813 -41.332 -23.461  1.00  0.00     0.000 C 
BRANCH   8   9
ATOM      9  C   UNL     1      16.359 -41.827 -23.370  1.00  0.00     0.000 C 
BRANCH   9  10
ATOM     10  C   UNL     1      16.187 -43.008 -22.405  1.00  0.00     0.000 C 
BRANCH  10  11
ATOM     11  C   UNL     1      16.193 -44.345 -23.158  1.00  0.00     0.000 C 
BRANCH  11  12
ATOM     12  C   UNL     1      16.815 -45.456 -22.298  1.00  0.00     0.000 C 
BRANCH  12  13
ATOM     13  C   UNL     1      16.265 -46.854 -22.632  1.00  0.00     0.006 C 
BRANCH  13  14
ATOM     14  C   UNL     1      16.581 -47.929 -21.580  1.00  0.00     0.053 C 
BRANCH  14  15
ATOM     15  C   UNL     1      15.344 -48.626 -21.100  1.00  0.00     0.041 C 
ATOM     16  O   UNL     1      14.275 -47.980 -20.935  1.00  0.00    -0.550 OA
ATOM     17  O   UNL     1      15.381 -49.983 -20.813  1.00  0.00    -0.550 OA
ENDBRANCH  14  15
ENDBRANCH  13  14
ENDBRANCH  12  13
ENDBRANCH  11  12
ENDBRANCH  10  11
ENDBRANCH   9  10
ENDBRANCH   8   9
ENDBRANCH   7   8
ENDBRANCH   6   7
ENDBRANCH   5   6
ENDBRANCH   4   5
ENDBRANCH   3   4
ENDBRANCH   2   3
ENDBRANCH   1   2
BRANCH   1  18
ATOM     18  C   UNL     1      17.540 -45.392 -27.480  1.00  0.00     0.000 C 
BRANCH  18  19
ATOM     19  C   UNL     1      17.992 -46.472 -28.477  1.00  0.00     0.000 C 
BRANCH  19  20
ATOM     20  C   UNL     1      17.047 -46.607 -29.684  1.00  0.00     0.000 C 
BRANCH  20  21
ATOM     21  C   UNL     1      17.718 -46.279 -31.035  1.00  0.00     0.000 C 
BRANCH  21  22
ATOM     22  C   UNL     1      19.000 -47.096 -31.270  1.00  0.00     0.000 C 
BRANCH  22  23
ATOM     23  C   UNL     1      19.291 -47.314 -32.773  1.00  0.00     0.000 C 
BRANCH  23  24
ATOM     24  C   UNL     1      20.256 -48.482 -33.042  1.00  0.00    -0.000 C 
BRANCH  24  25
ATOM     25  C   UNL     1      20.035 -49.701 -32.129  1.00  0.00    -0.000 C 
BRANCH  25  26
ATOM     26  C   UNL     1      20.279 -51.055 -32.835  1.00  0.00    -0.000 C 
BRANCH  26  27
ATOM     27  C   UNL     1      21.098 -50.907 -34.128  1.00  0.00    -0.000 C 
BRANCH  27  28
ATOM     28  C   UNL     1      21.868 -52.185 -34.497  1.00  0.00    -0.000 C 
BRANCH  28  29
ATOM     29  C   UNL     1      21.375 -53.417 -33.717  1.00  0.00    -0.000 C 
BRANCH  29  30
ATOM     30  C   UNL     1      21.161 -54.641 -34.622  1.00  0.00    -0.000 C 
BRANCH  30  31
ATOM     31  C   UNL     1      19.705 -55.128 -34.626  1.00  0.00    -0.003 C 
ATOM     32  C   UNL     1      18.874 -54.386 -33.583  1.00  0.00     0.004 C 
ENDBRANCH  30  31
ENDBRANCH  29  30
ENDBRANCH  28  29
ENDBRANCH  27  28
ENDBRANCH  26  27
ENDBRANCH  25  26
ENDBRANCH  24  25
ENDBRANCH  23  24
ENDBRANCH  22  23
ENDBRANCH  21  22
ENDBRANCH  20  21
ENDBRANCH  19  20
ENDBRANCH  18  19
ENDBRANCH   1  18
TORSDOF 28
ENDMDL
MODEL 6
REMARK VINA RESULT:    -5.511      1.497      2.583
REMARK INTER + INTRA:         -18.228
REMARK INTER:                 -14.589
REMARK INTRA:                  -3.640
REMARK UNBOUND:                -3.696
REMARK SMILES CCCCCCCCCCCCCCCCCCCCCCCCCCCCCC(=O)[O-]
REMARK SMILES IDX 16 1 17 2 18 3 19 4 20 5 21 6 22 7 23 8 24 9 25 10 26 11
REMARK SMILES IDX 27 12 28 13 29 14 30 15 31 16 32 17 15 18 14 19 13 20 12 21
REMARK SMILES IDX 11 22 10 23 9 24 8 25 7 26 6 27 5 28 4 29 3 30 2 31 1 32
REMARK H PARENT
REMARK Flexibility Score: inf
ROOT
ATOM      1  C   UNL     1      17.873 -46.405 -22.199  1.00  0.00     0.000 C 
ENDROOT
BRANCH   1   2
ATOM      2  C   UNL     1      18.745 -47.674 -22.167  1.00  0.00     0.000 C 
BRANCH   2   3
ATOM      3  C   UNL     1      20.068 -47.468 -21.414  1.00  0.00     0.000 C 
BRANCH   3   4
ATOM      4  C   UNL     1      20.493 -45.992 -21.343  1.00  0.00     0.000 C 
BRANCH   4   5
ATOM      5  C   UNL     1      21.589 -45.636 -22.363  1.00  0.00     0.000 C 
BRANCH   5   6
ATOM      6  C   UNL     1      21.457 -44.195 -22.885  1.00  0.00     0.000 C 
BRANCH   6   7
ATOM      7  C   UNL     1      20.189 -43.493 -22.363  1.00  0.00     0.000 C 
BRANCH   7   8
ATOM      8  C   UNL     1      20.044 -42.061 -22.920  1.00  0.00     0.000 C 
BRANCH   8   9
ATOM      9  C   UNL     1      19.424 -42.006 -24.327  1.00  0.00     0.000 C 
BRANCH   9  10
ATOM     10  C   UNL     1      17.987 -41.466 -24.328  1.00  0.00     0.000 C 
BRANCH  10  11
ATOM     11  C   UNL     1      17.013 -42.478 -23.711  1.00  0.00     0.000 C 
BRANCH  11  12
ATOM     12  C   UNL     1      15.642 -41.834 -23.456  1.00  0.00     0.000 C 
BRANCH  12  13
ATOM     13  C   UNL     1      15.344 -41.626 -21.961  1.00  0.00     0.006 C 
BRANCH  13  14
ATOM     14  C   UNL     1      16.584 -41.331 -21.101  1.00  0.00     0.053 C 
BRANCH  14  15
ATOM     15  C   UNL     1      16.344 -41.624 -19.651  1.00  0.00     0.041 C 
ATOM     16  O   UNL     1      17.309 -41.914 -18.895  1.00  0.00    -0.550 OA
ATOM     17  O   UNL     1      15.053 -41.601 -19.143  1.00  0.00    -0.550 OA
ENDBRANCH  14  15
ENDBRANCH  13  14
ENDBRANCH  12  13
ENDBRANCH  11  12
ENDBRANCH  10  11
ENDBRANCH   9  10
ENDBRANCH   8   9
ENDBRANCH   7   8
ENDBRANCH   6   7
ENDBRANCH   5   6
ENDBRANCH   4   5
ENDBRANCH   3   4
ENDBRANCH   2   3
ENDBRANCH   1   2
BRANCH   1  18
ATOM     18  C   UNL     1      17.420 -45.997 -23.618  1.00  0.00     0.000 C 
BRANCH  18  19
ATOM     19  C   UNL     1      18.589 -45.967 -24.616  1.00  0.00     0.000 C 
BRANCH  19  20
ATOM     20  C   UNL     1      18.301 -45.094 -25.851  1.00  0.00     0.000 C 
BRANCH  20  21
ATOM     21  C   UNL     1      18.099 -45.906 -27.149  1.00  0.00     0.000 C 
BRANCH  21  22
ATOM     22  C   UNL     1      17.158 -45.203 -28.142  1.00  0.00     0.000 C 
BRANCH  22  23
ATOM     23  C   UNL     1      17.491 -45.550 -29.612  1.00  0.00     0.000 C 
BRANCH  23  24
ATOM     24  C   UNL     1      17.611 -47.062 -29.868  1.00  0.00    -0.000 C 
BRANCH  24  25
ATOM     25  C   UNL     1      18.968 -47.493 -30.455  1.00  0.00    -0.000 C 
BRANCH  25  26
ATOM     26  C   UNL     1      18.862 -48.654 -31.470  1.00  0.00    -0.000 C 
BRANCH  26  27
ATOM     27  C   UNL     1      20.230 -49.067 -32.039  1.00  0.00    -0.000 C 
BRANCH  27  28
ATOM     28  C   UNL     1      20.285 -48.995 -33.574  1.00  0.00    -0.000 C 
BRANCH  28  29
ATOM     29  C   UNL     1      20.523 -47.564 -34.089  1.00  0.00    -0.000 C 
BRANCH  29  30
ATOM     30  C   UNL     1      19.218 -46.863 -34.502  1.00  0.00    -0.000 C 
BRANCH  30  31
ATOM     31  C   UNL     1      19.073 -45.467 -33.880  1.00  0.00    -0.003 C 
ATOM     32  C   UNL     1      17.680 -45.272 -33.286  1.00  0.00     0.004 C 
ENDBRANCH  30  31
ENDBRANCH  29  30
ENDBRANCH  28  29
ENDBRANCH  27  28
ENDBRANCH  26  27
ENDBRANCH  25  26
ENDBRANCH  24  25
ENDBRANCH  23  24
ENDBRANCH  22  23
ENDBRANCH  21  22
ENDBRANCH  20  21
ENDBRANCH  19  20
ENDBRANCH  18  19
ENDBRANCH   1  18
TORSDOF 28
ENDMDL
MODEL 7
REMARK VINA RESULT:    -5.497      2.137      4.095
REMARK INTER + INTRA:         -18.190
REMARK INTER:                 -15.263
REMARK INTRA:                  -2.928
REMARK UNBOUND:                -3.696
REMARK SMILES CCCCCCCCCCCCCCCCCCCCCCCCCCCCCC(=O)[O-]
REMARK SMILES IDX 16 1 17 2 18 3 19 4 20 5 21 6 22 7 23 8 24 9 25 10 26 11
REMARK SMILES IDX 27 12 28 13 29 14 30 15 31 16 32 17 15 18 14 19 13 20 12 21
REMARK SMILES IDX 11 22 10 23 9 24 8 25 7 26 6 27 5 28 4 29 3 30 2 31 1 32
REMARK H PARENT
REMARK Flexibility Score: inf
ROOT
ATOM      1  C   UNL     1      20.417 -42.837 -25.213  1.00  0.00     0.000 C 
ENDROOT
BRANCH   1   2
ATOM      2  C   UNL     1      19.850 -42.160 -23.952  1.00  0.00     0.000 C 
BRANCH   2   3
ATOM      3  C   UNL     1      20.533 -42.638 -22.661  1.00  0.00     0.000 C 
BRANCH   3   4
ATOM      4  C   UNL     1      19.531 -42.997 -21.552  1.00  0.00     0.000 C 
BRANCH   4   5
ATOM      5  C   UNL     1      18.748 -41.776 -21.036  1.00  0.00     0.000 C 
BRANCH   5   6
ATOM      6  C   UNL     1      17.474 -42.177 -20.274  1.00  0.00     0.000 C 
BRANCH   6   7
ATOM      7  C   UNL     1      16.189 -41.742 -21.003  1.00  0.00     0.000 C 
BRANCH   7   8
ATOM      8  C   UNL     1      16.486 -41.081 -22.366  1.00  0.00     0.000 C 
BRANCH   8   9
ATOM      9  C   UNL     1      16.188 -41.990 -23.570  1.00  0.00     0.000 C 
BRANCH   9  10
ATOM     10  C   UNL     1      15.676 -43.378 -23.162  1.00  0.00     0.000 C 
BRANCH  10  11
ATOM     11  C   UNL     1      16.750 -44.452 -23.378  1.00  0.00     0.000 C 
BRANCH  11  12
ATOM     12  C   UNL     1      16.373 -45.757 -22.661  1.00  0.00     0.000 C 
BRANCH  12  13
ATOM     13  C   UNL     1      17.420 -46.869 -22.846  1.00  0.00     0.006 C 
BRANCH  13  14
ATOM     14  C   UNL     1      18.761 -46.603 -22.142  1.00  0.00     0.053 C 
BRANCH  14  15
ATOM     15  C   UNL     1      19.337 -47.848 -21.540  1.00  0.00     0.041 C 
ATOM     16  O   UNL     1      20.505 -47.844 -21.070  1.00  0.00    -0.550 OA
ATOM     17  O   UNL     1      18.591 -49.019 -21.523  1.00  0.00    -0.550 OA
ENDBRANCH  14  15
ENDBRANCH  13  14
ENDBRANCH  12  13
ENDBRANCH  11  12
ENDBRANCH  10  11
ENDBRANCH   9  10
ENDBRANCH   8   9
ENDBRANCH   7   8
ENDBRANCH   6   7
ENDBRANCH   5   6
ENDBRANCH   4   5
ENDBRANCH   3   4
ENDBRANCH   2   3
ENDBRANCH   1   2
BRANCH   1  18
ATOM     18  C   UNL     1      19.842 -44.246 -25.475  1.00  0.00     0.000 C 
BRANCH  18  19
ATOM     19  C   UNL     1      18.419 -44.195 -26.057  1.00  0.00     0.000 C 
BRANCH  19  20
ATOM     20  C   UNL     1      17.995 -45.517 -26.721  1.00  0.00     0.000 C 
BRANCH  20  21
ATOM     21  C   UNL     1      17.255 -45.326 -28.062  1.00  0.00     0.000 C 
BRANCH  21  22
ATOM     22  C   UNL     1      17.512 -46.480 -29.047  1.00  0.00     0.000 C 
BRANCH  22  23
ATOM     23  C   UNL     1      18.718 -46.203 -29.975  1.00  0.00     0.000 C 
BRANCH  23  24
ATOM     24  C   UNL     1      19.268 -47.471 -30.651  1.00  0.00    -0.000 C 
BRANCH  24  25
ATOM     25  C   UNL     1      18.783 -47.670 -32.098  1.00  0.00    -0.000 C 
BRANCH  25  26
ATOM     26  C   UNL     1      19.875 -47.401 -33.159  1.00  0.00    -0.000 C 
BRANCH  26  27
ATOM     27  C   UNL     1      20.405 -48.694 -33.801  1.00  0.00    -0.000 C 
BRANCH  27  28
ATOM     28  C   UNL     1      20.243 -49.923 -32.892  1.00  0.00    -0.000 C 
BRANCH  28  29
ATOM     29  C   UNL     1      20.801 -51.208 -33.530  1.00  0.00    -0.000 C 
BRANCH  29  30
ATOM     30  C   UNL     1      20.504 -52.461 -32.690  1.00  0.00    -0.000 C 
BRANCH  30  31
ATOM     31  C   UNL     1      20.670 -53.762 -33.487  1.00  0.00    -0.003 C 
ATOM     32  C   UNL     1      19.342 -54.504 -33.612  1.00  0.00     0.004 C 
ENDBRANCH  30  31
ENDBRANCH  29  30
ENDBRANCH  28  29
ENDBRANCH  27  28
ENDBRANCH  26  27
ENDBRANCH  25  26
ENDBRANCH  24  25
ENDBRANCH  23  24
ENDBRANCH  22  23
ENDBRANCH  21  22
ENDBRANCH  20  21
ENDBRANCH  19  20
ENDBRANCH  18  19
ENDBRANCH   1  18
TORSDOF 28
ENDMDL
MODEL 8
REMARK VINA RESULT:    -5.447      2.069      4.632
REMARK INTER + INTRA:         -18.060
REMARK INTER:                 -14.866
REMARK INTRA:                  -3.194
REMARK UNBOUND:                -3.696
REMARK SMILES CCCCCCCCCCCCCCCCCCCCCCCCCCCCCC(=O)[O-]
REMARK SMILES IDX 16 1 17 2 18 3 19 4 20 5 21 6 22 7 23 8 24 9 25 10 26 11
REMARK SMILES IDX 27 12 28 13 29 14 30 15 31 16 32 17 15 18 14 19 13 20 12 21
REMARK SMILES IDX 11 22 10 23 9 24 8 25 7 26 6 27 5 28 4 29 3 30 2 31 1 32
REMARK H PARENT
REMARK Flexibility Score: inf
ROOT
ATOM      1  C   UNL     1      16.385 -41.244 -23.253  1.00  0.00     0.000 C 
ENDROOT
BRANCH   1   2
ATOM      2  C   UNL     1      15.525 -42.029 -22.245  1.00  0.00     0.000 C 
BRANCH   2   3
ATOM      3  C   UNL     1      15.807 -41.633 -20.788  1.00  0.00     0.000 C 
BRANCH   3   4
ATOM      4  C   UNL     1      17.029 -42.355 -20.197  1.00  0.00     0.000 C 
BRANCH   4   5
ATOM      5  C   UNL     1      18.275 -41.455 -20.122  1.00  0.00     0.000 C 
BRANCH   5   6
ATOM      6  C   UNL     1      19.396 -41.926 -21.063  1.00  0.00     0.000 C 
BRANCH   6   7
ATOM      7  C   UNL     1      19.273 -43.419 -21.424  1.00  0.00     0.000 C 
BRANCH   7   8
ATOM      8  C   UNL     1      20.649 -44.080 -21.651  1.00  0.00     0.000 C 
BRANCH   8   9
ATOM      9  C   UNL     1      20.570 -45.436 -22.373  1.00  0.00     0.000 C 
BRANCH   9  10
ATOM     10  C   UNL     1      20.371 -46.616 -21.412  1.00  0.00     0.000 C 
BRANCH  10  11
ATOM     11  C   UNL     1      19.177 -47.481 -21.835  1.00  0.00     0.000 C 
BRANCH  11  12
ATOM     12  C   UNL     1      18.058 -46.615 -22.435  1.00  0.00     0.000 C 
BRANCH  12  13
ATOM     13  C   UNL     1      16.704 -46.808 -21.729  1.00  0.00     0.006 C 
BRANCH  13  14
ATOM     14  C   UNL     1      15.916 -48.042 -22.194  1.00  0.00     0.053 C 
BRANCH  14  15
ATOM     15  C   UNL     1      15.034 -48.586 -21.112  1.00  0.00     0.041 C 
ATOM     16  O   UNL     1      13.955 -48.004 -20.821  1.00  0.00    -0.550 OA
ATOM     17  O   UNL     1      15.417 -49.720 -20.410  1.00  0.00    -0.550 OA
ENDBRANCH  14  15
ENDBRANCH  13  14
ENDBRANCH  12  13
ENDBRANCH  11  12
ENDBRANCH  10  11
ENDBRANCH   9  10
ENDBRANCH   8   9
ENDBRANCH   7   8
ENDBRANCH   6   7
ENDBRANCH   5   6
ENDBRANCH   4   5
ENDBRANCH   3   4
ENDBRANCH   2   3
ENDBRANCH   1   2
BRANCH   1  18
ATOM     18  C   UNL     1      17.101 -42.137 -24.289  1.00  0.00     0.000 C 
BRANCH  18  19
ATOM     19  C   UNL     1      18.520 -41.637 -24.607  1.00  0.00     0.000 C 
BRANCH  19  20
ATOM     20  C   UNL     1      19.551 -42.776 -24.702  1.00  0.00     0.000 C 
BRANCH  20  21
ATOM     21  C   UNL     1      19.397 -43.647 -25.967  1.00  0.00     0.000 C 
BRANCH  21  22
ATOM     22  C   UNL     1      18.781 -45.023 -25.663  1.00  0.00     0.000 C 
BRANCH  22  23
ATOM     23  C   UNL     1      17.643 -45.388 -26.646  1.00  0.00     0.000 C 
BRANCH  23  24
ATOM     24  C   UNL     1      18.032 -45.200 -28.122  1.00  0.00    -0.000 C 
BRANCH  24  25
ATOM     25  C   UNL     1      17.165 -46.007 -29.106  1.00  0.00    -0.000 C 
BRANCH  25  26
ATOM     26  C   UNL     1      17.597 -47.485 -29.244  1.00  0.00    -0.000 C 
BRANCH  26  27
ATOM     27  C   UNL     1      18.816 -47.660 -30.164  1.00  0.00    -0.000 C 
BRANCH  27  28
ATOM     28  C   UNL     1      18.540 -47.220 -31.612  1.00  0.00    -0.000 C 
BRANCH  28  29
ATOM     29  C   UNL     1      19.474 -47.905 -32.625  1.00  0.00    -0.000 C 
BRANCH  29  30
ATOM     30  C   UNL     1      20.253 -49.078 -32.009  1.00  0.00    -0.000 C 
BRANCH  30  31
ATOM     31  C   UNL     1      19.624 -50.441 -32.329  1.00  0.00    -0.003 C 
ATOM     32  C   UNL     1      20.670 -51.421 -32.852  1.00  0.00     0.004 C 
ENDBRANCH  30  31
ENDBRANCH  29  30
ENDBRANCH  28  29
ENDBRANCH  27  28
ENDBRANCH  26  27
ENDBRANCH  25  26
ENDBRANCH  24  25
ENDBRANCH  23  24
ENDBRANCH  22  23
ENDBRANCH  21  22
ENDBRANCH  20  21
ENDBRANCH  19  20
ENDBRANCH  18  19
ENDBRANCH   1  18
TORSDOF 28
ENDMDL
MODEL 9
REMARK VINA RESULT:    -5.377      1.092      3.366
REMARK INTER + INTRA:         -17.874
REMARK INTER:                 -15.133
REMARK INTRA:                  -2.740
REMARK UNBOUND:                -3.696
REMARK SMILES CCCCCCCCCCCCCCCCCCCCCCCCCCCCCC(=O)[O-]
REMARK SMILES IDX 16 1 17 2 18 3 19 4 20 5 21 6 22 7 23 8 24 9 25 10 26 11
REMARK SMILES IDX 27 12 28 13 29 14 30 15 31 16 32 17 15 18 14 19 13 20 12 21
REMARK SMILES IDX 11 22 10 23 9 24 8 25 7 26 6 27 5 28 4 29 3 30 2 31 1 32
REMARK H PARENT
REMARK Flexibility Score: inf
ROOT
ATOM      1  C   UNL     1      19.580 -44.189 -25.712  1.00  0.00     0.000 C 
ENDROOT
BRANCH   1   2
ATOM      2  C   UNL     1      19.696 -42.694 -25.363  1.00  0.00     0.000 C 
BRANCH   2   3
ATOM      3  C   UNL     1      20.453 -42.447 -24.050  1.00  0.00     0.000 C 
BRANCH   3   4
ATOM      4  C   UNL     1      21.690 -43.345 -23.893  1.00  0.00     0.000 C 
BRANCH   4   5
ATOM      5  C   UNL     1      21.762 -44.029 -22.516  1.00  0.00     0.000 C 
BRANCH   5   6
ATOM      6  C   UNL     1      20.370 -44.371 -21.959  1.00  0.00     0.000 C 
BRANCH   6   7
ATOM      7  C   UNL     1      20.311 -45.784 -21.348  1.00  0.00     0.000 C 
BRANCH   7   8
ATOM      8  C   UNL     1      19.154 -46.624 -21.929  1.00  0.00     0.000 C 
BRANCH   8   9
ATOM      9  C   UNL     1      18.214 -45.825 -22.849  1.00  0.00     0.000 C 
BRANCH   9  10
ATOM     10  C   UNL     1      16.835 -45.572 -22.223  1.00  0.00     0.000 C 
BRANCH  10  11
ATOM     11  C   UNL     1      15.971 -44.681 -23.125  1.00  0.00     0.000 C 
BRANCH  11  12
ATOM     12  C   UNL     1      16.670 -43.341 -23.403  1.00  0.00     0.000 C 
BRANCH  12  13
ATOM     13  C   UNL     1      15.820 -42.124 -22.998  1.00  0.00     0.006 C 
BRANCH  13  14
ATOM     14  C   UNL     1      16.461 -41.230 -21.925  1.00  0.00     0.053 C 
BRANCH  14  15
ATOM     15  C   UNL     1      16.364 -41.834 -20.558  1.00  0.00     0.041 C 
ATOM     16  O   UNL     1      15.384 -41.565 -19.813  1.00  0.00    -0.550 OA
ATOM     17  O   UNL     1      17.370 -42.673 -20.098  1.00  0.00    -0.550 OA
ENDBRANCH  14  15
ENDBRANCH  13  14
ENDBRANCH  12  13
ENDBRANCH  11  12
ENDBRANCH  10  11
ENDBRANCH   9  10
ENDBRANCH   8   9
ENDBRANCH   7   8
ENDBRANCH   6   7
ENDBRANCH   5   6
ENDBRANCH   4   5
ENDBRANCH   3   4
ENDBRANCH   2   3
ENDBRANCH   1   2
BRANCH   1  18
ATOM     18  C   UNL     1      18.187 -44.602 -26.233  1.00  0.00     0.000 C 
BRANCH  18  19
ATOM     19  C   UNL     1      18.264 -45.742 -27.262  1.00  0.00     0.000 C 
BRANCH  19  20
ATOM     20  C   UNL     1      17.341 -45.521 -28.474  1.00  0.00     0.000 C 
BRANCH  20  21
ATOM     21  C   UNL     1      17.608 -46.494 -29.641  1.00  0.00     0.000 C 
BRANCH  21  22
ATOM     22  C   UNL     1      18.619 -45.934 -30.656  1.00  0.00     0.000 C 
BRANCH  22  23
ATOM     23  C   UNL     1      18.858 -46.898 -31.841  1.00  0.00     0.000 C 
BRANCH  23  24
ATOM     24  C   UNL     1      18.916 -48.377 -31.419  1.00  0.00    -0.000 C 
BRANCH  24  25
ATOM     25  C   UNL     1      20.256 -49.066 -31.734  1.00  0.00    -0.000 C 
BRANCH  25  26
ATOM     26  C   UNL     1      20.182 -50.048 -32.926  1.00  0.00    -0.000 C 
BRANCH  26  27
ATOM     27  C   UNL     1      20.101 -51.517 -32.476  1.00  0.00    -0.000 C 
BRANCH  27  28
ATOM     28  C   UNL     1      21.346 -52.331 -32.867  1.00  0.00    -0.000 C 
BRANCH  28  29
ATOM     29  C   UNL     1      21.275 -52.862 -34.310  1.00  0.00    -0.000 C 
BRANCH  29  30
ATOM     30  C   UNL     1      21.501 -54.380 -34.391  1.00  0.00    -0.000 C 
BRANCH  30  31
ATOM     31  C   UNL     1      20.240 -55.145 -34.816  1.00  0.00    -0.003 C 
ATOM     32  C   UNL     1      19.043 -54.756 -33.953  1.00  0.00     0.004 C 
ENDBRANCH  30  31
ENDBRANCH  29  30
ENDBRANCH  28  29
ENDBRANCH  27  28
ENDBRANCH  26  27
ENDBRANCH  25  26
ENDBRANCH  24  25
ENDBRANCH  23  24
ENDBRANCH  22  23
ENDBRANCH  21  22
ENDBRANCH  20  21
ENDBRANCH  19  20
ENDBRANCH  18  19
ENDBRANCH   1  18
TORSDOF 28
ENDMDL
