MODEL 1
REMARK VINA RESULT:    -4.708      0.000      0.000
REMARK INTER + INTRA:          -8.480
REMARK INTER:                  -7.461
REMARK INTRA:                  -1.019
REMARK UNBOUND:                -1.019
REMARK SMILES CCCCCCCCCCCC(=O)[O-]
REMARK SMILES IDX 7 1 8 2 9 3 10 4 11 5 12 6 13 7 14 8 6 9 5 10 4 11 3 12 2 13
REMARK SMILES IDX 1 14
REMARK H PARENT
REMARK Flexibility Score: inf
ROOT
ATOM      1  C   UNL     1      13.613  22.069  30.009  1.00  0.00     0.000 C 
ENDROOT
BRANCH   1   2
ATOM      2  C   UNL     1      14.049  23.530  29.808  1.00  0.00     0.000 C 
BRANCH   2   3
ATOM      3  C   UNL     1      12.966  24.534  30.240  1.00  0.00     0.000 C 
BRANCH   3   4
ATOM      4  C   UNL     1      11.993  23.944  31.273  1.00  0.00     0.006 C 
BRANCH   4   5
ATOM      5  C   UNL     1      10.529  24.296  30.975  1.00  0.00     0.053 C 
BRANCH   5   6
ATOM      6  C   UNL     1       9.719  23.049  30.799  1.00  0.00     0.041 C 
ATOM      7  O   UNL     1       9.939  22.283  29.824  1.00  0.00    -0.550 OA
ATOM      8  O   UNL     1       8.755  22.707  31.738  1.00  0.00    -0.550 OA
ENDBRANCH   5   6
ENDBRANCH   4   5
ENDBRANCH   3   4
ENDBRANCH   2   3
ENDBRANCH   1   2
BRANCH   1   9
ATOM      9  C   UNL     1      13.296  21.357  28.685  1.00  0.00     0.000 C 
BRANCH   9  10
ATOM     10  C   UNL     1      14.582  21.049  27.906  1.00  0.00    -0.000 C 
BRANCH  10  11
ATOM     11  C   UNL     1      14.512  21.618  26.481  1.00  0.00    -0.000 C 
BRANCH  11  12
ATOM     12  C   UNL     1      15.824  22.290  26.047  1.00  0.00    -0.000 C 
BRANCH  12  13
ATOM     13  C   UNL     1      15.930  23.744  26.529  1.00  0.00    -0.003 C 
ATOM     14  C   UNL     1      16.993  23.888  27.615  1.00  0.00     0.004 C 
ENDBRANCH  12  13
ENDBRANCH  11  12
ENDBRANCH  10  11
ENDBRANCH   9  10
ENDBRANCH   1   9
TORSDOF 10
ENDMDL
MODEL 2
REMARK VINA RESULT:    -4.646      1.192      1.782
REMARK INTER + INTRA:          -8.381
REMARK INTER:                  -7.670
REMARK INTRA:                  -0.711
REMARK UNBOUND:                -1.019
REMARK SMILES CCCCCCCCCCCC(=O)[O-]
REMARK SMILES IDX 7 1 8 2 9 3 10 4 11 5 12 6 13 7 14 8 6 9 5 10 4 11 3 12 2 13
REMARK SMILES IDX 1 14
REMARK H PARENT
REMARK Flexibility Score: inf
ROOT
ATOM      1  C   UNL     1      14.341  23.223  29.281  1.00  0.00     0.000 C 
ENDROOT
BRANCH   1   2
ATOM      2  C   UNL     1      13.586  24.444  29.830  1.00  0.00     0.000 C 
BRANCH   2   3
ATOM      3  C   UNL     1      12.561  24.065  30.914  1.00  0.00     0.000 C 
BRANCH   3   4
ATOM      4  C   UNL     1      11.116  24.387  30.498  1.00  0.00     0.006 C 
BRANCH   4   5
ATOM      5  C   UNL     1      10.081  23.858  31.499  1.00  0.00     0.053 C 
BRANCH   5   6
ATOM      6  C   UNL     1       9.331  22.704  30.912  1.00  0.00     0.041 C 
ATOM      7  O   UNL     1       8.283  22.280  31.467  1.00  0.00    -0.550 OA
ATOM      8  O   UNL     1       9.761  22.126  29.724  1.00  0.00    -0.550 OA
ENDBRANCH   5   6
ENDBRANCH   4   5
ENDBRANCH   3   4
ENDBRANCH   2   3
ENDBRANCH   1   2
BRANCH   1   9
ATOM      9  C   UNL     1      15.625  22.915  30.068  1.00  0.00     0.000 C 
BRANCH   9  10
ATOM     10  C   UNL     1      16.481  21.875  29.336  1.00  0.00    -0.000 C 
BRANCH  10  11
ATOM     11  C   UNL     1      15.848  21.489  27.991  1.00  0.00    -0.000 C 
BRANCH  11  12
ATOM     12  C   UNL     1      16.754  21.818  26.793  1.00  0.00    -0.000 C 
BRANCH  12  13
ATOM     13  C   UNL     1      16.044  22.671  25.732  1.00  0.00    -0.003 C 
ATOM     14  C   UNL     1      16.076  24.151  26.106  1.00  0.00     0.004 C 
ENDBRANCH  12  13
ENDBRANCH  11  12
ENDBRANCH  10  11
ENDBRANCH   9  10
ENDBRANCH   1   9
TORSDOF 10
ENDMDL
MODEL 3
REMARK VINA RESULT:    -4.561      1.574      3.778
REMARK INTER + INTRA:          -8.245
REMARK INTER:                  -6.869
REMARK INTRA:                  -1.377
REMARK UNBOUND:                -1.019
REMARK SMILES CCCCCCCCCCCC(=O)[O-]
REMARK SMILES IDX 7 1 8 2 9 3 10 4 11 5 12 6 13 7 14 8 6 9 5 10 4 11 3 12 2 13
REMARK SMILES IDX 1 14
REMARK H PARENT
REMARK Flexibility Score: inf
ROOT
ATOM      1  C   UNL     1      15.406  21.881  26.191  1.00  0.00     0.000 C 
ENDROOT
BRANCH   1   2
ATOM      2  C   UNL     1      14.078  21.525  26.880  1.00  0.00     0.000 C 
BRANCH   2   3
ATOM      3  C   UNL     1      14.244  20.437  27.955  1.00  0.00     0.000 C 
BRANCH   3   4
ATOM      4  C   UNL     1      12.952  20.193  28.752  1.00  0.00     0.006 C 
BRANCH   4   5
ATOM      5  C   UNL     1      11.973  21.371  28.665  1.00  0.00     0.053 C 
BRANCH   5   6
ATOM      6  C   UNL     1      10.851  21.189  29.639  1.00  0.00     0.041 C 
ATOM      7  O   UNL     1      10.684  22.013  30.576  1.00  0.00    -0.550 OA
ATOM      8  O   UNL     1       9.959  20.135  29.483  1.00  0.00    -0.550 OA
ENDBRANCH   5   6
ENDBRANCH   4   5
ENDBRANCH   3   4
ENDBRANCH   2   3
ENDBRANCH   1   2
BRANCH   1   9
ATOM      9  C   UNL     1      16.600  21.857  27.158  1.00  0.00     0.000 C 
BRANCH   9  10
ATOM     10  C   UNL     1      16.661  23.147  27.987  1.00  0.00    -0.000 C 
BRANCH  10  11
ATOM     11  C   UNL     1      16.726  22.832  29.489  1.00  0.00    -0.000 C 
BRANCH  11  12
ATOM     12  C   UNL     1      15.363  22.979  30.184  1.00  0.00    -0.000 C 
BRANCH  12  13
ATOM     13  C   UNL     1      14.449  23.994  29.482  1.00  0.00    -0.003 C 
ATOM     14  C   UNL     1      13.306  24.428  30.396  1.00  0.00     0.004 C 
ENDBRANCH  12  13
ENDBRANCH  11  12
ENDBRANCH  10  11
ENDBRANCH   9  10
ENDBRANCH   1   9
TORSDOF 10
ENDMDL
MODEL 4
REMARK VINA RESULT:    -4.548      1.656      2.896
REMARK INTER + INTRA:          -8.226
REMARK INTER:                  -7.125
REMARK INTRA:                  -1.101
REMARK UNBOUND:                -1.019
REMARK SMILES CCCCCCCCCCCC(=O)[O-]
REMARK SMILES IDX 7 1 8 2 9 3 10 4 11 5 12 6 13 7 14 8 6 9 5 10 4 11 3 12 2 13
REMARK SMILES IDX 1 14
REMARK H PARENT
REMARK Flexibility Score: inf
ROOT
ATOM      1  C   UNL     1      14.700  21.166  30.087  1.00  0.00     0.000 C 
ENDROOT
BRANCH   1   2
ATOM      2  C   UNL     1      14.240  20.759  28.678  1.00  0.00     0.000 C 
BRANCH   2   3
ATOM      3  C   UNL     1      13.176  19.647  28.702  1.00  0.00     0.000 C 
BRANCH   3   4
ATOM      4  C   UNL     1      11.896  20.072  29.439  1.00  0.00     0.006 C 
BRANCH   4   5
ATOM      5  C   UNL     1      11.065  21.088  28.644  1.00  0.00     0.053 C 
BRANCH   5   6
ATOM      6  C   UNL     1      10.685  22.244  29.515  1.00  0.00     0.041 C 
ATOM      7  O   UNL     1      11.538  23.122  29.811  1.00  0.00    -0.550 OA
ATOM      8  O   UNL     1       9.376  22.379  29.961  1.00  0.00    -0.550 OA
ENDBRANCH   5   6
ENDBRANCH   4   5
ENDBRANCH   3   4
ENDBRANCH   2   3
ENDBRANCH   1   2
BRANCH   1   9
ATOM      9  C   UNL     1      15.356  22.554  30.120  1.00  0.00     0.000 C 
BRANCH   9  10
ATOM     10  C   UNL     1      14.952  23.382  28.893  1.00  0.00    -0.000 C 
BRANCH  10  11
ATOM     11  C   UNL     1      16.186  23.798  28.079  1.00  0.00    -0.000 C 
BRANCH  11  12
ATOM     12  C   UNL     1      15.889  23.924  26.576  1.00  0.00    -0.000 C 
BRANCH  12  13
ATOM     13  C   UNL     1      15.911  22.569  25.853  1.00  0.00    -0.003 C 
ATOM     14  C   UNL     1      16.985  21.653  26.436  1.00  0.00     0.004 C 
ENDBRANCH  12  13
ENDBRANCH  11  12
ENDBRANCH  10  11
ENDBRANCH   9  10
ENDBRANCH   1   9
TORSDOF 10
ENDMDL
MODEL 5
REMARK VINA RESULT:    -4.532      3.337      6.072
REMARK INTER + INTRA:          -8.201
REMARK INTER:                  -6.893
REMARK INTRA:                  -1.307
REMARK UNBOUND:                -1.019
REMARK SMILES CCCCCCCCCCCC(=O)[O-]
REMARK SMILES IDX 7 1 8 2 9 3 10 4 11 5 12 6 13 7 14 8 6 9 5 10 4 11 3 12 2 13
REMARK SMILES IDX 1 14
REMARK H PARENT
REMARK Flexibility Score: inf
ROOT
ATOM      1  C   UNL     1      14.367  22.109  30.119  1.00  0.00     0.000 C 
ENDROOT
BRANCH   1   2
ATOM      2  C   UNL     1      14.897  21.229  28.975  1.00  0.00     0.000 C 
BRANCH   2   3
ATOM      3  C   UNL     1      14.085  21.394  27.678  1.00  0.00     0.000 C 
BRANCH   3   4
ATOM      4  C   UNL     1      14.963  21.782  26.477  1.00  0.00     0.006 C 
BRANCH   4   5
ATOM      5  C   UNL     1      16.409  22.099  26.880  1.00  0.00     0.053 C 
BRANCH   5   6
ATOM      6  C   UNL     1      16.616  23.579  26.957  1.00  0.00     0.041 C 
ATOM      7  O   UNL     1      17.346  24.071  27.856  1.00  0.00    -0.550 OA
ATOM      8  O   UNL     1      16.041  24.412  26.005  1.00  0.00    -0.550 OA
ENDBRANCH   5   6
ENDBRANCH   4   5
ENDBRANCH   3   4
ENDBRANCH   2   3
ENDBRANCH   1   2
BRANCH   1   9
ATOM      9  C   UNL     1      14.163  23.572  29.696  1.00  0.00     0.000 C 
BRANCH   9  10
ATOM     10  C   UNL     1      12.812  24.104  30.192  1.00  0.00    -0.000 C 
BRANCH  10  11
ATOM     11  C   UNL     1      12.001  22.992  30.875  1.00  0.00    -0.000 C 
BRANCH  11  12
ATOM     12  C   UNL     1      10.623  22.783  30.228  1.00  0.00    -0.000 C 
BRANCH  12  13
ATOM     13  C   UNL     1      10.705  22.021  28.897  1.00  0.00    -0.003 C 
ATOM     14  C   UNL     1      10.750  20.512  29.129  1.00  0.00     0.004 C 
ENDBRANCH  12  13
ENDBRANCH  11  12
ENDBRANCH  10  11
ENDBRANCH   9  10
ENDBRANCH   1   9
TORSDOF 10
ENDMDL
MODEL 6
REMARK VINA RESULT:    -4.513     22.096     23.130
REMARK INTER + INTRA:          -8.170
REMARK INTER:                  -6.928
REMARK INTRA:                  -1.242
REMARK UNBOUND:                -1.019
REMARK SMILES CCCCCCCCCCCC(=O)[O-]
REMARK SMILES IDX 7 1 8 2 9 3 10 4 11 5 12 6 13 7 14 8 6 9 5 10 4 11 3 12 2 13
REMARK SMILES IDX 1 14
REMARK H PARENT
REMARK Flexibility Score: inf
ROOT
ATOM      1  C   UNL     1       1.957  37.123  12.371  1.00  0.00     0.000 C 
ENDROOT
BRANCH   1   2
ATOM      2  C   UNL     1       1.954  38.234  13.434  1.00  0.00     0.000 C 
BRANCH   2   3
ATOM      3  C   UNL     1       3.153  38.135  14.394  1.00  0.00     0.000 C 
BRANCH   3   4
ATOM      4  C   UNL     1       2.946  37.076  15.489  1.00  0.00     0.006 C 
BRANCH   4   5
ATOM      5  C   UNL     1       3.776  35.807  15.248  1.00  0.00     0.053 C 
BRANCH   5   6
ATOM      6  C   UNL     1       5.086  35.899  15.964  1.00  0.00     0.041 C 
ATOM      7  O   UNL     1       5.344  35.118  16.918  1.00  0.00    -0.550 OA
ATOM      8  O   UNL     1       6.044  36.815  15.547  1.00  0.00    -0.550 OA
ENDBRANCH   5   6
ENDBRANCH   4   5
ENDBRANCH   3   4
ENDBRANCH   2   3
ENDBRANCH   1   2
BRANCH   1   9
ATOM      9  C   UNL     1       0.541  36.695  11.957  1.00  0.00     0.000 C 
BRANCH   9  10
ATOM     10  C   UNL     1       0.303  35.212  12.267  1.00  0.00    -0.000 C 
BRANCH  10  11
ATOM     11  C   UNL     1       0.318  34.958  13.782  1.00  0.00    -0.000 C 
BRANCH  11  12
ATOM     12  C   UNL     1      -0.686  35.840  14.540  1.00  0.00    -0.000 C 
BRANCH  12  13
ATOM     13  C   UNL     1      -0.712  35.544  16.047  1.00  0.00    -0.003 C 
ATOM     14  C   UNL     1       0.404  34.578  16.437  1.00  0.00     0.004 C 
ENDBRANCH  12  13
ENDBRANCH  11  12
ENDBRANCH  10  11
ENDBRANCH   9  10
ENDBRANCH   1   9
TORSDOF 10
ENDMDL
MODEL 7
REMARK VINA RESULT:    -4.455      3.312      5.824
REMARK INTER + INTRA:          -8.078
REMARK INTER:                  -7.088
REMARK INTRA:                  -0.991
REMARK UNBOUND:                -1.019
REMARK SMILES CCCCCCCCCCCC(=O)[O-]
REMARK SMILES IDX 7 1 8 2 9 3 10 4 11 5 12 6 13 7 14 8 6 9 5 10 4 11 3 12 2 13
REMARK SMILES IDX 1 14
REMARK H PARENT
REMARK Flexibility Score: inf
ROOT
ATOM      1  C   UNL     1      12.552  20.477  29.455  1.00  0.00     0.000 C 
ENDROOT
BRANCH   1   2
ATOM      2  C   UNL     1      13.636  20.027  28.462  1.00  0.00     0.000 C 
BRANCH   2   3
ATOM      3  C   UNL     1      14.165  21.186  27.599  1.00  0.00     0.000 C 
BRANCH   3   4
ATOM      4  C   UNL     1      15.552  21.672  28.050  1.00  0.00     0.006 C 
BRANCH   4   5
ATOM      5  C   UNL     1      16.561  21.734  26.896  1.00  0.00     0.053 C 
BRANCH   5   6
ATOM      6  C   UNL     1      16.093  22.695  25.848  1.00  0.00     0.041 C 
ATOM      7  O   UNL     1      15.902  22.300  24.667  1.00  0.00    -0.550 OA
ATOM      8  O   UNL     1      15.822  24.015  26.184  1.00  0.00    -0.550 OA
ENDBRANCH   5   6
ENDBRANCH   4   5
ENDBRANCH   3   4
ENDBRANCH   2   3
ENDBRANCH   1   2
BRANCH   1   9
ATOM      9  C   UNL     1      11.189  20.705  28.784  1.00  0.00     0.000 C 
BRANCH   9  10
ATOM     10  C   UNL     1      10.679  22.127  29.046  1.00  0.00    -0.000 C 
BRANCH  10  11
ATOM     11  C   UNL     1      11.104  22.616  30.438  1.00  0.00    -0.000 C 
BRANCH  11  12
ATOM     12  C   UNL     1      11.344  24.134  30.485  1.00  0.00    -0.000 C 
BRANCH  12  13
ATOM     13  C   UNL     1      12.768  24.493  30.935  1.00  0.00    -0.003 C 
ATOM     14  C   UNL     1      13.775  24.255  29.811  1.00  0.00     0.004 C 
ENDBRANCH  12  13
ENDBRANCH  11  12
ENDBRANCH  10  11
ENDBRANCH   9  10
ENDBRANCH   1   9
TORSDOF 10
ENDMDL
MODEL 8
REMARK VINA RESULT:    -4.430      3.958      5.657
REMARK INTER + INTRA:          -8.038
REMARK INTER:                  -6.516
REMARK INTRA:                  -1.522
REMARK UNBOUND:                -1.019
REMARK SMILES CCCCCCCCCCCC(=O)[O-]
REMARK SMILES IDX 7 1 8 2 9 3 10 4 11 5 12 6 13 7 14 8 6 9 5 10 4 11 3 12 2 13
REMARK SMILES IDX 1 14
REMARK H PARENT
REMARK Flexibility Score: inf
ROOT
ATOM      1  C   UNL     1      16.334  22.444  30.483  1.00  0.00     0.000 C 
ENDROOT
BRANCH   1   2
ATOM      2  C   UNL     1      15.097  23.243  30.038  1.00  0.00     0.000 C 
BRANCH   2   3
ATOM      3  C   UNL     1      15.142  23.619  28.546  1.00  0.00     0.000 C 
BRANCH   3   4
ATOM      4  C   UNL     1      16.540  23.434  27.934  1.00  0.00     0.006 C 
BRANCH   4   5
ATOM      5  C   UNL     1      16.537  22.483  26.729  1.00  0.00     0.053 C 
BRANCH   5   6
ATOM      6  C   UNL     1      16.181  23.227  25.480  1.00  0.00     0.041 C 
ATOM      7  O   UNL     1      15.880  22.597  24.432  1.00  0.00    -0.550 OA
ATOM      8  O   UNL     1      16.132  24.615  25.487  1.00  0.00    -0.550 OA
ENDBRANCH   5   6
ENDBRANCH   4   5
ENDBRANCH   3   4
ENDBRANCH   2   3
ENDBRANCH   1   2
BRANCH   1   9
ATOM      9  C   UNL     1      15.999  20.993  30.861  1.00  0.00     0.000 C 
BRANCH   9  10
ATOM     10  C   UNL     1      15.874  20.115  29.610  1.00  0.00    -0.000 C 
BRANCH  10  11
ATOM     11  C   UNL     1      14.449  19.559  29.469  1.00  0.00    -0.000 C 
BRANCH  11  12
ATOM     12  C   UNL     1      13.665  20.221  28.325  1.00  0.00    -0.000 C 
BRANCH  12  13
ATOM     13  C   UNL     1      12.454  21.023  28.825  1.00  0.00    -0.003 C 
ATOM     14  C   UNL     1      12.220  20.792  30.316  1.00  0.00     0.004 C 
ENDBRANCH  12  13
ENDBRANCH  11  12
ENDBRANCH  10  11
ENDBRANCH   9  10
ENDBRANCH   1   9
TORSDOF 10
ENDMDL
MODEL 9
REMARK VINA RESULT:    -4.423      3.639      6.276
REMARK INTER + INTRA:          -8.027
REMARK INTER:                  -7.140
REMARK INTRA:                  -0.887
REMARK UNBOUND:                -1.019
REMARK SMILES CCCCCCCCCCCC(=O)[O-]
REMARK SMILES IDX 7 1 8 2 9 3 10 4 11 5 12 6 13 7 14 8 6 9 5 10 4 11 3 12 2 13
REMARK SMILES IDX 1 14
REMARK H PARENT
REMARK Flexibility Score: inf
ROOT
ATOM      1  C   UNL     1      13.945  23.135  30.140  1.00  0.00     0.000 C 
ENDROOT
BRANCH   1   2
ATOM      2  C   UNL     1      14.812  22.844  28.905  1.00  0.00     0.000 C 
BRANCH   2   3
ATOM      3  C   UNL     1      16.260  23.338  29.071  1.00  0.00     0.000 C 
BRANCH   3   4
ATOM      4  C   UNL     1      16.888  23.782  27.739  1.00  0.00     0.006 C 
BRANCH   4   5
ATOM      5  C   UNL     1      15.909  23.684  26.562  1.00  0.00     0.053 C 
BRANCH   5   6
ATOM      6  C   UNL     1      16.294  22.555  25.658  1.00  0.00     0.041 C 
ATOM      7  O   UNL     1      15.959  22.572  24.444  1.00  0.00    -0.550 OA
ATOM      8  O   UNL     1      17.065  21.506  26.144  1.00  0.00    -0.550 OA
ENDBRANCH   5   6
ENDBRANCH   4   5
ENDBRANCH   3   4
ENDBRANCH   2   3
ENDBRANCH   1   2
BRANCH   1   9
ATOM      9  C   UNL     1      13.270  24.513  30.081  1.00  0.00     0.000 C 
BRANCH   9  10
ATOM     10  C   UNL     1      11.742  24.377  30.087  1.00  0.00    -0.000 C 
BRANCH  10  11
ATOM     11  C   UNL     1      11.271  23.523  31.273  1.00  0.00    -0.000 C 
BRANCH  11  12
ATOM     12  C   UNL     1      10.433  22.311  30.834  1.00  0.00    -0.000 C 
BRANCH  12  13
ATOM     13  C   UNL     1      10.404  22.134  29.309  1.00  0.00    -0.003 C 
ATOM     14  C   UNL     1      11.028  20.803  28.898  1.00  0.00     0.004 C 
ENDBRANCH  12  13
ENDBRANCH  11  12
ENDBRANCH  10  11
ENDBRANCH   9  10
ENDBRANCH   1   9
TORSDOF 10
ENDMDL
