MODEL 1
REMARK VINA RESULT:    -5.146      0.000      0.000
REMARK INTER + INTRA:          -6.530
REMARK INTER:                  -6.199
REMARK INTRA:                  -0.331
REMARK UNBOUND:                -0.331
REMARK SMILES O=c1c(O)c(-c2ccc(O)c(O)c2)oc2cc(O)cc(O)c12
REMARK SMILES IDX 5 1 3 2 2 3 1 4 22 5 20 6 19 7 17 8 16 9 15 10 14 11 6 12
REMARK SMILES IDX 7 13 8 14 9 15 13 16 11 17 10 18 12 20 4 22 21 24 18 26
REMARK H PARENT 10 19 12 21 4 23 21 25 18 27
REMARK Flexibility Score: inf
ROOT
ATOM      1  C   UNL     1      -6.964  -5.600  45.596  1.00  0.00     0.180 A 
ATOM      2  C   UNL     1      -8.106  -6.036  44.902  1.00  0.00     0.208 A 
ATOM      3  C   UNL     1      -8.102  -6.008  43.499  1.00  0.00     0.238 A 
ATOM      4  O   UNL     1      -9.154  -6.328  42.886  1.00  0.00    -0.285 OA
ATOM      5  C   UNL     1      -6.938  -5.596  42.805  1.00  0.00     0.111 A 
ATOM      6  C   UNL     1      -6.806  -5.570  41.383  1.00  0.00     0.134 A 
ATOM      7  C   UNL     1      -5.644  -5.043  40.807  1.00  0.00     0.093 A 
ATOM      8  C   UNL     1      -4.583  -4.601  41.600  1.00  0.00     0.123 A 
ATOM      9  C   UNL     1      -4.679  -4.673  42.987  1.00  0.00     0.094 A 
ATOM     10  C   UNL     1      -5.842  -5.158  43.593  1.00  0.00     0.146 A 
ATOM     11  O   UNL     1      -5.899  -5.189  44.919  1.00  0.00    -0.452 OA
ENDROOT
BRANCH   1  12
ATOM     12  C   UNL     1      -6.897  -5.588  47.075  1.00  0.00     0.025 A 
ATOM     13  C   UNL     1      -7.372  -4.494  47.821  1.00  0.00     0.016 A 
ATOM     14  C   UNL     1      -7.274  -4.495  49.215  1.00  0.00     0.051 A 
ATOM     15  C   UNL     1      -6.692  -5.579  49.883  1.00  0.00     0.157 A 
ATOM     16  C   UNL     1      -6.294  -6.663  47.748  1.00  0.00     0.062 A 
ATOM     17  C   UNL     1      -6.197  -6.667  49.144  1.00  0.00     0.158 A 
BRANCH  15  18
ATOM     18  O   UNL     1      -6.599  -5.578  51.275  1.00  0.00    -0.504 OA
ATOM     19  H   UNL     1      -7.194  -6.167  51.846  1.00  0.00     0.293 HD
ENDBRANCH  15  18
BRANCH  17  20
ATOM     20  O   UNL     1      -5.604  -7.758  49.779  1.00  0.00    -0.504 OA
ATOM     21  H   UNL     1      -6.152  -8.481  50.232  1.00  0.00     0.293 HD
ENDBRANCH  17  20
ENDBRANCH   1  12
BRANCH   2  22
ATOM     22  O   UNL     1      -9.217  -6.511  45.604  1.00  0.00    -0.502 OA
ATOM     23  H   UNL     1      -9.968  -7.020  45.154  1.00  0.00     0.293 HD
ENDBRANCH   2  22
BRANCH   6  24
ATOM     24  O   UNL     1      -7.768  -6.068  40.499  1.00  0.00    -0.507 OA
ATOM     25  H   UNL     1      -7.579  -6.406  39.568  1.00  0.00     0.293 HD
ENDBRANCH   6  24
BRANCH   8  26
ATOM     26  O   UNL     1      -3.423  -4.094  41.018  1.00  0.00    -0.508 OA
ATOM     27  H   UNL     1      -3.450  -3.580  40.145  1.00  0.00     0.293 HD
ENDBRANCH   8  26
TORSDOF 6
ENDMDL
MODEL 2
REMARK VINA RESULT:    -5.035      5.914     10.900
REMARK INTER + INTRA:          -6.396
REMARK INTER:                  -6.065
REMARK INTRA:                  -0.331
REMARK UNBOUND:                -0.331
REMARK SMILES O=c1c(O)c(-c2ccc(O)c(O)c2)oc2cc(O)cc(O)c12
REMARK SMILES IDX 5 1 3 2 2 3 1 4 22 5 20 6 19 7 17 8 16 9 15 10 14 11 6 12
REMARK SMILES IDX 7 13 8 14 9 15 13 16 11 17 10 18 12 20 4 22 21 24 18 26
REMARK H PARENT 10 19 12 21 4 23 21 25 18 27
REMARK Flexibility Score: inf
ROOT
ATOM      1  C   UNL     1      -2.722  -0.116  39.118  1.00  0.00     0.180 A 
ATOM      2  C   UNL     1      -3.111   0.686  40.206  1.00  0.00     0.208 A 
ATOM      3  C   UNL     1      -3.718   0.079  41.317  1.00  0.00     0.238 A 
ATOM      4  O   UNL     1      -4.131   0.810  42.253  1.00  0.00    -0.285 OA
ATOM      5  C   UNL     1      -3.878  -1.328  41.351  1.00  0.00     0.111 A 
ATOM      6  C   UNL     1      -4.439  -2.055  42.445  1.00  0.00     0.134 A 
ATOM      7  C   UNL     1      -4.645  -3.435  42.323  1.00  0.00     0.093 A 
ATOM      8  C   UNL     1      -4.252  -4.124  41.174  1.00  0.00     0.123 A 
ATOM      9  C   UNL     1      -3.654  -3.433  40.124  1.00  0.00     0.094 A 
ATOM     10  C   UNL     1      -3.470  -2.049  40.199  1.00  0.00     0.146 A 
ATOM     11  O   UNL     1      -2.915  -1.428  39.165  1.00  0.00    -0.452 OA
ENDROOT
BRANCH   1  12
ATOM     12  C   UNL     1      -2.089   0.453  37.907  1.00  0.00     0.025 A 
ATOM     13  C   UNL     1      -2.859   0.883  36.812  1.00  0.00     0.016 A 
ATOM     14  C   UNL     1      -2.237   1.393  35.669  1.00  0.00     0.051 A 
ATOM     15  C   UNL     1      -0.840   1.470  35.597  1.00  0.00     0.157 A 
ATOM     16  C   UNL     1      -0.688   0.511  37.822  1.00  0.00     0.062 A 
ATOM     17  C   UNL     1      -0.063   1.023  36.679  1.00  0.00     0.158 A 
BRANCH  15  18
ATOM     18  O   UNL     1      -0.223   1.982  34.456  1.00  0.00    -0.504 OA
ATOM     19  H   UNL     1       0.196   1.374  33.762  1.00  0.00     0.293 HD
ENDBRANCH  15  18
BRANCH  17  20
ATOM     20  O   UNL     1       1.330   1.078  36.637  1.00  0.00    -0.504 OA
ATOM     21  H   UNL     1       1.883   1.347  37.442  1.00  0.00     0.293 HD
ENDBRANCH  17  20
ENDBRANCH   1  12
BRANCH   2  22
ATOM     22  O   UNL     1      -2.874   2.063  40.185  1.00  0.00    -0.502 OA
ATOM     23  H   UNL     1      -3.608   2.739  40.009  1.00  0.00     0.293 HD
ENDBRANCH   2  22
BRANCH   6  24
ATOM     24  O   UNL     1      -4.785  -1.480  43.672  1.00  0.00    -0.507 OA
ATOM     25  H   UNL     1      -4.492  -1.822  44.574  1.00  0.00     0.293 HD
ENDBRANCH   6  24
BRANCH   8  26
ATOM     26  O   UNL     1      -4.446  -5.500  41.069  1.00  0.00    -0.508 OA
ATOM     27  H   UNL     1      -5.310  -5.938  41.366  1.00  0.00     0.293 HD
ENDBRANCH   8  26
TORSDOF 6
ENDMDL
MODEL 3
REMARK VINA RESULT:    -4.987     12.387     14.993
REMARK INTER + INTRA:          -6.338
REMARK INTER:                  -6.020
REMARK INTRA:                  -0.318
REMARK UNBOUND:                -0.331
REMARK SMILES O=c1c(O)c(-c2ccc(O)c(O)c2)oc2cc(O)cc(O)c12
REMARK SMILES IDX 5 1 3 2 2 3 1 4 22 5 20 6 19 7 17 8 16 9 15 10 14 11 6 12
REMARK SMILES IDX 7 13 8 14 9 15 13 16 11 17 10 18 12 20 4 22 21 24 18 26
REMARK H PARENT 10 19 12 21 4 23 21 25 18 27
REMARK Flexibility Score: inf
ROOT
ATOM      1  C   UNL     1       3.331   1.329  39.045  1.00  0.00     0.180 A 
ATOM      2  C   UNL     1       3.144  -0.064  39.082  1.00  0.00     0.208 A 
ATOM      3  C   UNL     1       3.523  -0.772  40.233  1.00  0.00     0.238 A 
ATOM      4  O   UNL     1       3.423  -2.026  40.230  1.00  0.00    -0.285 OA
ATOM      5  C   UNL     1       4.032  -0.073  41.355  1.00  0.00     0.111 A 
ATOM      6  C   UNL     1       4.406  -0.684  42.591  1.00  0.00     0.134 A 
ATOM      7  C   UNL     1       4.998   0.094  43.594  1.00  0.00     0.093 A 
ATOM      8  C   UNL     1       5.170   1.471  43.432  1.00  0.00     0.123 A 
ATOM      9  C   UNL     1       4.759   2.084  42.252  1.00  0.00     0.094 A 
ATOM     10  C   UNL     1       4.200   1.329  41.216  1.00  0.00     0.146 A 
ATOM     11  O   UNL     1       3.842   1.952  40.100  1.00  0.00    -0.452 OA
ENDROOT
BRANCH   1  12
ATOM     12  C   UNL     1       2.970   2.142  37.862  1.00  0.00     0.025 A 
ATOM     13  C   UNL     1       3.928   2.494  36.895  1.00  0.00     0.016 A 
ATOM     14  C   UNL     1       3.567   3.284  35.800  1.00  0.00     0.051 A 
ATOM     15  C   UNL     1       2.251   3.743  35.661  1.00  0.00     0.157 A 
ATOM     16  C   UNL     1       1.657   2.623  37.730  1.00  0.00     0.062 A 
ATOM     17  C   UNL     1       1.293   3.413  36.634  1.00  0.00     0.158 A 
BRANCH  15  18
ATOM     18  O   UNL     1       1.895   4.529  34.565  1.00  0.00    -0.504 OA
ATOM     19  H   UNL     1       1.325   4.162  33.812  1.00  0.00     0.293 HD
ENDBRANCH  15  18
BRANCH  17  20
ATOM     20  O   UNL     1      -0.023   3.861  36.529  1.00  0.00    -0.504 OA
ATOM     21  H   UNL     1      -0.803   3.333  36.904  1.00  0.00     0.293 HD
ENDBRANCH  17  20
ENDBRANCH   1  12
BRANCH   2  22
ATOM     22  O   UNL     1       2.569  -0.725  37.994  1.00  0.00    -0.502 OA
ATOM     23  H   UNL     1       2.567  -0.334  37.058  1.00  0.00     0.293 HD
ENDBRANCH   2  22
BRANCH   6  24
ATOM     24  O   UNL     1       4.198  -2.033  42.892  1.00  0.00    -0.507 OA
ATOM     25  H   UNL     1       4.712  -2.802  42.491  1.00  0.00     0.293 HD
ENDBRANCH   6  24
BRANCH   8  26
ATOM     26  O   UNL     1       5.744   2.240  44.441  1.00  0.00    -0.508 OA
ATOM     27  H   UNL     1       6.591   2.774  44.284  1.00  0.00     0.293 HD
ENDBRANCH   8  26
TORSDOF 6
ENDMDL
MODEL 4
REMARK VINA RESULT:    -4.987      6.556     10.711
REMARK INTER + INTRA:          -6.337
REMARK INTER:                  -6.021
REMARK INTRA:                  -0.316
REMARK UNBOUND:                -0.331
REMARK SMILES O=c1c(O)c(-c2ccc(O)c(O)c2)oc2cc(O)cc(O)c12
REMARK SMILES IDX 5 1 3 2 2 3 1 4 22 5 20 6 19 7 17 8 16 9 15 10 14 11 6 12
REMARK SMILES IDX 7 13 8 14 9 15 13 16 11 17 10 18 12 20 4 22 21 24 18 26
REMARK H PARENT 10 19 12 21 4 23 21 25 18 27
REMARK Flexibility Score: inf
ROOT
ATOM      1  C   UNL     1      -1.618  -1.958  37.783  1.00  0.00     0.180 A 
ATOM      2  C   UNL     1      -0.617  -2.687  37.117  1.00  0.00     0.208 A 
ATOM      3  C   UNL     1       0.470  -1.997  36.559  1.00  0.00     0.238 A 
ATOM      4  O   UNL     1       1.323  -2.646  35.900  1.00  0.00    -0.285 OA
ATOM      5  C   UNL     1       0.573  -0.593  36.721  1.00  0.00     0.111 A 
ATOM      6  C   UNL     1       1.655   0.204  36.236  1.00  0.00     0.134 A 
ATOM      7  C   UNL     1       1.597   1.597  36.363  1.00  0.00     0.093 A 
ATOM      8  C   UNL     1       0.528   2.218  37.014  1.00  0.00     0.123 A 
ATOM      9  C   UNL     1      -0.505   1.446  37.538  1.00  0.00     0.094 A 
ATOM     10  C   UNL     1      -0.495   0.055  37.394  1.00  0.00     0.146 A 
ATOM     11  O   UNL     1      -1.511  -0.640  37.891  1.00  0.00    -0.452 OA
ENDROOT
BRANCH   1  12
ATOM     12  C   UNL     1      -2.801  -2.614  38.385  1.00  0.00     0.025 A 
ATOM     13  C   UNL     1      -4.027  -2.685  37.700  1.00  0.00     0.016 A 
ATOM     14  C   UNL     1      -5.136  -3.286  38.299  1.00  0.00     0.051 A 
ATOM     15  C   UNL     1      -5.043  -3.813  39.594  1.00  0.00     0.157 A 
ATOM     16  C   UNL     1      -2.718  -3.123  39.691  1.00  0.00     0.062 A 
ATOM     17  C   UNL     1      -3.828  -3.727  40.294  1.00  0.00     0.158 A 
BRANCH  15  18
ATOM     18  O   UNL     1      -6.152  -4.415  40.188  1.00  0.00    -0.504 OA
ATOM     19  H   UNL     1      -6.342  -4.316  41.179  1.00  0.00     0.293 HD
ENDBRANCH  15  18
BRANCH  17  20
ATOM     20  O   UNL     1      -3.704  -4.234  41.587  1.00  0.00    -0.504 OA
ATOM     21  H   UNL     1      -4.476  -4.683  42.066  1.00  0.00     0.293 HD
ENDBRANCH  17  20
ENDBRANCH   1  12
BRANCH   2  22
ATOM     22  O   UNL     1      -0.698  -4.079  37.034  1.00  0.00    -0.502 OA
ATOM     23  H   UNL     1      -1.374  -4.618  37.563  1.00  0.00     0.293 HD
ENDBRANCH   2  22
BRANCH   6  24
ATOM     24  O   UNL     1       2.811  -0.320  35.650  1.00  0.00    -0.507 OA
ATOM     25  H   UNL     1       3.541   0.227  35.221  1.00  0.00     0.293 HD
ENDBRANCH   6  24
BRANCH   8  26
ATOM     26  O   UNL     1       0.487   3.604  37.150  1.00  0.00    -0.508 OA
ATOM     27  H   UNL     1       1.187   4.104  37.686  1.00  0.00     0.293 HD
ENDBRANCH   8  26
TORSDOF 6
ENDMDL
MODEL 5
REMARK VINA RESULT:    -4.974      4.967      9.905
REMARK INTER + INTRA:          -6.322
REMARK INTER:                  -5.991
REMARK INTRA:                  -0.331
REMARK UNBOUND:                -0.331
REMARK SMILES O=c1c(O)c(-c2ccc(O)c(O)c2)oc2cc(O)cc(O)c12
REMARK SMILES IDX 5 1 3 2 2 3 1 4 22 5 20 6 19 7 17 8 16 9 15 10 14 11 6 12
REMARK SMILES IDX 7 13 8 14 9 15 13 16 11 17 10 18 12 20 4 22 21 24 18 26
REMARK H PARENT 10 19 12 21 4 23 21 25 18 27
REMARK Flexibility Score: inf
ROOT
ATOM      1  C   UNL     1      -4.059  -0.902  39.747  1.00  0.00     0.180 A 
ATOM      2  C   UNL     1      -3.756  -0.401  41.026  1.00  0.00     0.208 A 
ATOM      3  C   UNL     1      -3.833  -1.264  42.130  1.00  0.00     0.238 A 
ATOM      4  O   UNL     1      -3.634  -0.792  43.280  1.00  0.00    -0.285 OA
ATOM      5  C   UNL     1      -4.157  -2.630  41.937  1.00  0.00     0.111 A 
ATOM      6  C   UNL     1      -4.221  -3.605  42.979  1.00  0.00     0.134 A 
ATOM      7  C   UNL     1      -4.656  -4.902  42.684  1.00  0.00     0.093 A 
ATOM      8  C   UNL     1      -4.969  -5.278  41.376  1.00  0.00     0.123 A 
ATOM      9  C   UNL     1      -4.859  -4.350  40.345  1.00  0.00     0.094 A 
ATOM     10  C   UNL     1      -4.464  -3.036  40.612  1.00  0.00     0.146 A 
ATOM     11  O   UNL     1      -4.392  -2.178  39.602  1.00  0.00    -0.452 OA
ENDROOT
BRANCH   1  12
ATOM     12  C   UNL     1      -4.014  -0.050  38.537  1.00  0.00     0.025 A 
ATOM     13  C   UNL     1      -5.152   0.639  38.083  1.00  0.00     0.016 A 
ATOM     14  C   UNL     1      -5.091   1.417  36.924  1.00  0.00     0.051 A 
ATOM     15  C   UNL     1      -3.898   1.507  36.194  1.00  0.00     0.157 A 
ATOM     16  C   UNL     1      -2.827   0.026  37.790  1.00  0.00     0.062 A 
ATOM     17  C   UNL     1      -2.762   0.804  36.629  1.00  0.00     0.158 A 
BRANCH  15  18
ATOM     18  O   UNL     1      -3.840   2.286  35.039  1.00  0.00    -0.504 OA
ATOM     19  H   UNL     1      -3.367   3.182  35.027  1.00  0.00     0.293 HD
ENDBRANCH  15  18
BRANCH  17  20
ATOM     20  O   UNL     1      -1.562   0.867  35.921  1.00  0.00    -0.504 OA
ATOM     21  H   UNL     1      -0.752   0.318  36.185  1.00  0.00     0.293 HD
ENDBRANCH  17  20
ENDBRANCH   1  12
BRANCH   2  22
ATOM     22  O   UNL     1      -3.363   0.930  41.185  1.00  0.00    -0.502 OA
ATOM     23  H   UNL     1      -3.978   1.708  40.979  1.00  0.00     0.293 HD
ENDBRANCH   2  22
BRANCH   6  24
ATOM     24  O   UNL     1      -3.846  -3.360  44.304  1.00  0.00    -0.507 OA
ATOM     25  H   UNL     1      -4.414  -2.883  44.987  1.00  0.00     0.293 HD
ENDBRANCH   6  24
BRANCH   8  26
ATOM     26  O   UNL     1      -5.386  -6.577  41.090  1.00  0.00    -0.508 OA
ATOM     27  H   UNL     1      -4.998  -7.377  41.575  1.00  0.00     0.293 HD
ENDBRANCH   8  26
TORSDOF 6
ENDMDL
MODEL 6
REMARK VINA RESULT:    -4.867      5.611     10.545
REMARK INTER + INTRA:          -6.194
REMARK INTER:                  -6.015
REMARK INTRA:                  -0.179
REMARK UNBOUND:                -0.331
REMARK SMILES O=c1c(O)c(-c2ccc(O)c(O)c2)oc2cc(O)cc(O)c12
REMARK SMILES IDX 5 1 3 2 2 3 1 4 22 5 20 6 19 7 17 8 16 9 15 10 14 11 6 12
REMARK SMILES IDX 7 13 8 14 9 15 13 16 11 17 10 18 12 20 4 22 21 24 18 26
REMARK H PARENT 10 19 12 21 4 23 21 25 18 27
REMARK Flexibility Score: inf
ROOT
ATOM      1  C   UNL     1      -3.227  -1.724  38.522  1.00  0.00     0.180 A 
ATOM      2  C   UNL     1      -2.762  -0.405  38.664  1.00  0.00     0.208 A 
ATOM      3  C   UNL     1      -3.096   0.314  39.823  1.00  0.00     0.238 A 
ATOM      4  O   UNL     1      -2.741   1.518  39.909  1.00  0.00    -0.285 OA
ATOM      5  C   UNL     1      -3.843  -0.313  40.850  1.00  0.00     0.111 A 
ATOM      6  C   UNL     1      -4.201   0.306  42.087  1.00  0.00     0.134 A 
ATOM      7  C   UNL     1      -5.033  -0.375  42.984  1.00  0.00     0.093 A 
ATOM      8  C   UNL     1      -5.468  -1.676  42.719  1.00  0.00     0.123 A 
ATOM      9  C   UNL     1      -5.080  -2.308  41.541  1.00  0.00     0.094 A 
ATOM     10  C   UNL     1      -4.281  -1.641  40.607  1.00  0.00     0.146 A 
ATOM     11  O   UNL     1      -3.953  -2.273  39.487  1.00  0.00    -0.452 OA
ENDROOT
BRANCH   1  12
ATOM     12  C   UNL     1      -2.928  -2.540  37.324  1.00  0.00     0.025 A 
ATOM     13  C   UNL     1      -3.947  -2.962  36.451  1.00  0.00     0.016 A 
ATOM     14  C   UNL     1      -3.642  -3.753  35.341  1.00  0.00     0.051 A 
ATOM     15  C   UNL     1      -2.321  -4.145  35.091  1.00  0.00     0.157 A 
ATOM     16  C   UNL     1      -1.607  -2.954  37.082  1.00  0.00     0.062 A 
ATOM     17  C   UNL     1      -1.300  -3.745  35.969  1.00  0.00     0.158 A 
BRANCH  15  18
ATOM     18  O   UNL     1      -2.020  -4.932  33.980  1.00  0.00    -0.504 OA
ATOM     19  H   UNL     1      -2.079  -5.943  34.015  1.00  0.00     0.293 HD
ENDBRANCH  15  18
BRANCH  17  20
ATOM     20  O   UNL     1       0.025  -4.125  35.754  1.00  0.00    -0.504 OA
ATOM     21  H   UNL     1       0.801  -3.653  36.204  1.00  0.00     0.293 HD
ENDBRANCH  17  20
ENDBRANCH   1  12
BRANCH   2  22
ATOM     22  O   UNL     1      -1.961   0.169  37.673  1.00  0.00    -0.502 OA
ATOM     23  H   UNL     1      -2.171   0.082  36.686  1.00  0.00     0.293 HD
ENDBRANCH   2  22
BRANCH   6  24
ATOM     24  O   UNL     1      -3.750   1.566  42.491  1.00  0.00    -0.507 OA
ATOM     25  H   UNL     1      -2.820   1.768  42.823  1.00  0.00     0.293 HD
ENDBRANCH   6  24
BRANCH   8  26
ATOM     26  O   UNL     1      -6.282  -2.352  43.625  1.00  0.00    -0.508 OA
ATOM     27  H   UNL     1      -5.891  -2.935  44.356  1.00  0.00     0.293 HD
ENDBRANCH   8  26
TORSDOF 6
ENDMDL
MODEL 7
REMARK VINA RESULT:    -4.843      5.291      9.056
REMARK INTER + INTRA:          -6.165
REMARK INTER:                  -5.851
REMARK INTRA:                  -0.313
REMARK UNBOUND:                -0.331
REMARK SMILES O=c1c(O)c(-c2ccc(O)c(O)c2)oc2cc(O)cc(O)c12
REMARK SMILES IDX 5 1 3 2 2 3 1 4 22 5 20 6 19 7 17 8 16 9 15 10 14 11 6 12
REMARK SMILES IDX 7 13 8 14 9 15 13 16 11 17 10 18 12 20 4 22 21 24 18 26
REMARK H PARENT 10 19 12 21 4 23 21 25 18 27
REMARK Flexibility Score: inf
ROOT
ATOM      1  C   UNL     1      -2.957  -2.354  38.844  1.00  0.00     0.180 A 
ATOM      2  C   UNL     1      -2.946  -0.951  38.939  1.00  0.00     0.208 A 
ATOM      3  C   UNL     1      -1.989  -0.227  38.211  1.00  0.00     0.238 A 
ATOM      4  O   UNL     1      -1.936   1.021  38.358  1.00  0.00    -0.285 OA
ATOM      5  C   UNL     1      -1.090  -0.910  37.355  1.00  0.00     0.111 A 
ATOM      6  C   UNL     1      -0.107  -0.274  36.536  1.00  0.00     0.134 A 
ATOM      7  C   UNL     1       0.798  -1.058  35.810  1.00  0.00     0.093 A 
ATOM      8  C   UNL     1       0.716  -2.452  35.822  1.00  0.00     0.123 A 
ATOM      9  C   UNL     1      -0.273  -3.080  36.575  1.00  0.00     0.094 A 
ATOM     10  C   UNL     1      -1.167  -2.327  37.341  1.00  0.00     0.146 A 
ATOM     11  O   UNL     1      -2.081  -2.968  38.060  1.00  0.00    -0.452 OA
ENDROOT
BRANCH   1  12
ATOM     12  C   UNL     1      -3.927  -3.186  39.592  1.00  0.00     0.025 A 
ATOM     13  C   UNL     1      -5.224  -3.418  39.103  1.00  0.00     0.016 A 
ATOM     14  C   UNL     1      -6.130  -4.186  39.840  1.00  0.00     0.051 A 
ATOM     15  C   UNL     1      -5.759  -4.723  41.079  1.00  0.00     0.157 A 
ATOM     16  C   UNL     1      -3.566  -3.708  40.846  1.00  0.00     0.062 A 
ATOM     17  C   UNL     1      -4.471  -4.478  41.585  1.00  0.00     0.158 A 
BRANCH  15  18
ATOM     18  O   UNL     1      -6.664  -5.491  41.810  1.00  0.00    -0.504 OA
ATOM     19  H   UNL     1      -7.650  -5.513  41.578  1.00  0.00     0.293 HD
ENDBRANCH  15  18
BRANCH  17  20
ATOM     20  O   UNL     1      -4.073  -4.991  42.819  1.00  0.00    -0.504 OA
ATOM     21  H   UNL     1      -3.173  -4.769  43.230  1.00  0.00     0.293 HD
ENDBRANCH  17  20
ENDBRANCH   1  12
BRANCH   2  22
ATOM     22  O   UNL     1      -3.892  -0.292  39.728  1.00  0.00    -0.502 OA
ATOM     23  H   UNL     1      -3.802   0.685  39.982  1.00  0.00     0.293 HD
ENDBRANCH   2  22
BRANCH   6  24
ATOM     24  O   UNL     1       0.006   1.111  36.382  1.00  0.00    -0.507 OA
ATOM     25  H   UNL     1      -0.413   1.797  36.989  1.00  0.00     0.293 HD
ENDBRANCH   6  24
BRANCH   8  26
ATOM     26  O   UNL     1       1.611  -3.224  35.084  1.00  0.00    -0.508 OA
ATOM     27  H   UNL     1       1.476  -4.221  34.962  1.00  0.00     0.293 HD
ENDBRANCH   8  26
TORSDOF 6
ENDMDL
MODEL 8
REMARK VINA RESULT:    -4.798      5.810      8.812
REMARK INTER + INTRA:          -6.110
REMARK INTER:                  -5.821
REMARK INTRA:                  -0.290
REMARK UNBOUND:                -0.331
REMARK SMILES O=c1c(O)c(-c2ccc(O)c(O)c2)oc2cc(O)cc(O)c12
REMARK SMILES IDX 5 1 3 2 2 3 1 4 22 5 20 6 19 7 17 8 16 9 15 10 14 11 6 12
REMARK SMILES IDX 7 13 8 14 9 15 13 16 11 17 10 18 12 20 4 22 21 24 18 26
REMARK H PARENT 10 19 12 21 4 23 21 25 18 27
REMARK Flexibility Score: inf
ROOT
ATOM      1  C   UNL     1      -3.669  -0.823  39.376  1.00  0.00     0.180 A 
ATOM      2  C   UNL     1      -4.697  -0.043  38.819  1.00  0.00     0.208 A 
ATOM      3  C   UNL     1      -4.416   0.756  37.700  1.00  0.00     0.238 A 
ATOM      4  O   UNL     1      -5.319   1.509  37.252  1.00  0.00    -0.285 OA
ATOM      5  C   UNL     1      -3.125   0.723  37.117  1.00  0.00     0.111 A 
ATOM      6  C   UNL     1      -2.740   1.457  35.953  1.00  0.00     0.134 A 
ATOM      7  C   UNL     1      -1.406   1.428  35.530  1.00  0.00     0.093 A 
ATOM      8  C   UNL     1      -0.457   0.642  36.187  1.00  0.00     0.123 A 
ATOM      9  C   UNL     1      -0.834  -0.120  37.290  1.00  0.00     0.094 A 
ATOM     10  C   UNL     1      -2.150  -0.083  37.761  1.00  0.00     0.146 A 
ATOM     11  O   UNL     1      -2.461  -0.808  38.828  1.00  0.00    -0.452 OA
ENDROOT
BRANCH   1  12
ATOM     12  C   UNL     1      -3.886  -1.679  40.565  1.00  0.00     0.025 A 
ATOM     13  C   UNL     1      -3.963  -1.132  41.857  1.00  0.00     0.016 A 
ATOM     14  C   UNL     1      -4.142  -1.964  42.966  1.00  0.00     0.051 A 
ATOM     15  C   UNL     1      -4.235  -3.352  42.802  1.00  0.00     0.157 A 
ATOM     16  C   UNL     1      -3.957  -3.073  40.407  1.00  0.00     0.062 A 
ATOM     17  C   UNL     1      -4.138  -3.908  41.516  1.00  0.00     0.158 A 
BRANCH  15  18
ATOM     18  O   UNL     1      -4.417  -4.179  43.910  1.00  0.00    -0.504 OA
ATOM     19  H   UNL     1      -4.294  -3.834  44.855  1.00  0.00     0.293 HD
ENDBRANCH  15  18
BRANCH  17  20
ATOM     20  O   UNL     1      -4.218  -5.287  41.319  1.00  0.00    -0.504 OA
ATOM     21  H   UNL     1      -4.827  -5.876  41.875  1.00  0.00     0.293 HD
ENDBRANCH  17  20
ENDBRANCH   1  12
BRANCH   2  22
ATOM     22  O   UNL     1      -5.984  -0.083  39.362  1.00  0.00    -0.502 OA
ATOM     23  H   UNL     1      -6.171  -0.434  40.294  1.00  0.00     0.293 HD
ENDBRANCH   2  22
BRANCH   6  24
ATOM     24  O   UNL     1      -3.625   2.203  35.170  1.00  0.00    -0.507 OA
ATOM     25  H   UNL     1      -3.386   2.665  34.307  1.00  0.00     0.293 HD
ENDBRANCH   6  24
BRANCH   8  26
ATOM     26  O   UNL     1       0.865   0.607  35.749  1.00  0.00    -0.508 OA
ATOM     27  H   UNL     1       1.196  -0.119  35.124  1.00  0.00     0.293 HD
ENDBRANCH   8  26
TORSDOF 6
ENDMDL
MODEL 9
REMARK VINA RESULT:    -4.713     11.841     13.019
REMARK INTER + INTRA:          -6.008
REMARK INTER:                  -5.690
REMARK INTRA:                  -0.318
REMARK UNBOUND:                -0.331
REMARK SMILES O=c1c(O)c(-c2ccc(O)c(O)c2)oc2cc(O)cc(O)c12
REMARK SMILES IDX 5 1 3 2 2 3 1 4 22 5 20 6 19 7 17 8 16 9 15 10 14 11 6 12
REMARK SMILES IDX 7 13 8 14 9 15 13 16 11 17 10 18 12 20 4 22 21 24 18 26
REMARK H PARENT 10 19 12 21 4 23 21 25 18 27
REMARK Flexibility Score: inf
ROOT
ATOM      1  C   UNL     1       3.215   0.063  39.622  1.00  0.00     0.180 A 
ATOM      2  C   UNL     1       2.497  -1.091  39.262  1.00  0.00     0.208 A 
ATOM      3  C   UNL     1       1.557  -1.012  38.222  1.00  0.00     0.238 A 
ATOM      4  O   UNL     1       0.865  -2.029  37.956  1.00  0.00    -0.285 OA
ATOM      5  C   UNL     1       1.386   0.204  37.517  1.00  0.00     0.111 A 
ATOM      6  C   UNL     1       0.494   0.387  36.416  1.00  0.00     0.134 A 
ATOM      7  C   UNL     1       0.331   1.663  35.865  1.00  0.00     0.093 A 
ATOM      8  C   UNL     1       1.074   2.751  36.330  1.00  0.00     0.123 A 
ATOM      9  C   UNL     1       1.986   2.572  37.367  1.00  0.00     0.094 A 
ATOM     10  C   UNL     1       2.144   1.318  37.965  1.00  0.00     0.146 A 
ATOM     11  O   UNL     1       3.009   1.197  38.964  1.00  0.00    -0.452 OA
ENDROOT
BRANCH   1  12
ATOM     12  C   UNL     1       4.211   0.062  40.716  1.00  0.00     0.025 A 
ATOM     13  C   UNL     1       5.542  -0.334  40.496  1.00  0.00     0.016 A 
ATOM     14  C   UNL     1       6.457  -0.351  41.551  1.00  0.00     0.051 A 
ATOM     15  C   UNL     1       6.056   0.014  42.842  1.00  0.00     0.157 A 
ATOM     16  C   UNL     1       3.808   0.406  42.017  1.00  0.00     0.062 A 
ATOM     17  C   UNL     1       4.723   0.391  43.076  1.00  0.00     0.158 A 
BRANCH  15  18
ATOM     18  O   UNL     1       6.973  -0.001  43.893  1.00  0.00    -0.504 OA
ATOM     19  H   UNL     1       6.733  -0.380  44.801  1.00  0.00     0.293 HD
ENDBRANCH  15  18
BRANCH  17  20
ATOM     20  O   UNL     1       4.289   0.752  44.351  1.00  0.00    -0.504 OA
ATOM     21  H   UNL     1       3.437   1.281  44.501  1.00  0.00     0.293 HD
ENDBRANCH  17  20
ENDBRANCH   1  12
BRANCH   2  22
ATOM     22  O   UNL     1       2.736  -2.301  39.919  1.00  0.00    -0.502 OA
ATOM     23  H   UNL     1       2.115  -2.665  40.632  1.00  0.00     0.293 HD
ENDBRANCH   2  22
BRANCH   6  24
ATOM     24  O   UNL     1      -0.229  -0.648  35.815  1.00  0.00    -0.507 OA
ATOM     25  H   UNL     1      -0.351  -1.570  36.204  1.00  0.00     0.293 HD
ENDBRANCH   6  24
BRANCH   8  26
ATOM     26  O   UNL     1       0.917   4.014  35.764  1.00  0.00    -0.508 OA
ATOM     27  H   UNL     1       0.671   4.130  34.788  1.00  0.00     0.293 HD
ENDBRANCH   8  26
TORSDOF 6
ENDMDL
