MODEL 1
REMARK VINA RESULT:    -5.770      0.000      0.000
REMARK INTER + INTRA:          -6.069
REMARK INTER:                  -6.276
REMARK INTRA:                   0.206
REMARK UNBOUND:                 0.206
REMARK SMILES CC1(C)CC[C@]2(C(=O)[O-])CC[C@]3(C)C(=CC[C@@H]4[C@@]5(C)CC[C@H](O)C(C)(C)[C@H]5CC[C@]43C)[C@H]2C1
REMARK SMILES IDX 6 1 5 2 10 3 32 4 4 5 11 6 14 7 33 8 2 9 12 10 15 11 1 12
REMARK SMILES IDX 3 13 13 14 30 15 16 16 17 17 29 18 31 19 18 20 28 21 27 22
REMARK SMILES IDX 20 23 19 24 24 25 21 26 22 27 25 28 26 29 7 30 8 31 9 32
REMARK SMILES IDX 23 33
REMARK H PARENT 23 34
REMARK Flexibility Score: inf
ROOT
ATOM      1  C   UNL     1       0.332 -59.683 -25.739  1.00  0.00     0.017 C 
ATOM      2  C   UNL     1       0.308 -59.254 -27.232  1.00  0.00     0.014 C 
ATOM      3  C   UNL     1      -0.082 -58.462 -24.882  1.00  0.00     0.014 C 
ATOM      4  C   UNL     1       1.790 -60.088 -25.354  1.00  0.00     0.028 C 
ATOM      5  C   UNL     1       0.818 -60.363 -28.165  1.00  0.00     0.007 C 
ATOM      6  C   UNL     1      -0.010 -58.750 -23.373  1.00  0.00     0.013 C 
ATOM      7  C   UNL     1       1.912 -60.363 -23.838  1.00  0.00    -0.064 C 
ATOM      8  C   UNL     1       2.348 -61.192 -26.299  1.00  0.00     0.015 C 
ATOM      9  C   UNL     1       2.250 -60.837 -27.809  1.00  0.00    -0.035 C 
ATOM     10  C   UNL     1       1.386 -59.274 -22.868  1.00  0.00    -0.006 C 
ATOM     11  C   UNL     1       2.578 -61.458 -23.374  1.00  0.00    -0.027 C 
ATOM     12  C   UNL     1       3.293 -59.758 -28.192  1.00  0.00     0.011 C 
ATOM     13  C   UNL     1       2.565 -62.105 -28.634  1.00  0.00     0.011 C 
ATOM     14  C   UNL     1       2.369 -58.058 -22.937  1.00  0.00     0.017 C 
ATOM     15  C   UNL     1       1.261 -59.880 -21.379  1.00  0.00    -0.020 C 
ATOM     16  C   UNL     1       2.836 -61.777 -21.918  1.00  0.00     0.032 C 
ATOM     17  C   UNL     1       2.621 -60.557 -20.984  1.00  0.00     0.006 C 
ATOM     18  C   UNL     1       0.983 -58.781 -20.334  1.00  0.00     0.008 C 
ATOM     19  C   UNL     1       0.087 -60.928 -21.343  1.00  0.00     0.012 C 
ATOM     20  C   UNL     1       2.921 -60.725 -19.396  1.00  0.00    -0.025 C 
ATOM     21  C   UNL     1       0.768 -59.321 -18.916  1.00  0.00     0.005 C 
ATOM     22  C   UNL     1       1.618 -60.573 -18.499  1.00  0.00     0.003 C 
ATOM     23  C   UNL     1       3.976 -59.640 -18.938  1.00  0.00     0.010 C 
ATOM     24  C   UNL     1       3.571 -62.122 -19.170  1.00  0.00     0.012 C 
ATOM     25  C   UNL     1       1.859 -60.651 -16.909  1.00  0.00    -0.006 C 
ATOM     26  C   UNL     1       3.782 -59.043 -17.528  1.00  0.00     0.033 C 
ATOM     27  C   UNL     1       3.249 -60.037 -16.488  1.00  0.00     0.120 C 
ATOM     28  C   UNL     1       1.724 -62.125 -16.415  1.00  0.00     0.014 C 
ATOM     29  C   UNL     1       0.746 -59.900 -16.108  1.00  0.00     0.014 C 
ENDROOT
BRANCH   1  30
ATOM     30  C   UNL     1      -0.680 -60.807 -25.523  1.00  0.00     0.048 C 
ATOM     31  O   UNL     1      -1.901 -60.607 -25.764  1.00  0.00    -0.550 OA
ATOM     32  O   UNL     1      -0.295 -62.047 -25.024  1.00  0.00    -0.550 OA
ENDBRANCH   1  30
BRANCH  27  33
ATOM     33  O   UNL     1       4.214 -61.026 -16.227  1.00  0.00    -0.393 OA
ATOM     34  H   UNL     1       3.762 -61.756 -15.727  1.00  0.00     0.210 HD
ENDBRANCH  27  33
TORSDOF 2
ENDMDL
MODEL 2
REMARK VINA RESULT:    -5.569      2.596      8.495
REMARK INTER + INTRA:          -5.851
REMARK INTER:                  -6.101
REMARK INTRA:                   0.250
REMARK UNBOUND:                 0.206
REMARK SMILES CC1(C)CC[C@]2(C(=O)[O-])CC[C@]3(C)C(=CC[C@@H]4[C@@]5(C)CC[C@H](O)C(C)(C)[C@H]5CC[C@]43C)[C@H]2C1
REMARK SMILES IDX 6 1 5 2 10 3 32 4 4 5 11 6 14 7 33 8 2 9 12 10 15 11 1 12
REMARK SMILES IDX 3 13 13 14 30 15 16 16 17 17 29 18 31 19 18 20 28 21 27 22
REMARK SMILES IDX 20 23 19 24 24 25 21 26 22 27 25 28 26 29 7 30 8 31 9 32
REMARK SMILES IDX 23 33
REMARK H PARENT 23 34
REMARK Flexibility Score: inf
ROOT
ATOM      1  C   UNL     1       3.134 -59.828 -20.024  1.00  0.00     0.017 C 
ATOM      2  C   UNL     1       3.444 -60.045 -18.517  1.00  0.00     0.014 C 
ATOM      3  C   UNL     1       2.361 -61.067 -20.538  1.00  0.00     0.014 C 
ATOM      4  C   UNL     1       4.480 -59.724 -20.806  1.00  0.00     0.028 C 
ATOM      5  C   UNL     1       4.314 -58.921 -17.934  1.00  0.00     0.007 C 
ATOM      6  C   UNL     1       2.075 -60.998 -22.047  1.00  0.00     0.013 C 
ATOM      7  C   UNL     1       4.239 -59.677 -22.332  1.00  0.00    -0.064 C 
ATOM      8  C   UNL     1       5.399 -58.611 -20.222  1.00  0.00     0.015 C 
ATOM      9  C   UNL     1       5.653 -58.741 -18.694  1.00  0.00    -0.035 C 
ATOM     10  C   UNL     1       3.347 -60.783 -22.950  1.00  0.00    -0.006 C 
ATOM     11  C   UNL     1       4.895 -58.778 -23.120  1.00  0.00    -0.027 C 
ATOM     12  C   UNL     1       6.614 -59.917 -18.391  1.00  0.00     0.011 C 
ATOM     13  C   UNL     1       6.328 -57.444 -18.195  1.00  0.00     0.011 C 
ATOM     14  C   UNL     1       4.152 -62.125 -22.910  1.00  0.00     0.017 C 
ATOM     15  C   UNL     1       2.917 -60.368 -24.449  1.00  0.00    -0.020 C 
ATOM     16  C   UNL     1       4.805 -58.703 -24.628  1.00  0.00     0.032 C 
ATOM     17  C   UNL     1       4.202 -59.983 -25.263  1.00  0.00     0.006 C 
ATOM     18  C   UNL     1       2.241 -61.536 -25.195  1.00  0.00     0.008 C 
ATOM     19  C   UNL     1       1.916 -59.156 -24.383  1.00  0.00     0.012 C 
ATOM     20  C   UNL     1       4.099 -60.080 -26.882  1.00  0.00    -0.025 C 
ATOM     21  C   UNL     1       1.736 -61.161 -26.592  1.00  0.00     0.005 C 
ATOM     22  C   UNL     1       2.600 -60.133 -27.406  1.00  0.00     0.003 C 
ATOM     23  C   UNL     1       4.853 -61.375 -27.385  1.00  0.00     0.010 C 
ATOM     24  C   UNL     1       4.839 -58.852 -27.489  1.00  0.00     0.012 C 
ATOM     25  C   UNL     1       2.428 -60.308 -28.997  1.00  0.00    -0.006 C 
ATOM     26  C   UNL     1       4.227 -62.114 -28.586  1.00  0.00     0.033 C 
ATOM     27  C   UNL     1       3.572 -61.193 -29.624  1.00  0.00     0.120 C 
ATOM     28  C   UNL     1       2.356 -58.911 -29.688  1.00  0.00     0.014 C 
ATOM     29  C   UNL     1       1.060 -60.965 -29.371  1.00  0.00     0.014 C 
ENDROOT
BRANCH   1  30
ATOM     30  C   UNL     1       2.250 -58.591 -20.182  1.00  0.00     0.048 C 
ATOM     31  O   UNL     1       1.233 -58.448 -19.450  1.00  0.00    -0.550 OA
ATOM     32  O   UNL     1       2.515 -57.628 -21.149  1.00  0.00    -0.550 OA
ENDBRANCH   1  30
BRANCH  27  33
ATOM     33  O   UNL     1       4.553 -60.420 -30.270  1.00  0.00    -0.393 OA
ATOM     34  H   UNL     1       4.084 -59.817 -30.905  1.00  0.00     0.210 HD
ENDBRANCH  27  33
TORSDOF 2
ENDMDL
MODEL 3
REMARK VINA RESULT:    -5.160      1.979      8.406
REMARK INTER + INTRA:          -5.406
REMARK INTER:                  -5.621
REMARK INTRA:                   0.215
REMARK UNBOUND:                 0.206
REMARK SMILES CC1(C)CC[C@]2(C(=O)[O-])CC[C@]3(C)C(=CC[C@@H]4[C@@]5(C)CC[C@H](O)C(C)(C)[C@H]5CC[C@]43C)[C@H]2C1
REMARK SMILES IDX 6 1 5 2 10 3 32 4 4 5 11 6 14 7 33 8 2 9 12 10 15 11 1 12
REMARK SMILES IDX 3 13 13 14 30 15 16 16 17 17 29 18 31 19 18 20 28 21 27 22
REMARK SMILES IDX 20 23 19 24 24 25 21 26 22 27 25 28 26 29 7 30 8 31 9 32
REMARK SMILES IDX 23 33
REMARK H PARENT 23 34
REMARK Flexibility Score: inf
ROOT
ATOM      1  C   UNL     1       3.551 -59.762 -19.392  1.00  0.00     0.017 C 
ATOM      2  C   UNL     1       3.254 -59.340 -17.927  1.00  0.00     0.014 C 
ATOM      3  C   UNL     1       4.187 -58.554 -20.120  1.00  0.00     0.014 C 
ATOM      4  C   UNL     1       2.204 -60.114 -20.098  1.00  0.00     0.028 C 
ATOM      5  C   UNL     1       2.510 -60.433 -17.144  1.00  0.00     0.007 C 
ATOM      6  C   UNL     1       4.446 -58.835 -21.610  1.00  0.00     0.013 C 
ATOM      7  C   UNL     1       2.416 -60.380 -21.606  1.00  0.00    -0.064 C 
ATOM      8  C   UNL     1       1.411 -61.202 -19.314  1.00  0.00     0.015 C 
ATOM      9  C   UNL     1       1.180 -60.855 -17.817  1.00  0.00    -0.035 C 
ATOM     10  C   UNL     1       3.182 -59.307 -22.421  1.00  0.00    -0.006 C 
ATOM     11  C   UNL     1       1.834 -61.449 -22.219  1.00  0.00    -0.027 C 
ATOM     12  C   UNL     1       0.115 -59.741 -17.665  1.00  0.00     0.011 C 
ATOM     13  C   UNL     1       0.645 -62.113 -17.097  1.00  0.00     0.011 C 
ATOM     14  C   UNL     1       2.250 -58.057 -22.560  1.00  0.00     0.017 C 
ATOM     15  C   UNL     1       3.617 -59.913 -23.851  1.00  0.00    -0.020 C 
ATOM     16  C   UNL     1       1.899 -61.754 -23.699  1.00  0.00     0.032 C 
ATOM     17  C   UNL     1       2.359 -60.540 -24.547  1.00  0.00     0.006 C 
ATOM     18  C   UNL     1       4.159 -58.820 -24.795  1.00  0.00     0.008 C 
ATOM     19  C   UNL     1       4.733 -61.001 -23.634  1.00  0.00     0.012 C 
ATOM     20  C   UNL     1       2.417 -60.692 -26.164  1.00  0.00    -0.025 C 
ATOM     21  C   UNL     1       4.669 -59.363 -26.134  1.00  0.00     0.005 C 
ATOM     22  C   UNL     1       3.892 -60.583 -26.745  1.00  0.00     0.003 C 
ATOM     23  C   UNL     1       1.529 -59.570 -26.835  1.00  0.00     0.010 C 
ATOM     24  C   UNL     1       1.788 -62.064 -26.546  1.00  0.00     0.012 C 
ATOM     25  C   UNL     1       4.011 -60.647 -28.349  1.00  0.00    -0.006 C 
ATOM     26  C   UNL     1       2.054 -58.975 -28.159  1.00  0.00     0.033 C 
ATOM     27  C   UNL     1       2.773 -59.984 -29.064  1.00  0.00     0.120 C 
ATOM     28  C   UNL     1       4.205 -62.124 -28.817  1.00  0.00     0.014 C 
ATOM     29  C   UNL     1       5.300 -59.933 -28.872  1.00  0.00     0.014 C 
ENDROOT
BRANCH   1  30
ATOM     30  C   UNL     1       4.547 -60.921 -19.388  1.00  0.00     0.048 C 
ATOM     31  O   UNL     1       5.669 -60.782 -18.829  1.00  0.00    -0.550 OA
ATOM     32  O   UNL     1       4.266 -62.124 -20.025  1.00  0.00    -0.550 OA
ENDBRANCH   1  30
BRANCH  27  33
ATOM     33  O   UNL     1       1.858 -60.937 -29.545  1.00  0.00    -0.393 OA
ATOM     34  H   UNL     1       1.061 -60.908 -28.952  1.00  0.00     0.210 HD
ENDBRANCH  27  33
TORSDOF 2
ENDMDL
MODEL 4
REMARK VINA RESULT:    -4.493      1.865      8.012
REMARK INTER + INTRA:          -4.681
REMARK INTER:                  -4.970
REMARK INTRA:                   0.289
REMARK UNBOUND:                 0.206
REMARK SMILES CC1(C)CC[C@]2(C(=O)[O-])CC[C@]3(C)C(=CC[C@@H]4[C@@]5(C)CC[C@H](O)C(C)(C)[C@H]5CC[C@]43C)[C@H]2C1
REMARK SMILES IDX 6 1 5 2 10 3 32 4 4 5 11 6 14 7 33 8 2 9 12 10 15 11 1 12
REMARK SMILES IDX 3 13 13 14 30 15 16 16 17 17 29 18 31 19 18 20 28 21 27 22
REMARK SMILES IDX 20 23 19 24 24 25 21 26 22 27 25 28 26 29 7 30 8 31 9 32
REMARK SMILES IDX 23 33
REMARK H PARENT 23 34
REMARK Flexibility Score: inf
ROOT
ATOM      1  C   UNL     1       3.793 -60.132 -18.262  1.00  0.00     0.017 C 
ATOM      2  C   UNL     1       4.888 -60.218 -17.164  1.00  0.00     0.014 C 
ATOM      3  C   UNL     1       3.231 -61.556 -18.492  1.00  0.00     0.014 C 
ATOM      4  C   UNL     1       4.448 -59.637 -19.590  1.00  0.00     0.028 C 
ATOM      5  C   UNL     1       5.596 -58.873 -16.940  1.00  0.00     0.007 C 
ATOM      6  C   UNL     1       2.193 -61.603 -19.626  1.00  0.00     0.013 C 
ATOM      7  C   UNL     1       3.443 -59.692 -20.763  1.00  0.00    -0.064 C 
ATOM      8  C   UNL     1       5.198 -58.287 -19.391  1.00  0.00     0.015 C 
ATOM      9  C   UNL     1       6.235 -58.307 -18.234  1.00  0.00    -0.035 C 
ATOM     10  C   UNL     1       2.695 -61.028 -21.003  1.00  0.00    -0.006 C 
ATOM     11  C   UNL     1       3.323 -58.650 -21.634  1.00  0.00    -0.027 C 
ATOM     12  C   UNL     1       7.487 -59.130 -18.627  1.00  0.00     0.011 C 
ATOM     13  C   UNL     1       6.695 -56.858 -17.959  1.00  0.00     0.011 C 
ATOM     14  C   UNL     1       3.728 -62.060 -21.567  1.00  0.00     0.017 C 
ATOM     15  C   UNL     1       1.454 -60.789 -22.006  1.00  0.00    -0.020 C 
ATOM     16  C   UNL     1       2.443 -58.631 -22.864  1.00  0.00     0.032 C 
ATOM     17  C   UNL     1       1.967 -60.045 -23.289  1.00  0.00     0.006 C 
ATOM     18  C   UNL     1       0.830 -62.120 -22.472  1.00  0.00     0.008 C 
ATOM     19  C   UNL     1       0.353 -59.937 -21.272  1.00  0.00     0.012 C 
ATOM     20  C   UNL     1       1.065 -60.196 -24.632  1.00  0.00    -0.025 C 
ATOM     21  C   UNL     1      -0.409 -61.940 -23.356  1.00  0.00     0.005 C 
ATOM     22  C   UNL     1      -0.409 -60.712 -24.335  1.00  0.00     0.003 C 
ATOM     23  C   UNL     1       1.760 -61.209 -25.627  1.00  0.00     0.010 C 
ATOM     24  C   UNL     1       1.018 -58.813 -25.344  1.00  0.00     0.012 C 
ATOM     25  C   UNL     1      -1.331 -60.958 -25.631  1.00  0.00    -0.006 C 
ATOM     26  C   UNL     1       0.824 -62.124 -26.444  1.00  0.00     0.033 C 
ATOM     27  C   UNL     1      -0.495 -61.464 -26.868  1.00  0.00     0.120 C 
ATOM     28  C   UNL     1      -2.125 -59.661 -25.983  1.00  0.00     0.014 C 
ATOM     29  C   UNL     1      -2.459 -62.007 -25.359  1.00  0.00     0.014 C 
ENDROOT
BRANCH   1  30
ATOM     30  C   UNL     1       2.663 -59.225 -17.775  1.00  0.00     0.048 C 
ATOM     31  O   UNL     1       2.484 -58.100 -18.317  1.00  0.00    -0.550 OA
ATOM     32  O   UNL     1       1.844 -59.590 -16.713  1.00  0.00    -0.550 OA
ENDBRANCH   1  30
BRANCH  27  33
ATOM     33  O   UNL     1      -0.244 -60.441 -27.799  1.00  0.00    -0.393 OA
ATOM     34  H   UNL     1       0.646 -60.055 -27.582  1.00  0.00     0.210 HD
ENDBRANCH  27  33
TORSDOF 2
ENDMDL
MODEL 5
REMARK VINA RESULT:    -4.271      2.153      3.767
REMARK INTER + INTRA:          -4.439
REMARK INTER:                  -4.702
REMARK INTRA:                   0.263
REMARK UNBOUND:                 0.206
REMARK SMILES CC1(C)CC[C@]2(C(=O)[O-])CC[C@]3(C)C(=CC[C@@H]4[C@@]5(C)CC[C@H](O)C(C)(C)[C@H]5CC[C@]43C)[C@H]2C1
REMARK SMILES IDX 6 1 5 2 10 3 32 4 4 5 11 6 14 7 33 8 2 9 12 10 15 11 1 12
REMARK SMILES IDX 3 13 13 14 30 15 16 16 17 17 29 18 31 19 18 20 28 21 27 22
REMARK SMILES IDX 20 23 19 24 24 25 21 26 22 27 25 28 26 29 7 30 8 31 9 32
REMARK SMILES IDX 23 33
REMARK H PARENT 23 34
REMARK Flexibility Score: inf
ROOT
ATOM      1  C   UNL     1       0.169 -60.423 -24.056  1.00  0.00     0.017 C 
ATOM      2  C   UNL     1      -1.120 -60.359 -24.920  1.00  0.00     0.014 C 
ATOM      3  C   UNL     1      -0.126 -61.304 -22.818  1.00  0.00     0.014 C 
ATOM      4  C   UNL     1       0.521 -58.983 -23.568  1.00  0.00     0.028 C 
ATOM      5  C   UNL     1      -0.973 -59.410 -26.119  1.00  0.00     0.007 C 
ATOM      6  C   UNL     1       1.063 -61.368 -21.845  1.00  0.00     0.013 C 
ATOM      7  C   UNL     1       1.698 -59.005 -22.566  1.00  0.00    -0.064 C 
ATOM      8  C   UNL     1       0.652 -57.988 -24.758  1.00  0.00     0.015 C 
ATOM      9  C   UNL     1      -0.584 -57.968 -25.701  1.00  0.00    -0.035 C 
ATOM     10  C   UNL     1       1.591 -59.967 -21.356  1.00  0.00    -0.006 C 
ATOM     11  C   UNL     1       2.725 -58.114 -22.669  1.00  0.00    -0.027 C 
ATOM     12  C   UNL     1      -1.782 -57.255 -25.027  1.00  0.00     0.011 C 
ATOM     13  C   UNL     1      -0.220 -57.171 -26.973  1.00  0.00     0.011 C 
ATOM     14  C   UNL     1       0.504 -59.396 -20.385  1.00  0.00     0.017 C 
ATOM     15  C   UNL     1       3.031 -60.118 -20.646  1.00  0.00    -0.020 C 
ATOM     16  C   UNL     1       3.877 -57.985 -21.697  1.00  0.00     0.032 C 
ATOM     17  C   UNL     1       3.606 -58.690 -20.342  1.00  0.00     0.006 C 
ATOM     18  C   UNL     1       2.931 -60.862 -19.299  1.00  0.00     0.008 C 
ATOM     19  C   UNL     1       3.997 -60.915 -21.599  1.00  0.00     0.012 C 
ATOM     20  C   UNL     1       4.725 -58.586 -19.169  1.00  0.00    -0.025 C 
ATOM     21  C   UNL     1       4.288 -61.107 -18.630  1.00  0.00     0.005 C 
ATOM     22  C   UNL     1       5.376 -59.990 -18.806  1.00  0.00     0.003 C 
ATOM     23  C   UNL     1       4.070 -57.984 -17.862  1.00  0.00     0.010 C 
ATOM     24  C   UNL     1       5.825 -57.587 -19.634  1.00  0.00     0.012 C 
ATOM     25  C   UNL     1       6.438 -59.969 -17.596  1.00  0.00    -0.006 C 
ATOM     26  C   UNL     1       4.570 -58.550 -16.517  1.00  0.00     0.033 C 
ATOM     27  C   UNL     1       6.063 -58.904 -16.495  1.00  0.00     0.120 C 
ATOM     28  C   UNL     1       7.878 -59.725 -18.146  1.00  0.00     0.014 C 
ATOM     29  C   UNL     1       6.553 -61.360 -16.891  1.00  0.00     0.014 C 
ENDROOT
BRANCH   1  30
ATOM     30  C   UNL     1       1.288 -61.070 -24.872  1.00  0.00     0.048 C 
ATOM     31  O   UNL     1       1.059 -62.125 -25.524  1.00  0.00    -0.550 OA
ATOM     32  O   UNL     1       2.576 -60.548 -24.882  1.00  0.00    -0.550 OA
ENDBRANCH   1  30
BRANCH  27  33
ATOM     33  O   UNL     1       6.838 -57.735 -16.596  1.00  0.00    -0.393 OA
ATOM     34  H   UNL     1       7.127 -57.491 -15.677  1.00  0.00     0.210 HD
ENDBRANCH  27  33
TORSDOF 2
ENDMDL
MODEL 6
REMARK VINA RESULT:    -4.228      4.483      7.490
REMARK INTER + INTRA:          -4.392
REMARK INTER:                  -4.589
REMARK INTRA:                   0.197
REMARK UNBOUND:                 0.206
REMARK SMILES CC1(C)CC[C@]2(C(=O)[O-])CC[C@]3(C)C(=CC[C@@H]4[C@@]5(C)CC[C@H](O)C(C)(C)[C@H]5CC[C@]43C)[C@H]2C1
REMARK SMILES IDX 6 1 5 2 10 3 32 4 4 5 11 6 14 7 33 8 2 9 12 10 15 11 1 12
REMARK SMILES IDX 3 13 13 14 30 15 16 16 17 17 29 18 31 19 18 20 28 21 27 22
REMARK SMILES IDX 20 23 19 24 24 25 21 26 22 27 25 28 26 29 7 30 8 31 9 32
REMARK SMILES IDX 23 33
REMARK H PARENT 23 34
REMARK Flexibility Score: inf
ROOT
ATOM      1  C   UNL     1       0.333 -60.739 -19.077  1.00  0.00     0.017 C 
ATOM      2  C   UNL     1      -1.019 -61.494 -18.960  1.00  0.00     0.014 C 
ATOM      3  C   UNL     1       1.436 -61.776 -19.398  1.00  0.00     0.014 C 
ATOM      4  C   UNL     1       0.660 -60.074 -17.703  1.00  0.00     0.028 C 
ATOM      5  C   UNL     1      -2.168 -60.570 -18.528  1.00  0.00     0.007 C 
ATOM      6  C   UNL     1       2.838 -61.146 -19.452  1.00  0.00     0.013 C 
ATOM      7  C   UNL     1       2.073 -59.449 -17.707  1.00  0.00    -0.064 C 
ATOM      8  C   UNL     1      -0.498 -59.151 -17.222  1.00  0.00     0.015 C 
ATOM      9  C   UNL     1      -1.886 -59.848 -17.185  1.00  0.00    -0.035 C 
ATOM     10  C   UNL     1       3.252 -60.347 -18.160  1.00  0.00    -0.006 C 
ATOM     11  C   UNL     1       2.291 -58.201 -17.203  1.00  0.00    -0.027 C 
ATOM     12  C   UNL     1      -1.974 -60.845 -16.002  1.00  0.00     0.011 C 
ATOM     13  C   UNL     1      -2.973 -58.772 -16.971  1.00  0.00     0.011 C 
ATOM     14  C   UNL     1       3.500 -61.411 -17.039  1.00  0.00     0.017 C 
ATOM     15  C   UNL     1       4.555 -59.440 -18.445  1.00  0.00    -0.020 C 
ATOM     16  C   UNL     1       3.640 -57.530 -17.073  1.00  0.00     0.032 C 
ATOM     17  C   UNL     1       4.824 -58.523 -17.201  1.00  0.00     0.006 C 
ATOM     18  C   UNL     1       5.818 -60.300 -18.656  1.00  0.00     0.008 C 
ATOM     19  C   UNL     1       4.307 -58.570 -19.733  1.00  0.00     0.012 C 
ATOM     20  C   UNL     1       6.339 -57.962 -17.019  1.00  0.00    -0.025 C 
ATOM     21  C   UNL     1       7.063 -59.484 -19.018  1.00  0.00     0.005 C 
ATOM     22  C   UNL     1       7.205 -58.072 -18.348  1.00  0.00     0.003 C 
ATOM     23  C   UNL     1       7.071 -58.770 -15.875  1.00  0.00     0.010 C 
ATOM     24  C   UNL     1       6.255 -56.479 -16.552  1.00  0.00     0.012 C 
ATOM     25  C   UNL     1       8.739 -57.605 -18.215  1.00  0.00    -0.006 C 
ATOM     26  C   UNL     1       8.573 -59.051 -16.083  1.00  0.00     0.033 C 
ATOM     27  C   UNL     1       9.336 -57.924 -16.791  1.00  0.00     0.120 C 
ATOM     28  C   UNL     1       8.872 -56.087 -18.552  1.00  0.00     0.014 C 
ATOM     29  C   UNL     1       9.656 -58.291 -19.279  1.00  0.00     0.014 C 
ENDROOT
BRANCH   1  30
ATOM     30  C   UNL     1       0.248 -59.734 -20.225  1.00  0.00     0.048 C 
ATOM     31  O   UNL     1       0.169 -60.145 -21.415  1.00  0.00    -0.550 OA
ATOM     32  O   UNL     1       0.298 -58.363 -19.997  1.00  0.00    -0.550 OA
ENDBRANCH   1  30
BRANCH  27  33
ATOM     33  O   UNL     1       9.391 -56.787 -15.966  1.00  0.00    -0.393 OA
ATOM     34  H   UNL     1      10.295 -56.762 -15.554  1.00  0.00     0.210 HD
ENDBRANCH  27  33
TORSDOF 2
ENDMDL
MODEL 7
REMARK VINA RESULT:    -4.160      2.317      3.754
REMARK INTER + INTRA:          -4.319
REMARK INTER:                  -5.261
REMARK INTRA:                   0.943
REMARK UNBOUND:                 0.206
REMARK SMILES CC1(C)CC[C@]2(C(=O)[O-])CC[C@]3(C)C(=CC[C@@H]4[C@@]5(C)CC[C@H](O)C(C)(C)[C@H]5CC[C@]43C)[C@H]2C1
REMARK SMILES IDX 6 1 5 2 10 3 32 4 4 5 11 6 14 7 33 8 2 9 12 10 15 11 1 12
REMARK SMILES IDX 3 13 13 14 30 15 16 16 17 17 29 18 31 19 18 20 28 21 27 22
REMARK SMILES IDX 20 23 19 24 24 25 21 26 22 27 25 28 26 29 7 30 8 31 9 32
REMARK SMILES IDX 23 33
REMARK H PARENT 23 34
REMARK Flexibility Score: inf
ROOT
ATOM      1  C   UNL     1       3.686 -60.640 -25.419  1.00  0.00     0.017 C 
ATOM      2  C   UNL     1       3.821 -61.164 -26.875  1.00  0.00     0.014 C 
ATOM      3  C   UNL     1       4.062 -61.792 -24.457  1.00  0.00     0.014 C 
ATOM      4  C   UNL     1       2.198 -60.244 -25.162  1.00  0.00     0.028 C 
ATOM      5  C   UNL     1       3.357 -60.131 -27.913  1.00  0.00     0.007 C 
ATOM      6  C   UNL     1       3.880 -61.408 -22.979  1.00  0.00     0.013 C 
ATOM      7  C   UNL     1       1.966 -59.873 -23.680  1.00  0.00    -0.064 C 
ATOM      8  C   UNL     1       1.686 -59.217 -26.215  1.00  0.00     0.015 C 
ATOM      9  C   UNL     1       1.895 -59.667 -27.688  1.00  0.00    -0.035 C 
ATOM     10  C   UNL     1       2.443 -60.885 -22.606  1.00  0.00    -0.006 C 
ATOM     11  C   UNL     1       1.249 -58.766 -23.336  1.00  0.00    -0.027 C 
ATOM     12  C   UNL     1       0.902 -60.793 -28.068  1.00  0.00     0.011 C 
ATOM     13  C   UNL     1       1.615 -58.464 -28.615  1.00  0.00     0.011 C 
ATOM     14  C   UNL     1       1.489 -62.125 -22.661  1.00  0.00     0.017 C 
ATOM     15  C   UNL     1       2.453 -60.180 -21.155  1.00  0.00    -0.020 C 
ATOM     16  C   UNL     1       0.885 -58.359 -21.926  1.00  0.00     0.032 C 
ATOM     17  C   UNL     1       1.057 -59.510 -20.900  1.00  0.00     0.006 C 
ATOM     18  C   UNL     1       2.678 -61.202 -20.023  1.00  0.00     0.008 C 
ATOM     19  C   UNL     1       3.602 -59.105 -21.110  1.00  0.00     0.012 C 
ATOM     20  C   UNL     1       0.644 -59.245 -19.351  1.00  0.00    -0.025 C 
ATOM     21  C   UNL     1       2.784 -60.566 -18.633  1.00  0.00     0.005 C 
ATOM     22  C   UNL     1       1.884 -59.309 -18.359  1.00  0.00     0.003 C 
ATOM     23  C   UNL     1      -0.420 -60.322 -18.894  1.00  0.00     0.010 C 
ATOM     24  C   UNL     1      -0.045 -57.852 -19.263  1.00  0.00     0.012 C 
ATOM     25  C   UNL     1       1.532 -59.133 -16.798  1.00  0.00    -0.006 C 
ATOM     26  C   UNL     1      -0.314 -60.821 -17.438  1.00  0.00     0.033 C 
ATOM     27  C   UNL     1       0.128 -59.749 -16.432  1.00  0.00     0.120 C 
ATOM     28  C   UNL     1       1.606 -57.627 -16.395  1.00  0.00     0.014 C 
ATOM     29  C   UNL     1       2.601 -59.805 -15.875  1.00  0.00     0.014 C 
ENDROOT
BRANCH   1  30
ATOM     30  C   UNL     1       4.660 -59.481 -25.211  1.00  0.00     0.048 C 
ATOM     31  O   UNL     1       5.499 -59.197 -26.108  1.00  0.00    -0.550 OA
ATOM     32  O   UNL     1       4.675 -58.748 -24.029  1.00  0.00    -0.550 OA
ENDBRANCH   1  30
BRANCH  27  33
ATOM     33  O   UNL     1      -0.871 -58.768 -16.305  1.00  0.00    -0.393 OA
ATOM     34  H   UNL     1      -0.436 -57.884 -16.435  1.00  0.00     0.210 HD
ENDBRANCH  27  33
TORSDOF 2
ENDMDL
MODEL 8
REMARK VINA RESULT:    -4.127      2.830      8.546
REMARK INTER + INTRA:          -4.283
REMARK INTER:                  -4.757
REMARK INTRA:                   0.474
REMARK UNBOUND:                 0.206
REMARK SMILES CC1(C)CC[C@]2(C(=O)[O-])CC[C@]3(C)C(=CC[C@@H]4[C@@]5(C)CC[C@H](O)C(C)(C)[C@H]5CC[C@]43C)[C@H]2C1
REMARK SMILES IDX 6 1 5 2 10 3 32 4 4 5 11 6 14 7 33 8 2 9 12 10 15 11 1 12
REMARK SMILES IDX 3 13 13 14 30 15 16 16 17 17 29 18 31 19 18 20 28 21 27 22
REMARK SMILES IDX 20 23 19 24 24 25 21 26 22 27 25 28 26 29 7 30 8 31 9 32
REMARK SMILES IDX 23 33
REMARK H PARENT 23 34
REMARK Flexibility Score: inf
ROOT
ATOM      1  C   UNL     1       5.942 -59.239 -17.033  1.00  0.00     0.017 C 
ATOM      2  C   UNL     1       6.954 -59.455 -15.875  1.00  0.00     0.014 C 
ATOM      3  C   UNL     1       4.797 -60.268 -16.869  1.00  0.00     0.014 C 
ATOM      4  C   UNL     1       6.663 -59.512 -18.391  1.00  0.00     0.028 C 
ATOM      5  C   UNL     1       8.195 -58.558 -16.010  1.00  0.00     0.007 C 
ATOM      6  C   UNL     1       3.776 -60.200 -18.017  1.00  0.00     0.013 C 
ATOM      7  C   UNL     1       5.666 -59.477 -19.571  1.00  0.00    -0.064 C 
ATOM      8  C   UNL     1       7.942 -58.637 -18.548  1.00  0.00     0.015 C 
ATOM      9  C   UNL     1       8.935 -58.755 -17.357  1.00  0.00    -0.035 C 
ATOM     10  C   UNL     1       4.392 -60.353 -19.458  1.00  0.00    -0.006 C 
ATOM     11  C   UNL     1       5.962 -58.809 -20.722  1.00  0.00    -0.027 C 
ATOM     12  C   UNL     1       9.670 -60.118 -17.381  1.00  0.00     0.011 C 
ATOM     13  C   UNL     1      10.002 -57.646 -17.495  1.00  0.00     0.011 C 
ATOM     14  C   UNL     1       4.828 -61.850 -19.599  1.00  0.00     0.017 C 
ATOM     15  C   UNL     1       3.323 -59.915 -20.583  1.00  0.00    -0.020 C 
ATOM     16  C   UNL     1       5.104 -58.784 -21.968  1.00  0.00     0.032 C 
ATOM     17  C   UNL     1       4.029 -59.902 -21.984  1.00  0.00     0.006 C 
ATOM     18  C   UNL     1       2.149 -60.911 -20.677  1.00  0.00     0.008 C 
ATOM     19  C   UNL     1       2.758 -58.489 -20.232  1.00  0.00     0.012 C 
ATOM     20  C   UNL     1       3.070 -60.046 -23.288  1.00  0.00    -0.025 C 
ATOM     21  C   UNL     1       1.063 -60.487 -21.672  1.00  0.00     0.005 C 
ATOM     22  C   UNL     1       1.542 -59.747 -22.971  1.00  0.00     0.003 C 
ATOM     23  C   UNL     1       3.184 -61.510 -23.872  1.00  0.00     0.010 C 
ATOM     24  C   UNL     1       3.593 -59.072 -24.385  1.00  0.00     0.012 C 
ATOM     25  C   UNL     1       0.526 -59.948 -24.203  1.00  0.00    -0.006 C 
ATOM     26  C   UNL     1       1.892 -62.125 -24.449  1.00  0.00     0.033 C 
ATOM     27  C   UNL     1       0.975 -61.119 -25.158  1.00  0.00     0.120 C 
ATOM     28  C   UNL     1       0.364 -58.611 -24.992  1.00  0.00     0.014 C 
ATOM     29  C   UNL     1      -0.928 -60.259 -23.721  1.00  0.00     0.014 C 
ENDROOT
BRANCH   1  30
ATOM     30  C   UNL     1       5.360 -57.829 -16.936  1.00  0.00     0.048 C 
ATOM     31  O   UNL     1       5.955 -56.865 -17.491  1.00  0.00    -0.550 OA
ATOM     32  O   UNL     1       4.204 -57.568 -16.209  1.00  0.00    -0.550 OA
ENDBRANCH   1  30
BRANCH  27  33
ATOM     33  O   UNL     1       1.591 -60.648 -26.331  1.00  0.00    -0.393 OA
ATOM     34  H   UNL     1       1.840 -59.699 -26.173  1.00  0.00     0.210 HD
ENDBRANCH  27  33
TORSDOF 2
ENDMDL
MODEL 9
REMARK VINA RESULT:    -4.092      4.418      8.190
REMARK INTER + INTRA:          -4.244
REMARK INTER:                  -4.489
REMARK INTRA:                   0.245
REMARK UNBOUND:                 0.206
REMARK SMILES CC1(C)CC[C@]2(C(=O)[O-])CC[C@]3(C)C(=CC[C@@H]4[C@@]5(C)CC[C@H](O)C(C)(C)[C@H]5CC[C@]43C)[C@H]2C1
REMARK SMILES IDX 6 1 5 2 10 3 32 4 4 5 11 6 14 7 33 8 2 9 12 10 15 11 1 12
REMARK SMILES IDX 3 13 13 14 30 15 16 16 17 17 29 18 31 19 18 20 28 21 27 22
REMARK SMILES IDX 20 23 19 24 24 25 21 26 22 27 25 28 26 29 7 30 8 31 9 32
REMARK SMILES IDX 23 33
REMARK H PARENT 23 34
REMARK Flexibility Score: inf
ROOT
ATOM      1  C   UNL     1       2.683 -60.512 -19.553  1.00  0.00     0.017 C 
ATOM      2  C   UNL     1       1.580 -61.605 -19.588  1.00  0.00     0.014 C 
ATOM      3  C   UNL     1       3.937 -61.073 -20.265  1.00  0.00     0.014 C 
ATOM      4  C   UNL     1       3.048 -60.212 -18.066  1.00  0.00     0.028 C 
ATOM      5  C   UNL     1       0.325 -61.193 -18.803  1.00  0.00     0.007 C 
ATOM      6  C   UNL     1       5.127 -60.099 -20.215  1.00  0.00     0.013 C 
ATOM      7  C   UNL     1       4.258 -59.254 -17.970  1.00  0.00    -0.064 C 
ATOM      8  C   UNL     1       1.793 -59.817 -17.234  1.00  0.00     0.015 C 
ATOM      9  C   UNL     1       0.630 -60.844 -17.323  1.00  0.00    -0.035 C 
ATOM     10  C   UNL     1       5.533 -59.629 -18.768  1.00  0.00    -0.006 C 
ATOM     11  C   UNL     1       4.250 -58.196 -17.110  1.00  0.00    -0.027 C 
ATOM     12  C   UNL     1       0.959 -62.125 -16.518  1.00  0.00     0.011 C 
ATOM     13  C   UNL     1      -0.635 -60.211 -16.700  1.00  0.00     0.011 C 
ATOM     14  C   UNL     1       6.190 -60.864 -18.066  1.00  0.00     0.017 C 
ATOM     15  C   UNL     1       6.527 -58.361 -18.840  1.00  0.00    -0.020 C 
ATOM     16  C   UNL     1       5.407 -57.253 -16.869  1.00  0.00     0.032 C 
ATOM     17  C   UNL     1       6.759 -57.807 -17.391  1.00  0.00     0.006 C 
ATOM     18  C   UNL     1       7.909 -58.748 -19.404  1.00  0.00     0.008 C 
ATOM     19  C   UNL     1       5.890 -57.256 -19.762  1.00  0.00     0.012 C 
ATOM     20  C   UNL     1       8.108 -56.935 -17.147  1.00  0.00    -0.025 C 
ATOM     21  C   UNL     1       8.858 -57.557 -19.574  1.00  0.00     0.005 C 
ATOM     22  C   UNL     1       8.764 -56.416 -18.499  1.00  0.00     0.003 C 
ATOM     23  C   UNL     1       9.174 -57.811 -16.376  1.00  0.00     0.010 C 
ATOM     24  C   UNL     1       7.750 -55.732 -16.226  1.00  0.00     0.012 C 
ATOM     25  C   UNL     1      10.148 -55.611 -18.333  1.00  0.00    -0.006 C 
ATOM     26  C   UNL     1      10.652 -57.603 -16.769  1.00  0.00     0.033 C 
ATOM     27  C   UNL     1      11.012 -56.156 -17.132  1.00  0.00     0.120 C 
ATOM     28  C   UNL     1       9.868 -54.084 -18.176  1.00  0.00     0.014 C 
ATOM     29  C   UNL     1      11.028 -55.684 -19.623  1.00  0.00     0.014 C 
ENDROOT
BRANCH   1  30
ATOM     30  C   UNL     1       2.191 -59.279 -20.311  1.00  0.00     0.048 C 
ATOM     31  O   UNL     1       1.675 -59.409 -21.454  1.00  0.00    -0.550 OA
ATOM     32  O   UNL     1       2.336 -57.999 -19.788  1.00  0.00    -0.550 OA
ENDBRANCH   1  30
BRANCH  27  33
ATOM     33  O   UNL     1      10.922 -55.336 -15.993  1.00  0.00    -0.393 OA
ATOM     34  H   UNL     1      11.034 -54.396 -16.295  1.00  0.00     0.210 HD
ENDBRANCH  27  33
TORSDOF 2
ENDMDL
