MODEL 1
REMARK VINA RESULT:    -6.179      0.000      0.000
REMARK INTER + INTRA:         -13.394
REMARK INTER:                 -11.597
REMARK INTRA:                  -1.797
REMARK UNBOUND:                -1.797
REMARK SMILES CCCCCCCCC=CCCCCCCCC(=O)[O-]
REMARK SMILES IDX 10 1 9 2 11 3 12 4 13 5 14 6 15 7 16 8 17 9 18 10 19 11
REMARK SMILES IDX 20 12 8 13 7 14 6 15 5 16 4 17 3 18 2 19 1 20
REMARK H PARENT
REMARK Flexibility Score: inf
ROOT
ATOM      1  C   UNL     1       3.376   9.663  17.458  1.00  0.00    -0.031 C 
ATOM      2  C   UNL     1       2.496   8.655  17.347  1.00  0.00    -0.031 C 
ENDROOT
BRANCH   1   3
ATOM      3  C   UNL     1       3.098  10.857  18.327  1.00  0.00     0.027 C 
BRANCH   3   4
ATOM      4  C   UNL     1       4.330  11.763  18.435  1.00  0.00     0.004 C 
BRANCH   4   5
ATOM      5  C   UNL     1       5.264  11.570  17.232  1.00  0.00     0.000 C 
BRANCH   5   6
ATOM      6  C   UNL     1       5.196  12.732  16.226  1.00  0.00     0.000 C 
BRANCH   6   7
ATOM      7  C   UNL     1       3.803  12.998  15.628  1.00  0.00     0.000 C 
BRANCH   7   8
ATOM      8  C   UNL     1       3.647  12.442  14.202  1.00  0.00     0.006 C 
BRANCH   8   9
ATOM      9  C   UNL     1       2.853  11.129  14.178  1.00  0.00     0.053 C 
BRANCH   9  10
ATOM     10  C   UNL     1       3.698   9.977  13.728  1.00  0.00     0.041 C 
ATOM     11  O   UNL     1       4.945  10.000  13.897  1.00  0.00    -0.550 OA
ATOM     12  O   UNL     1       3.102   8.859  13.157  1.00  0.00    -0.550 OA
ENDBRANCH   9  10
ENDBRANCH   8   9
ENDBRANCH   7   8
ENDBRANCH   6   7
ENDBRANCH   5   6
ENDBRANCH   4   5
ENDBRANCH   3   4
ENDBRANCH   1   3
BRANCH   2  13
ATOM     13  C   UNL     1       2.746   7.484  16.437  1.00  0.00     0.027 C 
BRANCH  13  14
ATOM     14  C   UNL     1       2.135   6.189  16.994  1.00  0.00     0.004 C 
BRANCH  14  15
ATOM     15  C   UNL     1       0.776   6.379  17.691  1.00  0.00     0.000 C 
BRANCH  15  16
ATOM     16  C   UNL     1       0.487   5.290  18.740  1.00  0.00     0.000 C 
BRANCH  16  17
ATOM     17  C   UNL     1       1.552   4.180  18.729  1.00  0.00    -0.000 C 
BRANCH  17  18
ATOM     18  C   UNL     1       2.396   4.132  20.023  1.00  0.00    -0.000 C 
BRANCH  18  19
ATOM     19  C   UNL     1       3.081   5.468  20.356  1.00  0.00    -0.003 C 
ATOM     20  C   UNL     1       3.376   5.630  21.845  1.00  0.00     0.004 C 
ENDBRANCH  18  19
ENDBRANCH  17  18
ENDBRANCH  16  17
ENDBRANCH  15  16
ENDBRANCH  14  15
ENDBRANCH  13  14
ENDBRANCH   2  13
TORSDOF 15
ENDMDL
MODEL 2
REMARK VINA RESULT:    -6.060      2.565      7.522
REMARK INTER + INTRA:         -13.171
REMARK INTER:                 -11.264
REMARK INTRA:                  -1.907
REMARK UNBOUND:                -1.797
REMARK SMILES CCCCCCCCC=CCCCCCCCC(=O)[O-]
REMARK SMILES IDX 10 1 9 2 11 3 12 4 13 5 14 6 15 7 16 8 17 9 18 10 19 11
REMARK SMILES IDX 20 12 8 13 7 14 6 15 5 16 4 17 3 18 2 19 1 20
REMARK H PARENT
REMARK Flexibility Score: inf
ROOT
ATOM      1  C   UNL     1       2.966   9.847  17.465  1.00  0.00    -0.031 C 
ATOM      2  C   UNL     1       3.165  10.700  18.482  1.00  0.00    -0.031 C 
ENDROOT
BRANCH   1   3
ATOM      3  C   UNL     1       2.099   8.629  17.619  1.00  0.00     0.027 C 
BRANCH   3   4
ATOM      4  C   UNL     1       2.760   7.395  16.993  1.00  0.00     0.004 C 
BRANCH   4   5
ATOM      5  C   UNL     1       1.737   6.271  16.779  1.00  0.00     0.000 C 
BRANCH   5   6
ATOM      6  C   UNL     1       0.574   6.317  17.786  1.00  0.00     0.000 C 
BRANCH   6   7
ATOM      7  C   UNL     1       0.242   4.975  18.462  1.00  0.00     0.000 C 
BRANCH   7   8
ATOM      8  C   UNL     1       1.463   4.048  18.587  1.00  0.00     0.006 C 
BRANCH   8   9
ATOM      9  C   UNL     1       2.029   4.027  20.013  1.00  0.00     0.053 C 
BRANCH   9  10
ATOM     10  C   UNL     1       3.080   5.076  20.209  1.00  0.00     0.041 C 
ATOM     11  O   UNL     1       3.896   5.338  19.287  1.00  0.00    -0.550 OA
ATOM     12  O   UNL     1       3.132   5.794  21.398  1.00  0.00    -0.550 OA
ENDBRANCH   9  10
ENDBRANCH   8   9
ENDBRANCH   7   8
ENDBRANCH   6   7
ENDBRANCH   5   6
ENDBRANCH   4   5
ENDBRANCH   3   4
ENDBRANCH   1   3
BRANCH   2  13
ATOM     13  C   UNL     1       4.075  11.891  18.349  1.00  0.00     0.027 C 
BRANCH  13  14
ATOM     14  C   UNL     1       5.221  11.623  17.360  1.00  0.00     0.004 C 
BRANCH  14  15
ATOM     15  C   UNL     1       5.301  12.630  16.198  1.00  0.00     0.000 C 
BRANCH  15  16
ATOM     16  C   UNL     1       3.914  13.071  15.696  1.00  0.00     0.000 C 
BRANCH  16  17
ATOM     17  C   UNL     1       3.633  12.578  14.267  1.00  0.00    -0.000 C 
BRANCH  17  18
ATOM     18  C   UNL     1       3.016  11.161  14.221  1.00  0.00    -0.000 C 
BRANCH  18  19
ATOM     19  C   UNL     1       4.038  10.061  13.895  1.00  0.00    -0.003 C 
ATOM     20  C   UNL     1       3.384   8.750  13.464  1.00  0.00     0.004 C 
ENDBRANCH  18  19
ENDBRANCH  17  18
ENDBRANCH  16  17
ENDBRANCH  15  16
ENDBRANCH  14  15
ENDBRANCH  13  14
ENDBRANCH   2  13
TORSDOF 15
ENDMDL
MODEL 3
REMARK VINA RESULT:    -5.882      0.827      1.469
REMARK INTER + INTRA:         -12.838
REMARK INTER:                 -10.864
REMARK INTRA:                  -1.975
REMARK UNBOUND:                -1.797
REMARK SMILES CCCCCCCCC=CCCCCCCCC(=O)[O-]
REMARK SMILES IDX 10 1 9 2 11 3 12 4 13 5 14 6 15 7 16 8 17 9 18 10 19 11
REMARK SMILES IDX 20 12 8 13 7 14 6 15 5 16 4 17 3 18 2 19 1 20
REMARK H PARENT
REMARK Flexibility Score: inf
ROOT
ATOM      1  C   UNL     1       2.378   7.959  17.439  1.00  0.00    -0.031 C 
ATOM      2  C   UNL     1       1.228   8.167  18.100  1.00  0.00    -0.031 C 
ENDROOT
BRANCH   1   3
ATOM      3  C   UNL     1       3.227   9.103  16.961  1.00  0.00     0.027 C 
BRANCH   3   4
ATOM      4  C   UNL     1       2.958  10.372  17.778  1.00  0.00     0.004 C 
BRANCH   4   5
ATOM      5  C   UNL     1       4.256  11.154  18.026  1.00  0.00     0.000 C 
BRANCH   5   6
ATOM      6  C   UNL     1       4.871  11.723  16.735  1.00  0.00     0.000 C 
BRANCH   6   7
ATOM      7  C   UNL     1       3.986  12.730  15.979  1.00  0.00     0.000 C 
BRANCH   7   8
ATOM      8  C   UNL     1       3.934  12.464  14.465  1.00  0.00     0.006 C 
BRANCH   8   9
ATOM      9  C   UNL     1       2.861  11.431  14.096  1.00  0.00     0.053 C 
BRANCH   9  10
ATOM     10  C   UNL     1       3.461  10.188  13.516  1.00  0.00     0.041 C 
ATOM     11  O   UNL     1       4.652   9.875  13.778  1.00  0.00    -0.550 OA
ATOM     12  O   UNL     1       2.692   9.353  12.714  1.00  0.00    -0.550 OA
ENDBRANCH   9  10
ENDBRANCH   8   9
ENDBRANCH   7   8
ENDBRANCH   6   7
ENDBRANCH   5   6
ENDBRANCH   4   5
ENDBRANCH   3   4
ENDBRANCH   1   3
BRANCH   2  13
ATOM     13  C   UNL     1       0.347   7.026  18.531  1.00  0.00     0.027 C 
BRANCH  13  14
ATOM     14  C   UNL     1       0.111   6.025  17.389  1.00  0.00     0.004 C 
BRANCH  14  15
ATOM     15  C   UNL     1       0.576   4.590  17.699  1.00  0.00     0.000 C 
BRANCH  15  16
ATOM     16  C   UNL     1       0.980   4.401  19.172  1.00  0.00     0.000 C 
BRANCH  16  17
ATOM     17  C   UNL     1       2.443   3.949  19.317  1.00  0.00    -0.000 C 
BRANCH  17  18
ATOM     18  C   UNL     1       3.420   5.118  19.575  1.00  0.00    -0.000 C 
BRANCH  18  19
ATOM     19  C   UNL     1       3.021   5.995  20.772  1.00  0.00    -0.003 C 
ATOM     20  C   UNL     1       3.539   5.456  22.104  1.00  0.00     0.004 C 
ENDBRANCH  18  19
ENDBRANCH  17  18
ENDBRANCH  16  17
ENDBRANCH  15  16
ENDBRANCH  14  15
ENDBRANCH  13  14
ENDBRANCH   2  13
TORSDOF 15
ENDMDL
MODEL 4
REMARK VINA RESULT:    -5.815      2.016      3.378
REMARK INTER + INTRA:         -12.711
REMARK INTER:                 -11.237
REMARK INTRA:                  -1.474
REMARK UNBOUND:                -1.797
REMARK SMILES CCCCCCCCC=CCCCCCCCC(=O)[O-]
REMARK SMILES IDX 10 1 9 2 11 3 12 4 13 5 14 6 15 7 16 8 17 9 18 10 19 11
REMARK SMILES IDX 20 12 8 13 7 14 6 15 5 16 4 17 3 18 2 19 1 20
REMARK H PARENT
REMARK Flexibility Score: inf
ROOT
ATOM      1  C   UNL     1       3.842   9.698  15.804  1.00  0.00    -0.031 C 
ATOM      2  C   UNL     1       2.949   8.730  16.067  1.00  0.00    -0.031 C 
ENDROOT
BRANCH   1   3
ATOM      3  C   UNL     1       4.041  10.225  14.411  1.00  0.00     0.027 C 
BRANCH   3   4
ATOM      4  C   UNL     1       3.336  11.574  14.223  1.00  0.00     0.004 C 
BRANCH   4   5
ATOM      5  C   UNL     1       4.006  12.668  15.066  1.00  0.00     0.000 C 
BRANCH   5   6
ATOM      6  C   UNL     1       2.995  13.530  15.843  1.00  0.00     0.000 C 
BRANCH   6   7
ATOM      7  C   UNL     1       3.045  13.376  17.374  1.00  0.00     0.000 C 
BRANCH   7   8
ATOM      8  C   UNL     1       3.375  11.941  17.822  1.00  0.00     0.006 C 
BRANCH   8   9
ATOM      9  C   UNL     1       4.165  11.914  19.136  1.00  0.00     0.053 C 
BRANCH   9  10
ATOM     10  C   UNL     1       5.631  11.716  18.900  1.00  0.00     0.041 C 
ATOM     11  O   UNL     1       6.104  11.801  17.736  1.00  0.00    -0.550 OA
ATOM     12  O   UNL     1       6.482  11.476  19.972  1.00  0.00    -0.550 OA
ENDBRANCH   9  10
ENDBRANCH   8   9
ENDBRANCH   7   8
ENDBRANCH   6   7
ENDBRANCH   5   6
ENDBRANCH   4   5
ENDBRANCH   3   4
ENDBRANCH   1   3
BRANCH   2  13
ATOM     13  C   UNL     1       2.784   8.161  17.450  1.00  0.00     0.027 C 
BRANCH  13  14
ATOM     14  C   UNL     1       1.350   8.342  17.973  1.00  0.00     0.004 C 
BRANCH  14  15
ATOM     15  C   UNL     1       0.503   7.057  17.954  1.00  0.00     0.000 C 
BRANCH  15  16
ATOM     16  C   UNL     1       1.334   5.802  17.630  1.00  0.00     0.000 C 
BRANCH  16  17
ATOM     17  C   UNL     1       0.919   4.596  18.492  1.00  0.00    -0.000 C 
BRANCH  17  18
ATOM     18  C   UNL     1       2.067   4.049  19.369  1.00  0.00    -0.000 C 
BRANCH  18  19
ATOM     19  C   UNL     1       3.199   5.064  19.596  1.00  0.00    -0.003 C 
ATOM     20  C   UNL     1       3.180   5.674  20.996  1.00  0.00     0.004 C 
ENDBRANCH  18  19
ENDBRANCH  17  18
ENDBRANCH  16  17
ENDBRANCH  15  16
ENDBRANCH  14  15
ENDBRANCH  13  14
ENDBRANCH   2  13
TORSDOF 15
ENDMDL
MODEL 5
REMARK VINA RESULT:    -5.737      1.988      3.333
REMARK INTER + INTRA:         -12.564
REMARK INTER:                 -10.909
REMARK INTRA:                  -1.655
REMARK UNBOUND:                -1.797
REMARK SMILES CCCCCCCCC=CCCCCCCCC(=O)[O-]
REMARK SMILES IDX 10 1 9 2 11 3 12 4 13 5 14 6 15 7 16 8 17 9 18 10 19 11
REMARK SMILES IDX 20 12 8 13 7 14 6 15 5 16 4 17 3 18 2 19 1 20
REMARK H PARENT
REMARK Flexibility Score: inf
ROOT
ATOM      1  C   UNL     1       3.504   9.031  14.779  1.00  0.00    -0.031 C 
ATOM      2  C   UNL     1       3.108   9.168  16.054  1.00  0.00    -0.031 C 
ENDROOT
BRANCH   1   3
ATOM      3  C   UNL     1       3.821  10.225  13.922  1.00  0.00     0.027 C 
BRANCH   3   4
ATOM      4  C   UNL     1       2.712  11.280  14.010  1.00  0.00     0.004 C 
BRANCH   4   5
ATOM      5  C   UNL     1       3.250  12.599  14.583  1.00  0.00     0.000 C 
BRANCH   5   6
ATOM      6  C   UNL     1       4.786  12.629  14.681  1.00  0.00     0.000 C 
BRANCH   6   7
ATOM      7  C   UNL     1       5.345  12.910  16.087  1.00  0.00     0.000 C 
BRANCH   7   8
ATOM      8  C   UNL     1       5.429  11.648  16.963  1.00  0.00     0.006 C 
BRANCH   8   9
ATOM      9  C   UNL     1       5.051  11.931  18.423  1.00  0.00     0.053 C 
BRANCH   9  10
ATOM     10  C   UNL     1       3.566  11.995  18.610  1.00  0.00     0.041 C 
ATOM     11  O   UNL     1       2.901  10.939  18.773  1.00  0.00    -0.550 OA
ATOM     12  O   UNL     1       2.922  13.226  18.643  1.00  0.00    -0.550 OA
ENDBRANCH   9  10
ENDBRANCH   8   9
ENDBRANCH   7   8
ENDBRANCH   6   7
ENDBRANCH   5   6
ENDBRANCH   4   5
ENDBRANCH   3   4
ENDBRANCH   1   3
BRANCH   2  13
ATOM     13  C   UNL     1       2.737   7.979  16.898  1.00  0.00     0.027 C 
BRANCH  13  14
ATOM     14  C   UNL     1       1.495   8.257  17.759  1.00  0.00     0.004 C 
BRANCH  14  15
ATOM     15  C   UNL     1       0.634   7.014  18.046  1.00  0.00     0.000 C 
BRANCH  15  16
ATOM     16  C   UNL     1       1.296   5.708  17.570  1.00  0.00     0.000 C 
BRANCH  16  17
ATOM     17  C   UNL     1       1.008   4.534  18.520  1.00  0.00    -0.000 C 
BRANCH  17  18
ATOM     18  C   UNL     1       2.273   3.995  19.224  1.00  0.00    -0.000 C 
BRANCH  18  19
ATOM     19  C   UNL     1       3.295   5.090  19.568  1.00  0.00    -0.003 C 
ATOM     20  C   UNL     1       3.065   5.706  20.947  1.00  0.00     0.004 C 
ENDBRANCH  18  19
ENDBRANCH  17  18
ENDBRANCH  16  17
ENDBRANCH  15  16
ENDBRANCH  14  15
ENDBRANCH  13  14
ENDBRANCH   2  13
TORSDOF 15
ENDMDL
MODEL 6
REMARK VINA RESULT:    -5.709      2.624      7.279
REMARK INTER + INTRA:         -12.513
REMARK INTER:                 -10.596
REMARK INTRA:                  -1.917
REMARK UNBOUND:                -1.797
REMARK SMILES CCCCCCCCC=CCCCCCCCC(=O)[O-]
REMARK SMILES IDX 10 1 9 2 11 3 12 4 13 5 14 6 15 7 16 8 17 9 18 10 19 11
REMARK SMILES IDX 20 12 8 13 7 14 6 15 5 16 4 17 3 18 2 19 1 20
REMARK H PARENT
REMARK Flexibility Score: inf
ROOT
ATOM      1  C   UNL     1       3.199   9.287  16.158  1.00  0.00    -0.031 C 
ATOM      2  C   UNL     1       3.411   9.018  14.860  1.00  0.00    -0.031 C 
ENDROOT
BRANCH   1   3
ATOM      3  C   UNL     1       2.736   8.225  17.115  1.00  0.00     0.027 C 
BRANCH   3   4
ATOM      4  C   UNL     1       1.355   8.561  17.692  1.00  0.00     0.004 C 
BRANCH   4   5
ATOM      5  C   UNL     1       0.766   7.361  18.447  1.00  0.00     0.000 C 
BRANCH   5   6
ATOM      6  C   UNL     1       0.580   6.122  17.554  1.00  0.00     0.000 C 
BRANCH   6   7
ATOM      7  C   UNL     1       0.305   4.809  18.308  1.00  0.00     0.000 C 
BRANCH   7   8
ATOM      8  C   UNL     1       1.565   3.945  18.487  1.00  0.00     0.006 C 
BRANCH   8   9
ATOM      9  C   UNL     1       2.089   3.979  19.928  1.00  0.00     0.053 C 
BRANCH   9  10
ATOM     10  C   UNL     1       3.082   5.081  20.133  1.00  0.00     0.041 C 
ATOM     11  O   UNL     1       3.756   5.517  19.164  1.00  0.00    -0.550 OA
ATOM     12  O   UNL     1       3.235   5.654  21.390  1.00  0.00    -0.550 OA
ENDBRANCH   9  10
ENDBRANCH   8   9
ENDBRANCH   7   8
ENDBRANCH   6   7
ENDBRANCH   5   6
ENDBRANCH   4   5
ENDBRANCH   3   4
ENDBRANCH   1   3
BRANCH   2  13
ATOM     13  C   UNL     1       3.822  10.090  13.888  1.00  0.00     0.027 C 
BRANCH  13  14
ATOM     14  C   UNL     1       2.714  11.136  13.692  1.00  0.00     0.004 C 
BRANCH  14  15
ATOM     15  C   UNL     1       3.031  12.514  14.300  1.00  0.00     0.000 C 
BRANCH  15  16
ATOM     16  C   UNL     1       4.506  12.655  14.718  1.00  0.00     0.000 C 
BRANCH  16  17
ATOM     17  C   UNL     1       4.659  12.888  16.231  1.00  0.00    -0.000 C 
BRANCH  17  18
ATOM     18  C   UNL     1       5.625  11.889  16.907  1.00  0.00    -0.000 C 
BRANCH  18  19
ATOM     19  C   UNL     1       5.232  11.541  18.352  1.00  0.00    -0.003 C 
ATOM     20  C   UNL     1       3.768  11.850  18.661  1.00  0.00     0.004 C 
ENDBRANCH  18  19
ENDBRANCH  17  18
ENDBRANCH  16  17
ENDBRANCH  15  16
ENDBRANCH  14  15
ENDBRANCH  13  14
ENDBRANCH   2  13
TORSDOF 15
ENDMDL
MODEL 7
REMARK VINA RESULT:    -5.475      1.548      3.292
REMARK INTER + INTRA:         -12.073
REMARK INTER:                 -10.690
REMARK INTRA:                  -1.384
REMARK UNBOUND:                -1.797
REMARK SMILES CCCCCCCCC=CCCCCCCCC(=O)[O-]
REMARK SMILES IDX 10 1 9 2 11 3 12 4 13 5 14 6 15 7 16 8 17 9 18 10 19 11
REMARK SMILES IDX 20 12 8 13 7 14 6 15 5 16 4 17 3 18 2 19 1 20
REMARK H PARENT
REMARK Flexibility Score: inf
ROOT
ATOM      1  C   UNL     1       0.841   7.028  18.232  1.00  0.00    -0.031 C 
ATOM      2  C   UNL     1       0.950   5.935  17.460  1.00  0.00    -0.031 C 
ENDROOT
BRANCH   1   3
ATOM      3  C   UNL     1       1.317   8.373  17.759  1.00  0.00     0.027 C 
BRANCH   3   4
ATOM      4  C   UNL     1       2.488   8.235  16.779  1.00  0.00     0.004 C 
BRANCH   4   5
ATOM      5  C   UNL     1       3.507   9.366  16.975  1.00  0.00     0.000 C 
BRANCH   5   6
ATOM      6  C   UNL     1       2.983  10.496  17.879  1.00  0.00     0.000 C 
BRANCH   6   7
ATOM      7  C   UNL     1       3.722  11.839  17.740  1.00  0.00     0.000 C 
BRANCH   7   8
ATOM      8  C   UNL     1       4.781  11.829  16.624  1.00  0.00     0.006 C 
BRANCH   8   9
ATOM      9  C   UNL     1       4.513  12.904  15.563  1.00  0.00     0.053 C 
BRANCH   9  10
ATOM     10  C   UNL     1       3.260  12.624  14.793  1.00  0.00     0.041 C 
ATOM     11  O   UNL     1       3.110  11.523  14.201  1.00  0.00    -0.550 OA
ATOM     12  O   UNL     1       2.239  13.567  14.760  1.00  0.00    -0.550 OA
ENDBRANCH   9  10
ENDBRANCH   8   9
ENDBRANCH   7   8
ENDBRANCH   6   7
ENDBRANCH   5   6
ENDBRANCH   4   5
ENDBRANCH   3   4
ENDBRANCH   1   3
BRANCH   2  13
ATOM     13  C   UNL     1       0.525   4.577  17.950  1.00  0.00     0.027 C 
BRANCH  13  14
ATOM     14  C   UNL     1       1.131   4.252  19.325  1.00  0.00     0.004 C 
BRANCH  14  15
ATOM     15  C   UNL     1       2.630   3.907  19.290  1.00  0.00     0.000 C 
BRANCH  15  16
ATOM     16  C   UNL     1       3.526   5.109  19.638  1.00  0.00     0.000 C 
BRANCH  16  17
ATOM     17  C   UNL     1       2.966   5.926  20.814  1.00  0.00    -0.000 C 
BRANCH  17  18
ATOM     18  C   UNL     1       3.535   5.493  22.184  1.00  0.00    -0.000 C 
BRANCH  18  19
ATOM     19  C   UNL     1       3.199   6.470  23.322  1.00  0.00    -0.003 C 
ATOM     20  C   UNL     1       3.887   6.111  24.637  1.00  0.00     0.004 C 
ENDBRANCH  18  19
ENDBRANCH  17  18
ENDBRANCH  16  17
ENDBRANCH  15  16
ENDBRANCH  14  15
ENDBRANCH  13  14
ENDBRANCH   2  13
TORSDOF 15
ENDMDL
MODEL 8
REMARK VINA RESULT:    -5.388      2.280      3.426
REMARK INTER + INTRA:         -11.910
REMARK INTER:                 -10.676
REMARK INTRA:                  -1.233
REMARK UNBOUND:                -1.797
REMARK SMILES CCCCCCCCC=CCCCCCCCC(=O)[O-]
REMARK SMILES IDX 10 1 9 2 11 3 12 4 13 5 14 6 15 7 16 8 17 9 18 10 19 11
REMARK SMILES IDX 20 12 8 13 7 14 6 15 5 16 4 17 3 18 2 19 1 20
REMARK H PARENT
REMARK Flexibility Score: inf
ROOT
ATOM      1  C   UNL     1       2.173   7.369  17.546  1.00  0.00    -0.031 C 
ATOM      2  C   UNL     1       0.927   7.230  18.027  1.00  0.00    -0.031 C 
ENDROOT
BRANCH   1   3
ATOM      3  C   UNL     1       2.899   8.683  17.614  1.00  0.00     0.027 C 
BRANCH   3   4
ATOM      4  C   UNL     1       2.780   9.451  16.293  1.00  0.00     0.004 C 
BRANCH   4   5
ATOM      5  C   UNL     1       4.129  10.063  15.888  1.00  0.00     0.000 C 
BRANCH   5   6
ATOM      6  C   UNL     1       4.111  10.676  14.476  1.00  0.00     0.000 C 
BRANCH   6   7
ATOM      7  C   UNL     1       4.401  12.186  14.415  1.00  0.00     0.000 C 
BRANCH   7   8
ATOM      8  C   UNL     1       4.393  12.855  15.800  1.00  0.00     0.006 C 
BRANCH   8   9
ATOM      9  C   UNL     1       3.007  13.396  16.172  1.00  0.00     0.053 C 
BRANCH   9  10
ATOM     10  C   UNL     1       2.798  13.421  17.655  1.00  0.00     0.041 C 
ATOM     11  O   UNL     1       2.250  14.412  18.203  1.00  0.00    -0.550 OA
ATOM     12  O   UNL     1       3.176  12.330  18.428  1.00  0.00    -0.550 OA
ENDBRANCH   9  10
ENDBRANCH   8   9
ENDBRANCH   7   8
ENDBRANCH   6   7
ENDBRANCH   5   6
ENDBRANCH   4   5
ENDBRANCH   3   4
ENDBRANCH   1   3
BRANCH   2  13
ATOM     13  C   UNL     1       0.176   5.931  17.912  1.00  0.00     0.027 C 
BRANCH  13  14
ATOM     14  C   UNL     1       1.121   4.720  17.966  1.00  0.00     0.004 C 
BRANCH  14  15
ATOM     15  C   UNL     1       1.434   4.225  19.390  1.00  0.00     0.000 C 
BRANCH  15  16
ATOM     16  C   UNL     1       2.890   4.498  19.808  1.00  0.00     0.000 C 
BRANCH  16  17
ATOM     17  C   UNL     1       3.008   5.731  20.720  1.00  0.00    -0.000 C 
BRANCH  17  18
ATOM     18  C   UNL     1       3.484   5.389  22.150  1.00  0.00    -0.000 C 
BRANCH  18  19
ATOM     19  C   UNL     1       3.257   6.528  23.158  1.00  0.00    -0.003 C 
ATOM     20  C   UNL     1       3.492   6.097  24.604  1.00  0.00     0.004 C 
ENDBRANCH  18  19
ENDBRANCH  17  18
ENDBRANCH  16  17
ENDBRANCH  15  16
ENDBRANCH  14  15
ENDBRANCH  13  14
ENDBRANCH   2  13
TORSDOF 15
ENDMDL
MODEL 9
REMARK VINA RESULT:    -4.885      1.158      2.163
REMARK INTER + INTRA:         -10.965
REMARK INTER:                  -9.983
REMARK INTRA:                  -0.983
REMARK UNBOUND:                -1.797
REMARK SMILES CCCCCCCCC=CCCCCCCCC(=O)[O-]
REMARK SMILES IDX 10 1 9 2 11 3 12 4 13 5 14 6 15 7 16 8 17 9 18 10 19 11
REMARK SMILES IDX 20 12 8 13 7 14 6 15 5 16 4 17 3 18 2 19 1 20
REMARK H PARENT
REMARK Flexibility Score: inf
ROOT
ATOM      1  C   UNL     1       2.642   9.904  17.967  1.00  0.00    -0.031 C 
ATOM      2  C   UNL     1       3.185   8.925  17.227  1.00  0.00    -0.031 C 
ENDROOT
BRANCH   1   3
ATOM      3  C   UNL     1       3.153  11.316  17.899  1.00  0.00     0.027 C 
BRANCH   3   4
ATOM      4  C   UNL     1       4.114  11.614  19.057  1.00  0.00     0.004 C 
BRANCH   4   5
ATOM      5  C   UNL     1       5.546  11.820  18.544  1.00  0.00     0.000 C 
BRANCH   5   6
ATOM      6  C   UNL     1       5.673  11.627  17.023  1.00  0.00     0.000 C 
BRANCH   6   7
ATOM      7  C   UNL     1       5.529  12.911  16.187  1.00  0.00     0.000 C 
BRANCH   7   8
ATOM      8  C   UNL     1       4.393  12.830  15.153  1.00  0.00     0.006 C 
BRANCH   8   9
ATOM      9  C   UNL     1       4.608  11.692  14.147  1.00  0.00     0.053 C 
BRANCH   9  10
ATOM     10  C   UNL     1       3.356  10.900  13.928  1.00  0.00     0.041 C 
ATOM     11  O   UNL     1       2.249  11.484  13.796  1.00  0.00    -0.550 OA
ATOM     12  O   UNL     1       3.418   9.514  13.831  1.00  0.00    -0.550 OA
ENDBRANCH   9  10
ENDBRANCH   8   9
ENDBRANCH   7   8
ENDBRANCH   6   7
ENDBRANCH   5   6
ENDBRANCH   4   5
ENDBRANCH   3   4
ENDBRANCH   1   3
BRANCH   2  13
ATOM     13  C   UNL     1       2.713   7.500  17.332  1.00  0.00     0.027 C 
BRANCH  13  14
ATOM     14  C   UNL     1       2.740   6.997  18.784  1.00  0.00     0.004 C 
BRANCH  14  15
ATOM     15  C   UNL     1       3.426   5.632  18.968  1.00  0.00     0.000 C 
BRANCH  15  16
ATOM     16  C   UNL     1       2.851   4.831  20.150  1.00  0.00     0.000 C 
BRANCH  16  17
ATOM     17  C   UNL     1       1.536   4.122  19.783  1.00  0.00    -0.000 C 
BRANCH  17  18
ATOM     18  C   UNL     1       1.352   3.927  18.261  1.00  0.00    -0.000 C 
BRANCH  18  19
ATOM     19  C   UNL     1       0.169   4.720  17.683  1.00  0.00    -0.003 C 
ATOM     20  C   UNL     1      -0.269   5.876  18.580  1.00  0.00     0.004 C 
ENDBRANCH  18  19
ENDBRANCH  17  18
ENDBRANCH  16  17
ENDBRANCH  15  16
ENDBRANCH  14  15
ENDBRANCH  13  14
ENDBRANCH   2  13
TORSDOF 15
ENDMDL
