MODEL 1
REMARK VINA RESULT:    -4.389      0.000      0.000
REMARK INTER + INTRA:         -15.183
REMARK INTER:                 -11.060
REMARK INTRA:                  -4.124
REMARK UNBOUND:                -4.124
REMARK SMILES CCCCCCCCCCCCCCCCCCCCCCCCCCCC(=O)[O-]
REMARK SMILES IDX 15 1 16 2 17 3 18 4 19 5 20 6 21 7 22 8 23 9 24 10 25 11
REMARK SMILES IDX 26 12 27 13 28 14 29 15 30 16 14 17 13 18 12 19 11 20 10 21
REMARK SMILES IDX 9 22 8 23 7 24 6 25 5 26 4 27 3 28 2 29 1 30
REMARK H PARENT
REMARK Flexibility Score: inf
ROOT
ATOM      1  C   UNL     1     -93.290 -62.647 -67.707  1.00  0.00     0.000 C 
ENDROOT
BRANCH   1   2
ATOM      2  C   UNL     1     -92.875 -62.639 -69.190  1.00  0.00     0.000 C 
BRANCH   2   3
ATOM      3  C   UNL     1     -93.013 -64.017 -69.860  1.00  0.00     0.000 C 
BRANCH   3   4
ATOM      4  C   UNL     1     -94.224 -64.092 -70.804  1.00  0.00     0.000 C 
BRANCH   4   5
ATOM      5  C   UNL     1     -94.115 -63.113 -71.986  1.00  0.00     0.000 C 
BRANCH   5   6
ATOM      6  C   UNL     1     -95.316 -62.153 -72.077  1.00  0.00     0.000 C 
BRANCH   6   7
ATOM      7  C   UNL     1     -95.256 -60.946 -71.122  1.00  0.00     0.000 C 
BRANCH   7   8
ATOM      8  C   UNL     1     -96.557 -60.746 -70.329  1.00  0.00     0.000 C 
BRANCH   8   9
ATOM      9  C   UNL     1     -96.634 -61.719 -69.142  1.00  0.00     0.000 C 
BRANCH   9  10
ATOM     10  C   UNL     1     -98.071 -61.919 -68.633  1.00  0.00     0.000 C 
BRANCH  10  11
ATOM     11  C   UNL     1     -98.912 -62.808 -69.561  1.00  0.00     0.000 C 
BRANCH  11  12
ATOM     12  C   UNL     1     -99.837 -63.726 -68.748  1.00  0.00     0.006 C 
BRANCH  12  13
ATOM     13  C   UNL     1    -100.656 -64.666 -69.643  1.00  0.00     0.053 C 
BRANCH  13  14
ATOM     14  C   UNL     1    -101.960 -64.052 -70.054  1.00  0.00     0.041 C 
ATOM     15  O   UNL     1    -102.112 -62.802 -70.013  1.00  0.00    -0.550 OA
ATOM     16  O   UNL     1    -103.006 -64.860 -70.482  1.00  0.00    -0.550 OA
ENDBRANCH  13  14
ENDBRANCH  12  13
ENDBRANCH  11  12
ENDBRANCH  10  11
ENDBRANCH   9  10
ENDBRANCH   8   9
ENDBRANCH   7   8
ENDBRANCH   6   7
ENDBRANCH   5   6
ENDBRANCH   4   5
ENDBRANCH   3   4
ENDBRANCH   2   3
ENDBRANCH   1   2
BRANCH   1  17
ATOM     17  C   UNL     1     -92.980 -61.355 -66.927  1.00  0.00     0.000 C 
BRANCH  17  18
ATOM     18  C   UNL     1     -94.243 -60.673 -66.371  1.00  0.00     0.000 C 
BRANCH  18  19
ATOM     19  C   UNL     1     -95.244 -61.670 -65.757  1.00  0.00     0.000 C 
BRANCH  19  20
ATOM     20  C   UNL     1     -96.501 -61.035 -65.133  1.00  0.00     0.000 C 
BRANCH  20  21
ATOM     21  C   UNL     1     -97.675 -62.020 -65.013  1.00  0.00     0.000 C 
BRANCH  21  22
ATOM     22  C   UNL     1     -98.525 -61.714 -63.771  1.00  0.00    -0.000 C 
BRANCH  22  23
ATOM     23  C   UNL     1    -100.035 -61.703 -64.069  1.00  0.00    -0.000 C 
BRANCH  23  24
ATOM     24  C   UNL     1    -100.434 -62.299 -65.435  1.00  0.00    -0.000 C 
BRANCH  24  25
ATOM     25  C   UNL     1    -100.747 -61.261 -66.532  1.00  0.00    -0.000 C 
BRANCH  25  26
ATOM     26  C   UNL     1    -101.156 -59.868 -66.013  1.00  0.00    -0.000 C 
BRANCH  26  27
ATOM     27  C   UNL     1    -100.090 -58.774 -66.192  1.00  0.00    -0.000 C 
BRANCH  27  28
ATOM     28  C   UNL     1     -99.234 -58.977 -67.455  1.00  0.00    -0.000 C 
BRANCH  28  29
ATOM     29  C   UNL     1     -97.753 -58.640 -67.222  1.00  0.00    -0.003 C 
ATOM     30  C   UNL     1     -97.554 -57.590 -66.129  1.00  0.00     0.004 C 
ENDBRANCH  28  29
ENDBRANCH  27  28
ENDBRANCH  26  27
ENDBRANCH  25  26
ENDBRANCH  24  25
ENDBRANCH  23  24
ENDBRANCH  22  23
ENDBRANCH  21  22
ENDBRANCH  20  21
ENDBRANCH  19  20
ENDBRANCH  18  19
ENDBRANCH  17  18
ENDBRANCH   1  17
TORSDOF 26
ENDMDL
MODEL 2
REMARK VINA RESULT:    -3.910      0.897      2.409
REMARK INTER + INTRA:         -13.975
REMARK INTER:                 -10.163
REMARK INTRA:                  -3.813
REMARK UNBOUND:                -4.124
REMARK SMILES CCCCCCCCCCCCCCCCCCCCCCCCCCCC(=O)[O-]
REMARK SMILES IDX 15 1 16 2 17 3 18 4 19 5 20 6 21 7 22 8 23 9 24 10 25 11
REMARK SMILES IDX 26 12 27 13 28 14 29 15 30 16 14 17 13 18 12 19 11 20 10 21
REMARK SMILES IDX 9 22 8 23 7 24 6 25 5 26 4 27 3 28 2 29 1 30
REMARK H PARENT
REMARK Flexibility Score: inf
ROOT
ATOM      1  C   UNL     1     -93.714 -62.882 -68.150  1.00  0.00     0.000 C 
ENDROOT
BRANCH   1   2
ATOM      2  C   UNL     1     -92.898 -63.002 -69.450  1.00  0.00     0.000 C 
BRANCH   2   3
ATOM      3  C   UNL     1     -93.060 -64.368 -70.138  1.00  0.00     0.000 C 
BRANCH   3   4
ATOM      4  C   UNL     1     -93.752 -64.259 -71.507  1.00  0.00     0.000 C 
BRANCH   4   5
ATOM      5  C   UNL     1     -93.698 -62.834 -72.085  1.00  0.00     0.000 C 
BRANCH   5   6
ATOM      6  C   UNL     1     -95.067 -62.128 -72.060  1.00  0.00     0.000 C 
BRANCH   6   7
ATOM      7  C   UNL     1     -95.118 -60.841 -71.215  1.00  0.00     0.000 C 
BRANCH   7   8
ATOM      8  C   UNL     1     -96.454 -60.661 -70.479  1.00  0.00     0.000 C 
BRANCH   8   9
ATOM      9  C   UNL     1     -96.872 -61.958 -69.769  1.00  0.00     0.000 C 
BRANCH   9  10
ATOM     10  C   UNL     1     -98.386 -62.213 -69.844  1.00  0.00     0.000 C 
BRANCH  10  11
ATOM     11  C   UNL     1     -99.014 -62.478 -68.469  1.00  0.00     0.000 C 
BRANCH  11  12
ATOM     12  C   UNL     1     -99.921 -63.718 -68.512  1.00  0.00     0.006 C 
BRANCH  12  13
ATOM     13  C   UNL     1    -101.365 -63.368 -68.892  1.00  0.00     0.053 C 
BRANCH  13  14
ATOM     14  C   UNL     1    -101.963 -64.387 -69.815  1.00  0.00     0.041 C 
ATOM     15  O   UNL     1    -103.101 -64.870 -69.573  1.00  0.00    -0.550 OA
ATOM     16  O   UNL     1    -101.264 -64.802 -70.942  1.00  0.00    -0.550 OA
ENDBRANCH  13  14
ENDBRANCH  12  13
ENDBRANCH  11  12
ENDBRANCH  10  11
ENDBRANCH   9  10
ENDBRANCH   8   9
ENDBRANCH   7   8
ENDBRANCH   6   7
ENDBRANCH   5   6
ENDBRANCH   4   5
ENDBRANCH   3   4
ENDBRANCH   2   3
ENDBRANCH   1   2
BRANCH   1  17
ATOM     17  C   UNL     1     -93.372 -61.669 -67.264  1.00  0.00     0.000 C 
BRANCH  17  18
ATOM     18  C   UNL     1     -94.346 -61.492 -66.086  1.00  0.00     0.000 C 
BRANCH  18  19
ATOM     19  C   UNL     1     -95.632 -60.740 -66.477  1.00  0.00     0.000 C 
BRANCH  19  20
ATOM     20  C   UNL     1     -96.090 -59.662 -65.476  1.00  0.00     0.000 C 
BRANCH  20  21
ATOM     21  C   UNL     1     -96.996 -58.597 -66.114  1.00  0.00     0.000 C 
BRANCH  21  22
ATOM     22  C   UNL     1     -97.725 -59.158 -67.343  1.00  0.00    -0.000 C 
BRANCH  22  23
ATOM     23  C   UNL     1     -99.109 -58.520 -67.560  1.00  0.00    -0.000 C 
BRANCH  23  24
ATOM     24  C   UNL     1    -100.140 -58.808 -66.449  1.00  0.00    -0.000 C 
BRANCH  24  25
ATOM     25  C   UNL     1    -100.625 -60.270 -66.373  1.00  0.00    -0.000 C 
BRANCH  25  26
ATOM     26  C   UNL     1    -101.529 -60.593 -65.167  1.00  0.00    -0.000 C 
BRANCH  26  27
ATOM     27  C   UNL     1    -100.871 -61.459 -64.079  1.00  0.00    -0.000 C 
BRANCH  27  28
ATOM     28  C   UNL     1     -99.636 -62.221 -64.592  1.00  0.00    -0.000 C 
BRANCH  28  29
ATOM     29  C   UNL     1     -98.317 -61.549 -64.176  1.00  0.00    -0.003 C 
ATOM     30  C   UNL     1     -97.274 -62.555 -63.687  1.00  0.00     0.004 C 
ENDBRANCH  28  29
ENDBRANCH  27  28
ENDBRANCH  26  27
ENDBRANCH  25  26
ENDBRANCH  24  25
ENDBRANCH  23  24
ENDBRANCH  22  23
ENDBRANCH  21  22
ENDBRANCH  20  21
ENDBRANCH  19  20
ENDBRANCH  18  19
ENDBRANCH  17  18
ENDBRANCH   1  17
TORSDOF 26
ENDMDL
MODEL 3
REMARK VINA RESULT:    -3.686      2.903      6.145
REMARK INTER + INTRA:         -13.413
REMARK INTER:                 -10.304
REMARK INTRA:                  -3.109
REMARK UNBOUND:                -4.124
REMARK SMILES CCCCCCCCCCCCCCCCCCCCCCCCCCCC(=O)[O-]
REMARK SMILES IDX 15 1 16 2 17 3 18 4 19 5 20 6 21 7 22 8 23 9 24 10 25 11
REMARK SMILES IDX 26 12 27 13 28 14 29 15 30 16 14 17 13 18 12 19 11 20 10 21
REMARK SMILES IDX 9 22 8 23 7 24 6 25 5 26 4 27 3 28 2 29 1 30
REMARK H PARENT
REMARK Flexibility Score: inf
ROOT
ATOM      1  C   UNL     1     -98.091 -57.986 -66.423  1.00  0.00     0.000 C 
ENDROOT
BRANCH   1   2
ATOM      2  C   UNL     1     -98.418 -59.033 -67.503  1.00  0.00     0.000 C 
BRANCH   2   3
ATOM      3  C   UNL     1     -97.266 -60.022 -67.750  1.00  0.00     0.000 C 
BRANCH   3   4
ATOM      4  C   UNL     1     -97.005 -60.259 -69.246  1.00  0.00     0.000 C 
BRANCH   4   5
ATOM      5  C   UNL     1     -97.019 -61.751 -69.621  1.00  0.00     0.000 C 
BRANCH   5   6
ATOM      6  C   UNL     1     -96.831 -61.989 -71.131  1.00  0.00     0.000 C 
BRANCH   6   7
ATOM      7  C   UNL     1     -95.715 -61.154 -71.786  1.00  0.00     0.000 C 
BRANCH   7   8
ATOM      8  C   UNL     1     -94.312 -61.726 -71.532  1.00  0.00     0.000 C 
BRANCH   8   9
ATOM      9  C   UNL     1     -94.291 -63.248 -71.743  1.00  0.00     0.000 C 
BRANCH   9  10
ATOM     10  C   UNL     1     -93.122 -63.930 -71.015  1.00  0.00     0.000 C 
BRANCH  10  11
ATOM     11  C   UNL     1     -93.480 -64.358 -69.584  1.00  0.00     0.000 C 
BRANCH  11  12
ATOM     12  C   UNL     1     -92.888 -63.380 -68.557  1.00  0.00     0.006 C 
BRANCH  12  13
ATOM     13  C   UNL     1     -93.939 -62.403 -68.014  1.00  0.00     0.053 C 
BRANCH  13  14
ATOM     14  C   UNL     1     -93.496 -61.759 -66.735  1.00  0.00     0.041 C 
ATOM     15  O   UNL     1     -93.461 -62.428 -65.669  1.00  0.00    -0.550 OA
ATOM     16  O   UNL     1     -93.122 -60.421 -66.722  1.00  0.00    -0.550 OA
ENDBRANCH  13  14
ENDBRANCH  12  13
ENDBRANCH  11  12
ENDBRANCH  10  11
ENDBRANCH   9  10
ENDBRANCH   8   9
ENDBRANCH   7   8
ENDBRANCH   6   7
ENDBRANCH   5   6
ENDBRANCH   4   5
ENDBRANCH   3   4
ENDBRANCH   2   3
ENDBRANCH   1   2
BRANCH   1  17
ATOM     17  C   UNL     1     -96.800 -58.242 -65.623  1.00  0.00     0.000 C 
BRANCH  17  18
ATOM     18  C   UNL     1     -96.993 -59.252 -64.478  1.00  0.00     0.000 C 
BRANCH  18  19
ATOM     19  C   UNL     1     -96.356 -60.623 -64.773  1.00  0.00     0.000 C 
BRANCH  19  20
ATOM     20  C   UNL     1     -97.288 -61.834 -64.578  1.00  0.00     0.000 C 
BRANCH  20  21
ATOM     21  C   UNL     1     -98.776 -61.450 -64.566  1.00  0.00     0.000 C 
BRANCH  21  22
ATOM     22  C   UNL     1     -99.621 -62.493 -65.312  1.00  0.00    -0.000 C 
BRANCH  22  23
ATOM     23  C   UNL     1    -100.519 -61.871 -66.396  1.00  0.00    -0.000 C 
BRANCH  23  24
ATOM     24  C   UNL     1    -100.183 -62.292 -67.841  1.00  0.00    -0.000 C 
BRANCH  24  25
ATOM     25  C   UNL     1    -101.146 -63.327 -68.459  1.00  0.00    -0.000 C 
BRANCH  25  26
ATOM     26  C   UNL     1    -100.730 -63.854 -69.847  1.00  0.00    -0.000 C 
BRANCH  26  27
ATOM     27  C   UNL     1    -101.605 -64.994 -70.394  1.00  0.00    -0.000 C 
BRANCH  27  28
ATOM     28  C   UNL     1    -103.110 -64.690 -70.295  1.00  0.00    -0.000 C 
BRANCH  28  29
ATOM     29  C   UNL     1    -103.848 -64.937 -71.620  1.00  0.00    -0.003 C 
ATOM     30  C   UNL     1    -105.368 -64.893 -71.463  1.00  0.00     0.004 C 
ENDBRANCH  28  29
ENDBRANCH  27  28
ENDBRANCH  26  27
ENDBRANCH  25  26
ENDBRANCH  24  25
ENDBRANCH  23  24
ENDBRANCH  22  23
ENDBRANCH  21  22
ENDBRANCH  20  21
ENDBRANCH  19  20
ENDBRANCH  18  19
ENDBRANCH  17  18
ENDBRANCH   1  17
TORSDOF 26
ENDMDL
MODEL 4
REMARK VINA RESULT:    -3.567      1.151      2.786
REMARK INTER + INTRA:         -13.112
REMARK INTER:                 -10.271
REMARK INTRA:                  -2.841
REMARK UNBOUND:                -4.124
REMARK SMILES CCCCCCCCCCCCCCCCCCCCCCCCCCCC(=O)[O-]
REMARK SMILES IDX 15 1 16 2 17 3 18 4 19 5 20 6 21 7 22 8 23 9 24 10 25 11
REMARK SMILES IDX 26 12 27 13 28 14 29 15 30 16 14 17 13 18 12 19 11 20 10 21
REMARK SMILES IDX 9 22 8 23 7 24 6 25 5 26 4 27 3 28 2 29 1 30
REMARK H PARENT
REMARK Flexibility Score: inf
ROOT
ATOM      1  C   UNL     1     -93.226 -62.888 -68.534  1.00  0.00     0.000 C 
ENDROOT
BRANCH   1   2
ATOM      2  C   UNL     1     -93.018 -62.496 -70.009  1.00  0.00     0.000 C 
BRANCH   2   3
ATOM      3  C   UNL     1     -93.233 -63.670 -70.979  1.00  0.00     0.000 C 
BRANCH   3   4
ATOM      4  C   UNL     1     -94.701 -63.812 -71.413  1.00  0.00     0.000 C 
BRANCH   4   5
ATOM      5  C   UNL     1     -95.360 -62.458 -71.730  1.00  0.00     0.000 C 
BRANCH   5   6
ATOM      6  C   UNL     1     -96.786 -62.341 -71.161  1.00  0.00     0.000 C 
BRANCH   6   7
ATOM      7  C   UNL     1     -96.928 -61.395 -69.953  1.00  0.00     0.000 C 
BRANCH   7   8
ATOM      8  C   UNL     1     -98.087 -61.781 -69.023  1.00  0.00     0.000 C 
BRANCH   8   9
ATOM      9  C   UNL     1     -98.872 -62.976 -69.587  1.00  0.00     0.000 C 
BRANCH   9  10
ATOM     10  C   UNL     1    -100.281 -63.097 -68.984  1.00  0.00     0.000 C 
BRANCH  10  11
ATOM     11  C   UNL     1    -101.022 -64.358 -69.451  1.00  0.00     0.000 C 
BRANCH  11  12
ATOM     12  C   UNL     1    -101.768 -64.098 -70.768  1.00  0.00     0.006 C 
BRANCH  12  13
ATOM     13  C   UNL     1    -102.909 -65.099 -70.997  1.00  0.00     0.053 C 
BRANCH  13  14
ATOM     14  C   UNL     1    -104.252 -64.437 -70.943  1.00  0.00     0.041 C 
ATOM     15  O   UNL     1    -105.285 -65.119 -70.711  1.00  0.00    -0.550 OA
ATOM     16  O   UNL     1    -104.363 -63.067 -71.148  1.00  0.00    -0.550 OA
ENDBRANCH  13  14
ENDBRANCH  12  13
ENDBRANCH  11  12
ENDBRANCH  10  11
ENDBRANCH   9  10
ENDBRANCH   8   9
ENDBRANCH   7   8
ENDBRANCH   6   7
ENDBRANCH   5   6
ENDBRANCH   4   5
ENDBRANCH   3   4
ENDBRANCH   2   3
ENDBRANCH   1   2
BRANCH   1  17
ATOM     17  C   UNL     1     -93.496 -61.716 -67.571  1.00  0.00     0.000 C 
BRANCH  17  18
ATOM     18  C   UNL     1     -93.874 -62.181 -66.152  1.00  0.00     0.000 C 
BRANCH  18  19
ATOM     19  C   UNL     1     -95.392 -62.149 -65.894  1.00  0.00     0.000 C 
BRANCH  19  20
ATOM     20  C   UNL     1     -95.841 -61.231 -64.742  1.00  0.00     0.000 C 
BRANCH  20  21
ATOM     21  C   UNL     1     -96.681 -60.036 -65.218  1.00  0.00     0.000 C 
BRANCH  21  22
ATOM     22  C   UNL     1     -96.667 -59.928 -66.750  1.00  0.00    -0.000 C 
BRANCH  22  23
ATOM     23  C   UNL     1     -97.369 -58.658 -67.266  1.00  0.00    -0.000 C 
BRANCH  23  24
ATOM     24  C   UNL     1     -98.683 -58.302 -66.542  1.00  0.00    -0.000 C 
BRANCH  24  25
ATOM     25  C   UNL     1     -99.957 -58.905 -67.169  1.00  0.00    -0.000 C 
BRANCH  25  26
ATOM     26  C   UNL     1    -100.743 -59.861 -66.250  1.00  0.00    -0.000 C 
BRANCH  26  27
ATOM     27  C   UNL     1    -100.731 -61.335 -66.690  1.00  0.00    -0.000 C 
BRANCH  27  28
ATOM     28  C   UNL     1     -99.992 -62.247 -65.695  1.00  0.00    -0.000 C 
BRANCH  28  29
ATOM     29  C   UNL     1     -99.950 -61.657 -64.277  1.00  0.00    -0.003 C 
ATOM     30  C   UNL     1     -98.760 -62.167 -63.464  1.00  0.00     0.004 C 
ENDBRANCH  28  29
ENDBRANCH  27  28
ENDBRANCH  26  27
ENDBRANCH  25  26
ENDBRANCH  24  25
ENDBRANCH  23  24
ENDBRANCH  22  23
ENDBRANCH  21  22
ENDBRANCH  20  21
ENDBRANCH  19  20
ENDBRANCH  18  19
ENDBRANCH  17  18
ENDBRANCH   1  17
TORSDOF 26
ENDMDL
MODEL 5
REMARK VINA RESULT:    -3.530     15.337     19.603
REMARK INTER + INTRA:         -13.020
REMARK INTER:                  -7.753
REMARK INTRA:                  -5.267
REMARK UNBOUND:                -4.124
REMARK SMILES CCCCCCCCCCCCCCCCCCCCCCCCCCCC(=O)[O-]
REMARK SMILES IDX 15 1 16 2 17 3 18 4 19 5 20 6 21 7 22 8 23 9 24 10 25 11
REMARK SMILES IDX 26 12 27 13 28 14 29 15 30 16 14 17 13 18 12 19 11 20 10 21
REMARK SMILES IDX 9 22 8 23 7 24 6 25 5 26 4 27 3 28 2 29 1 30
REMARK H PARENT
REMARK Flexibility Score: inf
ROOT
ATOM      1  C   UNL     1    -107.503 -48.708 -53.923  1.00  0.00     0.000 C 
ENDROOT
BRANCH   1   2
ATOM      2  C   UNL     1    -108.989 -49.081 -53.765  1.00  0.00     0.000 C 
BRANCH   2   3
ATOM      3  C   UNL     1    -109.915 -48.258 -54.678  1.00  0.00     0.000 C 
BRANCH   3   4
ATOM      4  C   UNL     1    -110.841 -49.144 -55.526  1.00  0.00     0.000 C 
BRANCH   4   5
ATOM      5  C   UNL     1    -111.231 -48.486 -56.861  1.00  0.00     0.000 C 
BRANCH   5   6
ATOM      6  C   UNL     1    -110.249 -47.379 -57.290  1.00  0.00     0.000 C 
BRANCH   6   7
ATOM      7  C   UNL     1    -110.021 -47.267 -58.809  1.00  0.00     0.000 C 
BRANCH   7   8
ATOM      8  C   UNL     1    -108.573 -47.571 -59.221  1.00  0.00     0.000 C 
BRANCH   8   9
ATOM      9  C   UNL     1    -108.477 -47.853 -60.729  1.00  0.00     0.000 C 
BRANCH   9  10
ATOM     10  C   UNL     1    -109.856 -48.005 -61.392  1.00  0.00     0.000 C 
BRANCH  10  11
ATOM     11  C   UNL     1    -109.855 -49.024 -62.541  1.00  0.00     0.000 C 
BRANCH  11  12
ATOM     12  C   UNL     1    -108.418 -49.392 -62.944  1.00  0.00     0.006 C 
BRANCH  12  13
ATOM     13  C   UNL     1    -108.284 -50.871 -63.329  1.00  0.00     0.053 C 
BRANCH  13  14
ATOM     14  C   UNL     1    -107.029 -51.136 -64.104  1.00  0.00     0.041 C 
ATOM     15  O   UNL     1    -106.008 -51.585 -63.520  1.00  0.00    -0.550 OA
ATOM     16  O   UNL     1    -106.988 -50.887 -65.471  1.00  0.00    -0.550 OA
ENDBRANCH  13  14
ENDBRANCH  12  13
ENDBRANCH  11  12
ENDBRANCH  10  11
ENDBRANCH   9  10
ENDBRANCH   8   9
ENDBRANCH   7   8
ENDBRANCH   6   7
ENDBRANCH   5   6
ENDBRANCH   4   5
ENDBRANCH   3   4
ENDBRANCH   2   3
ENDBRANCH   1   2
BRANCH   1  17
ATOM     17  C   UNL     1    -107.160 -47.868 -55.168  1.00  0.00     0.000 C 
BRANCH  17  18
ATOM     18  C   UNL     1    -106.382 -48.661 -56.232  1.00  0.00     0.000 C 
BRANCH  18  19
ATOM     19  C   UNL     1    -107.255 -49.697 -56.966  1.00  0.00     0.000 C 
BRANCH  19  20
ATOM     20  C   UNL     1    -106.875 -51.168 -56.714  1.00  0.00     0.000 C 
BRANCH  20  21
ATOM     21  C   UNL     1    -105.607 -51.323 -55.859  1.00  0.00     0.000 C 
BRANCH  21  22
ATOM     22  C   UNL     1    -105.891 -52.154 -54.598  1.00  0.00    -0.000 C 
BRANCH  22  23
ATOM     23  C   UNL     1    -107.395 -52.348 -54.337  1.00  0.00    -0.000 C 
BRANCH  23  24
ATOM     24  C   UNL     1    -107.901 -53.797 -54.491  1.00  0.00    -0.000 C 
BRANCH  24  25
ATOM     25  C   UNL     1    -109.125 -53.966 -55.413  1.00  0.00    -0.000 C 
BRANCH  25  26
ATOM     26  C   UNL     1    -109.991 -52.702 -55.582  1.00  0.00    -0.000 C 
BRANCH  26  27
ATOM     27  C   UNL     1    -110.517 -52.464 -57.008  1.00  0.00    -0.000 C 
BRANCH  27  28
ATOM     28  C   UNL     1    -109.615 -53.090 -58.086  1.00  0.00    -0.000 C 
BRANCH  28  29
ATOM     29  C   UNL     1    -109.346 -52.131 -59.257  1.00  0.00    -0.003 C 
ATOM     30  C   UNL     1    -110.349 -50.979 -59.315  1.00  0.00     0.004 C 
ENDBRANCH  28  29
ENDBRANCH  27  28
ENDBRANCH  26  27
ENDBRANCH  25  26
ENDBRANCH  24  25
ENDBRANCH  23  24
ENDBRANCH  22  23
ENDBRANCH  21  22
ENDBRANCH  20  21
ENDBRANCH  19  20
ENDBRANCH  18  19
ENDBRANCH  17  18
ENDBRANCH   1  17
TORSDOF 26
ENDMDL
MODEL 6
REMARK VINA RESULT:    -3.344     17.184     19.912
REMARK INTER + INTRA:         -12.551
REMARK INTER:                  -7.383
REMARK INTRA:                  -5.168
REMARK UNBOUND:                -4.124
REMARK SMILES CCCCCCCCCCCCCCCCCCCCCCCCCCCC(=O)[O-]
REMARK SMILES IDX 15 1 16 2 17 3 18 4 19 5 20 6 21 7 22 8 23 9 24 10 25 11
REMARK SMILES IDX 26 12 27 13 28 14 29 15 30 16 14 17 13 18 12 19 11 20 10 21
REMARK SMILES IDX 9 22 8 23 7 24 6 25 5 26 4 27 3 28 2 29 1 30
REMARK H PARENT
REMARK Flexibility Score: inf
ROOT
ATOM      1  C   UNL     1    -106.595 -48.489 -56.114  1.00  0.00     0.000 C 
ENDROOT
BRANCH   1   2
ATOM      2  C   UNL     1    -107.378 -47.909 -54.921  1.00  0.00     0.000 C 
BRANCH   2   3
ATOM      3  C   UNL     1    -107.510 -48.899 -53.751  1.00  0.00     0.000 C 
BRANCH   3   4
ATOM      4  C   UNL     1    -108.971 -49.286 -53.471  1.00  0.00     0.000 C 
BRANCH   4   5
ATOM      5  C   UNL     1    -109.964 -48.564 -54.398  1.00  0.00     0.000 C 
BRANCH   5   6
ATOM      6  C   UNL     1    -110.722 -49.529 -55.329  1.00  0.00     0.000 C 
BRANCH   6   7
ATOM      7  C   UNL     1    -111.180 -48.915 -56.666  1.00  0.00     0.000 C 
BRANCH   7   8
ATOM      8  C   UNL     1    -110.405 -47.642 -57.036  1.00  0.00     0.000 C 
BRANCH   8   9
ATOM      9  C   UNL     1    -110.646 -47.257 -58.505  1.00  0.00     0.000 C 
BRANCH   9  10
ATOM     10  C   UNL     1    -109.338 -47.023 -59.278  1.00  0.00     0.000 C 
BRANCH  10  11
ATOM     11  C   UNL     1    -108.840 -48.284 -59.999  1.00  0.00     0.000 C 
BRANCH  11  12
ATOM     12  C   UNL     1    -108.519 -47.981 -61.471  1.00  0.00     0.006 C 
BRANCH  12  13
ATOM     13  C   UNL     1    -109.154 -49.000 -62.426  1.00  0.00     0.053 C 
BRANCH  13  14
ATOM     14  C   UNL     1    -108.195 -49.445 -63.488  1.00  0.00     0.041 C 
ATOM     15  O   UNL     1    -108.111 -48.811 -64.572  1.00  0.00    -0.550 OA
ATOM     16  O   UNL     1    -107.394 -50.562 -63.279  1.00  0.00    -0.550 OA
ENDBRANCH  13  14
ENDBRANCH  12  13
ENDBRANCH  11  12
ENDBRANCH  10  11
ENDBRANCH   9  10
ENDBRANCH   8   9
ENDBRANCH   7   8
ENDBRANCH   6   7
ENDBRANCH   5   6
ENDBRANCH   4   5
ENDBRANCH   3   4
ENDBRANCH   2   3
ENDBRANCH   1   2
BRANCH   1  17
ATOM     17  C   UNL     1    -107.310 -49.609 -56.893  1.00  0.00     0.000 C 
BRANCH  17  18
ATOM     18  C   UNL     1    -106.473 -50.897 -56.996  1.00  0.00     0.000 C 
BRANCH  18  19
ATOM     19  C   UNL     1    -105.143 -50.812 -56.225  1.00  0.00     0.000 C 
BRANCH  19  20
ATOM     20  C   UNL     1    -104.903 -51.943 -55.207  1.00  0.00     0.000 C 
BRANCH  20  21
ATOM     21  C   UNL     1    -106.003 -52.031 -54.137  1.00  0.00     0.000 C 
BRANCH  21  22
ATOM     22  C   UNL     1    -106.855 -53.295 -54.326  1.00  0.00    -0.000 C 
BRANCH  22  23
ATOM     23  C   UNL     1    -108.197 -53.228 -53.576  1.00  0.00    -0.000 C 
BRANCH  23  24
ATOM     24  C   UNL     1    -109.423 -52.927 -54.462  1.00  0.00    -0.000 C 
BRANCH  24  25
ATOM     25  C   UNL     1    -109.124 -52.808 -55.970  1.00  0.00    -0.000 C 
BRANCH  25  26
ATOM     26  C   UNL     1    -110.025 -53.667 -56.881  1.00  0.00    -0.000 C 
BRANCH  26  27
ATOM     27  C   UNL     1    -109.811 -53.451 -58.389  1.00  0.00    -0.000 C 
BRANCH  27  28
ATOM     28  C   UNL     1    -109.547 -51.979 -58.748  1.00  0.00    -0.000 C 
BRANCH  28  29
ATOM     29  C   UNL     1    -110.766 -51.303 -59.396  1.00  0.00    -0.003 C 
ATOM     30  C   UNL     1    -110.974 -51.735 -60.848  1.00  0.00     0.004 C 
ENDBRANCH  28  29
ENDBRANCH  27  28
ENDBRANCH  26  27
ENDBRANCH  25  26
ENDBRANCH  24  25
ENDBRANCH  23  24
ENDBRANCH  22  23
ENDBRANCH  21  22
ENDBRANCH  20  21
ENDBRANCH  19  20
ENDBRANCH  18  19
ENDBRANCH  17  18
ENDBRANCH   1  17
TORSDOF 26
ENDMDL
MODEL 7
REMARK VINA RESULT:    -3.342     15.318     19.293
REMARK INTER + INTRA:         -12.545
REMARK INTER:                  -7.294
REMARK INTRA:                  -5.251
REMARK UNBOUND:                -4.124
REMARK SMILES CCCCCCCCCCCCCCCCCCCCCCCCCCCC(=O)[O-]
REMARK SMILES IDX 15 1 16 2 17 3 18 4 19 5 20 6 21 7 22 8 23 9 24 10 25 11
REMARK SMILES IDX 26 12 27 13 28 14 29 15 30 16 14 17 13 18 12 19 11 20 10 21
REMARK SMILES IDX 9 22 8 23 7 24 6 25 5 26 4 27 3 28 2 29 1 30
REMARK H PARENT
REMARK Flexibility Score: inf
ROOT
ATOM      1  C   UNL     1    -109.519 -50.507 -59.273  1.00  0.00     0.000 C 
ENDROOT
BRANCH   1   2
ATOM      2  C   UNL     1    -110.313 -49.384 -58.580  1.00  0.00     0.000 C 
BRANCH   2   3
ATOM      3  C   UNL     1    -109.757 -47.982 -58.878  1.00  0.00     0.000 C 
BRANCH   3   4
ATOM      4  C   UNL     1    -108.833 -47.965 -60.106  1.00  0.00     0.000 C 
BRANCH   4   5
ATOM      5  C   UNL     1    -109.254 -46.916 -61.150  1.00  0.00     0.000 C 
BRANCH   5   6
ATOM      6  C   UNL     1    -110.170 -47.496 -62.243  1.00  0.00     0.000 C 
BRANCH   6   7
ATOM      7  C   UNL     1    -111.677 -47.433 -61.928  1.00  0.00     0.000 C 
BRANCH   7   8
ATOM      8  C   UNL     1    -112.296 -48.817 -61.688  1.00  0.00     0.000 C 
BRANCH   8   9
ATOM      9  C   UNL     1    -112.086 -49.734 -62.904  1.00  0.00     0.000 C 
BRANCH   9  10
ATOM     10  C   UNL     1    -111.274 -50.993 -62.562  1.00  0.00     0.000 C 
BRANCH  10  11
ATOM     11  C   UNL     1    -110.028 -51.156 -63.446  1.00  0.00     0.000 C 
BRANCH  11  12
ATOM     12  C   UNL     1    -108.750 -50.853 -62.650  1.00  0.00     0.006 C 
BRANCH  12  13
ATOM     13  C   UNL     1    -107.719 -50.076 -63.479  1.00  0.00     0.053 C 
BRANCH  13  14
ATOM     14  C   UNL     1    -106.982 -50.967 -64.432  1.00  0.00     0.041 C 
ATOM     15  O   UNL     1    -107.155 -50.847 -65.674  1.00  0.00    -0.550 OA
ATOM     16  O   UNL     1    -106.103 -51.929 -63.949  1.00  0.00    -0.550 OA
ENDBRANCH  13  14
ENDBRANCH  12  13
ENDBRANCH  11  12
ENDBRANCH  10  11
ENDBRANCH   9  10
ENDBRANCH   8   9
ENDBRANCH   7   8
ENDBRANCH   6   7
ENDBRANCH   5   6
ENDBRANCH   4   5
ENDBRANCH   3   4
ENDBRANCH   2   3
ENDBRANCH   1   2
BRANCH   1  17
ATOM     17  C   UNL     1    -109.689 -51.911 -58.663  1.00  0.00     0.000 C 
BRANCH  17  18
ATOM     18  C   UNL     1    -109.920 -51.880 -57.142  1.00  0.00     0.000 C 
BRANCH  18  19
ATOM     19  C   UNL     1    -109.663 -53.241 -56.467  1.00  0.00     0.000 C 
BRANCH  19  20
ATOM     20  C   UNL     1    -109.314 -53.174 -54.969  1.00  0.00     0.000 C 
BRANCH  20  21
ATOM     21  C   UNL     1    -109.022 -51.745 -54.484  1.00  0.00     0.000 C 
BRANCH  21  22
ATOM     22  C   UNL     1    -107.642 -51.660 -53.816  1.00  0.00    -0.000 C 
BRANCH  22  23
ATOM     23  C   UNL     1    -106.529 -52.309 -54.658  1.00  0.00    -0.000 C 
BRANCH  23  24
ATOM     24  C   UNL     1    -105.713 -51.327 -55.524  1.00  0.00    -0.000 C 
BRANCH  24  25
ATOM     25  C   UNL     1    -106.349 -50.973 -56.884  1.00  0.00    -0.000 C 
BRANCH  25  26
ATOM     26  C   UNL     1    -107.001 -49.578 -56.953  1.00  0.00    -0.000 C 
BRANCH  26  27
ATOM     27  C   UNL     1    -106.401 -48.536 -55.992  1.00  0.00    -0.000 C 
BRANCH  27  28
ATOM     28  C   UNL     1    -107.374 -48.133 -54.871  1.00  0.00    -0.000 C 
BRANCH  28  29
ATOM     29  C   UNL     1    -108.845 -48.224 -55.307  1.00  0.00    -0.003 C 
ATOM     30  C   UNL     1    -109.697 -47.086 -54.745  1.00  0.00     0.004 C 
ENDBRANCH  28  29
ENDBRANCH  27  28
ENDBRANCH  26  27
ENDBRANCH  25  26
ENDBRANCH  24  25
ENDBRANCH  23  24
ENDBRANCH  22  23
ENDBRANCH  21  22
ENDBRANCH  20  21
ENDBRANCH  19  20
ENDBRANCH  18  19
ENDBRANCH  17  18
ENDBRANCH   1  17
TORSDOF 26
ENDMDL
MODEL 8
REMARK VINA RESULT:    -3.330     16.925     19.760
REMARK INTER + INTRA:         -12.514
REMARK INTER:                  -6.773
REMARK INTRA:                  -5.742
REMARK UNBOUND:                -4.124
REMARK SMILES CCCCCCCCCCCCCCCCCCCCCCCCCCCC(=O)[O-]
REMARK SMILES IDX 15 1 16 2 17 3 18 4 19 5 20 6 21 7 22 8 23 9 24 10 25 11
REMARK SMILES IDX 26 12 27 13 28 14 29 15 30 16 14 17 13 18 12 19 11 20 10 21
REMARK SMILES IDX 9 22 8 23 7 24 6 25 5 26 4 27 3 28 2 29 1 30
REMARK H PARENT
REMARK Flexibility Score: inf
ROOT
ATOM      1  C   UNL     1    -106.737 -51.097 -56.795  1.00  0.00     0.000 C 
ENDROOT
BRANCH   1   2
ATOM      2  C   UNL     1    -107.253 -49.657 -56.973  1.00  0.00     0.000 C 
BRANCH   2   3
ATOM      3  C   UNL     1    -106.428 -48.622 -56.190  1.00  0.00     0.000 C 
BRANCH   3   4
ATOM      4  C   UNL     1    -107.254 -47.911 -55.106  1.00  0.00     0.000 C 
BRANCH   4   5
ATOM      5  C   UNL     1    -108.247 -48.853 -54.404  1.00  0.00     0.000 C 
BRANCH   5   6
ATOM      6  C   UNL     1    -109.655 -48.244 -54.272  1.00  0.00     0.000 C 
BRANCH   6   7
ATOM      7  C   UNL     1    -109.951 -47.079 -55.234  1.00  0.00     0.000 C 
BRANCH   7   8
ATOM      8  C   UNL     1    -110.673 -47.527 -56.514  1.00  0.00     0.000 C 
BRANCH   8   9
ATOM      9  C   UNL     1    -109.827 -47.221 -57.760  1.00  0.00     0.000 C 
BRANCH   9  10
ATOM     10  C   UNL     1    -110.239 -48.065 -58.977  1.00  0.00     0.000 C 
BRANCH  10  11
ATOM     11  C   UNL     1    -109.070 -48.339 -59.934  1.00  0.00     0.000 C 
BRANCH  11  12
ATOM     12  C   UNL     1    -109.549 -49.105 -61.177  1.00  0.00     0.006 C 
BRANCH  12  13
ATOM     13  C   UNL     1    -108.554 -49.004 -62.340  1.00  0.00     0.053 C 
BRANCH  13  14
ATOM     14  C   UNL     1    -108.341 -50.327 -63.011  1.00  0.00     0.041 C 
ATOM     15  O   UNL     1    -107.290 -50.541 -63.670  1.00  0.00    -0.550 OA
ATOM     16  O   UNL     1    -109.304 -51.323 -62.908  1.00  0.00    -0.550 OA
ENDBRANCH  13  14
ENDBRANCH  12  13
ENDBRANCH  11  12
ENDBRANCH  10  11
ENDBRANCH   9  10
ENDBRANCH   8   9
ENDBRANCH   7   8
ENDBRANCH   6   7
ENDBRANCH   5   6
ENDBRANCH   4   5
ENDBRANCH   3   4
ENDBRANCH   2   3
ENDBRANCH   1   2
BRANCH   1  17
ATOM     17  C   UNL     1    -105.354 -51.227 -56.130  1.00  0.00     0.000 C 
BRANCH  17  18
ATOM     18  C   UNL     1    -105.390 -52.038 -54.822  1.00  0.00     0.000 C 
BRANCH  18  19
ATOM     19  C   UNL     1    -106.813 -52.201 -54.256  1.00  0.00     0.000 C 
BRANCH  19  20
ATOM     20  C   UNL     1    -107.418 -53.609 -54.402  1.00  0.00     0.000 C 
BRANCH  20  21
ATOM     21  C   UNL     1    -108.873 -53.589 -54.898  1.00  0.00     0.000 C 
BRANCH  21  22
ATOM     22  C   UNL     1    -109.543 -52.242 -54.587  1.00  0.00    -0.000 C 
BRANCH  22  23
ATOM     23  C   UNL     1    -110.795 -51.986 -55.444  1.00  0.00    -0.000 C 
BRANCH  23  24
ATOM     24  C   UNL     1    -110.590 -51.011 -56.622  1.00  0.00    -0.000 C 
BRANCH  24  25
ATOM     25  C   UNL     1    -111.588 -51.175 -57.786  1.00  0.00    -0.000 C 
BRANCH  25  26
ATOM     26  C   UNL     1    -111.002 -51.816 -59.060  1.00  0.00    -0.000 C 
BRANCH  26  27
ATOM     27  C   UNL     1    -109.547 -52.299 -58.929  1.00  0.00    -0.000 C 
BRANCH  27  28
ATOM     28  C   UNL     1    -109.445 -53.792 -58.574  1.00  0.00    -0.000 C 
BRANCH  28  29
ATOM     29  C   UNL     1    -110.794 -54.518 -58.696  1.00  0.00    -0.003 C 
ATOM     30  C   UNL     1    -111.218 -55.193 -57.391  1.00  0.00     0.004 C 
ENDBRANCH  28  29
ENDBRANCH  27  28
ENDBRANCH  26  27
ENDBRANCH  25  26
ENDBRANCH  24  25
ENDBRANCH  23  24
ENDBRANCH  22  23
ENDBRANCH  21  22
ENDBRANCH  20  21
ENDBRANCH  19  20
ENDBRANCH  18  19
ENDBRANCH  17  18
ENDBRANCH   1  17
TORSDOF 26
ENDMDL
MODEL 9
REMARK VINA RESULT:    -3.264     16.679     19.310
REMARK INTER + INTRA:         -12.349
REMARK INTER:                  -7.419
REMARK INTRA:                  -4.930
REMARK UNBOUND:                -4.124
REMARK SMILES CCCCCCCCCCCCCCCCCCCCCCCCCCCC(=O)[O-]
REMARK SMILES IDX 15 1 16 2 17 3 18 4 19 5 20 6 21 7 22 8 23 9 24 10 25 11
REMARK SMILES IDX 26 12 27 13 28 14 29 15 30 16 14 17 13 18 12 19 11 20 10 21
REMARK SMILES IDX 9 22 8 23 7 24 6 25 5 26 4 27 3 28 2 29 1 30
REMARK H PARENT
REMARK Flexibility Score: inf
ROOT
ATOM      1  C   UNL     1    -105.576 -50.876 -56.604  1.00  0.00     0.000 C 
ENDROOT
BRANCH   1   2
ATOM      2  C   UNL     1    -105.492 -49.338 -56.581  1.00  0.00     0.000 C 
BRANCH   2   3
ATOM      3  C   UNL     1    -106.863 -48.664 -56.406  1.00  0.00     0.000 C 
BRANCH   3   4
ATOM      4  C   UNL     1    -107.044 -48.052 -55.007  1.00  0.00     0.000 C 
BRANCH   4   5
ATOM      5  C   UNL     1    -107.614 -49.056 -53.990  1.00  0.00     0.000 C 
BRANCH   5   6
ATOM      6  C   UNL     1    -108.798 -49.866 -54.551  1.00  0.00     0.000 C 
BRANCH   6   7
ATOM      7  C   UNL     1    -109.082 -51.191 -53.820  1.00  0.00     0.000 C 
BRANCH   7   8
ATOM      8  C   UNL     1    -109.697 -52.260 -54.736  1.00  0.00     0.000 C 
BRANCH   8   9
ATOM      9  C   UNL     1    -108.835 -52.474 -55.990  1.00  0.00     0.000 C 
BRANCH   9  10
ATOM     10  C   UNL     1    -109.616 -52.236 -57.292  1.00  0.00     0.000 C 
BRANCH  10  11
ATOM     11  C   UNL     1    -108.913 -51.249 -58.235  1.00  0.00     0.000 C 
BRANCH  11  12
ATOM     12  C   UNL     1    -109.742 -49.965 -58.399  1.00  0.00     0.006 C 
BRANCH  12  13
ATOM     13  C   UNL     1    -109.713 -49.434 -59.838  1.00  0.00     0.053 C 
BRANCH  13  14
ATOM     14  C   UNL     1    -108.911 -48.173 -59.953  1.00  0.00     0.041 C 
ATOM     15  O   UNL     1    -108.810 -47.395 -58.969  1.00  0.00    -0.550 OA
ATOM     16  O   UNL     1    -108.275 -47.859 -61.149  1.00  0.00    -0.550 OA
ENDBRANCH  13  14
ENDBRANCH  12  13
ENDBRANCH  11  12
ENDBRANCH  10  11
ENDBRANCH   9  10
ENDBRANCH   8   9
ENDBRANCH   7   8
ENDBRANCH   6   7
ENDBRANCH   5   6
ENDBRANCH   4   5
ENDBRANCH   3   4
ENDBRANCH   2   3
ENDBRANCH   1   2
BRANCH   1  17
ATOM     17  C   UNL     1    -104.754 -51.599 -55.520  1.00  0.00     0.000 C 
BRANCH  17  18
ATOM     18  C   UNL     1    -105.632 -52.352 -54.503  1.00  0.00     0.000 C 
BRANCH  18  19
ATOM     19  C   UNL     1    -104.855 -52.788 -53.247  1.00  0.00     0.000 C 
BRANCH  19  20
ATOM     20  C   UNL     1    -103.321 -52.731 -53.372  1.00  0.00     0.000 C 
BRANCH  20  21
ATOM     21  C   UNL     1    -102.674 -54.121 -53.476  1.00  0.00     0.000 C 
BRANCH  21  22
ATOM     22  C   UNL     1    -103.699 -55.228 -53.188  1.00  0.00    -0.000 C 
BRANCH  22  23
ATOM     23  C   UNL     1    -103.835 -56.232 -54.347  1.00  0.00    -0.000 C 
BRANCH  23  24
ATOM     24  C   UNL     1    -105.274 -56.708 -54.630  1.00  0.00    -0.000 C 
BRANCH  24  25
ATOM     25  C   UNL     1    -106.290 -56.416 -53.507  1.00  0.00    -0.000 C 
BRANCH  25  26
ATOM     26  C   UNL     1    -107.464 -55.503 -53.914  1.00  0.00    -0.000 C 
BRANCH  26  27
ATOM     27  C   UNL     1    -108.333 -56.041 -55.064  1.00  0.00    -0.000 C 
BRANCH  27  28
ATOM     28  C   UNL     1    -109.838 -55.979 -54.752  1.00  0.00    -0.000 C 
BRANCH  28  29
ATOM     29  C   UNL     1    -110.697 -55.855 -56.021  1.00  0.00    -0.003 C 
ATOM     30  C   UNL     1    -109.869 -55.952 -57.302  1.00  0.00     0.004 C 
ENDBRANCH  28  29
ENDBRANCH  27  28
ENDBRANCH  26  27
ENDBRANCH  25  26
ENDBRANCH  24  25
ENDBRANCH  23  24
ENDBRANCH  22  23
ENDBRANCH  21  22
ENDBRANCH  20  21
ENDBRANCH  19  20
ENDBRANCH  18  19
ENDBRANCH  17  18
ENDBRANCH   1  17
TORSDOF 26
ENDMDL
