MODEL 1
REMARK VINA RESULT:    -8.056      0.000      0.000
REMARK INTER + INTRA:          -9.734
REMARK INTER:                  -9.469
REMARK INTRA:                  -0.265
REMARK UNBOUND:                -0.265
REMARK SMILES O=c1cc(-c2ccc(O)c(O)c2)oc2cc(O)cc(O)c12
REMARK SMILES IDX 4 1 3 2 2 3 1 4 21 5 19 6 18 7 16 8 15 9 14 10 13 11 5 12
REMARK SMILES IDX 6 13 7 14 8 15 12 16 10 17 9 18 11 20 20 22 17 24
REMARK H PARENT 9 19 11 21 20 23 17 25
REMARK Flexibility Score: inf
ROOT
ATOM      1  C   UNL     1      20.562   9.395 151.070  1.00  0.00     0.138 A 
ATOM      2  C   UNL     1      21.242  10.122 152.062  1.00  0.00     0.100 A 
ATOM      3  C   UNL     1      20.576  10.470 153.236  1.00  0.00     0.197 A 
ATOM      4  O   UNL     1      21.195  11.124 154.120  1.00  0.00    -0.289 OA
ATOM      5  C   UNL     1      19.230  10.091 153.411  1.00  0.00     0.107 A 
ATOM      6  C   UNL     1      18.482  10.403 154.572  1.00  0.00     0.134 A 
ATOM      7  C   UNL     1      17.144   9.994 154.666  1.00  0.00     0.093 A 
ATOM      8  C   UNL     1      16.541   9.282 153.627  1.00  0.00     0.123 A 
ATOM      9  C   UNL     1      17.275   8.972 152.477  1.00  0.00     0.094 A 
ATOM     10  C   UNL     1      18.611   9.369 152.364  1.00  0.00     0.146 A 
ATOM     11  O   UNL     1      19.288   9.061 151.263  1.00  0.00    -0.456 OA
ENDROOT
BRANCH   1  12
ATOM     12  C   UNL     1      21.220   8.998 149.800  1.00  0.00     0.021 A 
ATOM     13  C   UNL     1      20.833   9.616 148.599  1.00  0.00     0.016 A 
ATOM     14  C   UNL     1      21.431   9.255 147.388  1.00  0.00     0.051 A 
ATOM     15  C   UNL     1      22.419   8.263 147.356  1.00  0.00     0.157 A 
ATOM     16  C   UNL     1      22.205   7.991 149.759  1.00  0.00     0.062 A 
ATOM     17  C   UNL     1      22.804   7.626 148.548  1.00  0.00     0.158 A 
BRANCH  15  18
ATOM     18  O   UNL     1      23.016   7.906 146.148  1.00  0.00    -0.504 OA
ATOM     19  H   UNL     1      23.197   6.938 145.911  1.00  0.00     0.293 HD
ENDBRANCH  15  18
BRANCH  17  20
ATOM     20  O   UNL     1      23.776   6.627 148.548  1.00  0.00    -0.504 OA
ATOM     21  H   UNL     1      24.763   6.834 148.655  1.00  0.00     0.293 HD
ENDBRANCH  17  20
ENDBRANCH   1  12
BRANCH   6  22
ATOM     22  O   UNL     1      19.056  11.112 155.627  1.00  0.00    -0.507 OA
ATOM     23  H   UNL     1      19.217  10.686 156.532  1.00  0.00     0.293 HD
ENDBRANCH   6  22
BRANCH   8  24
ATOM     24  O   UNL     1      15.209   8.889 153.745  1.00  0.00    -0.508 OA
ATOM     25  H   UNL     1      14.573   9.358 154.381  1.00  0.00     0.293 HD
ENDBRANCH   8  24
TORSDOF 5
ENDMDL
MODEL 2
REMARK VINA RESULT:    -7.778      1.872      6.931
REMARK INTER + INTRA:          -9.407
REMARK INTER:                  -9.092
REMARK INTRA:                  -0.316
REMARK UNBOUND:                -0.265
REMARK SMILES O=c1cc(-c2ccc(O)c(O)c2)oc2cc(O)cc(O)c12
REMARK SMILES IDX 4 1 3 2 2 3 1 4 21 5 19 6 18 7 16 8 15 9 14 10 13 11 5 12
REMARK SMILES IDX 6 13 7 14 8 15 12 16 10 17 9 18 11 20 20 22 17 24
REMARK H PARENT 9 19 11 21 20 23 17 25
REMARK Flexibility Score: inf
ROOT
ATOM      1  C   UNL     1      19.489  10.453 152.610  1.00  0.00     0.138 A 
ATOM      2  C   UNL     1      20.751  10.820 153.106  1.00  0.00     0.100 A 
ATOM      3  C   UNL     1      21.856  10.794 152.256  1.00  0.00     0.197 A 
ATOM      4  O   UNL     1      22.985  11.124 152.712  1.00  0.00    -0.289 OA
ATOM      5  C   UNL     1      21.693  10.398 150.914  1.00  0.00     0.107 A 
ATOM      6  C   UNL     1      22.761  10.346 149.987  1.00  0.00     0.134 A 
ATOM      7  C   UNL     1      22.516   9.935 148.668  1.00  0.00     0.093 A 
ATOM      8  C   UNL     1      21.229   9.577 148.260  1.00  0.00     0.123 A 
ATOM      9  C   UNL     1      20.170   9.626 149.173  1.00  0.00     0.094 A 
ATOM     10  C   UNL     1      20.393  10.034 150.491  1.00  0.00     0.146 A 
ATOM     11  O   UNL     1      19.370  10.074 151.339  1.00  0.00    -0.456 OA
ENDROOT
BRANCH   1  12
ATOM     12  C   UNL     1      18.277  10.460 153.468  1.00  0.00     0.021 A 
ATOM     13  C   UNL     1      18.317  11.105 154.715  1.00  0.00     0.016 A 
ATOM     14  C   UNL     1      17.192  11.121 155.545  1.00  0.00     0.051 A 
ATOM     15  C   UNL     1      16.012  10.483 155.146  1.00  0.00     0.157 A 
ATOM     16  C   UNL     1      17.090   9.809 153.078  1.00  0.00     0.062 A 
ATOM     17  C   UNL     1      15.963   9.821 153.908  1.00  0.00     0.158 A 
BRANCH  15  18
ATOM     18  O   UNL     1      14.891  10.501 155.975  1.00  0.00    -0.504 OA
ATOM     19  H   UNL     1      14.159  11.193 155.862  1.00  0.00     0.293 HD
ENDBRANCH  15  18
BRANCH  17  20
ATOM     20  O   UNL     1      14.806   9.166 153.488  1.00  0.00    -0.504 OA
ATOM     21  H   UNL     1      14.592   9.024 152.507  1.00  0.00     0.293 HD
ENDBRANCH  17  20
ENDBRANCH   1  12
BRANCH   6  22
ATOM     22  O   UNL     1      24.057  10.697 150.363  1.00  0.00    -0.507 OA
ATOM     23  H   UNL     1      24.675  11.206 149.741  1.00  0.00     0.293 HD
ENDBRANCH   6  22
BRANCH   8  24
ATOM     24  O   UNL     1      21.013   9.171 146.945  1.00  0.00    -0.508 OA
ATOM     25  H   UNL     1      20.506   8.319 146.729  1.00  0.00     0.293 HD
ENDBRANCH   8  24
TORSDOF 5
ENDMDL
MODEL 3
REMARK VINA RESULT:    -6.794     10.518     11.805
REMARK INTER + INTRA:          -8.251
REMARK INTER:                  -7.979
REMARK INTRA:                  -0.271
REMARK UNBOUND:                -0.265
REMARK SMILES O=c1cc(-c2ccc(O)c(O)c2)oc2cc(O)cc(O)c12
REMARK SMILES IDX 4 1 3 2 2 3 1 4 21 5 19 6 18 7 16 8 15 9 14 10 13 11 5 12
REMARK SMILES IDX 6 13 7 14 8 15 12 16 10 17 9 18 11 20 20 22 17 24
REMARK H PARENT 9 19 11 21 20 23 17 25
REMARK Flexibility Score: inf
ROOT
ATOM      1  C   UNL     1      17.333   5.289 141.210  1.00  0.00     0.138 A 
ATOM      2  C   UNL     1      16.687   6.535 141.153  1.00  0.00     0.100 A 
ATOM      3  C   UNL     1      15.304   6.599 141.322  1.00  0.00     0.197 A 
ATOM      4  O   UNL     1      14.733   7.723 141.268  1.00  0.00    -0.289 OA
ATOM      5  C   UNL     1      14.574   5.414 141.545  1.00  0.00     0.107 A 
ATOM      6  C   UNL     1      13.171   5.392 141.727  1.00  0.00     0.134 A 
ATOM      7  C   UNL     1      12.518   4.168 141.938  1.00  0.00     0.093 A 
ATOM      8  C   UNL     1      13.237   2.972 141.970  1.00  0.00     0.123 A 
ATOM      9  C   UNL     1      14.625   2.988 141.789  1.00  0.00     0.094 A 
ATOM     10  C   UNL     1      15.295   4.198 141.579  1.00  0.00     0.146 A 
ATOM     11  O   UNL     1      16.613   4.187 141.412  1.00  0.00    -0.456 OA
ENDROOT
BRANCH   1  12
ATOM     12  C   UNL     1      18.802   5.159 141.036  1.00  0.00     0.021 A 
ATOM     13  C   UNL     1      19.307   4.287 140.057  1.00  0.00     0.016 A 
ATOM     14  C   UNL     1      20.686   4.141 139.878  1.00  0.00     0.051 A 
ATOM     15  C   UNL     1      21.582   4.856 140.680  1.00  0.00     0.157 A 
ATOM     16  C   UNL     1      19.709   5.866 141.850  1.00  0.00     0.062 A 
ATOM     17  C   UNL     1      21.090   5.720 141.673  1.00  0.00     0.158 A 
BRANCH  15  18
ATOM     18  O   UNL     1      22.957   4.711 140.498  1.00  0.00    -0.504 OA
ATOM     19  H   UNL     1      23.409   4.984 139.634  1.00  0.00     0.293 HD
ENDBRANCH  15  18
BRANCH  17  20
ATOM     20  O   UNL     1      21.957   6.437 142.497  1.00  0.00    -0.504 OA
ATOM     21  H   UNL     1      22.043   6.243 143.488  1.00  0.00     0.293 HD
ENDBRANCH  17  20
ENDBRANCH   1  12
BRANCH   6  22
ATOM     22  O   UNL     1      12.424   6.570 141.701  1.00  0.00    -0.507 OA
ATOM     23  H   UNL     1      11.411   6.560 141.717  1.00  0.00     0.293 HD
ENDBRANCH   6  22
BRANCH   8  24
ATOM     24  O   UNL     1      12.563   1.771 142.179  1.00  0.00    -0.508 OA
ATOM     25  H   UNL     1      12.757   1.189 142.987  1.00  0.00     0.293 HD
ENDBRANCH   8  24
TORSDOF 5
ENDMDL
MODEL 4
REMARK VINA RESULT:    -6.754     10.956     13.091
REMARK INTER + INTRA:          -8.204
REMARK INTER:                  -7.907
REMARK INTRA:                  -0.297
REMARK UNBOUND:                -0.265
REMARK SMILES O=c1cc(-c2ccc(O)c(O)c2)oc2cc(O)cc(O)c12
REMARK SMILES IDX 4 1 3 2 2 3 1 4 21 5 19 6 18 7 16 8 15 9 14 10 13 11 5 12
REMARK SMILES IDX 6 13 7 14 8 15 12 16 10 17 9 18 11 20 20 22 17 24
REMARK H PARENT 9 19 11 21 20 23 17 25
REMARK Flexibility Score: inf
ROOT
ATOM      1  C   UNL     1      17.270   5.126 141.339  1.00  0.00     0.138 A 
ATOM      2  C   UNL     1      18.281   6.094 141.457  1.00  0.00     0.100 A 
ATOM      3  C   UNL     1      19.611   5.726 141.252  1.00  0.00     0.197 A 
ATOM      4  O   UNL     1      20.511   6.603 141.361  1.00  0.00    -0.289 OA
ATOM      5  C   UNL     1      19.922   4.390 140.932  1.00  0.00     0.107 A 
ATOM      6  C   UNL     1      21.243   3.934 140.707  1.00  0.00     0.134 A 
ATOM      7  C   UNL     1      21.469   2.584 140.399  1.00  0.00     0.093 A 
ATOM      8  C   UNL     1      20.404   1.685 140.311  1.00  0.00     0.123 A 
ATOM      9  C   UNL     1      19.096   2.130 140.533  1.00  0.00     0.094 A 
ATOM     10  C   UNL     1      18.849   3.472 140.840  1.00  0.00     0.146 A 
ATOM     11  O   UNL     1      17.598   3.870 141.045  1.00  0.00    -0.456 OA
ENDROOT
BRANCH   1  12
ATOM     12  C   UNL     1      15.838   5.459 141.547  1.00  0.00     0.021 A 
ATOM     13  C   UNL     1      15.334   6.677 141.061  1.00  0.00     0.016 A 
ATOM     14  C   UNL     1      13.992   7.018 141.250  1.00  0.00     0.051 A 
ATOM     15  C   UNL     1      13.133   6.151 141.936  1.00  0.00     0.157 A 
ATOM     16  C   UNL     1      14.972   4.597 142.249  1.00  0.00     0.062 A 
ATOM     17  C   UNL     1      13.628   4.937 142.441  1.00  0.00     0.158 A 
BRANCH  15  18
ATOM     18  O   UNL     1      11.794   6.492 142.122  1.00  0.00    -0.504 OA
ATOM     19  H   UNL     1      11.086   5.788 142.295  1.00  0.00     0.293 HD
ENDBRANCH  15  18
BRANCH  17  20
ATOM     20  O   UNL     1      12.801   4.058 143.139  1.00  0.00    -0.504 OA
ATOM     21  H   UNL     1      12.669   4.123 144.142  1.00  0.00     0.293 HD
ENDBRANCH  17  20
ENDBRANCH   1  12
BRANCH   6  22
ATOM     22  O   UNL     1      22.327   4.808 140.787  1.00  0.00    -0.507 OA
ATOM     23  H   UNL     1      23.061   4.814 140.088  1.00  0.00     0.293 HD
ENDBRANCH   6  22
BRANCH   8  24
ATOM     24  O   UNL     1      20.657   0.350 140.005  1.00  0.00    -0.508 OA
ATOM     25  H   UNL     1      21.478  -0.129 140.358  1.00  0.00     0.293 HD
ENDBRANCH   8  24
TORSDOF 5
ENDMDL
MODEL 5
REMARK VINA RESULT:    -6.645     10.716     13.353
REMARK INTER + INTRA:          -8.076
REMARK INTER:                  -7.778
REMARK INTRA:                  -0.297
REMARK UNBOUND:                -0.265
REMARK SMILES O=c1cc(-c2ccc(O)c(O)c2)oc2cc(O)cc(O)c12
REMARK SMILES IDX 4 1 3 2 2 3 1 4 21 5 19 6 18 7 16 8 15 9 14 10 13 11 5 12
REMARK SMILES IDX 6 13 7 14 8 15 12 16 10 17 9 18 11 20 20 22 17 24
REMARK H PARENT 9 19 11 21 20 23 17 25
REMARK Flexibility Score: inf
ROOT
ATOM      1  C   UNL     1      15.664   5.126 141.359  1.00  0.00     0.138 A 
ATOM      2  C   UNL     1      16.251   6.341 141.752  1.00  0.00     0.100 A 
ATOM      3  C   UNL     1      17.637   6.485 141.694  1.00  0.00     0.197 A 
ATOM      4  O   UNL     1      18.153   7.579 142.050  1.00  0.00    -0.289 OA
ATOM      5  C   UNL     1      18.430   5.410 141.245  1.00  0.00     0.107 A 
ATOM      6  C   UNL     1      19.841   5.474 141.154  1.00  0.00     0.134 A 
ATOM      7  C   UNL     1      20.558   4.356 140.702  1.00  0.00     0.093 A 
ATOM      8  C   UNL     1      19.895   3.182 140.340  1.00  0.00     0.123 A 
ATOM      9  C   UNL     1      18.500   3.113 140.428  1.00  0.00     0.094 A 
ATOM     10  C   UNL     1      17.766   4.216 140.875  1.00  0.00     0.146 A 
ATOM     11  O   UNL     1      16.443   4.127 140.948  1.00  0.00    -0.456 OA
ENDROOT
BRANCH   1  12
ATOM     12  C   UNL     1      14.195   4.915 141.401  1.00  0.00     0.021 A 
ATOM     13  C   UNL     1      13.665   3.671 141.021  1.00  0.00     0.016 A 
ATOM     14  C   UNL     1      12.285   3.448 141.045  1.00  0.00     0.051 A 
ATOM     15  C   UNL     1      11.412   4.469 141.438  1.00  0.00     0.157 A 
ATOM     16  C   UNL     1      13.310   5.943 141.783  1.00  0.00     0.062 A 
ATOM     17  C   UNL     1      11.928   5.723 141.805  1.00  0.00     0.158 A 
BRANCH  15  18
ATOM     18  O   UNL     1      10.036   4.244 141.463  1.00  0.00    -0.504 OA
ATOM     19  H   UNL     1       9.589   3.620 140.801  1.00  0.00     0.293 HD
ENDBRANCH  15  18
BRANCH  17  20
ATOM     20  O   UNL     1      11.083   6.764 142.190  1.00  0.00    -0.504 OA
ATOM     21  H   UNL     1      11.150   7.203 143.101  1.00  0.00     0.293 HD
ENDBRANCH  17  20
ENDBRANCH   1  12
BRANCH   6  22
ATOM     22  O   UNL     1      20.532   6.632 141.508  1.00  0.00    -0.507 OA
ATOM     23  H   UNL     1      21.532   6.721 141.369  1.00  0.00     0.293 HD
ENDBRANCH   6  22
BRANCH   8  24
ATOM     24  O   UNL     1      20.632   2.086 139.895  1.00  0.00    -0.508 OA
ATOM     25  H   UNL     1      20.298   1.137 140.020  1.00  0.00     0.293 HD
ENDBRANCH   8  24
TORSDOF 5
ENDMDL
MODEL 6
REMARK VINA RESULT:    -6.592     12.352     14.050
REMARK INTER + INTRA:          -8.014
REMARK INTER:                  -7.717
REMARK INTRA:                  -0.296
REMARK UNBOUND:                -0.265
REMARK SMILES O=c1cc(-c2ccc(O)c(O)c2)oc2cc(O)cc(O)c12
REMARK SMILES IDX 4 1 3 2 2 3 1 4 21 5 19 6 18 7 16 8 15 9 14 10 13 11 5 12
REMARK SMILES IDX 6 13 7 14 8 15 12 16 10 17 9 18 11 20 20 22 17 24
REMARK H PARENT 9 19 11 21 20 23 17 25
REMARK Flexibility Score: inf
ROOT
ATOM      1  C   UNL     1      12.767   4.408 141.510  1.00  0.00     0.138 A 
ATOM      2  C   UNL     1      12.756   3.024 141.752  1.00  0.00     0.100 A 
ATOM      3  C   UNL     1      11.537   2.353 141.846  1.00  0.00     0.197 A 
ATOM      4  O   UNL     1      11.538   1.111 142.065  1.00  0.00    -0.289 OA
ATOM      5  C   UNL     1      10.334   3.073 141.700  1.00  0.00     0.107 A 
ATOM      6  C   UNL     1       9.056   2.469 141.780  1.00  0.00     0.134 A 
ATOM      7  C   UNL     1       7.905   3.257 141.630  1.00  0.00     0.093 A 
ATOM      8  C   UNL     1       8.007   4.631 141.401  1.00  0.00     0.123 A 
ATOM      9  C   UNL     1       9.267   5.233 141.322  1.00  0.00     0.094 A 
ATOM     10  C   UNL     1      10.427   4.465 141.468  1.00  0.00     0.146 A 
ATOM     11  O   UNL     1      11.612   5.060 141.387  1.00  0.00    -0.456 OA
ENDROOT
BRANCH   1  12
ATOM     12  C   UNL     1      14.034   5.175 141.401  1.00  0.00     0.021 A 
ATOM     13  C   UNL     1      13.991   6.578 141.367  1.00  0.00     0.016 A 
ATOM     14  C   UNL     1      15.169   7.324 141.258  1.00  0.00     0.051 A 
ATOM     15  C   UNL     1      16.408   6.678 141.171  1.00  0.00     0.157 A 
ATOM     16  C   UNL     1      15.283   4.530 141.300  1.00  0.00     0.062 A 
ATOM     17  C   UNL     1      16.463   5.274 141.188  1.00  0.00     0.158 A 
BRANCH  15  18
ATOM     18  O   UNL     1      17.581   7.424 141.064  1.00  0.00    -0.504 OA
ATOM     19  H   UNL     1      18.067   7.525 140.181  1.00  0.00     0.293 HD
ENDBRANCH  15  18
BRANCH  17  20
ATOM     20  O   UNL     1      17.681   4.601 141.091  1.00  0.00    -0.504 OA
ATOM     21  H   UNL     1      18.156   4.471 140.205  1.00  0.00     0.293 HD
ENDBRANCH  17  20
ENDBRANCH   1  12
BRANCH   6  22
ATOM     22  O   UNL     1       8.922   1.099 142.007  1.00  0.00    -0.507 OA
ATOM     23  H   UNL     1       9.334   0.412 141.387  1.00  0.00     0.293 HD
ENDBRANCH   6  22
BRANCH   8  24
ATOM     24  O   UNL     1       6.848   5.391 141.257  1.00  0.00    -0.508 OA
ATOM     25  H   UNL     1       6.878   6.404 141.233  1.00  0.00     0.293 HD
ENDBRANCH   8  24
TORSDOF 5
ENDMDL
MODEL 7
REMARK VINA RESULT:    -6.557     11.194     13.238
REMARK INTER + INTRA:          -7.972
REMARK INTER:                  -7.691
REMARK INTRA:                  -0.282
REMARK UNBOUND:                -0.265
REMARK SMILES O=c1cc(-c2ccc(O)c(O)c2)oc2cc(O)cc(O)c12
REMARK SMILES IDX 4 1 3 2 2 3 1 4 21 5 19 6 18 7 16 8 15 9 14 10 13 11 5 12
REMARK SMILES IDX 6 13 7 14 8 15 12 16 10 17 9 18 11 20 20 22 17 24
REMARK H PARENT 9 19 11 21 20 23 17 25
REMARK Flexibility Score: inf
ROOT
ATOM      1  C   UNL     1      14.263   5.396 141.298  1.00  0.00     0.138 A 
ATOM      2  C   UNL     1      13.257   6.280 141.721  1.00  0.00     0.100 A 
ATOM      3  C   UNL     1      11.932   5.846 141.758  1.00  0.00     0.197 A 
ATOM      4  O   UNL     1      11.036   6.649 142.137  1.00  0.00    -0.289 OA
ATOM      5  C   UNL     1      11.621   4.528 141.369  1.00  0.00     0.107 A 
ATOM      6  C   UNL     1      10.304   4.008 141.378  1.00  0.00     0.134 A 
ATOM      7  C   UNL     1      10.078   2.685 140.970  1.00  0.00     0.093 A 
ATOM      8  C   UNL     1      11.137   1.876 140.554  1.00  0.00     0.123 A 
ATOM      9  C   UNL     1      12.440   2.384 140.542  1.00  0.00     0.094 A 
ATOM     10  C   UNL     1      12.688   3.700 140.947  1.00  0.00     0.146 A 
ATOM     11  O   UNL     1      13.934   4.160 140.928  1.00  0.00    -0.456 OA
ENDROOT
BRANCH   1  12
ATOM     12  C   UNL     1      15.690   5.803 141.237  1.00  0.00     0.021 A 
ATOM     13  C   UNL     1      16.486   5.372 140.163  1.00  0.00     0.016 A 
ATOM     14  C   UNL     1      17.833   5.735 140.085  1.00  0.00     0.051 A 
ATOM     15  C   UNL     1      18.411   6.526 141.086  1.00  0.00     0.157 A 
ATOM     16  C   UNL     1      16.280   6.587 142.248  1.00  0.00     0.062 A 
ATOM     17  C   UNL     1      17.630   6.950 142.174  1.00  0.00     0.158 A 
BRANCH  15  18
ATOM     18  O   UNL     1      19.754   6.889 141.005  1.00  0.00    -0.504 OA
ATOM     19  H   UNL     1      20.341   6.938 141.830  1.00  0.00     0.293 HD
ENDBRANCH  15  18
BRANCH  17  20
ATOM     20  O   UNL     1      18.178   7.729 143.193  1.00  0.00    -0.504 OA
ATOM     21  H   UNL     1      17.613   8.115 143.940  1.00  0.00     0.293 HD
ENDBRANCH  17  20
ENDBRANCH   1  12
BRANCH   6  22
ATOM     22  O   UNL     1       9.226   4.792 141.788  1.00  0.00    -0.507 OA
ATOM     23  H   UNL     1       9.010   4.933 142.768  1.00  0.00     0.293 HD
ENDBRANCH   6  22
BRANCH   8  24
ATOM     24  O   UNL     1      10.883   0.566 140.153  1.00  0.00    -0.508 OA
ATOM     25  H   UNL     1      10.991  -0.214 140.791  1.00  0.00     0.293 HD
ENDBRANCH   8  24
TORSDOF 5
ENDMDL
MODEL 8
REMARK VINA RESULT:    -6.480     11.917     14.088
REMARK INTER + INTRA:          -7.881
REMARK INTER:                  -7.580
REMARK INTRA:                  -0.301
REMARK UNBOUND:                -0.265
REMARK SMILES O=c1cc(-c2ccc(O)c(O)c2)oc2cc(O)cc(O)c12
REMARK SMILES IDX 4 1 3 2 2 3 1 4 21 5 19 6 18 7 16 8 15 9 14 10 13 11 5 12
REMARK SMILES IDX 6 13 7 14 8 15 12 16 10 17 9 18 11 20 20 22 17 24
REMARK H PARENT 9 19 11 21 20 23 17 25
REMARK Flexibility Score: inf
ROOT
ATOM      1  C   UNL     1      13.866   4.585 141.317  1.00  0.00     0.138 A 
ATOM      2  C   UNL     1      14.455   3.361 141.677  1.00  0.00     0.100 A 
ATOM      3  C   UNL     1      15.842   3.225 141.623  1.00  0.00     0.197 A 
ATOM      4  O   UNL     1      16.361   2.122 141.946  1.00  0.00    -0.289 OA
ATOM      5  C   UNL     1      16.633   4.314 141.206  1.00  0.00     0.107 A 
ATOM      6  C   UNL     1      18.045   4.260 141.125  1.00  0.00     0.134 A 
ATOM      7  C   UNL     1      18.759   5.389 140.695  1.00  0.00     0.093 A 
ATOM      8  C   UNL     1      18.092   6.565 140.346  1.00  0.00     0.123 A 
ATOM      9  C   UNL     1      16.696   6.624 140.424  1.00  0.00     0.094 A 
ATOM     10  C   UNL     1      15.965   5.511 140.852  1.00  0.00     0.146 A 
ATOM     11  O   UNL     1      14.641   5.592 140.919  1.00  0.00    -0.456 OA
ENDROOT
BRANCH   1  12
ATOM     12  C   UNL     1      12.395   4.788 141.354  1.00  0.00     0.021 A 
ATOM     13  C   UNL     1      11.543   3.730 140.996  1.00  0.00     0.016 A 
ATOM     14  C   UNL     1      10.155   3.897 141.015  1.00  0.00     0.051 A 
ATOM     15  C   UNL     1       9.597   5.127 141.382  1.00  0.00     0.157 A 
ATOM     16  C   UNL     1      11.827   6.027 141.710  1.00  0.00     0.062 A 
ATOM     17  C   UNL     1      10.438   6.198 141.727  1.00  0.00     0.158 A 
BRANCH  15  18
ATOM     18  O   UNL     1       8.212   5.290 141.403  1.00  0.00    -0.504 OA
ATOM     19  H   UNL     1       7.602   4.717 140.832  1.00  0.00     0.293 HD
ENDBRANCH  15  18
BRANCH  17  20
ATOM     20  O   UNL     1       9.913   7.438 142.086  1.00  0.00    -0.504 OA
ATOM     21  H   UNL     1      10.219   7.934 142.916  1.00  0.00     0.293 HD
ENDBRANCH  17  20
ENDBRANCH   1  12
BRANCH   6  22
ATOM     22  O   UNL     1      18.740   3.100 141.467  1.00  0.00    -0.507 OA
ATOM     23  H   UNL     1      19.240   2.554 140.775  1.00  0.00     0.293 HD
ENDBRANCH   6  22
BRANCH   8  24
ATOM     24  O   UNL     1      18.825   7.670 139.921  1.00  0.00    -0.508 OA
ATOM     25  H   UNL     1      18.374   8.475 139.499  1.00  0.00     0.293 HD
ENDBRANCH   8  24
TORSDOF 5
ENDMDL
