MODEL 1
REMARK VINA RESULT:    -6.029      0.000      0.000
REMARK INTER + INTRA:         -13.756
REMARK INTER:                 -11.668
REMARK INTRA:                  -2.088
REMARK UNBOUND:                -2.088
REMARK SMILES CCCCCCCCCCCCCCCCCC(=O)[O-]
REMARK SMILES IDX 10 1 11 2 12 3 13 4 14 5 15 6 16 7 17 8 18 9 19 10 20 11
REMARK SMILES IDX 9 12 8 13 7 14 6 15 5 16 4 17 3 18 2 19 1 20
REMARK H PARENT
REMARK Flexibility Score: inf
ROOT
ATOM      1  C   UNL     1      25.828   0.902  62.586  1.00  0.00     0.000 C 
ENDROOT
BRANCH   1   2
ATOM      2  C   UNL     1      25.057  -0.284  61.988  1.00  0.00     0.000 C 
BRANCH   2   3
ATOM      3  C   UNL     1      25.981  -1.398  61.461  1.00  0.00     0.000 C 
BRANCH   3   4
ATOM      4  C   UNL     1      25.569  -2.829  61.854  1.00  0.00     0.000 C 
BRANCH   4   5
ATOM      5  C   UNL     1      24.258  -2.875  62.659  1.00  0.00     0.000 C 
BRANCH   5   6
ATOM      6  C   UNL     1      23.136  -3.620  61.915  1.00  0.00     0.000 C 
BRANCH   6   7
ATOM      7  C   UNL     1      23.533  -4.005  60.479  1.00  0.00     0.006 C 
BRANCH   7   8
ATOM      8  C   UNL     1      22.928  -3.053  59.438  1.00  0.00     0.053 C 
BRANCH   8   9
ATOM      9  C   UNL     1      23.797  -2.931  58.224  1.00  0.00     0.041 C 
ATOM     10  O   UNL     1      23.287  -2.684  57.100  1.00  0.00    -0.550 OA
ATOM     11  O   UNL     1      25.176  -3.060  58.341  1.00  0.00    -0.550 OA
ENDBRANCH   8   9
ENDBRANCH   7   8
ENDBRANCH   6   7
ENDBRANCH   5   6
ENDBRANCH   4   5
ENDBRANCH   3   4
ENDBRANCH   2   3
ENDBRANCH   1   2
BRANCH   1  12
ATOM     12  C   UNL     1      25.275   2.236  62.064  1.00  0.00     0.000 C 
BRANCH  12  13
ATOM     13  C   UNL     1      25.652   3.425  62.960  1.00  0.00    -0.000 C 
BRANCH  13  14
ATOM     14  C   UNL     1      24.462   3.944  63.787  1.00  0.00    -0.000 C 
BRANCH  14  15
ATOM     15  C   UNL     1      24.369   3.281  65.169  1.00  0.00    -0.000 C 
BRANCH  15  16
ATOM     16  C   UNL     1      22.967   2.727  65.464  1.00  0.00    -0.000 C 
BRANCH  16  17
ATOM     17  C   UNL     1      21.984   3.100  64.347  1.00  0.00    -0.000 C 
BRANCH  17  18
ATOM     18  C   UNL     1      21.256   1.855  63.817  1.00  0.00    -0.000 C 
BRANCH  18  19
ATOM     19  C   UNL     1      21.854   1.337  62.499  1.00  0.00    -0.003 C 
ATOM     20  C   UNL     1      21.432  -0.098  62.182  1.00  0.00     0.004 C 
ENDBRANCH  18  19
ENDBRANCH  17  18
ENDBRANCH  16  17
ENDBRANCH  15  16
ENDBRANCH  14  15
ENDBRANCH  13  14
ENDBRANCH  12  13
ENDBRANCH   1  12
TORSDOF 16
ENDMDL
MODEL 2
REMARK VINA RESULT:    -6.028      3.384      6.826
REMARK INTER + INTRA:         -13.755
REMARK INTER:                 -11.726
REMARK INTRA:                  -2.029
REMARK UNBOUND:                -2.088
REMARK SMILES CCCCCCCCCCCCCCCCCC(=O)[O-]
REMARK SMILES IDX 10 1 11 2 12 3 13 4 14 5 15 6 16 7 17 8 18 9 19 10 20 11
REMARK SMILES IDX 9 12 8 13 7 14 6 15 5 16 4 17 3 18 2 19 1 20
REMARK H PARENT
REMARK Flexibility Score: inf
ROOT
ATOM      1  C   UNL     1      25.406  -2.271  62.189  1.00  0.00     0.000 C 
ENDROOT
BRANCH   1   2
ATOM      2  C   UNL     1      25.913  -0.939  61.618  1.00  0.00     0.000 C 
BRANCH   2   3
ATOM      3  C   UNL     1      25.103   0.275  62.113  1.00  0.00     0.000 C 
BRANCH   3   4
ATOM      4  C   UNL     1      25.942   1.427  62.696  1.00  0.00     0.000 C 
BRANCH   4   5
ATOM      5  C   UNL     1      25.415   2.815  62.293  1.00  0.00     0.000 C 
BRANCH   5   6
ATOM      6  C   UNL     1      23.922   2.795  61.924  1.00  0.00     0.000 C 
BRANCH   6   7
ATOM      7  C   UNL     1      23.006   2.951  63.151  1.00  0.00     0.006 C 
BRANCH   7   8
ATOM      8  C   UNL     1      23.606   3.896  64.201  1.00  0.00     0.053 C 
BRANCH   8   9
ATOM      9  C   UNL     1      23.989   3.167  65.452  1.00  0.00     0.041 C 
ATOM     10  O   UNL     1      25.202   3.031  65.762  1.00  0.00    -0.550 OA
ATOM     11  O   UNL     1      23.004   2.663  66.292  1.00  0.00    -0.550 OA
ENDBRANCH   8   9
ENDBRANCH   7   8
ENDBRANCH   6   7
ENDBRANCH   5   6
ENDBRANCH   4   5
ENDBRANCH   3   4
ENDBRANCH   2   3
ENDBRANCH   1   2
BRANCH   1  12
ATOM     12  C   UNL     1      25.525  -3.394  61.149  1.00  0.00     0.000 C 
BRANCH  12  13
ATOM     13  C   UNL     1      26.011  -2.887  59.783  1.00  0.00    -0.000 C 
BRANCH  13  14
ATOM     14  C   UNL     1      24.926  -2.985  58.695  1.00  0.00    -0.000 C 
BRANCH  14  15
ATOM     15  C   UNL     1      23.547  -3.351  59.266  1.00  0.00    -0.000 C 
BRANCH  15  16
ATOM     16  C   UNL     1      22.415  -2.511  58.656  1.00  0.00    -0.000 C 
BRANCH  16  17
ATOM     17  C   UNL     1      21.380  -2.129  59.723  1.00  0.00    -0.000 C 
BRANCH  17  18
ATOM     18  C   UNL     1      21.906  -2.435  61.133  1.00  0.00    -0.000 C 
BRANCH  18  19
ATOM     19  C   UNL     1      21.893  -1.202  62.050  1.00  0.00    -0.003 C 
ATOM     20  C   UNL     1      21.092  -0.038  61.464  1.00  0.00     0.004 C 
ENDBRANCH  18  19
ENDBRANCH  17  18
ENDBRANCH  16  17
ENDBRANCH  15  16
ENDBRANCH  14  15
ENDBRANCH  13  14
ENDBRANCH  12  13
ENDBRANCH   1  12
TORSDOF 16
ENDMDL
MODEL 3
REMARK VINA RESULT:    -5.926      2.435      6.515
REMARK INTER + INTRA:         -13.556
REMARK INTER:                 -11.591
REMARK INTRA:                  -1.965
REMARK UNBOUND:                -2.088
REMARK SMILES CCCCCCCCCCCCCCCCCC(=O)[O-]
REMARK SMILES IDX 10 1 11 2 12 3 13 4 14 5 15 6 16 7 17 8 18 9 19 10 20 11
REMARK SMILES IDX 9 12 8 13 7 14 6 15 5 16 4 17 3 18 2 19 1 20
REMARK H PARENT
REMARK Flexibility Score: inf
ROOT
ATOM      1  C   UNL     1      25.145   0.037  62.010  1.00  0.00     0.000 C 
ENDROOT
BRANCH   1   2
ATOM      2  C   UNL     1      25.927   1.135  62.746  1.00  0.00     0.000 C 
BRANCH   2   3
ATOM      3  C   UNL     1      25.607   2.551  62.230  1.00  0.00     0.000 C 
BRANCH   3   4
ATOM      4  C   UNL     1      25.535   3.641  63.315  1.00  0.00     0.000 C 
BRANCH   4   5
ATOM      5  C   UNL     1      25.434   3.065  64.738  1.00  0.00     0.000 C 
BRANCH   5   6
ATOM      6  C   UNL     1      23.989   3.038  65.263  1.00  0.00     0.000 C 
BRANCH   6   7
ATOM      7  C   UNL     1      23.006   3.764  64.327  1.00  0.00     0.006 C 
BRANCH   7   8
ATOM      8  C   UNL     1      21.707   2.971  64.127  1.00  0.00     0.053 C 
BRANCH   8   9
ATOM      9  C   UNL     1      21.823   1.987  63.004  1.00  0.00     0.041 C 
ATOM     10  O   UNL     1      22.434   2.298  61.948  1.00  0.00    -0.550 OA
ATOM     11  O   UNL     1      21.281   0.715  63.136  1.00  0.00    -0.550 OA
ENDBRANCH   8   9
ENDBRANCH   7   8
ENDBRANCH   6   7
ENDBRANCH   5   6
ENDBRANCH   4   5
ENDBRANCH   3   4
ENDBRANCH   2   3
ENDBRANCH   1   2
BRANCH   1  12
ATOM     12  C   UNL     1      26.002  -1.225  61.838  1.00  0.00     0.000 C 
BRANCH  12  13
ATOM     13  C   UNL     1      26.221  -1.596  60.364  1.00  0.00    -0.000 C 
BRANCH  13  14
ATOM     14  C   UNL     1      25.748  -3.024  60.036  1.00  0.00    -0.000 C 
BRANCH  14  15
ATOM     15  C   UNL     1      25.050  -3.118  58.671  1.00  0.00    -0.000 C 
BRANCH  15  16
ATOM     16  C   UNL     1      23.519  -3.068  58.786  1.00  0.00    -0.000 C 
BRANCH  16  17
ATOM     17  C   UNL     1      23.050  -3.673  60.116  1.00  0.00    -0.000 C 
BRANCH  17  18
ATOM     18  C   UNL     1      22.197  -2.668  60.906  1.00  0.00    -0.000 C 
BRANCH  18  19
ATOM     19  C   UNL     1      22.683  -2.491  62.353  1.00  0.00    -0.003 C 
ATOM     20  C   UNL     1      23.510  -3.677  62.849  1.00  0.00     0.004 C 
ENDBRANCH  18  19
ENDBRANCH  17  18
ENDBRANCH  16  17
ENDBRANCH  15  16
ENDBRANCH  14  15
ENDBRANCH  13  14
ENDBRANCH  12  13
ENDBRANCH   1  12
TORSDOF 16
ENDMDL
MODEL 4
REMARK VINA RESULT:    -5.890      1.749      2.301
REMARK INTER + INTRA:         -13.488
REMARK INTER:                 -11.686
REMARK INTRA:                  -1.802
REMARK UNBOUND:                -2.088
REMARK SMILES CCCCCCCCCCCCCCCCCC(=O)[O-]
REMARK SMILES IDX 10 1 11 2 12 3 13 4 14 5 15 6 16 7 17 8 18 9 19 10 20 11
REMARK SMILES IDX 9 12 8 13 7 14 6 15 5 16 4 17 3 18 2 19 1 20
REMARK H PARENT
REMARK Flexibility Score: inf
ROOT
ATOM      1  C   UNL     1      25.876   0.857  62.546  1.00  0.00     0.000 C 
ENDROOT
BRANCH   1   2
ATOM      2  C   UNL     1      25.095  -0.317  61.936  1.00  0.00     0.000 C 
BRANCH   2   3
ATOM      3  C   UNL     1      25.984  -1.536  61.630  1.00  0.00     0.000 C 
BRANCH   3   4
ATOM      4  C   UNL     1      26.307  -1.751  60.140  1.00  0.00     0.000 C 
BRANCH   4   5
ATOM      5  C   UNL     1      25.838  -3.121  59.616  1.00  0.00     0.000 C 
BRANCH   5   6
ATOM      6  C   UNL     1      24.678  -3.003  58.613  1.00  0.00     0.000 C 
BRANCH   6   7
ATOM      7  C   UNL     1      23.300  -3.023  59.298  1.00  0.00     0.006 C 
BRANCH   7   8
ATOM      8  C   UNL     1      23.272  -3.963  60.511  1.00  0.00     0.053 C 
BRANCH   8   9
ATOM      9  C   UNL     1      22.910  -3.237  61.770  1.00  0.00     0.041 C 
ATOM     10  O   UNL     1      22.126  -2.252  61.732  1.00  0.00    -0.550 OA
ATOM     11  O   UNL     1      23.414  -3.669  62.991  1.00  0.00    -0.550 OA
ENDBRANCH   8   9
ENDBRANCH   7   8
ENDBRANCH   6   7
ENDBRANCH   5   6
ENDBRANCH   4   5
ENDBRANCH   3   4
ENDBRANCH   2   3
ENDBRANCH   1   2
BRANCH   1  12
ATOM     12  C   UNL     1      25.342   2.200  62.027  1.00  0.00     0.000 C 
BRANCH  12  13
ATOM     13  C   UNL     1      25.539   3.343  63.034  1.00  0.00    -0.000 C 
BRANCH  13  14
ATOM     14  C   UNL     1      26.020   2.846  64.408  1.00  0.00    -0.000 C 
BRANCH  14  15
ATOM     15  C   UNL     1      24.968   3.045  65.511  1.00  0.00    -0.000 C 
BRANCH  15  16
ATOM     16  C   UNL     1      23.632   3.569  64.963  1.00  0.00    -0.000 C 
BRANCH  16  17
ATOM     17  C   UNL     1      22.484   2.613  65.310  1.00  0.00    -0.000 C 
BRANCH  17  18
ATOM     18  C   UNL     1      21.441   2.573  64.182  1.00  0.00    -0.000 C 
BRANCH  18  19
ATOM     19  C   UNL     1      22.003   1.985  62.879  1.00  0.00    -0.003 C 
ATOM     20  C   UNL     1      21.149   0.843  62.329  1.00  0.00     0.004 C 
ENDBRANCH  18  19
ENDBRANCH  17  18
ENDBRANCH  16  17
ENDBRANCH  15  16
ENDBRANCH  14  15
ENDBRANCH  13  14
ENDBRANCH  12  13
ENDBRANCH   1  12
TORSDOF 16
ENDMDL
MODEL 5
REMARK VINA RESULT:    -5.874      0.584      1.534
REMARK INTER + INTRA:         -13.456
REMARK INTER:                 -11.403
REMARK INTRA:                  -2.053
REMARK UNBOUND:                -2.088
REMARK SMILES CCCCCCCCCCCCCCCCCC(=O)[O-]
REMARK SMILES IDX 10 1 11 2 12 3 13 4 14 5 15 6 16 7 17 8 18 9 19 10 20 11
REMARK SMILES IDX 9 12 8 13 7 14 6 15 5 16 4 17 3 18 2 19 1 20
REMARK H PARENT
REMARK Flexibility Score: inf
ROOT
ATOM      1  C   UNL     1      25.170   2.323  62.000  1.00  0.00     0.000 C 
ENDROOT
BRANCH   1   2
ATOM      2  C   UNL     1      25.671   1.010  62.619  1.00  0.00     0.000 C 
BRANCH   2   3
ATOM      3  C   UNL     1      24.987  -0.235  62.025  1.00  0.00     0.000 C 
BRANCH   3   4
ATOM      4  C   UNL     1      25.944  -1.348  61.559  1.00  0.00     0.000 C 
BRANCH   4   5
ATOM      5  C   UNL     1      25.507  -2.748  62.025  1.00  0.00     0.000 C 
BRANCH   5   6
ATOM      6  C   UNL     1      24.032  -2.792  62.458  1.00  0.00     0.000 C 
BRANCH   6   7
ATOM      7  C   UNL     1      23.140  -3.534  61.447  1.00  0.00     0.006 C 
BRANCH   7   8
ATOM      8  C   UNL     1      23.945  -4.080  60.260  1.00  0.00     0.053 C 
BRANCH   8   9
ATOM      9  C   UNL     1      23.850  -3.183  59.064  1.00  0.00     0.041 C 
ATOM     10  O   UNL     1      24.849  -3.013  58.317  1.00  0.00    -0.550 OA
ATOM     11  O   UNL     1      22.647  -2.559  58.757  1.00  0.00    -0.550 OA
ENDBRANCH   8   9
ENDBRANCH   7   8
ENDBRANCH   6   7
ENDBRANCH   5   6
ENDBRANCH   4   5
ENDBRANCH   3   4
ENDBRANCH   2   3
ENDBRANCH   1   2
BRANCH   1  12
ATOM     12  C   UNL     1      25.693   3.534  62.785  1.00  0.00     0.000 C 
BRANCH  12  13
ATOM     13  C   UNL     1      24.653   4.100  63.763  1.00  0.00    -0.000 C 
BRANCH  13  14
ATOM     14  C   UNL     1      24.611   3.329  65.095  1.00  0.00    -0.000 C 
BRANCH  14  15
ATOM     15  C   UNL     1      23.180   2.965  65.522  1.00  0.00    -0.000 C 
BRANCH  15  16
ATOM     16  C   UNL     1      22.147   3.242  64.420  1.00  0.00    -0.000 C 
BRANCH  16  17
ATOM     17  C   UNL     1      21.320   1.985  64.115  1.00  0.00    -0.000 C 
BRANCH  17  18
ATOM     18  C   UNL     1      21.741   1.363  62.775  1.00  0.00    -0.000 C 
BRANCH  18  19
ATOM     19  C   UNL     1      21.223  -0.074  62.603  1.00  0.00    -0.003 C 
ATOM     20  C   UNL     1      21.116  -0.492  61.137  1.00  0.00     0.004 C 
ENDBRANCH  18  19
ENDBRANCH  17  18
ENDBRANCH  16  17
ENDBRANCH  15  16
ENDBRANCH  14  15
ENDBRANCH  13  14
ENDBRANCH  12  13
ENDBRANCH   1  12
TORSDOF 16
ENDMDL
MODEL 6
REMARK VINA RESULT:    -5.833      2.188      3.198
REMARK INTER + INTRA:         -13.378
REMARK INTER:                 -11.316
REMARK INTRA:                  -2.061
REMARK UNBOUND:                -2.088
REMARK SMILES CCCCCCCCCCCCCCCCCC(=O)[O-]
REMARK SMILES IDX 10 1 11 2 12 3 13 4 14 5 15 6 16 7 17 8 18 9 19 10 20 11
REMARK SMILES IDX 9 12 8 13 7 14 6 15 5 16 4 17 3 18 2 19 1 20
REMARK H PARENT
REMARK Flexibility Score: inf
ROOT
ATOM      1  C   UNL     1      25.908  -1.146  61.558  1.00  0.00     0.000 C 
ENDROOT
BRANCH   1   2
ATOM      2  C   UNL     1      25.526  -2.569  61.991  1.00  0.00     0.000 C 
BRANCH   2   3
ATOM      3  C   UNL     1      25.546  -3.578  60.827  1.00  0.00     0.000 C 
BRANCH   3   4
ATOM      4  C   UNL     1      25.395  -2.960  59.425  1.00  0.00     0.000 C 
BRANCH   4   5
ATOM      5  C   UNL     1      23.948  -3.008  58.902  1.00  0.00     0.000 C 
BRANCH   5   6
ATOM      6  C   UNL     1      22.993  -3.720  59.874  1.00  0.00     0.000 C 
BRANCH   6   7
ATOM      7  C   UNL     1      21.817  -2.828  60.308  1.00  0.00     0.006 C 
BRANCH   7   8
ATOM      8  C   UNL     1      22.109  -2.084  61.618  1.00  0.00     0.053 C 
BRANCH   8   9
ATOM      9  C   UNL     1      21.343  -0.800  61.713  1.00  0.00     0.041 C 
ATOM     10  O   UNL     1      21.070  -0.305  62.837  1.00  0.00    -0.550 OA
ATOM     11  O   UNL     1      20.956  -0.136  60.555  1.00  0.00    -0.550 OA
ENDBRANCH   8   9
ENDBRANCH   7   8
ENDBRANCH   6   7
ENDBRANCH   5   6
ENDBRANCH   4   5
ENDBRANCH   3   4
ENDBRANCH   2   3
ENDBRANCH   1   2
BRANCH   1  12
ATOM     12  C   UNL     1      25.144  -0.099  62.381  1.00  0.00     0.000 C 
BRANCH  12  13
ATOM     13  C   UNL     1      25.904   1.231  62.499  1.00  0.00    -0.000 C 
BRANCH  13  14
ATOM     14  C   UNL     1      26.301   1.559  63.950  1.00  0.00    -0.000 C 
BRANCH  14  15
ATOM     15  C   UNL     1      26.054   3.032  64.312  1.00  0.00    -0.000 C 
BRANCH  15  16
ATOM     16  C   UNL     1      24.739   3.238  65.078  1.00  0.00    -0.000 C 
BRANCH  16  17
ATOM     17  C   UNL     1      23.694   3.935  64.198  1.00  0.00    -0.000 C 
BRANCH  17  18
ATOM     18  C   UNL     1      22.626   2.940  63.719  1.00  0.00    -0.000 C 
BRANCH  18  19
ATOM     19  C   UNL     1      22.681   2.699  62.202  1.00  0.00    -0.003 C 
ATOM     20  C   UNL     1      23.491   3.764  61.463  1.00  0.00     0.004 C 
ENDBRANCH  18  19
ENDBRANCH  17  18
ENDBRANCH  16  17
ENDBRANCH  15  16
ENDBRANCH  14  15
ENDBRANCH  13  14
ENDBRANCH  12  13
ENDBRANCH   1  12
TORSDOF 16
ENDMDL
MODEL 7
REMARK VINA RESULT:    -5.753      1.203      3.357
REMARK INTER + INTRA:         -13.222
REMARK INTER:                 -11.229
REMARK INTRA:                  -1.994
REMARK UNBOUND:                -2.088
REMARK SMILES CCCCCCCCCCCCCCCCCC(=O)[O-]
REMARK SMILES IDX 10 1 11 2 12 3 13 4 14 5 15 6 16 7 17 8 18 9 19 10 20 11
REMARK SMILES IDX 9 12 8 13 7 14 6 15 5 16 4 17 3 18 2 19 1 20
REMARK H PARENT
REMARK Flexibility Score: inf
ROOT
ATOM      1  C   UNL     1      21.967   1.576  62.520  1.00  0.00     0.000 C 
ENDROOT
BRANCH   1   2
ATOM      2  C   UNL     1      21.004   0.463  62.079  1.00  0.00     0.000 C 
BRANCH   2   3
ATOM      3  C   UNL     1      21.679  -0.920  62.001  1.00  0.00     0.000 C 
BRANCH   3   4
ATOM      4  C   UNL     1      21.278  -1.775  60.784  1.00  0.00     0.000 C 
BRANCH   4   5
ATOM      5  C   UNL     1      22.237  -2.953  60.538  1.00  0.00     0.000 C 
BRANCH   5   6
ATOM      6  C   UNL     1      23.187  -3.198  61.723  1.00  0.00     0.000 C 
BRANCH   6   7
ATOM      7  C   UNL     1      24.314  -4.189  61.383  1.00  0.00     0.006 C 
BRANCH   7   8
ATOM      8  C   UNL     1      25.670  -3.489  61.224  1.00  0.00     0.053 C 
BRANCH   8   9
ATOM      9  C   UNL     1      25.887  -3.006  59.823  1.00  0.00     0.041 C 
ATOM     10  O   UNL     1      25.209  -3.482  58.875  1.00  0.00    -0.550 OA
ATOM     11  O   UNL     1      26.818  -2.006  59.569  1.00  0.00    -0.550 OA
ENDBRANCH   8   9
ENDBRANCH   7   8
ENDBRANCH   6   7
ENDBRANCH   5   6
ENDBRANCH   4   5
ENDBRANCH   3   4
ENDBRANCH   2   3
ENDBRANCH   1   2
BRANCH   1  12
ATOM     12  C   UNL     1      21.362   2.402  63.664  1.00  0.00     0.000 C 
BRANCH  12  13
ATOM     13  C   UNL     1      22.201   2.337  64.949  1.00  0.00    -0.000 C 
BRANCH  13  14
ATOM     14  C   UNL     1      23.185   3.514  65.074  1.00  0.00    -0.000 C 
BRANCH  14  15
ATOM     15  C   UNL     1      24.541   3.091  65.662  1.00  0.00    -0.000 C 
BRANCH  15  16
ATOM     16  C   UNL     1      25.692   3.240  64.656  1.00  0.00    -0.000 C 
BRANCH  16  17
ATOM     17  C   UNL     1      25.162   3.622  63.268  1.00  0.00    -0.000 C 
BRANCH  17  18
ATOM     18  C   UNL     1      25.555   2.569  62.220  1.00  0.00    -0.000 C 
BRANCH  18  19
ATOM     19  C   UNL     1      25.953   1.227  62.852  1.00  0.00    -0.003 C 
ATOM     20  C   UNL     1      25.347   0.027  62.125  1.00  0.00     0.004 C 
ENDBRANCH  18  19
ENDBRANCH  17  18
ENDBRANCH  16  17
ENDBRANCH  15  16
ENDBRANCH  14  15
ENDBRANCH  13  14
ENDBRANCH  12  13
ENDBRANCH   1  12
TORSDOF 16
ENDMDL
MODEL 8
REMARK VINA RESULT:    -5.741      2.252      3.589
REMARK INTER + INTRA:         -13.200
REMARK INTER:                 -11.264
REMARK INTRA:                  -1.936
REMARK UNBOUND:                -2.088
REMARK SMILES CCCCCCCCCCCCCCCCCC(=O)[O-]
REMARK SMILES IDX 10 1 11 2 12 3 13 4 14 5 15 6 16 7 17 8 18 9 19 10 20 11
REMARK SMILES IDX 9 12 8 13 7 14 6 15 5 16 4 17 3 18 2 19 1 20
REMARK H PARENT
REMARK Flexibility Score: inf
ROOT
ATOM      1  C   UNL     1      25.743  -1.007  61.301  1.00  0.00     0.000 C 
ENDROOT
BRANCH   1   2
ATOM      2  C   UNL     1      25.557  -2.376  61.972  1.00  0.00     0.000 C 
BRANCH   2   3
ATOM      3  C   UNL     1      25.433  -3.530  60.960  1.00  0.00     0.000 C 
BRANCH   3   4
ATOM      4  C   UNL     1      25.196  -3.098  59.501  1.00  0.00     0.000 C 
BRANCH   4   5
ATOM      5  C   UNL     1      23.725  -3.234  59.067  1.00  0.00     0.000 C 
BRANCH   5   6
ATOM      6  C   UNL     1      22.798  -3.609  60.236  1.00  0.00     0.000 C 
BRANCH   6   7
ATOM      7  C   UNL     1      21.761  -2.514  60.543  1.00  0.00     0.006 C 
BRANCH   7   8
ATOM      8  C   UNL     1      22.093  -1.752  61.834  1.00  0.00     0.053 C 
BRANCH   8   9
ATOM      9  C   UNL     1      21.286  -0.497  61.962  1.00  0.00     0.041 C 
ATOM     10  O   UNL     1      20.991  -0.045  63.099  1.00  0.00    -0.550 OA
ATOM     11  O   UNL     1      20.886   0.191  60.822  1.00  0.00    -0.550 OA
ENDBRANCH   8   9
ENDBRANCH   7   8
ENDBRANCH   6   7
ENDBRANCH   5   6
ENDBRANCH   4   5
ENDBRANCH   3   4
ENDBRANCH   2   3
ENDBRANCH   1   2
BRANCH   1  12
ATOM     12  C   UNL     1      25.902   0.101  62.352  1.00  0.00     0.000 C 
BRANCH  12  13
ATOM     13  C   UNL     1      24.708   1.067  62.379  1.00  0.00    -0.000 C 
BRANCH  13  14
ATOM     14  C   UNL     1      25.105   2.509  62.015  1.00  0.00    -0.000 C 
BRANCH  14  15
ATOM     15  C   UNL     1      23.890   3.395  61.697  1.00  0.00    -0.000 C 
BRANCH  15  16
ATOM     16  C   UNL     1      22.639   2.986  62.491  1.00  0.00    -0.000 C 
BRANCH  16  17
ATOM     17  C   UNL     1      22.617   3.664  63.867  1.00  0.00    -0.000 C 
BRANCH  17  18
ATOM     18  C   UNL     1      22.695   2.622  64.994  1.00  0.00    -0.000 C 
BRANCH  18  19
ATOM     19  C   UNL     1      23.726   2.993  66.071  1.00  0.00    -0.003 C 
ATOM     20  C   UNL     1      25.158   3.011  65.538  1.00  0.00     0.004 C 
ENDBRANCH  18  19
ENDBRANCH  17  18
ENDBRANCH  16  17
ENDBRANCH  15  16
ENDBRANCH  14  15
ENDBRANCH  13  14
ENDBRANCH  12  13
ENDBRANCH   1  12
TORSDOF 16
ENDMDL
MODEL 9
REMARK VINA RESULT:    -5.668      1.414      2.726
REMARK INTER + INTRA:         -13.058
REMARK INTER:                 -10.931
REMARK INTRA:                  -2.127
REMARK UNBOUND:                -2.088
REMARK SMILES CCCCCCCCCCCCCCCCCC(=O)[O-]
REMARK SMILES IDX 10 1 11 2 12 3 13 4 14 5 15 6 16 7 17 8 18 9 19 10 20 11
REMARK SMILES IDX 9 12 8 13 7 14 6 15 5 16 4 17 3 18 2 19 1 20
REMARK H PARENT
REMARK Flexibility Score: inf
ROOT
ATOM      1  C   UNL     1      26.237  -1.149  61.645  1.00  0.00     0.000 C 
ENDROOT
BRANCH   1   2
ATOM      2  C   UNL     1      25.978  -1.572  60.191  1.00  0.00     0.000 C 
BRANCH   2   3
ATOM      3  C   UNL     1      25.696  -3.079  60.045  1.00  0.00     0.000 C 
BRANCH   3   4
ATOM      4  C   UNL     1      25.427  -3.825  61.365  1.00  0.00     0.000 C 
BRANCH   4   5
ATOM      5  C   UNL     1      23.937  -4.146  61.579  1.00  0.00     0.000 C 
BRANCH   5   6
ATOM      6  C   UNL     1      23.228  -3.100  62.455  1.00  0.00     0.000 C 
BRANCH   6   7
ATOM      7  C   UNL     1      22.241  -2.231  61.656  1.00  0.00     0.006 C 
BRANCH   7   8
ATOM      8  C   UNL     1      21.631  -2.991  60.471  1.00  0.00     0.053 C 
BRANCH   8   9
ATOM      9  C   UNL     1      21.751  -2.218  59.193  1.00  0.00     0.041 C 
ATOM     10  O   UNL     1      22.646  -2.509  58.357  1.00  0.00    -0.550 OA
ATOM     11  O   UNL     1      20.853  -1.196  58.913  1.00  0.00    -0.550 OA
ENDBRANCH   8   9
ENDBRANCH   7   8
ENDBRANCH   6   7
ENDBRANCH   5   6
ENDBRANCH   4   5
ENDBRANCH   3   4
ENDBRANCH   2   3
ENDBRANCH   1   2
BRANCH   1  12
ATOM     12  C   UNL     1      25.320   0.015  62.049  1.00  0.00     0.000 C 
BRANCH  12  13
ATOM     13  C   UNL     1      26.049   1.083  62.878  1.00  0.00    -0.000 C 
BRANCH  13  14
ATOM     14  C   UNL     1      25.594   2.512  62.533  1.00  0.00    -0.000 C 
BRANCH  14  15
ATOM     15  C   UNL     1      24.313   2.536  61.685  1.00  0.00    -0.000 C 
BRANCH  15  16
ATOM     16  C   UNL     1      23.453   3.781  61.951  1.00  0.00    -0.000 C 
BRANCH  16  17
ATOM     17  C   UNL     1      23.351   4.066  63.455  1.00  0.00    -0.000 C 
BRANCH  17  18
ATOM     18  C   UNL     1      22.197   3.274  64.088  1.00  0.00    -0.000 C 
BRANCH  18  19
ATOM     19  C   UNL     1      22.590   2.620  65.421  1.00  0.00    -0.003 C 
ATOM     20  C   UNL     1      24.004   2.992  65.868  1.00  0.00     0.004 C 
ENDBRANCH  18  19
ENDBRANCH  17  18
ENDBRANCH  16  17
ENDBRANCH  15  16
ENDBRANCH  14  15
ENDBRANCH  13  14
ENDBRANCH  12  13
ENDBRANCH   1  12
TORSDOF 16
ENDMDL
