MODEL 1
REMARK VINA RESULT:    -1.704      0.000      0.000
REMARK INTER + INTRA:          -7.666
REMARK INTER:                  -3.696
REMARK INTRA:                  -3.970
REMARK UNBOUND:                -3.970
REMARK SMILES CCCCCCCCCCCCCCCCCCCCCC(=O)[O-]
REMARK SMILES IDX 12 1 11 2 10 3 9 4 8 5 7 6 6 7 5 8 4 9 3 10 2 11 1 12 13 13
REMARK SMILES IDX 14 14 15 15 16 16 17 17 18 18 19 19 20 20 21 21 22 22 23 23
REMARK SMILES IDX 24 24
REMARK H PARENT
REMARK Flexibility Score: inf
ROOT
ATOM      1  C   UNL     1     115.767  16.245  22.391  1.00  0.00     0.000 C 
ENDROOT
BRANCH   1   2
ATOM      2  C   UNL     1     115.872  15.828  23.868  1.00  0.00     0.000 C 
BRANCH   2   3
ATOM      3  C   UNL     1     114.625  15.071  24.358  1.00  0.00     0.000 C 
BRANCH   3   4
ATOM      4  C   UNL     1     114.965  13.978  25.386  1.00  0.00    -0.000 C 
BRANCH   4   5
ATOM      5  C   UNL     1     116.254  13.214  25.030  1.00  0.00    -0.000 C 
BRANCH   5   6
ATOM      6  C   UNL     1     115.992  12.005  24.116  1.00  0.00    -0.000 C 
BRANCH   6   7
ATOM      7  C   UNL     1     117.037  11.877  22.994  1.00  0.00    -0.000 C 
BRANCH   7   8
ATOM      8  C   UNL     1     116.471  12.221  21.604  1.00  0.00    -0.000 C 
BRANCH   8   9
ATOM      9  C   UNL     1     114.979  12.605  21.579  1.00  0.00    -0.000 C 
BRANCH   9  10
ATOM     10  C   UNL     1     114.483  12.996  20.177  1.00  0.00    -0.000 C 
BRANCH  10  11
ATOM     11  C   UNL     1     113.668  14.298  20.183  1.00  0.00    -0.003 C 
ATOM     12  C   UNL     1     112.598  14.322  21.276  1.00  0.00     0.004 C 
ENDBRANCH  10  11
ENDBRANCH   9  10
ENDBRANCH   8   9
ENDBRANCH   7   8
ENDBRANCH   6   7
ENDBRANCH   5   6
ENDBRANCH   4   5
ENDBRANCH   3   4
ENDBRANCH   2   3
ENDBRANCH   1   2
BRANCH   1  13
ATOM     13  C   UNL     1     117.064  15.992  21.607  1.00  0.00     0.000 C 
BRANCH  13  14
ATOM     14  C   UNL     1     118.133  15.357  22.506  1.00  0.00     0.000 C 
BRANCH  14  15
ATOM     15  C   UNL     1     119.545  15.660  21.982  1.00  0.00     0.000 C 
BRANCH  15  16
ATOM     16  C   UNL     1     120.422  16.367  23.028  1.00  0.00     0.000 C 
BRANCH  16  17
ATOM     17  C   UNL     1     120.262  17.896  22.997  1.00  0.00     0.000 C 
BRANCH  17  18
ATOM     18  C   UNL     1     119.382  18.426  24.143  1.00  0.00     0.000 C 
BRANCH  18  19
ATOM     19  C   UNL     1     119.964  18.225  25.557  1.00  0.00     0.000 C 
BRANCH  19  20
ATOM     20  C   UNL     1     118.961  17.716  26.612  1.00  0.00     0.006 C 
BRANCH  20  21
ATOM     21  C   UNL     1     118.501  16.265  26.404  1.00  0.00     0.053 C 
BRANCH  21  22
ATOM     22  C   UNL     1     117.442  15.869  27.387  1.00  0.00     0.041 C 
ATOM     23  O   UNL     1     116.374  16.532  27.469  1.00  0.00    -0.550 OA
ATOM     24  O   UNL     1     117.619  14.748  28.188  1.00  0.00    -0.550 OA
ENDBRANCH  21  22
ENDBRANCH  20  21
ENDBRANCH  19  20
ENDBRANCH  18  19
ENDBRANCH  17  18
ENDBRANCH  16  17
ENDBRANCH  15  16
ENDBRANCH  14  15
ENDBRANCH  13  14
ENDBRANCH   1  13
TORSDOF 20
ENDMDL
MODEL 2
REMARK VINA RESULT:    -1.698      1.657      5.558
REMARK INTER + INTRA:          -7.653
REMARK INTER:                  -3.280
REMARK INTRA:                  -4.373
REMARK UNBOUND:                -3.970
REMARK SMILES CCCCCCCCCCCCCCCCCCCCCC(=O)[O-]
REMARK SMILES IDX 12 1 11 2 10 3 9 4 8 5 7 6 6 7 5 8 4 9 3 10 2 11 1 12 13 13
REMARK SMILES IDX 14 14 15 15 16 16 17 17 18 18 19 19 20 20 21 21 22 22 23 23
REMARK SMILES IDX 24 24
REMARK H PARENT
REMARK Flexibility Score: inf
ROOT
ATOM      1  C   UNL     1     120.053  17.060  21.666  1.00  0.00     0.000 C 
ENDROOT
BRANCH   1   2
ATOM      2  C   UNL     1     120.667  16.566  22.987  1.00  0.00     0.000 C 
BRANCH   2   3
ATOM      3  C   UNL     1     121.124  17.722  23.895  1.00  0.00     0.000 C 
BRANCH   3   4
ATOM      4  C   UNL     1     120.288  18.996  23.693  1.00  0.00    -0.000 C 
BRANCH   4   5
ATOM      5  C   UNL     1     119.727  19.549  25.017  1.00  0.00    -0.000 C 
BRANCH   5   6
ATOM      6  C   UNL     1     120.084  18.668  26.225  1.00  0.00    -0.000 C 
BRANCH   6   7
ATOM      7  C   UNL     1     118.855  17.961  26.823  1.00  0.00    -0.000 C 
BRANCH   7   8
ATOM      8  C   UNL     1     118.744  16.486  26.395  1.00  0.00    -0.000 C 
BRANCH   8   9
ATOM      9  C   UNL     1     117.761  16.209  25.241  1.00  0.00    -0.000 C 
BRANCH   9  10
ATOM     10  C   UNL     1     116.576  17.190  25.212  1.00  0.00    -0.000 C 
BRANCH  10  11
ATOM     11  C   UNL     1     115.983  17.354  23.804  1.00  0.00    -0.003 C 
ATOM     12  C   UNL     1     116.811  18.285  22.918  1.00  0.00     0.004 C 
ENDBRANCH  10  11
ENDBRANCH   9  10
ENDBRANCH   8   9
ENDBRANCH   7   8
ENDBRANCH   6   7
ENDBRANCH   5   6
ENDBRANCH   4   5
ENDBRANCH   3   4
ENDBRANCH   2   3
ENDBRANCH   1   2
BRANCH   1  13
ATOM     13  C   UNL     1     119.090  16.040  21.038  1.00  0.00     0.000 C 
BRANCH  13  14
ATOM     14  C   UNL     1     118.619  15.019  22.080  1.00  0.00     0.000 C 
BRANCH  14  15
ATOM     15  C   UNL     1     117.225  14.475  21.728  1.00  0.00     0.000 C 
BRANCH  15  16
ATOM     16  C   UNL     1     116.745  13.399  22.715  1.00  0.00     0.000 C 
BRANCH  16  17
ATOM     17  C   UNL     1     115.244  13.514  23.030  1.00  0.00     0.000 C 
BRANCH  17  18
ATOM     18  C   UNL     1     114.970  13.890  24.496  1.00  0.00     0.000 C 
BRANCH  18  19
ATOM     19  C   UNL     1     115.497  12.880  25.537  1.00  0.00     0.000 C 
BRANCH  19  20
ATOM     20  C   UNL     1     115.989  13.500  26.860  1.00  0.00     0.006 C 
BRANCH  20  21
ATOM     21  C   UNL     1     115.108  14.640  27.395  1.00  0.00     0.053 C 
BRANCH  21  22
ATOM     22  C   UNL     1     115.824  15.465  28.419  1.00  0.00     0.041 C 
ATOM     23  O   UNL     1     116.761  14.964  29.095  1.00  0.00    -0.550 OA
ATOM     24  O   UNL     1     115.481  16.799  28.602  1.00  0.00    -0.550 OA
ENDBRANCH  21  22
ENDBRANCH  20  21
ENDBRANCH  19  20
ENDBRANCH  18  19
ENDBRANCH  17  18
ENDBRANCH  16  17
ENDBRANCH  15  16
ENDBRANCH  14  15
ENDBRANCH  13  14
ENDBRANCH   1  13
TORSDOF 20
ENDMDL
MODEL 3
REMARK VINA RESULT:    -1.641      2.756      5.225
REMARK INTER + INTRA:          -7.529
REMARK INTER:                  -3.794
REMARK INTRA:                  -3.735
REMARK UNBOUND:                -3.970
REMARK SMILES CCCCCCCCCCCCCCCCCCCCCC(=O)[O-]
REMARK SMILES IDX 12 1 11 2 10 3 9 4 8 5 7 6 6 7 5 8 4 9 3 10 2 11 1 12 13 13
REMARK SMILES IDX 14 14 15 15 16 16 17 17 18 18 19 19 20 20 21 21 22 22 23 23
REMARK SMILES IDX 24 24
REMARK H PARENT
REMARK Flexibility Score: inf
ROOT
ATOM      1  C   UNL     1     118.756  16.314  26.978  1.00  0.00     0.000 C 
ENDROOT
BRANCH   1   2
ATOM      2  C   UNL     1     118.606  16.128  28.498  1.00  0.00     0.000 C 
BRANCH   2   3
ATOM      3  C   UNL     1     117.600  15.020  28.860  1.00  0.00     0.000 C 
BRANCH   3   4
ATOM      4  C   UNL     1     116.168  15.554  29.023  1.00  0.00    -0.000 C 
BRANCH   4   5
ATOM      5  C   UNL     1     115.115  14.622  28.395  1.00  0.00    -0.000 C 
BRANCH   5   6
ATOM      6  C   UNL     1     115.722  13.306  27.881  1.00  0.00    -0.000 C 
BRANCH   6   7
ATOM      7  C   UNL     1     115.484  13.094  26.375  1.00  0.00    -0.000 C 
BRANCH   7   8
ATOM      8  C   UNL     1     116.325  14.038  25.497  1.00  0.00    -0.000 C 
BRANCH   8   9
ATOM      9  C   UNL     1     115.518  15.042  24.651  1.00  0.00    -0.000 C 
BRANCH   9  10
ATOM     10  C   UNL     1     115.578  16.477  25.202  1.00  0.00    -0.000 C 
BRANCH  10  11
ATOM     11  C   UNL     1     114.947  17.501  24.246  1.00  0.00    -0.003 C 
ATOM     12  C   UNL     1     114.128  16.847  23.134  1.00  0.00     0.004 C 
ENDBRANCH  10  11
ENDBRANCH   9  10
ENDBRANCH   8   9
ENDBRANCH   7   8
ENDBRANCH   6   7
ENDBRANCH   5   6
ENDBRANCH   4   5
ENDBRANCH   3   4
ENDBRANCH   2   3
ENDBRANCH   1   2
BRANCH   1  13
ATOM     13  C   UNL     1     118.752  17.792  26.555  1.00  0.00     0.000 C 
BRANCH  13  14
ATOM     14  C   UNL     1     119.079  17.935  25.064  1.00  0.00     0.000 C 
BRANCH  14  15
ATOM     15  C   UNL     1     120.002  16.801  24.591  1.00  0.00     0.000 C 
BRANCH  15  16
ATOM     16  C   UNL     1     119.609  16.258  23.209  1.00  0.00     0.000 C 
BRANCH  16  17
ATOM     17  C   UNL     1     118.373  16.965  22.626  1.00  0.00     0.000 C 
BRANCH  17  18
ATOM     18  C   UNL     1     117.490  16.026  21.786  1.00  0.00     0.000 C 
BRANCH  18  19
ATOM     19  C   UNL     1     118.135  14.671  21.430  1.00  0.00     0.000 C 
BRANCH  19  20
ATOM     20  C   UNL     1     117.399  13.431  21.977  1.00  0.00     0.006 C 
BRANCH  20  21
ATOM     21  C   UNL     1     116.777  12.534  20.896  1.00  0.00     0.053 C 
BRANCH  21  22
ATOM     22  C   UNL     1     115.324  12.833  20.691  1.00  0.00     0.041 C 
ATOM     23  O   UNL     1     114.649  13.363  21.612  1.00  0.00    -0.550 OA
ATOM     24  O   UNL     1     114.722  12.558  19.469  1.00  0.00    -0.550 OA
ENDBRANCH  21  22
ENDBRANCH  20  21
ENDBRANCH  19  20
ENDBRANCH  18  19
ENDBRANCH  17  18
ENDBRANCH  16  17
ENDBRANCH  15  16
ENDBRANCH  14  15
ENDBRANCH  13  14
ENDBRANCH   1  13
TORSDOF 20
ENDMDL
MODEL 4
REMARK VINA RESULT:    -1.621      2.373      5.632
REMARK INTER + INTRA:          -7.486
REMARK INTER:                  -3.211
REMARK INTRA:                  -4.275
REMARK UNBOUND:                -3.970
REMARK SMILES CCCCCCCCCCCCCCCCCCCCCC(=O)[O-]
REMARK SMILES IDX 12 1 11 2 10 3 9 4 8 5 7 6 6 7 5 8 4 9 3 10 2 11 1 12 13 13
REMARK SMILES IDX 14 14 15 15 16 16 17 17 18 18 19 19 20 20 21 21 22 22 23 23
REMARK SMILES IDX 24 24
REMARK H PARENT
REMARK Flexibility Score: inf
ROOT
ATOM      1  C   UNL     1     116.171  14.392  23.418  1.00  0.00     0.000 C 
ENDROOT
BRANCH   1   2
ATOM      2  C   UNL     1     117.356  14.450  22.439  1.00  0.00     0.000 C 
BRANCH   2   3
ATOM      3  C   UNL     1     117.145  15.480  21.315  1.00  0.00     0.000 C 
BRANCH   3   4
ATOM      4  C   UNL     1     116.043  16.500  21.650  1.00  0.00    -0.000 C 
BRANCH   4   5
ATOM      5  C   UNL     1     116.479  17.951  21.375  1.00  0.00    -0.000 C 
BRANCH   5   6
ATOM      6  C   UNL     1     116.636  18.777  22.663  1.00  0.00    -0.000 C 
BRANCH   6   7
ATOM      7  C   UNL     1     116.079  18.051  23.901  1.00  0.00    -0.000 C 
BRANCH   7   8
ATOM      8  C   UNL     1     117.163  17.727  24.945  1.00  0.00    -0.000 C 
BRANCH   8   9
ATOM      9  C   UNL     1     118.614  17.948  24.476  1.00  0.00    -0.000 C 
BRANCH   9  10
ATOM     10  C   UNL     1     119.462  16.665  24.520  1.00  0.00    -0.000 C 
BRANCH  10  11
ATOM     11  C   UNL     1     120.359  16.509  23.283  1.00  0.00    -0.003 C 
ATOM     12  C   UNL     1     120.104  17.586  22.227  1.00  0.00     0.004 C 
ENDBRANCH  10  11
ENDBRANCH   9  10
ENDBRANCH   8   9
ENDBRANCH   7   8
ENDBRANCH   6   7
ENDBRANCH   5   6
ENDBRANCH   4   5
ENDBRANCH   3   4
ENDBRANCH   2   3
ENDBRANCH   1   2
BRANCH   1  13
ATOM     13  C   UNL     1     116.613  14.200  24.878  1.00  0.00     0.000 C 
BRANCH  13  14
ATOM     14  C   UNL     1     115.814  13.075  25.547  1.00  0.00     0.000 C 
BRANCH  14  15
ATOM     15  C   UNL     1     115.308  13.507  26.932  1.00  0.00     0.000 C 
BRANCH  15  16
ATOM     16  C   UNL     1     115.328  15.033  27.117  1.00  0.00     0.000 C 
BRANCH  16  17
ATOM     17  C   UNL     1     116.013  15.460  28.426  1.00  0.00     0.000 C 
BRANCH  17  18
ATOM     18  C   UNL     1     117.475  14.987  28.516  1.00  0.00     0.000 C 
BRANCH  18  19
ATOM     19  C   UNL     1     118.515  15.978  27.955  1.00  0.00     0.000 C 
BRANCH  19  20
ATOM     20  C   UNL     1     118.412  17.416  28.502  1.00  0.00     0.006 C 
BRANCH  20  21
ATOM     21  C   UNL     1     119.550  18.349  28.060  1.00  0.00     0.053 C 
BRANCH  21  22
ATOM     22  C   UNL     1     119.050  19.722  27.732  1.00  0.00     0.041 C 
ATOM     23  O   UNL     1     119.864  20.647  27.469  1.00  0.00    -0.550 OA
ATOM     24  O   UNL     1     117.685  19.973  27.683  1.00  0.00    -0.550 OA
ENDBRANCH  21  22
ENDBRANCH  20  21
ENDBRANCH  19  20
ENDBRANCH  18  19
ENDBRANCH  17  18
ENDBRANCH  16  17
ENDBRANCH  15  16
ENDBRANCH  14  15
ENDBRANCH  13  14
ENDBRANCH   1  13
TORSDOF 20
ENDMDL
MODEL 5
REMARK VINA RESULT:    -1.603      1.735      4.821
REMARK INTER + INTRA:          -7.447
REMARK INTER:                  -3.584
REMARK INTRA:                  -3.863
REMARK UNBOUND:                -3.970
REMARK SMILES CCCCCCCCCCCCCCCCCCCCCC(=O)[O-]
REMARK SMILES IDX 12 1 11 2 10 3 9 4 8 5 7 6 6 7 5 8 4 9 3 10 2 11 1 12 13 13
REMARK SMILES IDX 14 14 15 15 16 16 17 17 18 18 19 19 20 20 21 21 22 22 23 23
REMARK SMILES IDX 24 24
REMARK H PARENT
REMARK Flexibility Score: inf
ROOT
ATOM      1  C   UNL     1     120.482  16.309  22.817  1.00  0.00     0.000 C 
ENDROOT
BRANCH   1   2
ATOM      2  C   UNL     1     120.725  16.774  24.262  1.00  0.00     0.000 C 
BRANCH   2   3
ATOM      3  C   UNL     1     119.457  17.348  24.920  1.00  0.00     0.000 C 
BRANCH   3   4
ATOM      4  C   UNL     1     118.966  16.493  26.100  1.00  0.00    -0.000 C 
BRANCH   4   5
ATOM      5  C   UNL     1     117.507  16.033  25.929  1.00  0.00    -0.000 C 
BRANCH   5   6
ATOM      6  C   UNL     1     116.501  17.185  26.082  1.00  0.00    -0.000 C 
BRANCH   6   7
ATOM      7  C   UNL     1     115.674  17.421  24.806  1.00  0.00    -0.000 C 
BRANCH   7   8
ATOM      8  C   UNL     1     116.147  18.647  24.003  1.00  0.00    -0.000 C 
BRANCH   8   9
ATOM      9  C   UNL     1     115.914  18.567  22.483  1.00  0.00    -0.000 C 
BRANCH   9  10
ATOM     10  C   UNL     1     115.195  17.277  22.052  1.00  0.00    -0.000 C 
BRANCH  10  11
ATOM     11  C   UNL     1     113.737  17.526  21.638  1.00  0.00    -0.003 C 
ATOM     12  C   UNL     1     112.735  16.776  22.517  1.00  0.00     0.004 C 
ENDBRANCH  10  11
ENDBRANCH   9  10
ENDBRANCH   8   9
ENDBRANCH   7   8
ENDBRANCH   6   7
ENDBRANCH   5   6
ENDBRANCH   4   5
ENDBRANCH   3   4
ENDBRANCH   2   3
ENDBRANCH   1   2
BRANCH   1  13
ATOM     13  C   UNL     1     119.031  16.524  22.358  1.00  0.00     0.000 C 
BRANCH  13  14
ATOM     14  C   UNL     1     118.436  15.226  21.800  1.00  0.00     0.000 C 
BRANCH  14  15
ATOM     15  C   UNL     1     117.448  14.600  22.796  1.00  0.00     0.000 C 
BRANCH  15  16
ATOM     16  C   UNL     1     117.028  13.177  22.395  1.00  0.00     0.000 C 
BRANCH  16  17
ATOM     17  C   UNL     1     115.620  12.813  22.898  1.00  0.00     0.000 C 
BRANCH  17  18
ATOM     18  C   UNL     1     114.936  13.972  23.644  1.00  0.00     0.000 C 
BRANCH  18  19
ATOM     19  C   UNL     1     114.518  13.655  25.094  1.00  0.00     0.000 C 
BRANCH  19  20
ATOM     20  C   UNL     1     115.566  12.888  25.926  1.00  0.00     0.006 C 
BRANCH  20  21
ATOM     21  C   UNL     1     115.212  12.737  27.413  1.00  0.00     0.053 C 
BRANCH  21  22
ATOM     22  C   UNL     1     115.838  13.812  28.247  1.00  0.00     0.041 C 
ATOM     23  O   UNL     1     117.031  13.700  28.633  1.00  0.00    -0.550 OA
ATOM     24  O   UNL     1     115.115  14.953  28.570  1.00  0.00    -0.550 OA
ENDBRANCH  21  22
ENDBRANCH  20  21
ENDBRANCH  19  20
ENDBRANCH  18  19
ENDBRANCH  17  18
ENDBRANCH  16  17
ENDBRANCH  15  16
ENDBRANCH  14  15
ENDBRANCH  13  14
ENDBRANCH   1  13
TORSDOF 20
ENDMDL
MODEL 6
REMARK VINA RESULT:    -1.600      2.235      4.600
REMARK INTER + INTRA:          -7.441
REMARK INTER:                  -3.339
REMARK INTRA:                  -4.102
REMARK UNBOUND:                -3.970
REMARK SMILES CCCCCCCCCCCCCCCCCCCCCC(=O)[O-]
REMARK SMILES IDX 12 1 11 2 10 3 9 4 8 5 7 6 6 7 5 8 4 9 3 10 2 11 1 12 13 13
REMARK SMILES IDX 14 14 15 15 16 16 17 17 18 18 19 19 20 20 21 21 22 22 23 23
REMARK SMILES IDX 24 24
REMARK H PARENT
REMARK Flexibility Score: inf
ROOT
ATOM      1  C   UNL     1     118.663  16.255  27.773  1.00  0.00     0.000 C 
ENDROOT
BRANCH   1   2
ATOM      2  C   UNL     1     117.606  15.184  28.092  1.00  0.00     0.000 C 
BRANCH   2   3
ATOM      3  C   UNL     1     116.240  15.793  28.457  1.00  0.00     0.000 C 
BRANCH   3   4
ATOM      4  C   UNL     1     115.125  14.737  28.532  1.00  0.00    -0.000 C 
BRANCH   4   5
ATOM      5  C   UNL     1     113.962  15.037  27.569  1.00  0.00    -0.000 C 
BRANCH   5   6
ATOM      6  C   UNL     1     114.205  14.482  26.156  1.00  0.00    -0.000 C 
BRANCH   6   7
ATOM      7  C   UNL     1     114.949  13.135  26.170  1.00  0.00    -0.000 C 
BRANCH   7   8
ATOM      8  C   UNL     1     116.258  13.164  25.360  1.00  0.00    -0.000 C 
BRANCH   8   9
ATOM      9  C   UNL     1     116.308  12.202  24.158  1.00  0.00    -0.000 C 
BRANCH   9  10
ATOM     10  C   UNL     1     116.093  12.912  22.811  1.00  0.00    -0.000 C 
BRANCH  10  11
ATOM     11  C   UNL     1     114.621  12.908  22.372  1.00  0.00    -0.003 C 
ATOM     12  C   UNL     1     113.989  14.299  22.404  1.00  0.00     0.004 C 
ENDBRANCH  10  11
ENDBRANCH   9  10
ENDBRANCH   8   9
ENDBRANCH   7   8
ENDBRANCH   6   7
ENDBRANCH   5   6
ENDBRANCH   4   5
ENDBRANCH   3   4
ENDBRANCH   2   3
ENDBRANCH   1   2
BRANCH   1  13
ATOM     13  C   UNL     1     118.925  17.205  28.953  1.00  0.00     0.000 C 
BRANCH  13  14
ATOM     14  C   UNL     1     118.746  18.668  28.527  1.00  0.00     0.000 C 
BRANCH  14  15
ATOM     15  C   UNL     1     118.875  18.818  27.004  1.00  0.00     0.000 C 
BRANCH  15  16
ATOM     16  C   UNL     1     117.728  19.639  26.393  1.00  0.00     0.000 C 
BRANCH  16  17
ATOM     17  C   UNL     1     116.375  18.912  26.472  1.00  0.00     0.000 C 
BRANCH  17  18
ATOM     18  C   UNL     1     115.955  18.288  25.129  1.00  0.00     0.000 C 
BRANCH  18  19
ATOM     19  C   UNL     1     116.443  16.843  24.902  1.00  0.00     0.000 C 
BRANCH  19  20
ATOM     20  C   UNL     1     116.873  16.516  23.458  1.00  0.00     0.006 C 
BRANCH  20  21
ATOM     21  C   UNL     1     118.298  15.955  23.330  1.00  0.00     0.053 C 
BRANCH  21  22
ATOM     22  C   UNL     1     119.325  16.917  23.840  1.00  0.00     0.041 C 
ATOM     23  O   UNL     1     120.233  16.522  24.619  1.00  0.00    -0.550 OA
ATOM     24  O   UNL     1     119.301  18.244  23.429  1.00  0.00    -0.550 OA
ENDBRANCH  21  22
ENDBRANCH  20  21
ENDBRANCH  19  20
ENDBRANCH  18  19
ENDBRANCH  17  18
ENDBRANCH  16  17
ENDBRANCH  15  16
ENDBRANCH  14  15
ENDBRANCH  13  14
ENDBRANCH   1  13
TORSDOF 20
ENDMDL
MODEL 7
REMARK VINA RESULT:    -1.594      2.744      6.644
REMARK INTER + INTRA:          -7.428
REMARK INTER:                  -3.280
REMARK INTRA:                  -4.148
REMARK UNBOUND:                -3.970
REMARK SMILES CCCCCCCCCCCCCCCCCCCCCC(=O)[O-]
REMARK SMILES IDX 12 1 11 2 10 3 9 4 8 5 7 6 6 7 5 8 4 9 3 10 2 11 1 12 13 13
REMARK SMILES IDX 14 14 15 15 16 16 17 17 18 18 19 19 20 20 21 21 22 22 23 23
REMARK SMILES IDX 24 24
REMARK H PARENT
REMARK Flexibility Score: inf
ROOT
ATOM      1  C   UNL     1     115.760  15.977  23.763  1.00  0.00     0.000 C 
ENDROOT
BRANCH   1   2
ATOM      2  C   UNL     1     117.038  15.140  23.939  1.00  0.00     0.000 C 
BRANCH   2   3
ATOM      3  C   UNL     1     117.734  14.835  22.600  1.00  0.00     0.000 C 
BRANCH   3   4
ATOM      4  C   UNL     1     117.521  15.947  21.559  1.00  0.00    -0.000 C 
BRANCH   4   5
ATOM      5  C   UNL     1     118.820  16.708  21.235  1.00  0.00    -0.000 C 
BRANCH   5   6
ATOM      6  C   UNL     1     120.079  15.946  21.680  1.00  0.00    -0.000 C 
BRANCH   6   7
ATOM      7  C   UNL     1     121.012  16.805  22.551  1.00  0.00    -0.000 C 
BRANCH   7   8
ATOM      8  C   UNL     1     121.042  16.353  24.023  1.00  0.00    -0.000 C 
BRANCH   8   9
ATOM      9  C   UNL     1     119.951  16.966  24.921  1.00  0.00    -0.000 C 
BRANCH   9  10
ATOM     10  C   UNL     1     119.679  18.448  24.611  1.00  0.00    -0.000 C 
BRANCH  10  11
ATOM     11  C   UNL     1     118.216  18.710  24.224  1.00  0.00    -0.003 C 
ATOM     12  C   UNL     1     117.484  19.593  25.236  1.00  0.00     0.004 C 
ENDBRANCH  10  11
ENDBRANCH   9  10
ENDBRANCH   8   9
ENDBRANCH   7   8
ENDBRANCH   6   7
ENDBRANCH   5   6
ENDBRANCH   4   5
ENDBRANCH   3   4
ENDBRANCH   2   3
ENDBRANCH   1   2
BRANCH   1  13
ATOM     13  C   UNL     1     115.126  16.385  25.103  1.00  0.00     0.000 C 
BRANCH  13  14
ATOM     14  C   UNL     1     116.136  16.251  26.249  1.00  0.00     0.000 C 
BRANCH  14  15
ATOM     15  C   UNL     1     115.611  15.301  27.337  1.00  0.00     0.000 C 
BRANCH  15  16
ATOM     16  C   UNL     1     116.206  13.889  27.223  1.00  0.00     0.000 C 
BRANCH  16  17
ATOM     17  C   UNL     1     115.128  12.807  27.037  1.00  0.00     0.000 C 
BRANCH  17  18
ATOM     18  C   UNL     1     114.954  12.387  25.567  1.00  0.00     0.000 C 
BRANCH  18  19
ATOM     19  C   UNL     1     113.716  12.978  24.863  1.00  0.00     0.000 C 
BRANCH  19  20
ATOM     20  C   UNL     1     113.773  12.971  23.322  1.00  0.00     0.006 C 
BRANCH  20  21
ATOM     21  C   UNL     1     114.990  12.242  22.734  1.00  0.00     0.053 C 
BRANCH  21  22
ATOM     22  C   UNL     1     115.176  12.549  21.280  1.00  0.00     0.041 C 
ATOM     23  O   UNL     1     116.238  12.214  20.692  1.00  0.00    -0.550 OA
ATOM     24  O   UNL     1     114.162  13.175  20.565  1.00  0.00    -0.550 OA
ENDBRANCH  21  22
ENDBRANCH  20  21
ENDBRANCH  19  20
ENDBRANCH  18  19
ENDBRANCH  17  18
ENDBRANCH  16  17
ENDBRANCH  15  16
ENDBRANCH  14  15
ENDBRANCH  13  14
ENDBRANCH   1  13
TORSDOF 20
ENDMDL
MODEL 8
REMARK VINA RESULT:    -1.593      2.408      4.358
REMARK INTER + INTRA:          -7.425
REMARK INTER:                  -2.727
REMARK INTRA:                  -4.698
REMARK UNBOUND:                -3.970
REMARK SMILES CCCCCCCCCCCCCCCCCCCCCC(=O)[O-]
REMARK SMILES IDX 12 1 11 2 10 3 9 4 8 5 7 6 6 7 5 8 4 9 3 10 2 11 1 12 13 13
REMARK SMILES IDX 14 14 15 15 16 16 17 17 18 18 19 19 20 20 21 21 22 22 23 23
REMARK SMILES IDX 24 24
REMARK H PARENT
REMARK Flexibility Score: inf
ROOT
ATOM      1  C   UNL     1     113.068  16.395  25.357  1.00  0.00     0.000 C 
ENDROOT
BRANCH   1   2
ATOM      2  C   UNL     1     112.507  14.971  25.507  1.00  0.00     0.000 C 
BRANCH   2   3
ATOM      3  C   UNL     1     112.074  14.655  26.950  1.00  0.00     0.000 C 
BRANCH   3   4
ATOM      4  C   UNL     1     112.766  13.402  27.512  1.00  0.00    -0.000 C 
BRANCH   4   5
ATOM      5  C   UNL     1     113.734  12.760  26.501  1.00  0.00    -0.000 C 
BRANCH   5   6
ATOM      6  C   UNL     1     115.178  12.696  27.024  1.00  0.00    -0.000 C 
BRANCH   6   7
ATOM      7  C   UNL     1     116.184  13.347  26.058  1.00  0.00    -0.000 C 
BRANCH   7   8
ATOM      8  C   UNL     1     115.845  13.094  24.578  1.00  0.00    -0.000 C 
BRANCH   8   9
ATOM      9  C   UNL     1     116.611  13.970  23.568  1.00  0.00    -0.000 C 
BRANCH   9  10
ATOM     10  C   UNL     1     115.697  14.603  22.505  1.00  0.00    -0.000 C 
BRANCH  10  11
ATOM     11  C   UNL     1     114.311  13.941  22.452  1.00  0.00    -0.003 C 
ATOM     12  C   UNL     1     113.240  14.856  21.860  1.00  0.00     0.004 C 
ENDBRANCH  10  11
ENDBRANCH   9  10
ENDBRANCH   8   9
ENDBRANCH   7   8
ENDBRANCH   6   7
ENDBRANCH   5   6
ENDBRANCH   4   5
ENDBRANCH   3   4
ENDBRANCH   2   3
ENDBRANCH   1   2
BRANCH   1  13
ATOM     13  C   UNL     1     114.590  16.460  25.567  1.00  0.00     0.000 C 
BRANCH  13  14
ATOM     14  C   UNL     1     114.957  17.554  26.577  1.00  0.00     0.000 C 
BRANCH  14  15
ATOM     15  C   UNL     1     114.501  17.171  27.993  1.00  0.00     0.000 C 
BRANCH  15  16
ATOM     16  C   UNL     1     115.323  16.016  28.585  1.00  0.00     0.000 C 
BRANCH  16  17
ATOM     17  C   UNL     1     116.741  16.450  28.997  1.00  0.00     0.000 C 
BRANCH  17  18
ATOM     18  C   UNL     1     117.840  15.603  28.331  1.00  0.00     0.000 C 
BRANCH  18  19
ATOM     19  C   UNL     1     118.775  16.380  27.383  1.00  0.00     0.000 C 
BRANCH  19  20
ATOM     20  C   UNL     1     118.416  16.285  25.886  1.00  0.00     0.006 C 
BRANCH  20  21
ATOM     21  C   UNL     1     118.340  17.639  25.164  1.00  0.00     0.053 C 
BRANCH  21  22
ATOM     22  C   UNL     1     117.893  17.489  23.742  1.00  0.00     0.041 C 
ATOM     23  O   UNL     1     116.814  18.013  23.358  1.00  0.00    -0.550 OA
ATOM     24  O   UNL     1     118.684  16.799  22.832  1.00  0.00    -0.550 OA
ENDBRANCH  21  22
ENDBRANCH  20  21
ENDBRANCH  19  20
ENDBRANCH  18  19
ENDBRANCH  17  18
ENDBRANCH  16  17
ENDBRANCH  15  16
ENDBRANCH  14  15
ENDBRANCH  13  14
ENDBRANCH   1  13
TORSDOF 20
ENDMDL
MODEL 9
REMARK VINA RESULT:    -1.547      2.407      4.831
REMARK INTER + INTRA:          -7.327
REMARK INTER:                  -3.317
REMARK INTRA:                  -4.010
REMARK UNBOUND:                -3.970
REMARK SMILES CCCCCCCCCCCCCCCCCCCCCC(=O)[O-]
REMARK SMILES IDX 12 1 11 2 10 3 9 4 8 5 7 6 6 7 5 8 4 9 3 10 2 11 1 12 13 13
REMARK SMILES IDX 14 14 15 15 16 16 17 17 18 18 19 19 20 20 21 21 22 22 23 23
REMARK SMILES IDX 24 24
REMARK H PARENT
REMARK Flexibility Score: inf
ROOT
ATOM      1  C   UNL     1     118.697  16.759  25.481  1.00  0.00     0.000 C 
ENDROOT
BRANCH   1   2
ATOM      2  C   UNL     1     117.519  16.932  24.508  1.00  0.00     0.000 C 
BRANCH   2   3
ATOM      3  C   UNL     1     117.178  15.632  23.757  1.00  0.00     0.000 C 
BRANCH   3   4
ATOM      4  C   UNL     1     116.517  15.895  22.394  1.00  0.00    -0.000 C 
BRANCH   4   5
ATOM      5  C   UNL     1     116.470  14.637  21.507  1.00  0.00    -0.000 C 
BRANCH   5   6
ATOM      6  C   UNL     1     117.389  13.517  22.021  1.00  0.00    -0.000 C 
BRANCH   6   7
ATOM      7  C   UNL     1     116.618  12.228  22.358  1.00  0.00    -0.000 C 
BRANCH   7   8
ATOM      8  C   UNL     1     116.665  11.875  23.856  1.00  0.00    -0.000 C 
BRANCH   8   9
ATOM      9  C   UNL     1     115.528  12.469  24.707  1.00  0.00    -0.000 C 
BRANCH   9  10
ATOM     10  C   UNL     1     114.203  12.598  23.936  1.00  0.00    -0.000 C 
BRANCH  10  11
ATOM     11  C   UNL     1     113.634  14.024  23.978  1.00  0.00    -0.003 C 
ATOM     12  C   UNL     1     113.002  14.449  22.652  1.00  0.00     0.004 C 
ENDBRANCH  10  11
ENDBRANCH   9  10
ENDBRANCH   8   9
ENDBRANCH   7   8
ENDBRANCH   6   7
ENDBRANCH   5   6
ENDBRANCH   4   5
ENDBRANCH   3   4
ENDBRANCH   2   3
ENDBRANCH   1   2
BRANCH   1  13
ATOM     13  C   UNL     1     118.403  17.326  26.879  1.00  0.00     0.000 C 
BRANCH  13  14
ATOM     14  C   UNL     1     118.883  16.363  27.972  1.00  0.00     0.000 C 
BRANCH  14  15
ATOM     15  C   UNL     1     117.709  15.890  28.844  1.00  0.00     0.000 C 
BRANCH  15  16
ATOM     16  C   UNL     1     117.342  14.419  28.591  1.00  0.00     0.000 C 
BRANCH  16  17
ATOM     17  C   UNL     1     116.277  14.257  27.493  1.00  0.00     0.000 C 
BRANCH  17  18
ATOM     18  C   UNL     1     114.841  14.355  28.037  1.00  0.00     0.000 C 
BRANCH  18  19
ATOM     19  C   UNL     1     114.003  15.514  27.459  1.00  0.00     0.000 C 
BRANCH  19  20
ATOM     20  C   UNL     1     114.773  16.483  26.539  1.00  0.00     0.006 C 
BRANCH  20  21
ATOM     21  C   UNL     1     113.999  17.757  26.166  1.00  0.00     0.053 C 
BRANCH  21  22
ATOM     22  C   UNL     1     113.289  17.615  24.855  1.00  0.00     0.041 C 
ATOM     23  O   UNL     1     113.911  17.796  23.775  1.00  0.00    -0.550 OA
ATOM     24  O   UNL     1     111.949  17.249  24.824  1.00  0.00    -0.550 OA
ENDBRANCH  21  22
ENDBRANCH  20  21
ENDBRANCH  19  20
ENDBRANCH  18  19
ENDBRANCH  17  18
ENDBRANCH  16  17
ENDBRANCH  15  16
ENDBRANCH  14  15
ENDBRANCH  13  14
ENDBRANCH   1  13
TORSDOF 20
ENDMDL
