MODEL 1
REMARK VINA RESULT:    -6.592      0.000      0.000
REMARK INTER + INTRA:          -8.372
REMARK INTER:                  -7.941
REMARK INTRA:                  -0.431
REMARK UNBOUND:                -0.431
REMARK SMILES O=c1c(O)c(-c2ccc(O)cc2O)oc2cc(O)cc(O)c12
REMARK SMILES IDX 5 1 3 2 2 3 1 4 22 5 20 6 19 7 17 8 16 9 15 10 14 11 6 12
REMARK SMILES IDX 8 13 7 14 9 15 11 16 12 17 10 18 13 20 4 22 21 24 18 26
REMARK H PARENT 10 19 13 21 4 23 21 25 18 27
REMARK Flexibility Score: inf
ROOT
ATOM      1  C   UNL     1      68.185  47.974   9.065  1.00  0.00     0.184 A 
ATOM      2  C   UNL     1      67.184  48.780   9.633  1.00  0.00     0.208 A 
ATOM      3  C   UNL     1      65.863  48.304   9.667  1.00  0.00     0.238 A 
ATOM      4  O   UNL     1      64.963  49.053  10.125  1.00  0.00    -0.285 OA
ATOM      5  C   UNL     1      65.564  47.020   9.149  1.00  0.00     0.111 A 
ATOM      6  C   UNL     1      64.269  46.421   9.168  1.00  0.00     0.134 A 
ATOM      7  C   UNL     1      64.064  45.200   8.513  1.00  0.00     0.093 A 
ATOM      8  C   UNL     1      65.119  44.526   7.899  1.00  0.00     0.123 A 
ATOM      9  C   UNL     1      66.402  45.074   7.927  1.00  0.00     0.094 A 
ATOM     10  C   UNL     1      66.630  46.308   8.540  1.00  0.00     0.146 A 
ATOM     11  O   UNL     1      67.863  46.800   8.533  1.00  0.00    -0.451 OA
ENDROOT
BRANCH   1  12
ATOM     12  C   UNL     1      69.602  48.403   9.019  1.00  0.00     0.063 A 
ATOM     13  C   UNL     1      71.810  48.503  10.039  1.00  0.00     0.047 A 
ATOM     14  C   UNL     1      70.467  48.122  10.092  1.00  0.00     0.020 A 
ATOM     15  C   UNL     1      72.311  49.159   8.909  1.00  0.00     0.119 A 
ATOM     16  C   UNL     1      71.463  49.431   7.832  1.00  0.00     0.093 A 
ATOM     17  C   UNL     1      70.112  49.055   7.878  1.00  0.00     0.130 A 
BRANCH  15  18
ATOM     18  O   UNL     1      73.648  49.543   8.845  1.00  0.00    -0.508 OA
ATOM     19  H   UNL     1      74.397  48.860   8.861  1.00  0.00     0.293 HD
ENDBRANCH  15  18
BRANCH  17  20
ATOM     20  O   UNL     1      69.276  49.339   6.798  1.00  0.00    -0.507 OA
ATOM     21  H   UNL     1      68.292  49.095   6.809  1.00  0.00     0.293 HD
ENDBRANCH  17  20
ENDBRANCH   1  12
BRANCH   2  22
ATOM     22  O   UNL     1      67.501  50.048  10.125  1.00  0.00    -0.502 OA
ATOM     23  H   UNL     1      67.090  50.895   9.751  1.00  0.00     0.293 HD
ENDBRANCH   2  22
BRANCH   6  24
ATOM     24  O   UNL     1      63.166  46.966   9.831  1.00  0.00    -0.507 OA
ATOM     25  H   UNL     1      63.213  47.481  10.697  1.00  0.00     0.293 HD
ENDBRANCH   6  24
BRANCH   8  26
ATOM     26  O   UNL     1      64.881  43.304   7.271  1.00  0.00    -0.508 OA
ATOM     27  H   UNL     1      64.798  43.235   6.264  1.00  0.00     0.293 HD
ENDBRANCH   8  26
TORSDOF 6
ENDMDL
MODEL 2
REMARK VINA RESULT:    -6.129      2.087      6.992
REMARK INTER + INTRA:          -7.813
REMARK INTER:                  -7.338
REMARK INTRA:                  -0.475
REMARK UNBOUND:                -0.431
REMARK SMILES O=c1c(O)c(-c2ccc(O)cc2O)oc2cc(O)cc(O)c12
REMARK SMILES IDX 5 1 3 2 2 3 1 4 22 5 20 6 19 7 17 8 16 9 15 10 14 11 6 12
REMARK SMILES IDX 8 13 7 14 9 15 11 16 12 17 10 18 13 20 4 22 21 24 18 26
REMARK H PARENT 10 19 13 21 4 23 21 25 18 27
REMARK Flexibility Score: inf
ROOT
ATOM      1  C   UNL     1      69.442  48.009   8.031  1.00  0.00     0.184 A 
ATOM      2  C   UNL     1      69.732  48.269   6.681  1.00  0.00     0.208 A 
ATOM      3  C   UNL     1      71.063  48.185   6.241  1.00  0.00     0.238 A 
ATOM      4  O   UNL     1      71.323  48.473   5.045  1.00  0.00    -0.285 OA
ATOM      5  C   UNL     1      72.084  47.824   7.154  1.00  0.00     0.111 A 
ATOM      6  C   UNL     1      73.461  47.670   6.809  1.00  0.00     0.134 A 
ATOM      7  C   UNL     1      74.403  47.436   7.819  1.00  0.00     0.093 A 
ATOM      8  C   UNL     1      74.011  47.284   9.148  1.00  0.00     0.123 A 
ATOM      9  C   UNL     1      72.661  47.374   9.488  1.00  0.00     0.094 A 
ATOM     10  C   UNL     1      71.702  47.644   8.508  1.00  0.00     0.146 A 
ATOM     11  O   UNL     1      70.429  47.733   8.875  1.00  0.00    -0.451 OA
ENDROOT
BRANCH   1  12
ATOM     12  C   UNL     1      68.058  48.055   8.556  1.00  0.00     0.063 A 
ATOM     13  C   UNL     1      65.845  47.063   8.758  1.00  0.00     0.047 A 
ATOM     14  C   UNL     1      67.142  47.035   8.242  1.00  0.00     0.020 A 
ATOM     15  C   UNL     1      65.446  48.104   9.604  1.00  0.00     0.119 A 
ATOM     16  C   UNL     1      66.352  49.116   9.934  1.00  0.00     0.093 A 
ATOM     17  C   UNL     1      67.657  49.097   9.418  1.00  0.00     0.130 A 
BRANCH  15  18
ATOM     18  O   UNL     1      64.154  48.142  10.125  1.00  0.00    -0.508 OA
ATOM     19  H   UNL     1      63.986  48.121  11.124  1.00  0.00     0.293 HD
ENDBRANCH  15  18
BRANCH  17  20
ATOM     20  O   UNL     1      68.549  50.117   9.750  1.00  0.00    -0.507 OA
ATOM     21  H   UNL     1      69.002  50.679   9.038  1.00  0.00     0.293 HD
ENDBRANCH  17  20
ENDBRANCH   1  12
BRANCH   2  22
ATOM     22  O   UNL     1      68.709  48.635   5.803  1.00  0.00    -0.502 OA
ATOM     23  H   UNL     1      67.766  48.275   5.885  1.00  0.00     0.293 HD
ENDBRANCH   2  22
BRANCH   6  24
ATOM     24  O   UNL     1      73.947  47.712   5.500  1.00  0.00    -0.507 OA
ATOM     25  H   UNL     1      74.907  47.894   5.248  1.00  0.00     0.293 HD
ENDBRANCH   6  24
BRANCH   8  26
ATOM     26  O   UNL     1      74.975  47.036  10.125  1.00  0.00    -0.508 OA
ATOM     27  H   UNL     1      75.700  46.342   9.988  1.00  0.00     0.293 HD
ENDBRANCH   8  26
TORSDOF 6
ENDMDL
MODEL 3
REMARK VINA RESULT:    -5.921      1.967      7.193
REMARK INTER + INTRA:          -7.563
REMARK INTER:                  -7.151
REMARK INTRA:                  -0.413
REMARK UNBOUND:                -0.431
REMARK SMILES O=c1c(O)c(-c2ccc(O)cc2O)oc2cc(O)cc(O)c12
REMARK SMILES IDX 5 1 3 2 2 3 1 4 22 5 20 6 19 7 17 8 16 9 15 10 14 11 6 12
REMARK SMILES IDX 8 13 7 14 9 15 11 16 12 17 10 18 13 20 4 22 21 24 18 26
REMARK H PARENT 10 19 13 21 4 23 21 25 18 27
REMARK Flexibility Score: inf
ROOT
ATOM      1  C   UNL     1      66.023  45.537   8.570  1.00  0.00     0.184 A 
ATOM      2  C   UNL     1      67.184  45.128   7.893  1.00  0.00     0.208 A 
ATOM      3  C   UNL     1      68.278  46.006   7.824  1.00  0.00     0.238 A 
ATOM      4  O   UNL     1      69.293  45.657   7.169  1.00  0.00    -0.285 OA
ATOM      5  C   UNL     1      68.202  47.274   8.450  1.00  0.00     0.111 A 
ATOM      6  C   UNL     1      69.264  48.228   8.478  1.00  0.00     0.134 A 
ATOM      7  C   UNL     1      69.035  49.501   9.016  1.00  0.00     0.093 A 
ATOM      8  C   UNL     1      67.806  49.831   9.585  1.00  0.00     0.123 A 
ATOM      9  C   UNL     1      66.779  48.886   9.616  1.00  0.00     0.094 A 
ATOM     10  C   UNL     1      66.966  47.621   9.054  1.00  0.00     0.146 A 
ATOM     11  O   UNL     1      65.960  46.755   9.095  1.00  0.00    -0.451 OA
ENDROOT
BRANCH   1  12
ATOM     12  C   UNL     1      64.842  44.652   8.702  1.00  0.00     0.063 A 
ATOM     13  C   UNL     1      63.817  42.617   9.558  1.00  0.00     0.047 A 
ATOM     14  C   UNL     1      64.936  43.440   9.410  1.00  0.00     0.020 A 
ATOM     15  C   UNL     1      62.586  42.997   9.012  1.00  0.00     0.119 A 
ATOM     16  C   UNL     1      62.479  44.206   8.318  1.00  0.00     0.093 A 
ATOM     17  C   UNL     1      63.598  45.037   8.162  1.00  0.00     0.130 A 
BRANCH  15  18
ATOM     18  O   UNL     1      61.464  42.185   9.153  1.00  0.00    -0.508 OA
ATOM     19  H   UNL     1      61.522  41.274   9.593  1.00  0.00     0.293 HD
ENDBRANCH  15  18
BRANCH  17  20
ATOM     20  O   UNL     1      63.479  46.238   7.461  1.00  0.00    -0.507 OA
ATOM     21  H   UNL     1      62.639  46.803   7.513  1.00  0.00     0.293 HD
ENDBRANCH  17  20
ENDBRANCH   1  12
BRANCH   2  22
ATOM     22  O   UNL     1      67.230  43.878   7.272  1.00  0.00    -0.502 OA
ATOM     23  H   UNL     1      66.687  43.661   6.445  1.00  0.00     0.293 HD
ENDBRANCH   2  22
BRANCH   6  24
ATOM     24  O   UNL     1      70.558  47.969   8.019  1.00  0.00    -0.507 OA
ATOM     25  H   UNL     1      71.375  47.901   8.608  1.00  0.00     0.293 HD
ENDBRANCH   6  24
BRANCH   8  26
ATOM     26  O   UNL     1      67.618  51.103  10.125  1.00  0.00    -0.508 OA
ATOM     27  H   UNL     1      66.929  51.274  10.848  1.00  0.00     0.293 HD
ENDBRANCH   8  26
TORSDOF 6
ENDMDL
MODEL 4
REMARK VINA RESULT:    -5.882      5.019      8.717
REMARK INTER + INTRA:          -7.516
REMARK INTER:                  -7.048
REMARK INTRA:                  -0.468
REMARK UNBOUND:                -0.431
REMARK SMILES O=c1c(O)c(-c2ccc(O)cc2O)oc2cc(O)cc(O)c12
REMARK SMILES IDX 5 1 3 2 2 3 1 4 22 5 20 6 19 7 17 8 16 9 15 10 14 11 6 12
REMARK SMILES IDX 8 13 7 14 9 15 11 16 12 17 10 18 13 20 4 22 21 24 18 26
REMARK H PARENT 10 19 13 21 4 23 21 25 18 27
REMARK Flexibility Score: inf
ROOT
ATOM      1  C   UNL     1      71.600  44.046   6.117  1.00  0.00     0.184 A 
ATOM      2  C   UNL     1      72.038  44.426   4.837  1.00  0.00     0.208 A 
ATOM      3  C   UNL     1      72.786  45.605   4.695  1.00  0.00     0.238 A 
ATOM      4  O   UNL     1      73.127  45.968   3.539  1.00  0.00    -0.285 OA
ATOM      5  C   UNL     1      73.101  46.381   5.836  1.00  0.00     0.111 A 
ATOM      6  C   UNL     1      73.887  47.573   5.814  1.00  0.00     0.134 A 
ATOM      7  C   UNL     1      74.028  48.328   6.985  1.00  0.00     0.093 A 
ATOM      8  C   UNL     1      73.470  47.901   8.189  1.00  0.00     0.123 A 
ATOM      9  C   UNL     1      72.751  46.707   8.235  1.00  0.00     0.094 A 
ATOM     10  C   UNL     1      72.561  45.951   7.076  1.00  0.00     0.146 A 
ATOM     11  O   UNL     1      71.860  44.826   7.160  1.00  0.00    -0.451 OA
ENDROOT
BRANCH   1  12
ATOM     12  C   UNL     1      70.829  42.802   6.343  1.00  0.00     0.063 A 
ATOM     13  C   UNL     1      70.768  40.399   6.727  1.00  0.00     0.047 A 
ATOM     14  C   UNL     1      71.491  41.570   6.487  1.00  0.00     0.020 A 
ATOM     15  C   UNL     1      69.373  40.444   6.838  1.00  0.00     0.119 A 
ATOM     16  C   UNL     1      68.706  41.665   6.709  1.00  0.00     0.093 A 
ATOM     17  C   UNL     1      69.425  42.846   6.466  1.00  0.00     0.130 A 
BRANCH  15  18
ATOM     18  O   UNL     1      68.642  39.283   7.077  1.00  0.00    -0.508 OA
ATOM     19  H   UNL     1      67.973  39.226   7.836  1.00  0.00     0.293 HD
ENDBRANCH  15  18
BRANCH  17  20
ATOM     20  O   UNL     1      68.746  44.057   6.333  1.00  0.00    -0.507 OA
ATOM     21  H   UNL     1      68.217  44.457   7.100  1.00  0.00     0.293 HD
ENDBRANCH  17  20
ENDBRANCH   1  12
BRANCH   2  22
ATOM     22  O   UNL     1      71.703  43.650   3.724  1.00  0.00    -0.502 OA
ATOM     23  H   UNL     1      71.947  42.670   3.650  1.00  0.00     0.293 HD
ENDBRANCH   2  22
BRANCH   6  24
ATOM     24  O   UNL     1      74.564  48.040   4.684  1.00  0.00    -0.507 OA
ATOM     25  H   UNL     1      74.433  48.951   4.271  1.00  0.00     0.293 HD
ENDBRANCH   6  24
BRANCH   8  26
ATOM     26  O   UNL     1      73.644  48.671   9.339  1.00  0.00    -0.508 OA
ATOM     27  H   UNL     1      73.104  49.512   9.499  1.00  0.00     0.293 HD
ENDBRANCH   8  26
TORSDOF 6
ENDMDL
MODEL 5
REMARK VINA RESULT:    -5.863      1.875      6.891
REMARK INTER + INTRA:          -7.494
REMARK INTER:                  -7.393
REMARK INTRA:                  -0.100
REMARK UNBOUND:                -0.431
REMARK SMILES O=c1c(O)c(-c2ccc(O)cc2O)oc2cc(O)cc(O)c12
REMARK SMILES IDX 5 1 3 2 2 3 1 4 22 5 20 6 19 7 17 8 16 9 15 10 14 11 6 12
REMARK SMILES IDX 8 13 7 14 9 15 11 16 12 17 10 18 13 20 4 22 21 24 18 26
REMARK H PARENT 10 19 13 21 4 23 21 25 18 27
REMARK Flexibility Score: inf
ROOT
ATOM      1  C   UNL     1      65.139  45.789   9.321  1.00  0.00     0.184 A 
ATOM      2  C   UNL     1      64.773  47.105   9.651  1.00  0.00     0.208 A 
ATOM      3  C   UNL     1      65.775  48.080   9.775  1.00  0.00     0.238 A 
ATOM      4  O   UNL     1      65.447  49.243  10.125  1.00  0.00    -0.285 OA
ATOM      5  C   UNL     1      67.129  47.731   9.549  1.00  0.00     0.111 A 
ATOM      6  C   UNL     1      68.223  48.647   9.608  1.00  0.00     0.134 A 
ATOM      7  C   UNL     1      69.533  48.165   9.493  1.00  0.00     0.093 A 
ATOM      8  C   UNL     1      69.786  46.815   9.255  1.00  0.00     0.123 A 
ATOM      9  C   UNL     1      68.721  45.921   9.136  1.00  0.00     0.094 A 
ATOM     10  C   UNL     1      67.405  46.365   9.284  1.00  0.00     0.146 A 
ATOM     11  O   UNL     1      66.422  45.479   9.175  1.00  0.00    -0.451 OA
ENDROOT
BRANCH   1  12
ATOM     12  C   UNL     1      64.132  44.716   9.150  1.00  0.00     0.063 A 
ATOM     13  C   UNL     1      62.099  43.596   9.883  1.00  0.00     0.047 A 
ATOM     14  C   UNL     1      63.065  44.590  10.058  1.00  0.00     0.020 A 
ATOM     15  C   UNL     1      62.178  42.722   8.794  1.00  0.00     0.119 A 
ATOM     16  C   UNL     1      63.226  42.847   7.878  1.00  0.00     0.093 A 
ATOM     17  C   UNL     1      64.203  43.841   8.047  1.00  0.00     0.130 A 
BRANCH  15  18
ATOM     18  O   UNL     1      61.220  41.727   8.609  1.00  0.00    -0.508 OA
ATOM     19  H   UNL     1      61.368  40.963   7.960  1.00  0.00     0.293 HD
ENDBRANCH  15  18
BRANCH  17  20
ATOM     20  O   UNL     1      65.247  43.950   7.129  1.00  0.00    -0.507 OA
ATOM     21  H   UNL     1      65.222  43.475   6.235  1.00  0.00     0.293 HD
ENDBRANCH  17  20
ENDBRANCH   1  12
BRANCH   2  22
ATOM     22  O   UNL     1      63.432  47.422   9.881  1.00  0.00    -0.502 OA
ATOM     23  H   UNL     1      62.839  47.830   9.169  1.00  0.00     0.293 HD
ENDBRANCH   2  22
BRANCH   6  24
ATOM     24  O   UNL     1      68.076  50.029   9.750  1.00  0.00    -0.507 OA
ATOM     25  H   UNL     1      67.192  50.510   9.817  1.00  0.00     0.293 HD
ENDBRANCH   6  24
BRANCH   8  26
ATOM     26  O   UNL     1      71.102  46.374   9.130  1.00  0.00    -0.508 OA
ATOM     27  H   UNL     1      71.401  45.485   9.513  1.00  0.00     0.293 HD
ENDBRANCH   8  26
TORSDOF 6
ENDMDL
MODEL 6
REMARK VINA RESULT:    -5.799      2.999      6.845
REMARK INTER + INTRA:          -7.416
REMARK INTER:                  -7.047
REMARK INTRA:                  -0.369
REMARK UNBOUND:                -0.431
REMARK SMILES O=c1c(O)c(-c2ccc(O)cc2O)oc2cc(O)cc(O)c12
REMARK SMILES IDX 5 1 3 2 2 3 1 4 22 5 20 6 19 7 17 8 16 9 15 10 14 11 6 12
REMARK SMILES IDX 8 13 7 14 9 15 11 16 12 17 10 18 13 20 4 22 21 24 18 26
REMARK H PARENT 10 19 13 21 4 23 21 25 18 27
REMARK Flexibility Score: inf
ROOT
ATOM      1  C   UNL     1      69.678  47.763   7.174  1.00  0.00     0.184 A 
ATOM      2  C   UNL     1      70.051  48.469   6.018  1.00  0.00     0.208 A 
ATOM      3  C   UNL     1      71.273  48.162   5.397  1.00  0.00     0.238 A 
ATOM      4  O   UNL     1      71.627  48.836   4.395  1.00  0.00    -0.285 OA
ATOM      5  C   UNL     1      72.096  47.140   5.930  1.00  0.00     0.111 A 
ATOM      6  C   UNL     1      73.335  46.719   5.360  1.00  0.00     0.134 A 
ATOM      7  C   UNL     1      74.127  45.787   6.042  1.00  0.00     0.093 A 
ATOM      8  C   UNL     1      73.696  45.214   7.238  1.00  0.00     0.123 A 
ATOM      9  C   UNL     1      72.459  45.575   7.774  1.00  0.00     0.094 A 
ATOM     10  C   UNL     1      71.664  46.529   7.135  1.00  0.00     0.146 A 
ATOM     11  O   UNL     1      70.499  46.853   7.684  1.00  0.00    -0.451 OA
ENDROOT
BRANCH   1  12
ATOM     12  C   UNL     1      68.393  48.018   7.865  1.00  0.00     0.063 A 
ATOM     13  C   UNL     1      67.124  49.144   9.611  1.00  0.00     0.047 A 
ATOM     14  C   UNL     1      68.339  48.881   8.975  1.00  0.00     0.020 A 
ATOM     15  C   UNL     1      65.943  48.558   9.142  1.00  0.00     0.119 A 
ATOM     16  C   UNL     1      65.982  47.711   8.031  1.00  0.00     0.093 A 
ATOM     17  C   UNL     1      67.199  47.439   7.387  1.00  0.00     0.130 A 
BRANCH  15  18
ATOM     18  O   UNL     1      64.725  48.814   9.768  1.00  0.00    -0.508 OA
ATOM     19  H   UNL     1      63.967  49.278   9.282  1.00  0.00     0.293 HD
ENDBRANCH  15  18
BRANCH  17  20
ATOM     20  O   UNL     1      67.225  46.586   6.284  1.00  0.00    -0.507 OA
ATOM     21  H   UNL     1      66.635  46.744   5.475  1.00  0.00     0.293 HD
ENDBRANCH  17  20
ENDBRANCH   1  12
BRANCH   2  22
ATOM     22  O   UNL     1      69.228  49.482   5.519  1.00  0.00    -0.502 OA
ATOM     23  H   UNL     1      68.878  49.479   4.568  1.00  0.00     0.293 HD
ENDBRANCH   2  22
BRANCH   6  24
ATOM     24  O   UNL     1      73.816  47.160   4.124  1.00  0.00    -0.507 OA
ATOM     25  H   UNL     1      74.308  48.028   3.975  1.00  0.00     0.293 HD
ENDBRANCH   6  24
BRANCH   8  26
ATOM     26  O   UNL     1      74.504  44.278   7.882  1.00  0.00    -0.508 OA
ATOM     27  H   UNL     1      75.152  43.695   7.367  1.00  0.00     0.293 HD
ENDBRANCH   8  26
TORSDOF 6
ENDMDL
MODEL 7
REMARK VINA RESULT:    -5.695      2.612      6.832
REMARK INTER + INTRA:          -7.291
REMARK INTER:                  -6.867
REMARK INTRA:                  -0.425
REMARK UNBOUND:                -0.431
REMARK SMILES O=c1c(O)c(-c2ccc(O)cc2O)oc2cc(O)cc(O)c12
REMARK SMILES IDX 5 1 3 2 2 3 1 4 22 5 20 6 19 7 17 8 16 9 15 10 14 11 6 12
REMARK SMILES IDX 8 13 7 14 9 15 11 16 12 17 10 18 13 20 4 22 21 24 18 26
REMARK H PARENT 10 19 13 21 4 23 21 25 18 27
REMARK Flexibility Score: inf
ROOT
ATOM      1  C   UNL     1      66.604  45.844   8.234  1.00  0.00     0.184 A 
ATOM      2  C   UNL     1      66.897  46.908   7.364  1.00  0.00     0.208 A 
ATOM      3  C   UNL     1      68.233  47.148   7.008  1.00  0.00     0.238 A 
ATOM      4  O   UNL     1      68.495  48.136   6.273  1.00  0.00    -0.285 OA
ATOM      5  C   UNL     1      69.258  46.311   7.512  1.00  0.00     0.111 A 
ATOM      6  C   UNL     1      70.642  46.438   7.186  1.00  0.00     0.134 A 
ATOM      7  C   UNL     1      71.582  45.635   7.843  1.00  0.00     0.093 A 
ATOM      8  C   UNL     1      71.184  44.666   8.763  1.00  0.00     0.123 A 
ATOM      9  C   UNL     1      69.829  44.493   9.045  1.00  0.00     0.094 A 
ATOM     10  C   UNL     1      68.870  45.304   8.433  1.00  0.00     0.146 A 
ATOM     11  O   UNL     1      67.592  45.114   8.738  1.00  0.00    -0.451 OA
ENDROOT
BRANCH   1  12
ATOM     12  C   UNL     1      65.215  45.519   8.631  1.00  0.00     0.063 A 
ATOM     13  C   UNL     1      63.208  46.041   9.907  1.00  0.00     0.047 A 
ATOM     14  C   UNL     1      64.528  46.331   9.552  1.00  0.00     0.020 A 
ATOM     15  C   UNL     1      62.552  44.943   9.340  1.00  0.00     0.119 A 
ATOM     16  C   UNL     1      63.221  44.137   8.415  1.00  0.00     0.093 A 
ATOM     17  C   UNL     1      64.547  44.419   8.054  1.00  0.00     0.130 A 
BRANCH  15  18
ATOM     18  O   UNL     1      61.236  44.644   9.687  1.00  0.00    -0.508 OA
ATOM     19  H   UNL     1      60.512  45.352   9.673  1.00  0.00     0.293 HD
ENDBRANCH  15  18
BRANCH  17  20
ATOM     20  O   UNL     1      65.205  43.603   7.134  1.00  0.00    -0.507 OA
ATOM     21  H   UNL     1      64.792  43.372   6.237  1.00  0.00     0.293 HD
ENDBRANCH  17  20
ENDBRANCH   1  12
BRANCH   2  22
ATOM     22  O   UNL     1      65.870  47.728   6.890  1.00  0.00    -0.502 OA
ATOM     23  H   UNL     1      66.023  48.695   6.628  1.00  0.00     0.293 HD
ENDBRANCH   2  22
BRANCH   6  24
ATOM     24  O   UNL     1      71.138  47.311   6.214  1.00  0.00    -0.507 OA
ATOM     25  H   UNL     1      71.349  47.053   5.262  1.00  0.00     0.293 HD
ENDBRANCH   6  24
BRANCH   8  26
ATOM     26  O   UNL     1      72.147  43.873   9.386  1.00  0.00    -0.508 OA
ATOM     27  H   UNL     1      73.095  44.203   9.525  1.00  0.00     0.293 HD
ENDBRANCH   8  26
TORSDOF 6
ENDMDL
MODEL 8
REMARK VINA RESULT:    -5.520      2.087      6.452
REMARK INTER + INTRA:          -7.080
REMARK INTER:                  -6.715
REMARK INTRA:                  -0.365
REMARK UNBOUND:                -0.431
REMARK SMILES O=c1c(O)c(-c2ccc(O)cc2O)oc2cc(O)cc(O)c12
REMARK SMILES IDX 5 1 3 2 2 3 1 4 22 5 20 6 19 7 17 8 16 9 15 10 14 11 6 12
REMARK SMILES IDX 8 13 7 14 9 15 11 16 12 17 10 18 13 20 4 22 21 24 18 26
REMARK H PARENT 10 19 13 21 4 23 21 25 18 27
REMARK Flexibility Score: inf
ROOT
ATOM      1  C   UNL     1      68.580  47.647   8.443  1.00  0.00     0.184 A 
ATOM      2  C   UNL     1      69.091  48.842   8.976  1.00  0.00     0.208 A 
ATOM      3  C   UNL     1      70.436  49.171   8.746  1.00  0.00     0.238 A 
ATOM      4  O   UNL     1      70.902  50.214   9.273  1.00  0.00    -0.285 OA
ATOM      5  C   UNL     1      71.248  48.309   7.969  1.00  0.00     0.111 A 
ATOM      6  C   UNL     1      72.614  48.563   7.639  1.00  0.00     0.134 A 
ATOM      7  C   UNL     1      73.356  47.581   6.972  1.00  0.00     0.093 A 
ATOM      8  C   UNL     1      72.767  46.384   6.566  1.00  0.00     0.123 A 
ATOM      9  C   UNL     1      71.417  46.151   6.831  1.00  0.00     0.094 A 
ATOM     10  C   UNL     1      70.660  47.096   7.528  1.00  0.00     0.146 A 
ATOM     11  O   UNL     1      69.382  46.830   7.770  1.00  0.00    -0.451 OA
ENDROOT
BRANCH   1  12
ATOM     12  C   UNL     1      67.164  47.251   8.626  1.00  0.00     0.063 A 
ATOM     13  C   UNL     1      65.313  46.660  10.091  1.00  0.00     0.047 A 
ATOM     14  C   UNL     1      66.654  47.007   9.914  1.00  0.00     0.020 A 
ATOM     15  C   UNL     1      64.459  46.561   8.987  1.00  0.00     0.119 A 
ATOM     16  C   UNL     1      64.953  46.814   7.704  1.00  0.00     0.093 A 
ATOM     17  C   UNL     1      66.300  47.161   7.516  1.00  0.00     0.130 A 
BRANCH  15  18
ATOM     18  O   UNL     1      63.120  46.215   9.152  1.00  0.00    -0.508 OA
ATOM     19  H   UNL     1      62.483  46.801   9.678  1.00  0.00     0.293 HD
ENDBRANCH  15  18
BRANCH  17  20
ATOM     20  O   UNL     1      66.781  47.405   6.230  1.00  0.00    -0.507 OA
ATOM     21  H   UNL     1      67.671  47.864   6.073  1.00  0.00     0.293 HD
ENDBRANCH  17  20
ENDBRANCH   1  12
BRANCH   2  22
ATOM     22  O   UNL     1      68.273  49.669   9.750  1.00  0.00    -0.502 OA
ATOM     23  H   UNL     1      68.615  50.163  10.566  1.00  0.00     0.293 HD
ENDBRANCH   2  22
BRANCH   6  24
ATOM     24  O   UNL     1      73.274  49.763   7.917  1.00  0.00    -0.507 OA
ATOM     25  H   UNL     1      73.010  50.664   7.548  1.00  0.00     0.293 HD
ENDBRANCH   6  24
BRANCH   8  26
ATOM     26  O   UNL     1      73.533  45.435   5.891  1.00  0.00    -0.508 OA
ATOM     27  H   UNL     1      74.518  45.584   5.706  1.00  0.00     0.293 HD
ENDBRANCH   8  26
TORSDOF 6
ENDMDL
