MODEL 1
REMARK VINA RESULT:    -4.843      0.000      0.000
REMARK INTER + INTRA:          -8.802
REMARK INTER:                  -7.674
REMARK INTRA:                  -1.128
REMARK UNBOUND:                -1.128
REMARK SMILES CCCCCCCCCCCC(=O)[O-]
REMARK SMILES IDX 7 1 8 2 9 3 10 4 11 5 12 6 13 7 14 8 6 9 5 10 4 11 3 12 2 13
REMARK SMILES IDX 1 14
REMARK H PARENT
REMARK Flexibility Score: inf
ROOT
ATOM      1  C   UNL     1     -26.938 -31.005 -10.803  1.00  0.00     0.000 C 
ENDROOT
BRANCH   1   2
ATOM      2  C   UNL     1     -25.455 -31.355 -10.613  1.00  0.00     0.000 C 
BRANCH   2   3
ATOM      3  C   UNL     1     -24.704 -31.497 -11.947  1.00  0.00     0.000 C 
BRANCH   3   4
ATOM      4  C   UNL     1     -23.868 -32.783 -12.022  1.00  0.00     0.006 C 
BRANCH   4   5
ATOM      5  C   UNL     1     -24.769 -34.022 -12.019  1.00  0.00     0.053 C 
BRANCH   5   6
ATOM      6  C   UNL     1     -24.056 -35.189 -12.625  1.00  0.00     0.041 C 
ATOM      7  O   UNL     1     -22.800 -35.191 -12.710  1.00  0.00    -0.550 OA
ATOM      8  O   UNL     1     -24.776 -36.298 -13.052  1.00  0.00    -0.550 OA
ENDBRANCH   5   6
ENDBRANCH   4   5
ENDBRANCH   3   4
ENDBRANCH   2   3
ENDBRANCH   1   2
BRANCH   1   9
ATOM      9  C   UNL     1     -27.215 -30.552 -12.242  1.00  0.00     0.000 C 
BRANCH   9  10
ATOM     10  C   UNL     1     -28.468 -31.236 -12.803  1.00  0.00    -0.000 C 
BRANCH  10  11
ATOM     11  C   UNL     1     -28.120 -32.590 -13.435  1.00  0.00    -0.000 C 
BRANCH  11  12
ATOM     12  C   UNL     1     -28.460 -33.744 -12.486  1.00  0.00    -0.000 C 
BRANCH  12  13
ATOM     13  C   UNL     1     -27.937 -35.078 -13.034  1.00  0.00    -0.003 C 
ATOM     14  C   UNL     1     -27.704 -35.002 -14.540  1.00  0.00     0.004 C 
ENDBRANCH  12  13
ENDBRANCH  11  12
ENDBRANCH  10  11
ENDBRANCH   9  10
ENDBRANCH   1   9
TORSDOF 10
ENDMDL
MODEL 2
REMARK VINA RESULT:    -4.595      1.628      3.562
REMARK INTER + INTRA:          -8.408
REMARK INTER:                  -7.148
REMARK INTRA:                  -1.260
REMARK UNBOUND:                -1.128
REMARK SMILES CCCCCCCCCCCC(=O)[O-]
REMARK SMILES IDX 7 1 8 2 9 3 10 4 11 5 12 6 13 7 14 8 6 9 5 10 4 11 3 12 2 13
REMARK SMILES IDX 1 14
REMARK H PARENT
REMARK Flexibility Score: inf
ROOT
ATOM      1  C   UNL     1     -27.194 -34.617 -11.689  1.00  0.00     0.000 C 
ENDROOT
BRANCH   1   2
ATOM      2  C   UNL     1     -25.705 -34.917 -11.459  1.00  0.00     0.000 C 
BRANCH   2   3
ATOM      3  C   UNL     1     -25.022 -35.514 -12.700  1.00  0.00     0.000 C 
BRANCH   3   4
ATOM      4  C   UNL     1     -23.492 -35.551 -12.573  1.00  0.00     0.006 C 
BRANCH   4   5
ATOM      5  C   UNL     1     -22.895 -34.151 -12.744  1.00  0.00     0.053 C 
BRANCH   5   6
ATOM      6  C   UNL     1     -21.598 -34.221 -13.485  1.00  0.00     0.041 C 
ATOM      7  O   UNL     1     -20.836 -35.212 -13.337  1.00  0.00    -0.550 OA
ATOM      8  O   UNL     1     -21.252 -33.214 -14.377  1.00  0.00    -0.550 OA
ENDBRANCH   5   6
ENDBRANCH   4   5
ENDBRANCH   3   4
ENDBRANCH   2   3
ENDBRANCH   1   2
BRANCH   1   9
ATOM      9  C   UNL     1     -27.424 -34.025 -13.085  1.00  0.00     0.000 C 
BRANCH   9  10
ATOM     10  C   UNL     1     -28.340 -32.796 -13.018  1.00  0.00    -0.000 C 
BRANCH  10  11
ATOM     11  C   UNL     1     -27.628 -31.614 -12.348  1.00  0.00    -0.000 C 
BRANCH  11  12
ATOM     12  C   UNL     1     -26.231 -31.403 -12.943  1.00  0.00    -0.000 C 
BRANCH  12  13
ATOM     13  C   UNL     1     -25.179 -31.255 -11.837  1.00  0.00    -0.003 C 
ATOM     14  C   UNL     1     -25.819 -31.336 -10.454  1.00  0.00     0.004 C 
ENDBRANCH  12  13
ENDBRANCH  11  12
ENDBRANCH  10  11
ENDBRANCH   9  10
ENDBRANCH   1   9
TORSDOF 10
ENDMDL
MODEL 3
REMARK VINA RESULT:    -4.585      2.335      4.756
REMARK INTER + INTRA:          -8.393
REMARK INTER:                  -7.202
REMARK INTRA:                  -1.191
REMARK UNBOUND:                -1.128
REMARK SMILES CCCCCCCCCCCC(=O)[O-]
REMARK SMILES IDX 7 1 8 2 9 3 10 4 11 5 12 6 13 7 14 8 6 9 5 10 4 11 3 12 2 13
REMARK SMILES IDX 1 14
REMARK H PARENT
REMARK Flexibility Score: inf
ROOT
ATOM      1  C   UNL     1     -27.554 -35.015 -13.062  1.00  0.00     0.000 C 
ENDROOT
BRANCH   1   2
ATOM      2  C   UNL     1     -27.793 -33.684 -13.793  1.00  0.00     0.000 C 
BRANCH   2   3
ATOM      3  C   UNL     1     -28.536 -32.657 -12.924  1.00  0.00     0.000 C 
BRANCH   3   4
ATOM      4  C   UNL     1     -27.828 -31.294 -12.884  1.00  0.00     0.006 C 
BRANCH   4   5
ATOM      5  C   UNL     1     -26.311 -31.461 -13.020  1.00  0.00     0.053 C 
BRANCH   5   6
ATOM      6  C   UNL     1     -25.633 -31.168 -11.719  1.00  0.00     0.041 C 
ATOM      7  O   UNL     1     -24.431 -30.793 -11.701  1.00  0.00    -0.550 OA
ATOM      8  O   UNL     1     -26.342 -31.262 -10.528  1.00  0.00    -0.550 OA
ENDBRANCH   5   6
ENDBRANCH   4   5
ENDBRANCH   3   4
ENDBRANCH   2   3
ENDBRANCH   1   2
BRANCH   1   9
ATOM      9  C   UNL     1     -27.137 -34.774 -11.607  1.00  0.00     0.000 C 
BRANCH   9  10
ATOM     10  C   UNL     1     -25.613 -34.850 -11.451  1.00  0.00    -0.000 C 
BRANCH  10  11
ATOM     11  C   UNL     1     -24.990 -35.730 -12.542  1.00  0.00    -0.000 C 
BRANCH  11  12
ATOM     12  C   UNL     1     -23.481 -35.489 -12.649  1.00  0.00    -0.000 C 
BRANCH  12  13
ATOM     13  C   UNL     1     -23.157 -33.991 -12.583  1.00  0.00    -0.003 C 
ATOM     14  C   UNL     1     -21.815 -33.687 -13.240  1.00  0.00     0.004 C 
ENDBRANCH  12  13
ENDBRANCH  11  12
ENDBRANCH  10  11
ENDBRANCH   9  10
ENDBRANCH   1   9
TORSDOF 10
ENDMDL
MODEL 4
REMARK VINA RESULT:    -4.538      1.682      2.451
REMARK INTER + INTRA:          -8.318
REMARK INTER:                  -7.283
REMARK INTRA:                  -1.034
REMARK UNBOUND:                -1.128
REMARK SMILES CCCCCCCCCCCC(=O)[O-]
REMARK SMILES IDX 7 1 8 2 9 3 10 4 11 5 12 6 13 7 14 8 6 9 5 10 4 11 3 12 2 13
REMARK SMILES IDX 1 14
REMARK H PARENT
REMARK Flexibility Score: inf
ROOT
ATOM      1  C   UNL     1     -25.040 -32.253 -11.034  1.00  0.00     0.000 C 
ENDROOT
BRANCH   1   2
ATOM      2  C   UNL     1     -24.387 -32.898 -12.266  1.00  0.00     0.000 C 
BRANCH   2   3
ATOM      3  C   UNL     1     -24.484 -34.432 -12.253  1.00  0.00     0.000 C 
BRANCH   3   4
ATOM      4  C   UNL     1     -23.179 -35.112 -12.693  1.00  0.00     0.006 C 
BRANCH   4   5
ATOM      5  C   UNL     1     -22.026 -34.104 -12.738  1.00  0.00     0.053 C 
BRANCH   5   6
ATOM      6  C   UNL     1     -20.962 -34.566 -13.682  1.00  0.00     0.041 C 
ATOM      7  O   UNL     1     -20.762 -33.951 -14.762  1.00  0.00    -0.550 OA
ATOM      8  O   UNL     1     -20.157 -35.647 -13.346  1.00  0.00    -0.550 OA
ENDBRANCH   5   6
ENDBRANCH   4   5
ENDBRANCH   3   4
ENDBRANCH   2   3
ENDBRANCH   1   2
BRANCH   1   9
ATOM      9  C   UNL     1     -26.550 -32.082 -11.241  1.00  0.00     0.000 C 
BRANCH   9  10
ATOM     10  C   UNL     1     -26.862 -31.627 -12.672  1.00  0.00    -0.000 C 
BRANCH  10  11
ATOM     11  C   UNL     1     -27.868 -32.569 -13.343  1.00  0.00    -0.000 C 
BRANCH  11  12
ATOM     12  C   UNL     1     -28.260 -33.715 -12.404  1.00  0.00    -0.000 C 
BRANCH  12  13
ATOM     13  C   UNL     1     -27.832 -35.070 -12.982  1.00  0.00    -0.003 C 
ATOM     14  C   UNL     1     -27.710 -35.006 -14.502  1.00  0.00     0.004 C 
ENDBRANCH  12  13
ENDBRANCH  11  12
ENDBRANCH  10  11
ENDBRANCH   9  10
ENDBRANCH   1   9
TORSDOF 10
ENDMDL
MODEL 5
REMARK VINA RESULT:    -4.476      1.017      3.567
REMARK INTER + INTRA:          -8.220
REMARK INTER:                  -7.093
REMARK INTRA:                  -1.127
REMARK UNBOUND:                -1.128
REMARK SMILES CCCCCCCCCCCC(=O)[O-]
REMARK SMILES IDX 7 1 8 2 9 3 10 4 11 5 12 6 13 7 14 8 6 9 5 10 4 11 3 12 2 13
REMARK SMILES IDX 1 14
REMARK H PARENT
REMARK Flexibility Score: inf
ROOT
ATOM      1  C   UNL     1     -28.627 -32.510 -13.001  1.00  0.00     0.000 C 
ENDROOT
BRANCH   1   2
ATOM      2  C   UNL     1     -27.594 -33.574 -13.399  1.00  0.00     0.000 C 
BRANCH   2   3
ATOM      3  C   UNL     1     -27.529 -34.741 -12.400  1.00  0.00     0.000 C 
BRANCH   3   4
ATOM      4  C   UNL     1     -26.295 -34.672 -11.489  1.00  0.00     0.006 C 
BRANCH   4   5
ATOM      5  C   UNL     1     -25.065 -34.195 -12.268  1.00  0.00     0.053 C 
BRANCH   5   6
ATOM      6  C   UNL     1     -24.236 -35.361 -12.703  1.00  0.00     0.041 C 
ATOM      7  O   UNL     1     -22.979 -35.304 -12.640  1.00  0.00    -0.550 OA
ATOM      8  O   UNL     1     -24.850 -36.531 -13.130  1.00  0.00    -0.550 OA
ENDBRANCH   5   6
ENDBRANCH   4   5
ENDBRANCH   3   4
ENDBRANCH   2   3
ENDBRANCH   1   2
BRANCH   1   9
ATOM      9  C   UNL     1     -27.970 -31.130 -12.870  1.00  0.00     0.000 C 
BRANCH   9  10
ATOM     10  C   UNL     1     -27.732 -30.770 -11.398  1.00  0.00    -0.000 C 
BRANCH  10  11
ATOM     11  C   UNL     1     -26.295 -30.283 -11.175  1.00  0.00    -0.000 C 
BRANCH  11  12
ATOM     12  C   UNL     1     -25.540 -31.213 -10.219  1.00  0.00    -0.000 C 
BRANCH  12  13
ATOM     13  C   UNL     1     -24.043 -30.880 -10.196  1.00  0.00    -0.003 C 
ATOM     14  C   UNL     1     -23.447 -30.927 -11.600  1.00  0.00     0.004 C 
ENDBRANCH  12  13
ENDBRANCH  11  12
ENDBRANCH  10  11
ENDBRANCH   9  10
ENDBRANCH   1   9
TORSDOF 10
ENDMDL
MODEL 6
REMARK VINA RESULT:    -4.473      2.780      5.430
REMARK INTER + INTRA:          -8.216
REMARK INTER:                  -7.304
REMARK INTRA:                  -0.912
REMARK UNBOUND:                -1.128
REMARK SMILES CCCCCCCCCCCC(=O)[O-]
REMARK SMILES IDX 7 1 8 2 9 3 10 4 11 5 12 6 13 7 14 8 6 9 5 10 4 11 3 12 2 13
REMARK SMILES IDX 1 14
REMARK H PARENT
REMARK Flexibility Score: inf
ROOT
ATOM      1  C   UNL     1     -26.034 -34.559 -11.185  1.00  0.00     0.000 C 
ENDROOT
BRANCH   1   2
ATOM      2  C   UNL     1     -27.520 -34.739 -11.528  1.00  0.00     0.000 C 
BRANCH   2   3
ATOM      3  C   UNL     1     -27.768 -34.868 -13.040  1.00  0.00     0.000 C 
BRANCH   3   4
ATOM      4  C   UNL     1     -27.583 -33.537 -13.784  1.00  0.00     0.006 C 
BRANCH   4   5
ATOM      5  C   UNL     1     -28.409 -32.425 -13.131  1.00  0.00     0.053 C 
BRANCH   5   6
ATOM      6  C   UNL     1     -27.515 -31.349 -12.602  1.00  0.00     0.041 C 
ATOM      7  O   UNL     1     -26.456 -31.048 -13.213  1.00  0.00    -0.550 OA
ATOM      8  O   UNL     1     -27.876 -30.643 -11.461  1.00  0.00    -0.550 OA
ENDBRANCH   5   6
ENDBRANCH   4   5
ENDBRANCH   3   4
ENDBRANCH   2   3
ENDBRANCH   1   2
BRANCH   1   9
ATOM      9  C   UNL     1     -25.192 -35.696 -11.779  1.00  0.00     0.000 C 
BRANCH   9  10
ATOM     10  C   UNL     1     -24.141 -35.151 -12.754  1.00  0.00    -0.000 C 
BRANCH  10  11
ATOM     11  C   UNL     1     -23.708 -33.733 -12.361  1.00  0.00    -0.000 C 
BRANCH  11  12
ATOM     12  C   UNL     1     -22.183 -33.591 -12.405  1.00  0.00    -0.000 C 
BRANCH  12  13
ATOM     13  C   UNL     1     -21.530 -34.848 -12.995  1.00  0.00    -0.003 C 
ATOM     14  C   UNL     1     -20.591 -35.505 -11.988  1.00  0.00     0.004 C 
ENDBRANCH  12  13
ENDBRANCH  11  12
ENDBRANCH  10  11
ENDBRANCH   9  10
ENDBRANCH   1   9
TORSDOF 10
ENDMDL
MODEL 7
REMARK VINA RESULT:    -4.425      1.469      2.827
REMARK INTER + INTRA:          -8.140
REMARK INTER:                  -6.849
REMARK INTRA:                  -1.290
REMARK UNBOUND:                -1.128
REMARK SMILES CCCCCCCCCCCC(=O)[O-]
REMARK SMILES IDX 7 1 8 2 9 3 10 4 11 5 12 6 13 7 14 8 6 9 5 10 4 11 3 12 2 13
REMARK SMILES IDX 1 14
REMARK H PARENT
REMARK Flexibility Score: inf
ROOT
ATOM      1  C   UNL     1     -27.831 -31.076 -12.983  1.00  0.00     0.000 C 
ENDROOT
BRANCH   1   2
ATOM      2  C   UNL     1     -27.132 -30.371 -11.811  1.00  0.00     0.000 C 
BRANCH   2   3
ATOM      3  C   UNL     1     -26.638 -31.354 -10.738  1.00  0.00     0.000 C 
BRANCH   3   4
ATOM      4  C   UNL     1     -25.106 -31.410 -10.647  1.00  0.00     0.006 C 
BRANCH   4   5
ATOM      5  C   UNL     1     -24.488 -31.730 -12.012  1.00  0.00     0.053 C 
BRANCH   5   6
ATOM      6  C   UNL     1     -23.109 -32.285 -11.847  1.00  0.00     0.041 C 
ATOM      7  O   UNL     1     -22.710 -33.223 -12.586  1.00  0.00    -0.550 OA
ATOM      8  O   UNL     1     -22.246 -31.733 -10.909  1.00  0.00    -0.550 OA
ENDBRANCH   5   6
ENDBRANCH   4   5
ENDBRANCH   3   4
ENDBRANCH   2   3
ENDBRANCH   1   2
BRANCH   1   9
ATOM      9  C   UNL     1     -28.249 -32.499 -12.596  1.00  0.00     0.000 C 
BRANCH   9  10
ATOM     10  C   UNL     1     -27.830 -33.509 -13.672  1.00  0.00    -0.000 C 
BRANCH  10  11
ATOM     11  C   UNL     1     -27.495 -34.870 -13.051  1.00  0.00    -0.000 C 
BRANCH  11  12
ATOM     12  C   UNL     1     -26.864 -34.702 -11.664  1.00  0.00    -0.000 C 
BRANCH  12  13
ATOM     13  C   UNL     1     -25.434 -35.257 -11.640  1.00  0.00    -0.003 C 
ATOM     14  C   UNL     1     -25.057 -35.865 -12.987  1.00  0.00     0.004 C 
ENDBRANCH  12  13
ENDBRANCH  11  12
ENDBRANCH  10  11
ENDBRANCH   9  10
ENDBRANCH   1   9
TORSDOF 10
ENDMDL
MODEL 8
REMARK VINA RESULT:    -4.367      1.831      4.317
REMARK INTER + INTRA:          -8.047
REMARK INTER:                  -7.102
REMARK INTRA:                  -0.945
REMARK UNBOUND:                -1.128
REMARK SMILES CCCCCCCCCCCC(=O)[O-]
REMARK SMILES IDX 7 1 8 2 9 3 10 4 11 5 12 6 13 7 14 8 6 9 5 10 4 11 3 12 2 13
REMARK SMILES IDX 1 14
REMARK H PARENT
REMARK Flexibility Score: inf
ROOT
ATOM      1  C   UNL     1     -25.942 -31.896 -10.873  1.00  0.00     0.000 C 
ENDROOT
BRANCH   1   2
ATOM      2  C   UNL     1     -26.673 -30.621 -11.320  1.00  0.00     0.000 C 
BRANCH   2   3
ATOM      3  C   UNL     1     -27.441 -30.809 -12.638  1.00  0.00     0.000 C 
BRANCH   3   4
ATOM      4  C   UNL     1     -28.277 -32.097 -12.657  1.00  0.00     0.006 C 
BRANCH   4   5
ATOM      5  C   UNL     1     -27.789 -33.049 -13.754  1.00  0.00     0.053 C 
BRANCH   5   6
ATOM      6  C   UNL     1     -27.885 -34.470 -13.296  1.00  0.00     0.041 C 
ATOM      7  O   UNL     1     -27.900 -35.408 -14.136  1.00  0.00    -0.550 OA
ATOM      8  O   UNL     1     -27.908 -34.762 -11.938  1.00  0.00    -0.550 OA
ENDBRANCH   5   6
ENDBRANCH   4   5
ENDBRANCH   3   4
ENDBRANCH   2   3
ENDBRANCH   1   2
BRANCH   1   9
ATOM      9  C   UNL     1     -24.427 -31.666 -10.807  1.00  0.00     0.000 C 
BRANCH   9  10
ATOM     10  C   UNL     1     -23.691 -32.546 -11.825  1.00  0.00    -0.000 C 
BRANCH  10  11
ATOM     11  C   UNL     1     -24.530 -33.774 -12.199  1.00  0.00    -0.000 C 
BRANCH  11  12
ATOM     12  C   UNL     1     -23.633 -34.962 -12.565  1.00  0.00    -0.000 C 
BRANCH  12  13
ATOM     13  C   UNL     1     -22.218 -34.492 -12.927  1.00  0.00    -0.003 C 
ATOM     14  C   UNL     1     -21.166 -35.475 -12.423  1.00  0.00     0.004 C 
ENDBRANCH  12  13
ENDBRANCH  11  12
ENDBRANCH  10  11
ENDBRANCH   9  10
ENDBRANCH   1   9
TORSDOF 10
ENDMDL
MODEL 9
REMARK VINA RESULT:    -4.336      2.467      5.217
REMARK INTER + INTRA:          -7.998
REMARK INTER:                  -7.271
REMARK INTRA:                  -0.727
REMARK UNBOUND:                -1.128
REMARK SMILES CCCCCCCCCCCC(=O)[O-]
REMARK SMILES IDX 7 1 8 2 9 3 10 4 11 5 12 6 13 7 14 8 6 9 5 10 4 11 3 12 2 13
REMARK SMILES IDX 1 14
REMARK H PARENT
REMARK Flexibility Score: inf
ROOT
ATOM      1  C   UNL     1     -24.602 -33.227 -12.243  1.00  0.00     0.000 C 
ENDROOT
BRANCH   1   2
ATOM      2  C   UNL     1     -25.197 -32.387 -11.103  1.00  0.00     0.000 C 
BRANCH   2   3
ATOM      3  C   UNL     1     -26.416 -31.563 -11.549  1.00  0.00     0.000 C 
BRANCH   3   4
ATOM      4  C   UNL     1     -26.835 -31.863 -12.995  1.00  0.00     0.006 C 
BRANCH   4   5
ATOM      5  C   UNL     1     -28.240 -32.472 -13.043  1.00  0.00     0.053 C 
BRANCH   5   6
ATOM      6  C   UNL     1     -28.185 -33.940 -12.762  1.00  0.00     0.041 C 
ATOM      7  O   UNL     1     -28.362 -34.368 -11.591  1.00  0.00    -0.550 OA
ATOM      8  O   UNL     1     -27.987 -34.840 -13.801  1.00  0.00    -0.550 OA
ENDBRANCH   5   6
ENDBRANCH   4   5
ENDBRANCH   3   4
ENDBRANCH   2   3
ENDBRANCH   1   2
BRANCH   1   9
ATOM      9  C   UNL     1     -24.840 -34.723 -12.003  1.00  0.00     0.000 C 
BRANCH   9  10
ATOM     10  C   UNL     1     -23.688 -35.562 -12.571  1.00  0.00    -0.000 C 
BRANCH  10  11
ATOM     11  C   UNL     1     -22.472 -34.684 -12.891  1.00  0.00    -0.000 C 
BRANCH  11  12
ATOM     12  C   UNL     1     -21.173 -35.494 -12.817  1.00  0.00    -0.000 C 
BRANCH  12  13
ATOM     13  C   UNL     1     -20.018 -34.744 -13.493  1.00  0.00    -0.003 C 
ATOM     14  C   UNL     1     -20.531 -33.822 -14.595  1.00  0.00     0.004 C 
ENDBRANCH  12  13
ENDBRANCH  11  12
ENDBRANCH  10  11
ENDBRANCH   9  10
ENDBRANCH   1   9
TORSDOF 10
ENDMDL
