MODEL 1
REMARK VINA RESULT:    -5.784      0.000      0.000
REMARK INTER + INTRA:          -7.288
REMARK INTER:                  -6.968
REMARK INTRA:                  -0.320
REMARK UNBOUND:                -0.320
REMARK SMILES O=c1c(O)c(-c2ccc(O)c(O)c2)oc2cc(O)cc(O)c12
REMARK SMILES IDX 5 1 3 2 2 3 1 4 22 5 20 6 19 7 17 8 16 9 15 10 14 11 6 12
REMARK SMILES IDX 7 13 8 14 9 15 13 16 11 17 10 18 12 20 4 22 21 24 18 26
REMARK H PARENT 10 19 12 21 4 23 21 25 18 27
REMARK Flexibility Score: inf
ROOT
ATOM      1  C   UNL     1      83.936  -8.368  28.155  1.00  0.00     0.180 A 
ATOM      2  C   UNL     1      82.588  -8.329  28.551  1.00  0.00     0.208 A 
ATOM      3  C   UNL     1      81.588  -8.504  27.581  1.00  0.00     0.238 A 
ATOM      4  O   UNL     1      80.382  -8.415  27.931  1.00  0.00    -0.285 OA
ATOM      5  C   UNL     1      81.949  -8.732  26.230  1.00  0.00     0.111 A 
ATOM      6  C   UNL     1      81.020  -8.963  25.171  1.00  0.00     0.134 A 
ATOM      7  C   UNL     1      81.485  -9.047  23.852  1.00  0.00     0.093 A 
ATOM      8  C   UNL     1      82.846  -8.974  23.562  1.00  0.00     0.123 A 
ATOM      9  C   UNL     1      83.768  -8.807  24.597  1.00  0.00     0.094 A 
ATOM     10  C   UNL     1      83.333  -8.685  25.919  1.00  0.00     0.146 A 
ATOM     11  O   UNL     1      84.241  -8.518  26.872  1.00  0.00    -0.452 OA
ENDROOT
BRANCH   1  12
ATOM     12  C   UNL     1      85.046  -8.217  29.124  1.00  0.00     0.025 A 
ATOM     13  C   UNL     1      85.505  -9.340  29.828  1.00  0.00     0.016 A 
ATOM     14  C   UNL     1      86.537  -9.217  30.762  1.00  0.00     0.051 A 
ATOM     15  C   UNL     1      87.115  -7.970  31.017  1.00  0.00     0.157 A 
ATOM     16  C   UNL     1      85.614  -6.959  29.397  1.00  0.00     0.062 A 
ATOM     17  C   UNL     1      86.649  -6.834  30.336  1.00  0.00     0.158 A 
BRANCH  15  18
ATOM     18  O   UNL     1      88.145  -7.878  31.953  1.00  0.00    -0.504 OA
ATOM     19  H   UNL     1      88.179  -7.138  32.645  1.00  0.00     0.293 HD
ENDBRANCH  15  18
BRANCH  17  20
ATOM     20  O   UNL     1      87.211  -5.584  30.595  1.00  0.00    -0.504 OA
ATOM     21  H   UNL     1      87.819  -5.126  29.927  1.00  0.00     0.293 HD
ENDBRANCH  17  20
ENDBRANCH   1  12
BRANCH   2  22
ATOM     22  O   UNL     1      82.253  -8.082  29.885  1.00  0.00    -0.502 OA
ATOM     23  H   UNL     1      81.520  -7.436  30.151  1.00  0.00     0.293 HD
ENDBRANCH   2  22
BRANCH   6  24
ATOM     24  O   UNL     1      79.647  -9.143  25.363  1.00  0.00    -0.507 OA
ATOM     25  H   UNL     1      79.121  -9.940  25.038  1.00  0.00     0.293 HD
ENDBRANCH   6  24
BRANCH   8  26
ATOM     26  O   UNL     1      83.273  -9.075  22.240  1.00  0.00    -0.508 OA
ATOM     27  H   UNL     1      83.442  -8.253  21.672  1.00  0.00     0.293 HD
ENDBRANCH   8  26
TORSDOF 6
ENDMDL
MODEL 2
REMARK VINA RESULT:    -5.094      1.941      7.210
REMARK INTER + INTRA:          -6.456
REMARK INTER:                  -6.921
REMARK INTRA:                   0.465
REMARK UNBOUND:                -0.320
REMARK SMILES O=c1c(O)c(-c2ccc(O)c(O)c2)oc2cc(O)cc(O)c12
REMARK SMILES IDX 5 1 3 2 2 3 1 4 22 5 20 6 19 7 17 8 16 9 15 10 14 11 6 12
REMARK SMILES IDX 7 13 8 14 9 15 13 16 11 17 10 18 12 20 4 22 21 24 18 26
REMARK H PARENT 10 19 12 21 4 23 21 25 18 27
REMARK Flexibility Score: inf
ROOT
ATOM      1  C   UNL     1      81.944  -8.865  24.998  1.00  0.00     0.180 A 
ATOM      2  C   UNL     1      80.802  -9.060  25.795  1.00  0.00     0.208 A 
ATOM      3  C   UNL     1      80.872  -8.772  27.167  1.00  0.00     0.238 A 
ATOM      4  O   UNL     1      79.864  -8.999  27.885  1.00  0.00    -0.285 OA
ATOM      5  C   UNL     1      82.078  -8.278  27.723  1.00  0.00     0.111 A 
ATOM      6  C   UNL     1      82.250  -7.916  29.092  1.00  0.00     0.134 A 
ATOM      7  C   UNL     1      83.523  -7.562  29.558  1.00  0.00     0.093 A 
ATOM      8  C   UNL     1      84.613  -7.496  28.693  1.00  0.00     0.123 A 
ATOM      9  C   UNL     1      84.444  -7.791  27.339  1.00  0.00     0.094 A 
ATOM     10  C   UNL     1      83.194  -8.181  26.852  1.00  0.00     0.146 A 
ATOM     11  O   UNL     1      83.078  -8.463  25.560  1.00  0.00    -0.452 OA
ENDROOT
BRANCH   1  12
ATOM     12  C   UNL     1      81.940  -9.122  23.539  1.00  0.00     0.025 A 
ATOM     13  C   UNL     1      83.113  -8.916  22.799  1.00  0.00     0.016 A 
ATOM     14  C   UNL     1      83.127  -9.131  21.418  1.00  0.00     0.051 A 
ATOM     15  C   UNL     1      81.966  -9.541  20.756  1.00  0.00     0.157 A 
ATOM     16  C   UNL     1      80.767  -9.514  22.868  1.00  0.00     0.062 A 
ATOM     17  C   UNL     1      80.779  -9.730  21.481  1.00  0.00     0.158 A 
BRANCH  15  18
ATOM     18  O   UNL     1      82.010  -9.752  19.377  1.00  0.00    -0.504 OA
ATOM     19  H   UNL     1      82.189  -8.999  18.724  1.00  0.00     0.293 HD
ENDBRANCH  15  18
BRANCH  17  20
ATOM     20  O   UNL     1      79.614 -10.125  20.825  1.00  0.00    -0.504 OA
ATOM     21  H   UNL     1      79.624 -10.419  19.856  1.00  0.00     0.293 HD
ENDBRANCH  17  20
ENDBRANCH   1  12
BRANCH   2  22
ATOM     22  O   UNL     1      79.629  -9.569  25.230  1.00  0.00    -0.502 OA
ATOM     23  H   UNL     1      78.725  -9.471  25.674  1.00  0.00     0.293 HD
ENDBRANCH   2  22
BRANCH   6  24
ATOM     24  O   UNL     1      81.207  -7.860  30.021  1.00  0.00    -0.507 OA
ATOM     25  H   UNL     1      81.321  -7.943  31.020  1.00  0.00     0.293 HD
ENDBRANCH   6  24
BRANCH   8  26
ATOM     26  O   UNL     1      85.862  -7.126  29.188  1.00  0.00    -0.508 OA
ATOM     27  H   UNL     1      85.978  -6.788  30.136  1.00  0.00     0.293 HD
ENDBRANCH   8  26
TORSDOF 6
ENDMDL
MODEL 3
REMARK VINA RESULT:    -5.070      1.453      2.257
REMARK INTER + INTRA:          -6.427
REMARK INTER:                  -6.125
REMARK INTRA:                  -0.302
REMARK UNBOUND:                -0.320
REMARK SMILES O=c1c(O)c(-c2ccc(O)c(O)c2)oc2cc(O)cc(O)c12
REMARK SMILES IDX 5 1 3 2 2 3 1 4 22 5 20 6 19 7 17 8 16 9 15 10 14 11 6 12
REMARK SMILES IDX 7 13 8 14 9 15 13 16 11 17 10 18 12 20 4 22 21 24 18 26
REMARK H PARENT 10 19 12 21 4 23 21 25 18 27
REMARK Flexibility Score: inf
ROOT
ATOM      1  C   UNL     1      83.176  -8.785  26.205  1.00  0.00     0.180 A 
ATOM      2  C   UNL     1      81.790  -8.971  26.354  1.00  0.00     0.208 A 
ATOM      3  C   UNL     1      81.016  -9.266  25.220  1.00  0.00     0.238 A 
ATOM      4  O   UNL     1      79.770  -9.378  25.351  1.00  0.00    -0.285 OA
ATOM      5  C   UNL     1      81.640  -9.389  23.954  1.00  0.00     0.111 A 
ATOM      6  C   UNL     1      80.959  -9.724  22.746  1.00  0.00     0.134 A 
ATOM      7  C   UNL     1      81.654  -9.690  21.530  1.00  0.00     0.093 A 
ATOM      8  C   UNL     1      83.016  -9.395  21.487  1.00  0.00     0.123 A 
ATOM      9  C   UNL     1      83.704  -9.123  22.670  1.00  0.00     0.094 A 
ATOM     10  C   UNL     1      83.031  -9.115  23.895  1.00  0.00     0.146 A 
ATOM     11  O   UNL     1      83.721  -8.842  24.995  1.00  0.00    -0.452 OA
ENDROOT
BRANCH   1  12
ATOM     12  C   UNL     1      84.061  -8.496  27.357  1.00  0.00     0.025 A 
ATOM     13  C   UNL     1      84.484  -9.548  28.183  1.00  0.00     0.016 A 
ATOM     14  C   UNL     1      85.302  -9.296  29.287  1.00  0.00     0.051 A 
ATOM     15  C   UNL     1      85.697  -7.990  29.590  1.00  0.00     0.157 A 
ATOM     16  C   UNL     1      84.441  -7.180  27.676  1.00  0.00     0.062 A 
ATOM     17  C   UNL     1      85.262  -6.925  28.785  1.00  0.00     0.158 A 
BRANCH  15  18
ATOM     18  O   UNL     1      86.516  -7.769  30.698  1.00  0.00    -0.504 OA
ATOM     19  H   UNL     1      86.601  -8.444  31.448  1.00  0.00     0.293 HD
ENDBRANCH  15  18
BRANCH  17  20
ATOM     20  O   UNL     1      85.640  -5.618  29.090  1.00  0.00    -0.504 OA
ATOM     21  H   UNL     1      85.599  -5.261  30.037  1.00  0.00     0.293 HD
ENDBRANCH  17  20
ENDBRANCH   1  12
BRANCH   2  22
ATOM     22  O   UNL     1      81.192  -8.824  27.609  1.00  0.00    -0.502 OA
ATOM     23  H   UNL     1      81.676  -9.041  28.471  1.00  0.00     0.293 HD
ENDBRANCH   2  22
BRANCH   6  24
ATOM     24  O   UNL     1      79.621 -10.123  22.689  1.00  0.00    -0.507 OA
ATOM     25  H   UNL     1      78.846  -9.590  23.054  1.00  0.00     0.293 HD
ENDBRANCH   6  24
BRANCH   8  26
ATOM     26  O   UNL     1      83.678  -9.384  20.261  1.00  0.00    -0.508 OA
ATOM     27  H   UNL     1      84.690  -9.387  20.205  1.00  0.00     0.293 HD
ENDBRANCH   8  26
TORSDOF 6
ENDMDL
MODEL 4
REMARK VINA RESULT:    -4.564      3.086      7.411
REMARK INTER + INTRA:          -5.818
REMARK INTER:                  -6.263
REMARK INTRA:                   0.446
REMARK UNBOUND:                -0.320
REMARK SMILES O=c1c(O)c(-c2ccc(O)c(O)c2)oc2cc(O)cc(O)c12
REMARK SMILES IDX 5 1 3 2 2 3 1 4 22 5 20 6 19 7 17 8 16 9 15 10 14 11 6 12
REMARK SMILES IDX 7 13 8 14 9 15 13 16 11 17 10 18 12 20 4 22 21 24 18 26
REMARK H PARENT 10 19 12 21 4 23 21 25 18 27
REMARK Flexibility Score: inf
ROOT
ATOM      1  C   UNL     1      81.911  -8.848  25.128  1.00  0.00     0.180 A 
ATOM      2  C   UNL     1      82.905  -8.078  25.756  1.00  0.00     0.208 A 
ATOM      3  C   UNL     1      82.846  -7.894  27.147  1.00  0.00     0.238 A 
ATOM      4  O   UNL     1      83.707  -7.159  27.697  1.00  0.00    -0.285 OA
ATOM      5  C   UNL     1      81.804  -8.497  27.894  1.00  0.00     0.111 A 
ATOM      6  C   UNL     1      81.669  -8.410  29.312  1.00  0.00     0.134 A 
ATOM      7  C   UNL     1      80.528  -8.937  29.930  1.00  0.00     0.093 A 
ATOM      8  C   UNL     1      79.551  -9.601  29.192  1.00  0.00     0.123 A 
ATOM      9  C   UNL     1      79.701  -9.743  27.811  1.00  0.00     0.094 A 
ATOM     10  C   UNL     1      80.811  -9.197  27.161  1.00  0.00     0.146 A 
ATOM     11  O   UNL     1      80.912  -9.346  25.846  1.00  0.00    -0.452 OA
ENDROOT
BRANCH   1  12
ATOM     12  C   UNL     1      81.920  -9.108  23.669  1.00  0.00     0.025 A 
ATOM     13  C   UNL     1      83.101  -8.905  22.939  1.00  0.00     0.016 A 
ATOM     14  C   UNL     1      83.127  -9.123  21.560  1.00  0.00     0.051 A 
ATOM     15  C   UNL     1      81.972  -9.533  20.887  1.00  0.00     0.157 A 
ATOM     16  C   UNL     1      80.753  -9.499  22.988  1.00  0.00     0.062 A 
ATOM     17  C   UNL     1      80.777  -9.718  21.602  1.00  0.00     0.158 A 
BRANCH  15  18
ATOM     18  O   UNL     1      82.028  -9.746  19.510  1.00  0.00    -0.504 OA
ATOM     19  H   UNL     1      82.638 -10.440  19.097  1.00  0.00     0.293 HD
ENDBRANCH  15  18
BRANCH  17  20
ATOM     20  O   UNL     1      79.618 -10.112  20.936  1.00  0.00    -0.504 OA
ATOM     21  H   UNL     1      78.803 -10.442  21.439  1.00  0.00     0.293 HD
ENDBRANCH  17  20
ENDBRANCH   1  12
BRANCH   2  22
ATOM     22  O   UNL     1      83.912  -7.474  24.998  1.00  0.00    -0.502 OA
ATOM     23  H   UNL     1      84.882  -7.473  25.285  1.00  0.00     0.293 HD
ENDBRANCH   2  22
BRANCH   6  24
ATOM     24  O   UNL     1      82.633  -7.848  30.155  1.00  0.00    -0.507 OA
ATOM     25  H   UNL     1      83.588  -8.164  30.226  1.00  0.00     0.293 HD
ENDBRANCH   6  24
BRANCH   8  26
ATOM     26  O   UNL     1      78.435 -10.125  29.842  1.00  0.00    -0.508 OA
ATOM     27  H   UNL     1      77.494  -9.852  29.584  1.00  0.00     0.293 HD
ENDBRANCH   8  26
TORSDOF 6
ENDMDL
MODEL 5
REMARK VINA RESULT:    -4.538      7.143     12.415
REMARK INTER + INTRA:          -5.787
REMARK INTER:                  -5.561
REMARK INTRA:                  -0.225
REMARK UNBOUND:                -0.320
REMARK SMILES O=c1c(O)c(-c2ccc(O)c(O)c2)oc2cc(O)cc(O)c12
REMARK SMILES IDX 5 1 3 2 2 3 1 4 22 5 20 6 19 7 17 8 16 9 15 10 14 11 6 12
REMARK SMILES IDX 7 13 8 14 9 15 13 16 11 17 10 18 12 20 4 22 21 24 18 26
REMARK H PARENT 10 19 12 21 4 23 21 25 18 27
REMARK Flexibility Score: inf
ROOT
ATOM      1  C   UNL     1      79.490  -9.139  17.501  1.00  0.00     0.180 A 
ATOM      2  C   UNL     1      78.459  -9.507  18.383  1.00  0.00     0.208 A 
ATOM      3  C   UNL     1      78.767  -9.744  19.732  1.00  0.00     0.238 A 
ATOM      4  O   UNL     1      77.850 -10.125  20.505  1.00  0.00    -0.285 OA
ATOM      5  C   UNL     1      80.101  -9.593  20.186  1.00  0.00     0.111 A 
ATOM      6  C   UNL     1      80.520  -9.768  21.539  1.00  0.00     0.134 A 
ATOM      7  C   UNL     1      81.885  -9.722  21.850  1.00  0.00     0.093 A 
ATOM      8  C   UNL     1      82.837  -9.444  20.872  1.00  0.00     0.123 A 
ATOM      9  C   UNL     1      82.433  -9.213  19.556  1.00  0.00     0.094 A 
ATOM     10  C   UNL     1      81.082  -9.287  19.208  1.00  0.00     0.146 A 
ATOM     11  O   UNL     1      80.740  -9.070  17.944  1.00  0.00    -0.452 OA
ENDROOT
BRANCH   1  12
ATOM     12  C   UNL     1      79.238  -8.849  16.071  1.00  0.00     0.025 A 
ATOM     13  C   UNL     1      78.955  -9.905  15.192  1.00  0.00     0.016 A 
ATOM     14  C   UNL     1      78.735  -9.656  13.834  1.00  0.00     0.051 A 
ATOM     15  C   UNL     1      78.808  -8.354  13.334  1.00  0.00     0.157 A 
ATOM     16  C   UNL     1      79.333  -7.541  15.561  1.00  0.00     0.062 A 
ATOM     17  C   UNL     1      79.113  -7.290  14.198  1.00  0.00     0.158 A 
BRANCH  15  18
ATOM     18  O   UNL     1      78.581  -8.135  11.974  1.00  0.00    -0.504 OA
ATOM     19  H   UNL     1      79.116  -8.610  11.256  1.00  0.00     0.293 HD
ENDBRANCH  15  18
BRANCH  17  20
ATOM     20  O   UNL     1      79.203  -5.990  13.703  1.00  0.00    -0.504 OA
ATOM     21  H   UNL     1      78.805  -5.203  14.202  1.00  0.00     0.293 HD
ENDBRANCH  17  20
ENDBRANCH   1  12
BRANCH   2  22
ATOM     22  O   UNL     1      77.154  -9.671  17.909  1.00  0.00    -0.502 OA
ATOM     23  H   UNL     1      76.946  -9.830  16.931  1.00  0.00     0.293 HD
ENDBRANCH   2  22
BRANCH   6  24
ATOM     24  O   UNL     1      79.641  -9.960  22.609  1.00  0.00    -0.507 OA
ATOM     25  H   UNL     1      79.136  -9.223  23.078  1.00  0.00     0.293 HD
ENDBRANCH   6  24
BRANCH   8  26
ATOM     26  O   UNL     1      84.185  -9.391  21.220  1.00  0.00    -0.508 OA
ATOM     27  H   UNL     1      84.873  -9.980  20.766  1.00  0.00     0.293 HD
ENDBRANCH   8  26
TORSDOF 6
ENDMDL
MODEL 6
REMARK VINA RESULT:    -4.515      2.660      7.129
REMARK INTER + INTRA:          -5.759
REMARK INTER:                  -5.832
REMARK INTRA:                   0.073
REMARK UNBOUND:                -0.320
REMARK SMILES O=c1c(O)c(-c2ccc(O)c(O)c2)oc2cc(O)cc(O)c12
REMARK SMILES IDX 5 1 3 2 2 3 1 4 22 5 20 6 19 7 17 8 16 9 15 10 14 11 6 12
REMARK SMILES IDX 7 13 8 14 9 15 13 16 11 17 10 18 12 20 4 22 21 24 18 26
REMARK H PARENT 10 19 12 21 4 23 21 25 18 27
REMARK Flexibility Score: inf
ROOT
ATOM      1  C   UNL     1      82.584  -9.272  26.601  1.00  0.00     0.180 A 
ATOM      2  C   UNL     1      83.786  -9.725  27.173  1.00  0.00     0.208 A 
ATOM      3  C   UNL     1      83.900  -9.770  28.572  1.00  0.00     0.238 A 
ATOM      4  O   UNL     1      84.996 -10.125  29.078  1.00  0.00    -0.285 OA
ATOM      5  C   UNL     1      82.805  -9.379  29.381  1.00  0.00     0.111 A 
ATOM      6  C   UNL     1      82.795  -9.423  30.807  1.00  0.00     0.134 A 
ATOM      7  C   UNL     1      81.706  -8.889  31.507  1.00  0.00     0.093 A 
ATOM      8  C   UNL     1      80.600  -8.373  30.833  1.00  0.00     0.123 A 
ATOM      9  C   UNL     1      80.574  -8.379  29.438  1.00  0.00     0.094 A 
ATOM     10  C   UNL     1      81.661  -8.872  28.712  1.00  0.00     0.146 A 
ATOM     11  O   UNL     1      81.600  -8.851  27.386  1.00  0.00    -0.452 OA
ENDROOT
BRANCH   1  12
ATOM     12  C   UNL     1      82.380  -9.220  25.135  1.00  0.00     0.025 A 
ATOM     13  C   UNL     1      83.354  -8.620  24.323  1.00  0.00     0.016 A 
ATOM     14  C   UNL     1      83.173  -8.541  22.940  1.00  0.00     0.051 A 
ATOM     15  C   UNL     1      82.011  -9.046  22.350  1.00  0.00     0.157 A 
ATOM     16  C   UNL     1      81.202  -9.708  24.542  1.00  0.00     0.062 A 
ATOM     17  C   UNL     1      81.017  -9.629  23.153  1.00  0.00     0.158 A 
BRANCH  15  18
ATOM     18  O   UNL     1      81.858  -8.955  20.966  1.00  0.00    -0.504 OA
ATOM     19  H   UNL     1      81.849  -9.775  20.371  1.00  0.00     0.293 HD
ENDBRANCH  15  18
BRANCH  17  20
ATOM     20  O   UNL     1      79.849 -10.121  22.573  1.00  0.00    -0.504 OA
ATOM     21  H   UNL     1      79.059 -10.413  23.136  1.00  0.00     0.293 HD
ENDBRANCH  17  20
ENDBRANCH   1  12
BRANCH   2  22
ATOM     22  O   UNL     1      84.862 -10.086  26.356  1.00  0.00    -0.502 OA
ATOM     23  H   UNL     1      85.324 -10.983  26.430  1.00  0.00     0.293 HD
ENDBRANCH   2  22
BRANCH   6  24
ATOM     24  O   UNL     1      83.810 -10.001  31.577  1.00  0.00    -0.507 OA
ATOM     25  H   UNL     1      84.794  -9.812  31.465  1.00  0.00     0.293 HD
ENDBRANCH   6  24
BRANCH   8  26
ATOM     26  O   UNL     1      79.528  -7.863  31.562  1.00  0.00    -0.508 OA
ATOM     27  H   UNL     1      78.895  -8.470  32.069  1.00  0.00     0.293 HD
ENDBRANCH   8  26
TORSDOF 6
ENDMDL
MODEL 7
REMARK VINA RESULT:    -4.256      1.676      6.875
REMARK INTER + INTRA:          -5.447
REMARK INTER:                  -5.831
REMARK INTRA:                   0.384
REMARK UNBOUND:                -0.320
REMARK SMILES O=c1c(O)c(-c2ccc(O)c(O)c2)oc2cc(O)cc(O)c12
REMARK SMILES IDX 5 1 3 2 2 3 1 4 22 5 20 6 19 7 17 8 16 9 15 10 14 11 6 12
REMARK SMILES IDX 7 13 8 14 9 15 13 16 11 17 10 18 12 20 4 22 21 24 18 26
REMARK H PARENT 10 19 12 21 4 23 21 25 18 27
REMARK Flexibility Score: inf
ROOT
ATOM      1  C   UNL     1      82.436  -8.791  26.227  1.00  0.00     0.180 A 
ATOM      2  C   UNL     1      81.525  -9.280  27.179  1.00  0.00     0.208 A 
ATOM      3  C   UNL     1      81.729  -8.978  28.535  1.00  0.00     0.238 A 
ATOM      4  O   UNL     1      80.941  -9.463  29.389  1.00  0.00    -0.285 OA
ATOM      5  C   UNL     1      82.832  -8.177  28.920  1.00  0.00     0.111 A 
ATOM      6  C   UNL     1      83.113  -7.775  30.261  1.00  0.00     0.134 A 
ATOM      7  C   UNL     1      84.303  -7.092  30.542  1.00  0.00     0.093 A 
ATOM      8  C   UNL     1      85.189  -6.740  29.525  1.00  0.00     0.123 A 
ATOM      9  C   UNL     1      84.895  -7.077  28.202  1.00  0.00     0.094 A 
ATOM     10  C   UNL     1      83.733  -7.789  27.895  1.00  0.00     0.146 A 
ATOM     11  O   UNL     1      83.496  -8.097  26.626  1.00  0.00    -0.452 OA
ENDROOT
BRANCH   1  12
ATOM     12  C   UNL     1      82.273  -9.046  24.777  1.00  0.00     0.025 A 
ATOM     13  C   UNL     1      83.346  -8.799  23.908  1.00  0.00     0.016 A 
ATOM     14  C   UNL     1      83.208  -9.013  22.534  1.00  0.00     0.051 A 
ATOM     15  C   UNL     1      81.994  -9.461  22.007  1.00  0.00     0.157 A 
ATOM     16  C   UNL     1      81.045  -9.477  24.243  1.00  0.00     0.062 A 
ATOM     17  C   UNL     1      80.905  -9.691  22.863  1.00  0.00     0.158 A 
BRANCH  15  18
ATOM     18  O   UNL     1      81.886  -9.668  20.632  1.00  0.00    -0.504 OA
ATOM     19  H   UNL     1      80.989  -9.731  20.166  1.00  0.00     0.293 HD
ENDBRANCH  15  18
BRANCH  17  20
ATOM     20  O   UNL     1      79.686 -10.125  22.343  1.00  0.00    -0.504 OA
ATOM     21  H   UNL     1      79.590 -10.396  21.372  1.00  0.00     0.293 HD
ENDBRANCH  17  20
ENDBRANCH   1  12
BRANCH   2  22
ATOM     22  O   UNL     1      80.455 -10.087  26.780  1.00  0.00    -0.502 OA
ATOM     23  H   UNL     1      79.503  -9.912  27.074  1.00  0.00     0.293 HD
ENDBRANCH   2  22
BRANCH   6  24
ATOM     24  O   UNL     1      82.250  -7.996  31.338  1.00  0.00    -0.507 OA
ATOM     25  H   UNL     1      81.334  -8.413  31.265  1.00  0.00     0.293 HD
ENDBRANCH   6  24
BRANCH   8  26
ATOM     26  O   UNL     1      86.356  -6.048  29.839  1.00  0.00    -0.508 OA
ATOM     27  H   UNL     1      86.402  -5.418  30.631  1.00  0.00     0.293 HD
ENDBRANCH   8  26
TORSDOF 6
ENDMDL
MODEL 8
REMARK VINA RESULT:    -3.129      1.895      3.514
REMARK INTER + INTRA:          -4.089
REMARK INTER:                  -3.767
REMARK INTRA:                  -0.322
REMARK UNBOUND:                -0.320
REMARK SMILES O=c1c(O)c(-c2ccc(O)c(O)c2)oc2cc(O)cc(O)c12
REMARK SMILES IDX 5 1 3 2 2 3 1 4 22 5 20 6 19 7 17 8 16 9 15 10 14 11 6 12
REMARK SMILES IDX 7 13 8 14 9 15 13 16 11 17 10 18 12 20 4 22 21 24 18 26
REMARK H PARENT 10 19 12 21 4 23 21 25 18 27
REMARK Flexibility Score: inf
ROOT
ATOM      1  C   UNL     1      84.226  -7.715  29.126  1.00  0.00     0.180 A 
ATOM      2  C   UNL     1      84.147  -7.576  27.730  1.00  0.00     0.208 A 
ATOM      3  C   UNL     1      82.959  -7.939  27.075  1.00  0.00     0.238 A 
ATOM      4  O   UNL     1      82.912  -7.863  25.820  1.00  0.00    -0.285 OA
ATOM      5  C   UNL     1      81.860  -8.421  27.827  1.00  0.00     0.111 A 
ATOM      6  C   UNL     1      80.595  -8.780  27.273  1.00  0.00     0.134 A 
ATOM      7  C   UNL     1      79.624  -9.368  28.093  1.00  0.00     0.093 A 
ATOM      8  C   UNL     1      79.847  -9.550  29.457  1.00  0.00     0.123 A 
ATOM      9  C   UNL     1      81.059  -9.148  30.021  1.00  0.00     0.094 A 
ATOM     10  C   UNL     1      82.061  -8.591  29.221  1.00  0.00     0.146 A 
ATOM     11  O   UNL     1      83.202  -8.231  29.795  1.00  0.00    -0.452 OA
ENDROOT
BRANCH   1  12
ATOM     12  C   UNL     1      85.436  -7.329  29.889  1.00  0.00     0.025 A 
ATOM     13  C   UNL     1      86.344  -8.320  30.291  1.00  0.00     0.016 A 
ATOM     14  C   UNL     1      87.481  -7.982  31.029  1.00  0.00     0.051 A 
ATOM     15  C   UNL     1      87.719  -6.653  31.390  1.00  0.00     0.157 A 
ATOM     16  C   UNL     1      85.666  -5.995  30.271  1.00  0.00     0.062 A 
ATOM     17  C   UNL     1      86.807  -5.654  31.014  1.00  0.00     0.158 A 
BRANCH  15  18
ATOM     18  O   UNL     1      88.864  -6.344  32.125  1.00  0.00    -0.504 OA
ATOM     19  H   UNL     1      89.713  -6.893  32.055  1.00  0.00     0.293 HD
ENDBRANCH  15  18
BRANCH  17  20
ATOM     20  O   UNL     1      87.031  -4.328  31.382  1.00  0.00    -0.504 OA
ATOM     21  H   UNL     1      86.892  -4.010  32.334  1.00  0.00     0.293 HD
ENDBRANCH  17  20
ENDBRANCH   1  12
BRANCH   2  22
ATOM     22  O   UNL     1      85.251  -7.118  27.005  1.00  0.00    -0.502 OA
ATOM     23  H   UNL     1      85.686  -6.222  27.183  1.00  0.00     0.293 HD
ENDBRANCH   2  22
BRANCH   6  24
ATOM     24  O   UNL     1      80.235  -8.557  25.940  1.00  0.00    -0.507 OA
ATOM     25  H   UNL     1      79.621  -9.150  25.403  1.00  0.00     0.293 HD
ENDBRANCH   6  24
BRANCH   8  26
ATOM     26  O   UNL     1      78.853 -10.125  30.246  1.00  0.00    -0.508 OA
ATOM     27  H   UNL     1      79.079 -10.699  31.049  1.00  0.00     0.293 HD
ENDBRANCH   8  26
TORSDOF 6
ENDMDL
