MODEL 1
REMARK VINA RESULT:    -5.005      0.000      0.000
REMARK INTER + INTRA:          -5.005
REMARK INTER:                  -5.005
REMARK INTRA:                   0.000
REMARK UNBOUND:                 0.000
REMARK SMILES C=C1CC[C@H]2C[C@@H]1C2(C)C
REMARK SMILES IDX 9 1 8 2 5 3 4 4 3 5 2 6 1 7 7 8 6 9 10 10
REMARK H PARENT
REMARK Flexibility Score: inf
ROOT
ATOM      1  C   UNL     1     150.522 142.402 165.175  1.00  0.00     0.012 C 
ATOM      2  C   UNL     1     149.965 143.732 164.612  1.00  0.00    -0.026 C 
ATOM      3  C   UNL     1     148.435 143.856 164.821  1.00  0.00    -0.004 C 
ATOM      4  C   UNL     1     147.959 145.332 164.629  1.00  0.00     0.008 C 
ATOM      5  C   UNL     1     148.463 145.957 163.272  1.00  0.00     0.031 C 
ATOM      6  C   UNL     1     149.444 145.034 162.533  1.00  0.00    -0.074 C 
ATOM      7  C   UNL     1     150.091 145.442 161.436  1.00  0.00     0.008 C 
ATOM      8  C   UNL     1     149.643 143.633 163.102  1.00  0.00     0.021 C 
ATOM      9  C   UNL     1     148.231 143.150 163.471  1.00  0.00     0.012 C 
ATOM     10  C   UNL     1     150.881 144.890 165.096  1.00  0.00     0.012 C 
ENDROOT
TORSDOF 0
ENDMDL
MODEL 2
REMARK VINA RESULT:    -5.005      4.656      6.166
REMARK INTER + INTRA:          -5.005
REMARK INTER:                  -5.005
REMARK INTRA:                   0.000
REMARK UNBOUND:                 0.000
REMARK SMILES C=C1CC[C@H]2C[C@@H]1C2(C)C
REMARK SMILES IDX 9 1 8 2 5 3 4 4 3 5 2 6 1 7 7 8 6 9 10 10
REMARK H PARENT
REMARK Flexibility Score: inf
ROOT
ATOM      1  C   UNL     1     142.411 140.233 165.167  1.00  0.00     0.012 C 
ATOM      2  C   UNL     1     143.753 140.778 164.619  1.00  0.00    -0.026 C 
ATOM      3  C   UNL     1     143.885 142.307 164.824  1.00  0.00    -0.004 C 
ATOM      4  C   UNL     1     145.367 142.772 164.649  1.00  0.00     0.008 C 
ATOM      5  C   UNL     1     146.006 142.257 163.303  1.00  0.00     0.031 C 
ATOM      6  C   UNL     1     145.087 141.280 162.556  1.00  0.00    -0.074 C 
ATOM      7  C   UNL     1     145.504 140.625 161.467  1.00  0.00     0.008 C 
ATOM      8  C   UNL     1     143.676 141.094 163.107  1.00  0.00     0.021 C 
ATOM      9  C   UNL     1     143.199 142.511 163.463  1.00  0.00     0.012 C 
ATOM     10  C   UNL     1     144.897 139.856 165.123  1.00  0.00     0.012 C 
ENDROOT
TORSDOF 0
ENDMDL
MODEL 3
REMARK VINA RESULT:    -5.001      7.022      8.797
REMARK INTER + INTRA:          -5.001
REMARK INTER:                  -5.001
REMARK INTRA:                   0.000
REMARK UNBOUND:                 0.000
REMARK SMILES C=C1CC[C@H]2C[C@@H]1C2(C)C
REMARK SMILES IDX 9 1 8 2 5 3 4 4 3 5 2 6 1 7 7 8 6 9 10 10
REMARK H PARENT
REMARK Flexibility Score: inf
ROOT
ATOM      1  C   UNL     1     140.188 148.405 165.212  1.00  0.00     0.012 C 
ATOM      2  C   UNL     1     140.743 147.077 164.642  1.00  0.00    -0.026 C 
ATOM      3  C   UNL     1     142.273 146.950 164.853  1.00  0.00    -0.004 C 
ATOM      4  C   UNL     1     142.747 145.474 164.652  1.00  0.00     0.008 C 
ATOM      5  C   UNL     1     142.243 144.857 163.292  1.00  0.00     0.031 C 
ATOM      6  C   UNL     1     141.264 145.785 162.557  1.00  0.00    -0.074 C 
ATOM      7  C   UNL     1     140.617 145.384 161.458  1.00  0.00     0.008 C 
ATOM      8  C   UNL     1     141.066 147.184 163.133  1.00  0.00     0.021 C 
ATOM      9  C   UNL     1     142.479 147.662 163.506  1.00  0.00     0.012 C 
ATOM     10  C   UNL     1     139.826 145.918 165.120  1.00  0.00     0.012 C 
ENDROOT
TORSDOF 0
ENDMDL
MODEL 4
REMARK VINA RESULT:    -4.997      4.679      6.170
REMARK INTER + INTRA:          -4.997
REMARK INTER:                  -4.997
REMARK INTRA:                   0.000
REMARK UNBOUND:                 0.000
REMARK SMILES C=C1CC[C@H]2C[C@@H]1C2(C)C
REMARK SMILES IDX 9 1 8 2 5 3 4 4 3 5 2 6 1 7 7 8 6 9 10 10
REMARK H PARENT
REMARK Flexibility Score: inf
ROOT
ATOM      1  C   UNL     1     148.395 150.575 165.209  1.00  0.00     0.012 C 
ATOM      2  C   UNL     1     147.080 149.995 164.634  1.00  0.00    -0.026 C 
ATOM      3  C   UNL     1     146.985 148.462 164.836  1.00  0.00    -0.004 C 
ATOM      4  C   UNL     1     145.520 147.958 164.631  1.00  0.00     0.008 C 
ATOM      5  C   UNL     1     144.894 148.457 163.273  1.00  0.00     0.031 C 
ATOM      6  C   UNL     1     145.801 149.459 162.544  1.00  0.00    -0.074 C 
ATOM      7  C   UNL     1     145.388 150.103 161.448  1.00  0.00     0.008 C 
ATOM      8  C   UNL     1     147.195 149.683 163.124  1.00  0.00     0.021 C 
ATOM      9  C   UNL     1     147.703 148.278 163.489  1.00  0.00     0.012 C 
ATOM     10  C   UNL     1     145.901 150.886 165.116  1.00  0.00     0.012 C 
ENDROOT
TORSDOF 0
ENDMDL
MODEL 5
REMARK VINA RESULT:    -4.835      4.417      6.223
REMARK INTER + INTRA:          -4.835
REMARK INTER:                  -4.835
REMARK INTRA:                   0.000
REMARK UNBOUND:                 0.000
REMARK SMILES C=C1CC[C@H]2C[C@@H]1C2(C)C
REMARK SMILES IDX 9 1 8 2 5 3 4 4 3 5 2 6 1 7 7 8 6 9 10 10
REMARK H PARENT
REMARK Flexibility Score: inf
ROOT
ATOM      1  C   UNL     1     142.429 140.456 165.016  1.00  0.00     0.012 C 
ATOM      2  C   UNL     1     143.604 141.039 164.193  1.00  0.00    -0.026 C 
ATOM      3  C   UNL     1     144.466 139.928 163.544  1.00  0.00    -0.004 C 
ATOM      4  C   UNL     1     145.376 140.510 162.414  1.00  0.00     0.008 C 
ATOM      5  C   UNL     1     146.210 141.758 162.893  1.00  0.00     0.031 C 
ATOM      6  C   UNL     1     145.813 142.220 164.304  1.00  0.00    -0.074 C 
ATOM      7  C   UNL     1     146.305 143.345 164.832  1.00  0.00     0.008 C 
ATOM      8  C   UNL     1     144.839 141.336 165.076  1.00  0.00     0.021 C 
ATOM      9  C   UNL     1     145.321 139.898 164.822  1.00  0.00     0.012 C 
ATOM     10  C   UNL     1     143.051 142.177 163.291  1.00  0.00     0.012 C 
ENDROOT
TORSDOF 0
ENDMDL
MODEL 6
REMARK VINA RESULT:    -4.799      7.034      8.796
REMARK INTER + INTRA:          -4.799
REMARK INTER:                  -4.799
REMARK INTRA:                   0.000
REMARK UNBOUND:                 0.000
REMARK SMILES C=C1CC[C@H]2C[C@@H]1C2(C)C
REMARK SMILES IDX 9 1 8 2 5 3 4 4 3 5 2 6 1 7 7 8 6 9 10 10
REMARK H PARENT
REMARK Flexibility Score: inf
ROOT
ATOM      1  C   UNL     1     140.451 148.294 164.965  1.00  0.00     0.012 C 
ATOM      2  C   UNL     1     141.055 147.118 164.160  1.00  0.00    -0.026 C 
ATOM      3  C   UNL     1     139.971 146.331 163.381  1.00  0.00    -0.004 C 
ATOM      4  C   UNL     1     140.614 145.429 162.279  1.00  0.00     0.008 C 
ATOM      5  C   UNL     1     141.772 144.520 162.843  1.00  0.00     0.031 C 
ATOM      6  C   UNL     1     142.116 144.850 164.304  1.00  0.00    -0.074 C 
ATOM      7  C   UNL     1     143.162 144.287 164.916  1.00  0.00     0.008 C 
ATOM      8  C   UNL     1     141.209 145.843 165.023  1.00  0.00     0.021 C 
ATOM      9  C   UNL     1     139.781 145.440 164.620  1.00  0.00     0.012 C 
ATOM     10  C   UNL     1     142.297 147.640 163.387  1.00  0.00     0.012 C 
ENDROOT
TORSDOF 0
ENDMDL
MODEL 7
REMARK VINA RESULT:    -4.737      4.610      6.460
REMARK INTER + INTRA:          -4.737
REMARK INTER:                  -4.737
REMARK INTRA:                   0.000
REMARK UNBOUND:                 0.000
REMARK SMILES C=C1CC[C@H]2C[C@@H]1C2(C)C
REMARK SMILES IDX 9 1 8 2 5 3 4 4 3 5 2 6 1 7 7 8 6 9 10 10
REMARK H PARENT
REMARK Flexibility Score: inf
ROOT
ATOM      1  C   UNL     1     143.139 141.602 161.241  1.00  0.00     0.012 C 
ATOM      2  C   UNL     1     143.939 141.231 162.514  1.00  0.00    -0.026 C 
ATOM      3  C   UNL     1     143.012 140.987 163.731  1.00  0.00    -0.004 C 
ATOM      4  C   UNL     1     143.768 140.234 164.872  1.00  0.00     0.008 C 
ATOM      5  C   UNL     1     145.135 140.923 165.248  1.00  0.00     0.031 C 
ATOM      6  C   UNL     1     145.490 142.075 164.294  1.00  0.00    -0.074 C 
ATOM      7  C   UNL     1     146.674 142.692 164.360  1.00  0.00     0.008 C 
ATOM      8  C   UNL     1     144.431 142.484 163.275  1.00  0.00     0.021 C 
ATOM      9  C   UNL     1     143.108 142.486 164.057  1.00  0.00     0.012 C 
ATOM     10  C   UNL     1     144.979 140.139 162.138  1.00  0.00     0.012 C 
ENDROOT
TORSDOF 0
ENDMDL
MODEL 8
REMARK VINA RESULT:    -4.730      1.107      2.688
REMARK INTER + INTRA:          -4.730
REMARK INTER:                  -4.730
REMARK INTRA:                   0.000
REMARK UNBOUND:                 0.000
REMARK SMILES C=C1CC[C@H]2C[C@@H]1C2(C)C
REMARK SMILES IDX 9 1 8 2 5 3 4 4 3 5 2 6 1 7 7 8 6 9 10 10
REMARK H PARENT
REMARK Flexibility Score: inf
ROOT
ATOM      1  C   UNL     1     149.054 143.099 161.275  1.00  0.00     0.012 C 
ATOM      2  C   UNL     1     149.486 143.918 162.515  1.00  0.00    -0.026 C 
ATOM      3  C   UNL     1     149.779 143.011 163.736  1.00  0.00    -0.004 C 
ATOM      4  C   UNL     1     150.586 143.783 164.830  1.00  0.00     0.008 C 
ATOM      5  C   UNL     1     149.922 145.160 165.211  1.00  0.00     0.031 C 
ATOM      6  C   UNL     1     148.731 145.506 164.304  1.00  0.00    -0.074 C 
ATOM      7  C   UNL     1     148.124 146.694 164.376  1.00  0.00     0.008 C 
ATOM      8  C   UNL     1     148.271 144.432 163.323  1.00  0.00     0.021 C 
ATOM      9  C   UNL     1     148.296 143.122 164.128  1.00  0.00     0.012 C 
ATOM     10  C   UNL     1     150.565 144.945 162.073  1.00  0.00     0.012 C 
ENDROOT
TORSDOF 0
ENDMDL
MODEL 9
REMARK VINA RESULT:    -4.720      4.728      6.520
REMARK INTER + INTRA:          -4.720
REMARK INTER:                  -4.720
REMARK INTRA:                   0.000
REMARK UNBOUND:                 0.000
REMARK SMILES C=C1CC[C@H]2C[C@@H]1C2(C)C
REMARK SMILES IDX 9 1 8 2 5 3 4 4 3 5 2 6 1 7 7 8 6 9 10 10
REMARK H PARENT
REMARK Flexibility Score: inf
ROOT
ATOM      1  C   UNL     1     147.615 149.143 161.267  1.00  0.00     0.012 C 
ATOM      2  C   UNL     1     146.788 149.526 162.518  1.00  0.00    -0.026 C 
ATOM      3  C   UNL     1     147.689 149.818 163.744  1.00  0.00    -0.004 C 
ATOM      4  C   UNL     1     146.898 150.580 164.855  1.00  0.00     0.008 C 
ATOM      5  C   UNL     1     145.540 149.871 165.224  1.00  0.00     0.031 C 
ATOM      6  C   UNL     1     145.225 148.691 164.293  1.00  0.00    -0.074 C 
ATOM      7  C   UNL     1     144.053 148.050 164.353  1.00  0.00     0.008 C 
ATOM      8  C   UNL     1     146.309 148.280 163.300  1.00  0.00     0.021 C 
ATOM      9  C   UNL     1     147.619 148.324 164.104  1.00  0.00     0.012 C 
ATOM     10  C   UNL     1     145.731 150.586 162.100  1.00  0.00     0.012 C 
ENDROOT
TORSDOF 0
ENDMDL
