MODEL 1
REMARK VINA RESULT:    -3.649      0.000      0.000
REMARK INTER + INTRA:         -11.310
REMARK INTER:                  -9.195
REMARK INTRA:                  -2.115
REMARK UNBOUND:                -2.115
REMARK SMILES CCCCCCCCCCCCCCCCCCCCCCCCCCCC(=O)[O-]
REMARK SMILES IDX 15 1 16 2 17 3 18 4 19 5 20 6 21 7 22 8 23 9 24 10 25 11
REMARK SMILES IDX 26 12 27 13 28 14 29 15 30 16 14 17 13 18 12 19 11 20 10 21
REMARK SMILES IDX 9 22 8 23 7 24 6 25 5 26 4 27 3 28 2 29 1 30
REMARK H PARENT
REMARK Flexibility Score: inf
ROOT
ATOM      1  C   UNL     1     -10.089 -11.103 -27.158  1.00  0.00     0.000 C 
ENDROOT
BRANCH   1   2
ATOM      2  C   UNL     1      -9.385 -10.577 -25.899  1.00  0.00     0.000 C 
BRANCH   2   3
ATOM      3  C   UNL     1      -9.990  -9.259 -25.384  1.00  0.00     0.000 C 
BRANCH   3   4
ATOM      4  C   UNL     1      -9.555  -7.999 -26.159  1.00  0.00     0.000 C 
BRANCH   4   5
ATOM      5  C   UNL     1      -8.169  -7.439 -25.779  1.00  0.00     0.000 C 
BRANCH   5   6
ATOM      6  C   UNL     1      -7.607  -6.371 -26.738  1.00  0.00     0.000 C 
BRANCH   6   7
ATOM      7  C   UNL     1      -6.439  -5.577 -26.133  1.00  0.00     0.000 C 
BRANCH   7   8
ATOM      8  C   UNL     1      -6.608  -4.056 -26.286  1.00  0.00     0.000 C 
BRANCH   8   9
ATOM      9  C   UNL     1      -8.020  -3.545 -25.928  1.00  0.00     0.000 C 
BRANCH   9  10
ATOM     10  C   UNL     1      -8.188  -3.315 -24.415  1.00  0.00     0.000 C 
BRANCH  10  11
ATOM     11  C   UNL     1      -7.310  -2.172 -23.884  1.00  0.00     0.000 C 
BRANCH  11  12
ATOM     12  C   UNL     1      -8.054  -0.829 -23.818  1.00  0.00     0.006 C 
BRANCH  12  13
ATOM     13  C   UNL     1      -7.765   0.017 -25.065  1.00  0.00     0.053 C 
BRANCH  13  14
ATOM     14  C   UNL     1      -9.033   0.488 -25.704  1.00  0.00     0.041 C 
ATOM     15  O   UNL     1      -9.048   1.555 -26.374  1.00  0.00    -0.550 OA
ATOM     16  O   UNL     1     -10.193  -0.268 -25.589  1.00  0.00    -0.550 OA
ENDBRANCH  13  14
ENDBRANCH  12  13
ENDBRANCH  11  12
ENDBRANCH  10  11
ENDBRANCH   9  10
ENDBRANCH   8   9
ENDBRANCH   7   8
ENDBRANCH   6   7
ENDBRANCH   5   6
ENDBRANCH   4   5
ENDBRANCH   3   4
ENDBRANCH   2   3
ENDBRANCH   1   2
BRANCH   1  17
ATOM     17  C   UNL     1     -11.608 -11.179 -26.943  1.00  0.00     0.000 C 
BRANCH  17  18
ATOM     18  C   UNL     1     -12.109 -12.609 -26.662  1.00  0.00     0.000 C 
BRANCH  18  19
ATOM     19  C   UNL     1     -11.446 -13.717 -27.500  1.00  0.00     0.000 C 
BRANCH  19  20
ATOM     20  C   UNL     1     -10.901 -14.877 -26.649  1.00  0.00     0.000 C 
BRANCH  20  21
ATOM     21  C   UNL     1      -9.375 -15.038 -26.770  1.00  0.00     0.000 C 
BRANCH  21  22
ATOM     22  C   UNL     1      -8.550 -14.239 -25.741  1.00  0.00    -0.000 C 
BRANCH  22  23
ATOM     23  C   UNL     1      -7.061 -14.628 -25.652  1.00  0.00    -0.000 C 
BRANCH  23  24
ATOM     24  C   UNL     1      -6.491 -14.690 -24.221  1.00  0.00    -0.000 C 
BRANCH  24  25
ATOM     25  C   UNL     1      -7.526 -14.492 -23.095  1.00  0.00    -0.000 C 
BRANCH  25  26
ATOM     26  C   UNL     1      -6.951 -13.967 -21.766  1.00  0.00    -0.000 C 
BRANCH  26  27
ATOM     27  C   UNL     1      -7.468 -14.743 -20.546  1.00  0.00    -0.000 C 
BRANCH  27  28
ATOM     28  C   UNL     1      -8.668 -14.026 -19.909  1.00  0.00    -0.000 C 
BRANCH  28  29
ATOM     29  C   UNL     1      -8.264 -13.145 -18.717  1.00  0.00    -0.003 C 
ATOM     30  C   UNL     1      -7.124 -13.744 -17.895  1.00  0.00     0.004 C 
ENDBRANCH  28  29
ENDBRANCH  27  28
ENDBRANCH  26  27
ENDBRANCH  25  26
ENDBRANCH  24  25
ENDBRANCH  23  24
ENDBRANCH  22  23
ENDBRANCH  21  22
ENDBRANCH  20  21
ENDBRANCH  19  20
ENDBRANCH  18  19
ENDBRANCH  17  18
ENDBRANCH   1  17
TORSDOF 26
ENDMDL
MODEL 2
REMARK VINA RESULT:    -3.576      4.605     12.443
REMARK INTER + INTRA:         -11.128
REMARK INTER:                  -8.303
REMARK INTRA:                  -2.825
REMARK UNBOUND:                -2.115
REMARK SMILES CCCCCCCCCCCCCCCCCCCCCCCCCCCC(=O)[O-]
REMARK SMILES IDX 15 1 16 2 17 3 18 4 19 5 20 6 21 7 22 8 23 9 24 10 25 11
REMARK SMILES IDX 26 12 27 13 28 14 29 15 30 16 14 17 13 18 12 19 11 20 10 21
REMARK SMILES IDX 9 22 8 23 7 24 6 25 5 26 4 27 3 28 2 29 1 30
REMARK H PARENT
REMARK Flexibility Score: inf
ROOT
ATOM      1  C   UNL     1      -6.154  -3.808 -24.838  1.00  0.00     0.000 C 
ENDROOT
BRANCH   1   2
ATOM      2  C   UNL     1      -6.510  -4.177 -26.286  1.00  0.00     0.000 C 
BRANCH   2   3
ATOM      3  C   UNL     1      -5.841  -5.483 -26.749  1.00  0.00     0.000 C 
BRANCH   3   4
ATOM      4  C   UNL     1      -6.775  -6.468 -27.480  1.00  0.00     0.000 C 
BRANCH   4   5
ATOM      5  C   UNL     1      -8.217  -6.535 -26.935  1.00  0.00     0.000 C 
BRANCH   5   6
ATOM      6  C   UNL     1      -8.625  -7.888 -26.322  1.00  0.00     0.000 C 
BRANCH   6   7
ATOM      7  C   UNL     1     -10.130  -8.175 -26.450  1.00  0.00     0.000 C 
BRANCH   7   8
ATOM      8  C   UNL     1     -10.517  -8.721 -27.835  1.00  0.00     0.000 C 
BRANCH   8   9
ATOM      9  C   UNL     1     -12.007  -9.106 -27.960  1.00  0.00     0.000 C 
BRANCH   9  10
ATOM     10  C   UNL     1     -12.208 -10.632 -28.022  1.00  0.00     0.000 C 
BRANCH  10  11
ATOM     11  C   UNL     1     -11.611 -11.362 -26.810  1.00  0.00     0.000 C 
BRANCH  11  12
ATOM     12  C   UNL     1     -10.411 -12.248 -27.177  1.00  0.00     0.006 C 
BRANCH  12  13
ATOM     13  C   UNL     1      -9.245 -12.016 -26.208  1.00  0.00     0.053 C 
BRANCH  13  14
ATOM     14  C   UNL     1      -7.966 -11.779 -26.948  1.00  0.00     0.041 C 
ATOM     15  O   UNL     1      -6.887 -12.274 -26.525  1.00  0.00    -0.550 OA
ATOM     16  O   UNL     1      -7.969 -11.039 -28.124  1.00  0.00    -0.550 OA
ENDBRANCH  13  14
ENDBRANCH  12  13
ENDBRANCH  11  12
ENDBRANCH  10  11
ENDBRANCH   9  10
ENDBRANCH   8   9
ENDBRANCH   7   8
ENDBRANCH   6   7
ENDBRANCH   5   6
ENDBRANCH   4   5
ENDBRANCH   3   4
ENDBRANCH   2   3
ENDBRANCH   1   2
BRANCH   1  17
ATOM     17  C   UNL     1      -5.012  -2.783 -24.801  1.00  0.00     0.000 C 
BRANCH  17  18
ATOM     18  C   UNL     1      -5.265  -1.629 -23.812  1.00  0.00     0.000 C 
BRANCH  18  19
ATOM     19  C   UNL     1      -6.469  -1.820 -22.870  1.00  0.00     0.000 C 
BRANCH  19  20
ATOM     20  C   UNL     1      -7.610  -0.823 -23.136  1.00  0.00     0.000 C 
BRANCH  20  21
ATOM     21  C   UNL     1      -8.408  -1.158 -24.409  1.00  0.00     0.000 C 
BRANCH  21  22
ATOM     22  C   UNL     1      -9.294  -0.016 -24.944  1.00  0.00    -0.000 C 
BRANCH  22  23
ATOM     23  C   UNL     1      -8.997   0.419 -26.393  1.00  0.00    -0.000 C 
BRANCH  23  24
ATOM     24  C   UNL     1      -8.905   1.944 -26.607  1.00  0.00    -0.000 C 
BRANCH  24  25
ATOM     25  C   UNL     1      -7.576   2.588 -26.163  1.00  0.00    -0.000 C 
BRANCH  25  26
ATOM     26  C   UNL     1      -6.376   1.626 -26.090  1.00  0.00    -0.000 C 
BRANCH  26  27
ATOM     27  C   UNL     1      -5.538   1.814 -24.817  1.00  0.00    -0.000 C 
BRANCH  27  28
ATOM     28  C   UNL     1      -5.441   3.300 -24.440  1.00  0.00    -0.000 C 
BRANCH  28  29
ATOM     29  C   UNL     1      -5.635   3.543 -22.936  1.00  0.00    -0.003 C 
ATOM     30  C   UNL     1      -5.897   2.255 -22.157  1.00  0.00     0.004 C 
ENDBRANCH  28  29
ENDBRANCH  27  28
ENDBRANCH  26  27
ENDBRANCH  25  26
ENDBRANCH  24  25
ENDBRANCH  23  24
ENDBRANCH  22  23
ENDBRANCH  21  22
ENDBRANCH  20  21
ENDBRANCH  19  20
ENDBRANCH  18  19
ENDBRANCH  17  18
ENDBRANCH   1  17
TORSDOF 26
ENDMDL
MODEL 3
REMARK VINA RESULT:    -3.526      4.814     12.297
REMARK INTER + INTRA:         -11.000
REMARK INTER:                  -7.590
REMARK INTRA:                  -3.410
REMARK UNBOUND:                -2.115
REMARK SMILES CCCCCCCCCCCCCCCCCCCCCCCCCCCC(=O)[O-]
REMARK SMILES IDX 15 1 16 2 17 3 18 4 19 5 20 6 21 7 22 8 23 9 24 10 25 11
REMARK SMILES IDX 26 12 27 13 28 14 29 15 30 16 14 17 13 18 12 19 11 20 10 21
REMARK SMILES IDX 9 22 8 23 7 24 6 25 5 26 4 27 3 28 2 29 1 30
REMARK H PARENT
REMARK Flexibility Score: inf
ROOT
ATOM      1  C   UNL     1      -7.875  -3.769 -25.529  1.00  0.00     0.000 C 
ENDROOT
BRANCH   1   2
ATOM      2  C   UNL     1      -7.266  -3.580 -26.926  1.00  0.00     0.000 C 
BRANCH   2   3
ATOM      3  C   UNL     1      -5.729  -3.624 -26.917  1.00  0.00     0.000 C 
BRANCH   3   4
ATOM      4  C   UNL     1      -5.102  -4.607 -27.927  1.00  0.00     0.000 C 
BRANCH   4   5
ATOM      5  C   UNL     1      -5.382  -6.099 -27.654  1.00  0.00     0.000 C 
BRANCH   5   6
ATOM      6  C   UNL     1      -5.394  -6.504 -26.168  1.00  0.00     0.000 C 
BRANCH   6   7
ATOM      7  C   UNL     1      -6.460  -7.563 -25.843  1.00  0.00     0.000 C 
BRANCH   7   8
ATOM      8  C   UNL     1      -7.746  -7.388 -26.668  1.00  0.00     0.000 C 
BRANCH   8   9
ATOM      9  C   UNL     1      -9.042  -7.506 -25.838  1.00  0.00     0.000 C 
BRANCH   9  10
ATOM     10  C   UNL     1     -10.135  -8.299 -26.578  1.00  0.00     0.000 C 
BRANCH  10  11
ATOM     11  C   UNL     1      -9.603  -9.589 -27.221  1.00  0.00     0.000 C 
BRANCH  11  12
ATOM     12  C   UNL     1      -9.269 -10.677 -26.189  1.00  0.00     0.006 C 
BRANCH  12  13
ATOM     13  C   UNL     1      -8.432 -11.793 -26.826  1.00  0.00     0.053 C 
BRANCH  13  14
ATOM     14  C   UNL     1      -8.513 -13.055 -26.025  1.00  0.00     0.041 C 
ATOM     15  O   UNL     1      -7.867 -13.166 -24.949  1.00  0.00    -0.550 OA
ATOM     16  O   UNL     1      -9.329 -14.097 -26.448  1.00  0.00    -0.550 OA
ENDBRANCH  13  14
ENDBRANCH  12  13
ENDBRANCH  11  12
ENDBRANCH  10  11
ENDBRANCH   9  10
ENDBRANCH   8   9
ENDBRANCH   7   8
ENDBRANCH   6   7
ENDBRANCH   5   6
ENDBRANCH   4   5
ENDBRANCH   3   4
ENDBRANCH   2   3
ENDBRANCH   1   2
BRANCH   1  17
ATOM     17  C   UNL     1      -6.950  -3.192 -24.447  1.00  0.00     0.000 C 
BRANCH  17  18
ATOM     18  C   UNL     1      -7.171  -1.687 -24.201  1.00  0.00     0.000 C 
BRANCH  18  19
ATOM     19  C   UNL     1      -8.603  -1.287 -23.804  1.00  0.00     0.000 C 
BRANCH  19  20
ATOM     20  C   UNL     1      -9.133  -0.073 -24.587  1.00  0.00     0.000 C 
BRANCH  20  21
ATOM     21  C   UNL     1      -9.196  -0.324 -26.104  1.00  0.00     0.000 C 
BRANCH  21  22
ATOM     22  C   UNL     1      -9.625   0.891 -26.951  1.00  0.00    -0.000 C 
BRANCH  22  23
ATOM     23  C   UNL     1      -8.485   1.854 -27.337  1.00  0.00    -0.000 C 
BRANCH  23  24
ATOM     24  C   UNL     1      -8.152   2.923 -26.276  1.00  0.00    -0.000 C 
BRANCH  24  25
ATOM     25  C   UNL     1      -6.657   3.046 -25.918  1.00  0.00    -0.000 C 
BRANCH  25  26
ATOM     26  C   UNL     1      -5.965   1.723 -25.544  1.00  0.00    -0.000 C 
BRANCH  26  27
ATOM     27  C   UNL     1      -4.876   1.901 -24.476  1.00  0.00    -0.000 C 
BRANCH  27  28
ATOM     28  C   UNL     1      -5.033   0.862 -23.356  1.00  0.00    -0.000 C 
BRANCH  28  29
ATOM     29  C   UNL     1      -5.920   1.363 -22.206  1.00  0.00    -0.003 C 
ATOM     30  C   UNL     1      -5.935   2.886 -22.088  1.00  0.00     0.004 C 
ENDBRANCH  28  29
ENDBRANCH  27  28
ENDBRANCH  26  27
ENDBRANCH  25  26
ENDBRANCH  24  25
ENDBRANCH  23  24
ENDBRANCH  22  23
ENDBRANCH  21  22
ENDBRANCH  20  21
ENDBRANCH  19  20
ENDBRANCH  18  19
ENDBRANCH  17  18
ENDBRANCH   1  17
TORSDOF 26
ENDMDL
MODEL 4
REMARK VINA RESULT:    -3.465      5.332     12.975
REMARK INTER + INTRA:         -10.848
REMARK INTER:                  -8.090
REMARK INTRA:                  -2.758
REMARK UNBOUND:                -2.115
REMARK SMILES CCCCCCCCCCCCCCCCCCCCCCCCCCCC(=O)[O-]
REMARK SMILES IDX 15 1 16 2 17 3 18 4 19 5 20 6 21 7 22 8 23 9 24 10 25 11
REMARK SMILES IDX 26 12 27 13 28 14 29 15 30 16 14 17 13 18 12 19 11 20 10 21
REMARK SMILES IDX 9 22 8 23 7 24 6 25 5 26 4 27 3 28 2 29 1 30
REMARK H PARENT
REMARK Flexibility Score: inf
ROOT
ATOM      1  C   UNL     1      -7.889  -2.532 -24.461  1.00  0.00     0.000 C 
ENDROOT
BRANCH   1   2
ATOM      2  C   UNL     1      -7.844  -3.883 -25.190  1.00  0.00     0.000 C 
BRANCH   2   3
ATOM      3  C   UNL     1      -6.411  -4.337 -25.515  1.00  0.00     0.000 C 
BRANCH   3   4
ATOM      4  C   UNL     1      -6.110  -4.513 -27.017  1.00  0.00     0.000 C 
BRANCH   4   5
ATOM      5  C   UNL     1      -5.054  -5.585 -27.356  1.00  0.00     0.000 C 
BRANCH   5   6
ATOM      6  C   UNL     1      -5.426  -7.025 -26.952  1.00  0.00     0.000 C 
BRANCH   6   7
ATOM      7  C   UNL     1      -6.853  -7.415 -27.371  1.00  0.00     0.000 C 
BRANCH   7   8
ATOM      8  C   UNL     1      -7.690  -7.960 -26.202  1.00  0.00     0.000 C 
BRANCH   8   9
ATOM      9  C   UNL     1      -9.076  -8.496 -26.621  1.00  0.00     0.000 C 
BRANCH   9  10
ATOM     10  C   UNL     1      -9.765  -9.274 -25.485  1.00  0.00     0.000 C 
BRANCH  10  11
ATOM     11  C   UNL     1     -10.839 -10.247 -25.994  1.00  0.00     0.000 C 
BRANCH  11  12
ATOM     12  C   UNL     1     -10.246 -11.458 -26.731  1.00  0.00     0.006 C 
BRANCH  12  13
ATOM     13  C   UNL     1     -11.311 -12.143 -27.597  1.00  0.00     0.053 C 
BRANCH  13  14
ATOM     14  C   UNL     1     -11.799 -13.404 -26.956  1.00  0.00     0.041 C 
ATOM     15  O   UNL     1     -11.060 -14.424 -26.919  1.00  0.00    -0.550 OA
ATOM     16  O   UNL     1     -13.058 -13.444 -26.370  1.00  0.00    -0.550 OA
ENDBRANCH  13  14
ENDBRANCH  12  13
ENDBRANCH  11  12
ENDBRANCH  10  11
ENDBRANCH   9  10
ENDBRANCH   8   9
ENDBRANCH   7   8
ENDBRANCH   6   7
ENDBRANCH   5   6
ENDBRANCH   4   5
ENDBRANCH   3   4
ENDBRANCH   2   3
ENDBRANCH   1   2
BRANCH   1  17
ATOM     17  C   UNL     1      -6.521  -2.195 -23.849  1.00  0.00     0.000 C 
BRANCH  17  18
ATOM     18  C   UNL     1      -6.260  -0.680 -23.747  1.00  0.00     0.000 C 
BRANCH  18  19
ATOM     19  C   UNL     1      -4.876  -0.284 -23.202  1.00  0.00     0.000 C 
BRANCH  19  20
ATOM     20  C   UNL     1      -4.899   1.011 -22.372  1.00  0.00     0.000 C 
BRANCH  20  21
ATOM     21  C   UNL     1      -6.242   1.755 -22.468  1.00  0.00     0.000 C 
BRANCH  21  22
ATOM     22  C   UNL     1      -6.165   3.165 -23.088  1.00  0.00    -0.000 C 
BRANCH  22  23
ATOM     23  C   UNL     1      -5.250   3.289 -24.322  1.00  0.00    -0.000 C 
BRANCH  23  24
ATOM     24  C   UNL     1      -5.973   3.180 -25.679  1.00  0.00    -0.000 C 
BRANCH  24  25
ATOM     25  C   UNL     1      -5.846   1.812 -26.381  1.00  0.00    -0.000 C 
BRANCH  25  26
ATOM     26  C   UNL     1      -7.148   1.277 -27.005  1.00  0.00    -0.000 C 
BRANCH  26  27
ATOM     27  C   UNL     1      -8.403   1.720 -26.238  1.00  0.00    -0.000 C 
BRANCH  27  28
ATOM     28  C   UNL     1      -9.673   1.168 -26.902  1.00  0.00    -0.000 C 
BRANCH  28  29
ATOM     29  C   UNL     1     -10.105  -0.185 -26.318  1.00  0.00    -0.003 C 
ATOM     30  C   UNL     1     -10.822  -0.050 -24.975  1.00  0.00     0.004 C 
ENDBRANCH  28  29
ENDBRANCH  27  28
ENDBRANCH  26  27
ENDBRANCH  25  26
ENDBRANCH  24  25
ENDBRANCH  23  24
ENDBRANCH  22  23
ENDBRANCH  21  22
ENDBRANCH  20  21
ENDBRANCH  19  20
ENDBRANCH  18  19
ENDBRANCH  17  18
ENDBRANCH   1  17
TORSDOF 26
ENDMDL
MODEL 5
REMARK VINA RESULT:    -3.434      1.619      3.420
REMARK INTER + INTRA:         -10.768
REMARK INTER:                  -9.083
REMARK INTRA:                  -1.685
REMARK UNBOUND:                -2.115
REMARK SMILES CCCCCCCCCCCCCCCCCCCCCCCCCCCC(=O)[O-]
REMARK SMILES IDX 15 1 16 2 17 3 18 4 19 5 20 6 21 7 22 8 23 9 24 10 25 11
REMARK SMILES IDX 26 12 27 13 28 14 29 15 30 16 14 17 13 18 12 19 11 20 10 21
REMARK SMILES IDX 9 22 8 23 7 24 6 25 5 26 4 27 3 28 2 29 1 30
REMARK H PARENT
REMARK Flexibility Score: inf
ROOT
ATOM      1  C   UNL     1      -8.411  -6.773 -25.917  1.00  0.00     0.000 C 
ENDROOT
BRANCH   1   2
ATOM      2  C   UNL     1      -6.990  -7.348 -25.830  1.00  0.00     0.000 C 
BRANCH   2   3
ATOM      3  C   UNL     1      -5.927  -6.400 -26.413  1.00  0.00     0.000 C 
BRANCH   3   4
ATOM      4  C   UNL     1      -5.223  -5.499 -25.379  1.00  0.00     0.000 C 
BRANCH   4   5
ATOM      5  C   UNL     1      -5.666  -4.022 -25.384  1.00  0.00     0.000 C 
BRANCH   5   6
ATOM      6  C   UNL     1      -5.155  -3.179 -24.200  1.00  0.00     0.000 C 
BRANCH   6   7
ATOM      7  C   UNL     1      -6.281  -2.722 -23.258  1.00  0.00     0.000 C 
BRANCH   7   8
ATOM      8  C   UNL     1      -7.562  -2.321 -24.010  1.00  0.00     0.000 C 
BRANCH   8   9
ATOM      9  C   UNL     1      -8.157  -0.971 -23.555  1.00  0.00     0.000 C 
BRANCH   9  10
ATOM     10  C   UNL     1      -8.402  -0.017 -24.739  1.00  0.00     0.000 C 
BRANCH  10  11
ATOM     11  C   UNL     1      -9.863  -0.015 -25.211  1.00  0.00     0.000 C 
BRANCH  11  12
ATOM     12  C   UNL     1      -9.998  -0.062 -26.741  1.00  0.00     0.006 C 
BRANCH  12  13
ATOM     13  C   UNL     1      -8.833  -0.840 -27.366  1.00  0.00     0.053 C 
BRANCH  13  14
ATOM     14  C   UNL     1      -9.206  -2.269 -27.610  1.00  0.00     0.041 C 
ATOM     15  O   UNL     1      -8.314  -3.156 -27.668  1.00  0.00    -0.550 OA
ATOM     16  O   UNL     1     -10.542  -2.626 -27.741  1.00  0.00    -0.550 OA
ENDBRANCH  13  14
ENDBRANCH  12  13
ENDBRANCH  11  12
ENDBRANCH  10  11
ENDBRANCH   9  10
ENDBRANCH   8   9
ENDBRANCH   7   8
ENDBRANCH   6   7
ENDBRANCH   5   6
ENDBRANCH   4   5
ENDBRANCH   3   4
ENDBRANCH   2   3
ENDBRANCH   1   2
BRANCH   1  17
ATOM     17  C   UNL     1      -9.381  -7.802 -26.514  1.00  0.00     0.000 C 
BRANCH  17  18
ATOM     18  C   UNL     1      -9.814  -8.883 -25.504  1.00  0.00     0.000 C 
BRANCH  18  19
ATOM     19  C   UNL     1     -10.544 -10.096 -26.109  1.00  0.00     0.000 C 
BRANCH  19  20
ATOM     20  C   UNL     1      -9.654 -10.938 -27.038  1.00  0.00     0.000 C 
BRANCH  20  21
ATOM     21  C   UNL     1      -9.721 -12.443 -26.722  1.00  0.00     0.000 C 
BRANCH  21  22
ATOM     22  C   UNL     1      -8.355 -13.139 -26.562  1.00  0.00    -0.000 C 
BRANCH  22  23
ATOM     23  C   UNL     1      -8.358 -14.387 -25.656  1.00  0.00    -0.000 C 
BRANCH  23  24
ATOM     24  C   UNL     1      -7.202 -14.452 -24.638  1.00  0.00    -0.000 C 
BRANCH  24  25
ATOM     25  C   UNL     1      -7.602 -14.912 -23.221  1.00  0.00    -0.000 C 
BRANCH  25  26
ATOM     26  C   UNL     1      -7.309 -13.897 -22.100  1.00  0.00    -0.000 C 
BRANCH  26  27
ATOM     27  C   UNL     1      -6.181 -14.353 -21.164  1.00  0.00    -0.000 C 
BRANCH  27  28
ATOM     28  C   UNL     1      -6.614 -14.248 -19.694  1.00  0.00    -0.000 C 
BRANCH  28  29
ATOM     29  C   UNL     1      -8.076 -13.802 -19.539  1.00  0.00    -0.003 C 
ATOM     30  C   UNL     1      -8.289 -12.870 -18.346  1.00  0.00     0.004 C 
ENDBRANCH  28  29
ENDBRANCH  27  28
ENDBRANCH  26  27
ENDBRANCH  25  26
ENDBRANCH  24  25
ENDBRANCH  23  24
ENDBRANCH  22  23
ENDBRANCH  21  22
ENDBRANCH  20  21
ENDBRANCH  19  20
ENDBRANCH  18  19
ENDBRANCH  17  18
ENDBRANCH   1  17
TORSDOF 26
ENDMDL
MODEL 6
REMARK VINA RESULT:    -3.388      1.553      3.385
REMARK INTER + INTRA:         -10.652
REMARK INTER:                  -8.244
REMARK INTRA:                  -2.409
REMARK UNBOUND:                -2.115
REMARK SMILES CCCCCCCCCCCCCCCCCCCCCCCCCCCC(=O)[O-]
REMARK SMILES IDX 15 1 16 2 17 3 18 4 19 5 20 6 21 7 22 8 23 9 24 10 25 11
REMARK SMILES IDX 26 12 27 13 28 14 29 15 30 16 14 17 13 18 12 19 11 20 10 21
REMARK SMILES IDX 9 22 8 23 7 24 6 25 5 26 4 27 3 28 2 29 1 30
REMARK H PARENT
REMARK Flexibility Score: inf
ROOT
ATOM      1  C   UNL     1      -8.284  -6.593 -25.963  1.00  0.00     0.000 C 
ENDROOT
BRANCH   1   2
ATOM      2  C   UNL     1      -6.809  -6.969 -25.766  1.00  0.00     0.000 C 
BRANCH   2   3
ATOM      3  C   UNL     1      -5.848  -6.020 -26.503  1.00  0.00     0.000 C 
BRANCH   3   4
ATOM      4  C   UNL     1      -5.054  -5.063 -25.592  1.00  0.00     0.000 C 
BRANCH   4   5
ATOM      5  C   UNL     1      -5.562  -3.607 -25.563  1.00  0.00     0.000 C 
BRANCH   5   6
ATOM      6  C   UNL     1      -6.762  -3.348 -24.632  1.00  0.00     0.000 C 
BRANCH   6   7
ATOM      7  C   UNL     1      -8.057  -3.028 -25.396  1.00  0.00     0.000 C 
BRANCH   7   8
ATOM      8  C   UNL     1      -7.820  -2.787 -26.896  1.00  0.00     0.000 C 
BRANCH   8   9
ATOM      9  C   UNL     1      -8.967  -3.289 -27.799  1.00  0.00     0.000 C 
BRANCH   9  10
ATOM     10  C   UNL     1     -10.158  -2.314 -27.821  1.00  0.00     0.000 C 
BRANCH  10  11
ATOM     11  C   UNL     1      -9.734  -0.861 -28.079  1.00  0.00     0.000 C 
BRANCH  11  12
ATOM     12  C   UNL     1     -10.439   0.142 -27.151  1.00  0.00     0.006 C 
BRANCH  12  13
ATOM     13  C   UNL     1      -9.415   0.955 -26.349  1.00  0.00     0.053 C 
BRANCH  13  14
ATOM     14  C   UNL     1      -9.154   0.328 -25.015  1.00  0.00     0.041 C 
ATOM     15  O   UNL     1     -10.091  -0.223 -24.378  1.00  0.00    -0.550 OA
ATOM     16  O   UNL     1      -7.868   0.322 -24.490  1.00  0.00    -0.550 OA
ENDBRANCH  13  14
ENDBRANCH  12  13
ENDBRANCH  11  12
ENDBRANCH  10  11
ENDBRANCH   9  10
ENDBRANCH   8   9
ENDBRANCH   7   8
ENDBRANCH   6   7
ENDBRANCH   5   6
ENDBRANCH   4   5
ENDBRANCH   3   4
ENDBRANCH   2   3
ENDBRANCH   1   2
BRANCH   1  17
ATOM     17  C   UNL     1      -9.038  -7.705 -26.706  1.00  0.00     0.000 C 
BRANCH  17  18
ATOM     18  C   UNL     1     -10.137  -8.367 -25.852  1.00  0.00     0.000 C 
BRANCH  18  19
ATOM     19  C   UNL     1     -10.283  -9.889 -26.030  1.00  0.00     0.000 C 
BRANCH  19  20
ATOM     20  C   UNL     1      -8.969 -10.581 -26.434  1.00  0.00     0.000 C 
BRANCH  20  21
ATOM     21  C   UNL     1      -8.963 -12.084 -26.102  1.00  0.00     0.000 C 
BRANCH  21  22
ATOM     22  C   UNL     1      -8.430 -12.998 -27.224  1.00  0.00    -0.000 C 
BRANCH  22  23
ATOM     23  C   UNL     1      -7.721 -14.279 -26.742  1.00  0.00    -0.000 C 
BRANCH  23  24
ATOM     24  C   UNL     1      -7.019 -14.158 -25.374  1.00  0.00    -0.000 C 
BRANCH  24  25
ATOM     25  C   UNL     1      -7.670 -14.960 -24.230  1.00  0.00    -0.000 C 
BRANCH  25  26
ATOM     26  C   UNL     1      -6.935 -14.883 -22.879  1.00  0.00    -0.000 C 
BRANCH  26  27
ATOM     27  C   UNL     1      -7.878 -14.585 -21.704  1.00  0.00    -0.000 C 
BRANCH  27  28
ATOM     28  C   UNL     1      -7.115 -13.929 -20.543  1.00  0.00    -0.000 C 
BRANCH  28  29
ATOM     29  C   UNL     1      -8.053 -13.328 -19.485  1.00  0.00    -0.003 C 
ATOM     30  C   UNL     1      -7.551 -13.544 -18.058  1.00  0.00     0.004 C 
ENDBRANCH  28  29
ENDBRANCH  27  28
ENDBRANCH  26  27
ENDBRANCH  25  26
ENDBRANCH  24  25
ENDBRANCH  23  24
ENDBRANCH  22  23
ENDBRANCH  21  22
ENDBRANCH  20  21
ENDBRANCH  19  20
ENDBRANCH  18  19
ENDBRANCH  17  18
ENDBRANCH   1  17
TORSDOF 26
ENDMDL
MODEL 7
REMARK VINA RESULT:    -3.344      4.849     12.668
REMARK INTER + INTRA:         -10.543
REMARK INTER:                  -7.188
REMARK INTRA:                  -3.354
REMARK UNBOUND:                -2.115
REMARK SMILES CCCCCCCCCCCCCCCCCCCCCCCCCCCC(=O)[O-]
REMARK SMILES IDX 15 1 16 2 17 3 18 4 19 5 20 6 21 7 22 8 23 9 24 10 25 11
REMARK SMILES IDX 26 12 27 13 28 14 29 15 30 16 14 17 13 18 12 19 11 20 10 21
REMARK SMILES IDX 9 22 8 23 7 24 6 25 5 26 4 27 3 28 2 29 1 30
REMARK H PARENT
REMARK Flexibility Score: inf
ROOT
ATOM      1  C   UNL     1      -7.303  -0.558 -23.381  1.00  0.00     0.000 C 
ENDROOT
BRANCH   1   2
ATOM      2  C   UNL     1      -6.722  -1.314 -24.585  1.00  0.00     0.000 C 
BRANCH   2   3
ATOM      3  C   UNL     1      -6.307  -2.755 -24.241  1.00  0.00     0.000 C 
BRANCH   3   4
ATOM      4  C   UNL     1      -5.362  -3.419 -25.262  1.00  0.00     0.000 C 
BRANCH   4   5
ATOM      5  C   UNL     1      -5.216  -4.949 -25.125  1.00  0.00     0.000 C 
BRANCH   5   6
ATOM      6  C   UNL     1      -4.875  -5.696 -26.429  1.00  0.00     0.000 C 
BRANCH   6   7
ATOM      7  C   UNL     1      -6.025  -5.677 -27.449  1.00  0.00     0.000 C 
BRANCH   7   8
ATOM      8  C   UNL     1      -7.018  -6.835 -27.250  1.00  0.00     0.000 C 
BRANCH   8   9
ATOM      9  C   UNL     1      -8.356  -6.645 -27.995  1.00  0.00     0.000 C 
BRANCH   9  10
ATOM     10  C   UNL     1      -9.489  -7.485 -27.376  1.00  0.00     0.000 C 
BRANCH  10  11
ATOM     11  C   UNL     1      -9.263  -7.785 -25.887  1.00  0.00     0.000 C 
BRANCH  11  12
ATOM     12  C   UNL     1      -9.926  -9.096 -25.434  1.00  0.00     0.006 C 
BRANCH  12  13
ATOM     13  C   UNL     1      -9.786 -10.178 -26.513  1.00  0.00     0.053 C 
BRANCH  13  14
ATOM     14  C   UNL     1      -8.585 -11.035 -26.267  1.00  0.00     0.041 C 
ATOM     15  O   UNL     1      -8.706 -12.141 -25.675  1.00  0.00    -0.550 OA
ATOM     16  O   UNL     1      -7.336 -10.629 -26.720  1.00  0.00    -0.550 OA
ENDBRANCH  13  14
ENDBRANCH  12  13
ENDBRANCH  11  12
ENDBRANCH  10  11
ENDBRANCH   9  10
ENDBRANCH   8   9
ENDBRANCH   7   8
ENDBRANCH   6   7
ENDBRANCH   5   6
ENDBRANCH   4   5
ENDBRANCH   3   4
ENDBRANCH   2   3
ENDBRANCH   1   2
BRANCH   1  17
ATOM     17  C   UNL     1      -6.206  -0.240 -22.354  1.00  0.00     0.000 C 
BRANCH  17  18
ATOM     18  C   UNL     1      -5.331   0.962 -22.756  1.00  0.00     0.000 C 
BRANCH  18  19
ATOM     19  C   UNL     1      -5.812   2.330 -22.238  1.00  0.00     0.000 C 
BRANCH  19  20
ATOM     20  C   UNL     1      -6.070   3.347 -23.363  1.00  0.00     0.000 C 
BRANCH  20  21
ATOM     21  C   UNL     1      -6.137   2.692 -24.754  1.00  0.00     0.000 C 
BRANCH  21  22
ATOM     22  C   UNL     1      -7.560   2.469 -25.304  1.00  0.00    -0.000 C 
BRANCH  22  23
ATOM     23  C   UNL     1      -7.837   3.107 -26.680  1.00  0.00    -0.000 C 
BRANCH  23  24
ATOM     24  C   UNL     1      -8.453   2.154 -27.724  1.00  0.00    -0.000 C 
BRANCH  24  25
ATOM     25  C   UNL     1      -9.985   2.001 -27.649  1.00  0.00    -0.000 C 
BRANCH  25  26
ATOM     26  C   UNL     1     -10.489   0.554 -27.487  1.00  0.00    -0.000 C 
BRANCH  26  27
ATOM     27  C   UNL     1      -9.411  -0.491 -27.805  1.00  0.00    -0.000 C 
BRANCH  27  28
ATOM     28  C   UNL     1      -9.572  -1.732 -26.914  1.00  0.00    -0.000 C 
BRANCH  28  29
ATOM     29  C   UNL     1      -8.654  -2.888 -27.340  1.00  0.00    -0.003 C 
ATOM     30  C   UNL     1      -7.431  -2.417 -28.125  1.00  0.00     0.004 C 
ENDBRANCH  28  29
ENDBRANCH  27  28
ENDBRANCH  26  27
ENDBRANCH  25  26
ENDBRANCH  24  25
ENDBRANCH  23  24
ENDBRANCH  22  23
ENDBRANCH  21  22
ENDBRANCH  20  21
ENDBRANCH  19  20
ENDBRANCH  18  19
ENDBRANCH  17  18
ENDBRANCH   1  17
TORSDOF 26
ENDMDL
MODEL 8
REMARK VINA RESULT:    -3.272      1.927      2.359
REMARK INTER + INTRA:         -10.361
REMARK INTER:                  -8.586
REMARK INTRA:                  -1.776
REMARK UNBOUND:                -2.115
REMARK SMILES CCCCCCCCCCCCCCCCCCCCCCCCCCCC(=O)[O-]
REMARK SMILES IDX 15 1 16 2 17 3 18 4 19 5 20 6 21 7 22 8 23 9 24 10 25 11
REMARK SMILES IDX 26 12 27 13 28 14 29 15 30 16 14 17 13 18 12 19 11 20 10 21
REMARK SMILES IDX 9 22 8 23 7 24 6 25 5 26 4 27 3 28 2 29 1 30
REMARK H PARENT
REMARK Flexibility Score: inf
ROOT
ATOM      1  C   UNL     1      -9.635 -11.134 -27.235  1.00  0.00     0.000 C 
ENDROOT
BRANCH   1   2
ATOM      2  C   UNL     1      -9.051 -10.342 -26.057  1.00  0.00     0.000 C 
BRANCH   2   3
ATOM      3  C   UNL     1      -9.690  -8.951 -25.899  1.00  0.00     0.000 C 
BRANCH   3   4
ATOM      4  C   UNL     1      -9.527  -8.019 -27.116  1.00  0.00     0.000 C 
BRANCH   4   5
ATOM      5  C   UNL     1      -8.354  -7.021 -27.029  1.00  0.00     0.000 C 
BRANCH   5   6
ATOM      6  C   UNL     1      -8.600  -5.658 -27.703  1.00  0.00     0.000 C 
BRANCH   6   7
ATOM      7  C   UNL     1      -7.757  -4.526 -27.093  1.00  0.00     0.000 C 
BRANCH   7   8
ATOM      8  C   UNL     1      -6.987  -4.966 -25.837  1.00  0.00     0.000 C 
BRANCH   8   9
ATOM      9  C   UNL     1      -6.730  -3.826 -24.829  1.00  0.00     0.000 C 
BRANCH   9  10
ATOM     10  C   UNL     1      -8.032  -3.121 -24.406  1.00  0.00     0.000 C 
BRANCH  10  11
ATOM     11  C   UNL     1      -7.919  -1.590 -24.438  1.00  0.00     0.000 C 
BRANCH  11  12
ATOM     12  C   UNL     1      -6.738  -1.096 -25.288  1.00  0.00     0.006 C 
BRANCH  12  13
ATOM     13  C   UNL     1      -5.968   0.013 -24.560  1.00  0.00     0.053 C 
BRANCH  13  14
ATOM     14  C   UNL     1      -5.581  -0.415 -23.179  1.00  0.00     0.041 C 
ATOM     15  O   UNL     1      -5.912   0.281 -22.182  1.00  0.00    -0.550 OA
ATOM     16  O   UNL     1      -4.882  -1.601 -22.989  1.00  0.00    -0.550 OA
ENDBRANCH  13  14
ENDBRANCH  12  13
ENDBRANCH  11  12
ENDBRANCH  10  11
ENDBRANCH   9  10
ENDBRANCH   8   9
ENDBRANCH   7   8
ENDBRANCH   6   7
ENDBRANCH   5   6
ENDBRANCH   4   5
ENDBRANCH   3   4
ENDBRANCH   2   3
ENDBRANCH   1   2
BRANCH   1  17
ATOM     17  C   UNL     1     -11.023 -11.691 -26.885  1.00  0.00     0.000 C 
BRANCH  17  18
ATOM     18  C   UNL     1     -11.145 -13.208 -27.127  1.00  0.00     0.000 C 
BRANCH  18  19
ATOM     19  C   UNL     1      -9.815 -13.948 -27.358  1.00  0.00     0.000 C 
BRANCH  19  20
ATOM     20  C   UNL     1      -9.506 -14.992 -26.271  1.00  0.00     0.000 C 
BRANCH  20  21
ATOM     21  C   UNL     1      -8.076 -14.865 -25.714  1.00  0.00     0.000 C 
BRANCH  21  22
ATOM     22  C   UNL     1      -7.984 -14.363 -24.259  1.00  0.00    -0.000 C 
BRANCH  22  23
ATOM     23  C   UNL     1      -6.716 -14.797 -23.496  1.00  0.00    -0.000 C 
BRANCH  23  24
ATOM     24  C   UNL     1      -6.609 -14.257 -22.056  1.00  0.00    -0.000 C 
BRANCH  24  25
ATOM     25  C   UNL     1      -7.906 -13.645 -21.487  1.00  0.00    -0.000 C 
BRANCH  25  26
ATOM     26  C   UNL     1      -7.953 -13.528 -19.952  1.00  0.00    -0.000 C 
BRANCH  26  27
ATOM     27  C   UNL     1      -6.688 -14.073 -19.274  1.00  0.00    -0.000 C 
BRANCH  27  28
ATOM     28  C   UNL     1      -6.867 -14.133 -17.750  1.00  0.00    -0.000 C 
BRANCH  28  29
ATOM     29  C   UNL     1      -5.535 -14.017 -16.994  1.00  0.00    -0.003 C 
ATOM     30  C   UNL     1      -5.710 -14.046 -15.476  1.00  0.00     0.004 C 
ENDBRANCH  28  29
ENDBRANCH  27  28
ENDBRANCH  26  27
ENDBRANCH  25  26
ENDBRANCH  24  25
ENDBRANCH  23  24
ENDBRANCH  22  23
ENDBRANCH  21  22
ENDBRANCH  20  21
ENDBRANCH  19  20
ENDBRANCH  18  19
ENDBRANCH  17  18
ENDBRANCH   1  17
TORSDOF 26
ENDMDL
MODEL 9
REMARK VINA RESULT:    -3.171      2.046      3.220
REMARK INTER + INTRA:         -10.106
REMARK INTER:                  -7.929
REMARK INTRA:                  -2.177
REMARK UNBOUND:                -2.115
REMARK SMILES CCCCCCCCCCCCCCCCCCCCCCCCCCCC(=O)[O-]
REMARK SMILES IDX 15 1 16 2 17 3 18 4 19 5 20 6 21 7 22 8 23 9 24 10 25 11
REMARK SMILES IDX 26 12 27 13 28 14 29 15 30 16 14 17 13 18 12 19 11 20 10 21
REMARK SMILES IDX 9 22 8 23 7 24 6 25 5 26 4 27 3 28 2 29 1 30
REMARK H PARENT
REMARK Flexibility Score: inf
ROOT
ATOM      1  C   UNL     1      -8.578  -7.052 -25.856  1.00  0.00     0.000 C 
ENDROOT
BRANCH   1   2
ATOM      2  C   UNL     1      -7.069  -7.339 -25.856  1.00  0.00     0.000 C 
BRANCH   2   3
ATOM      3  C   UNL     1      -6.461  -7.334 -27.269  1.00  0.00     0.000 C 
BRANCH   3   4
ATOM      4  C   UNL     1      -5.154  -6.529 -27.411  1.00  0.00     0.000 C 
BRANCH   4   5
ATOM      5  C   UNL     1      -5.336  -5.024 -27.698  1.00  0.00     0.000 C 
BRANCH   5   6
ATOM      6  C   UNL     1      -4.876  -4.080 -26.571  1.00  0.00     0.000 C 
BRANCH   6   7
ATOM      7  C   UNL     1      -5.983  -3.122 -26.101  1.00  0.00     0.000 C 
BRANCH   7   8
ATOM      8  C   UNL     1      -7.175  -3.856 -25.462  1.00  0.00     0.000 C 
BRANCH   8   9
ATOM      9  C   UNL     1      -8.227  -2.914 -24.839  1.00  0.00     0.000 C 
BRANCH   9  10
ATOM     10  C   UNL     1      -8.283  -1.552 -25.555  1.00  0.00     0.000 C 
BRANCH  10  11
ATOM     11  C   UNL     1      -8.772  -0.418 -24.643  1.00  0.00     0.000 C 
BRANCH  11  12
ATOM     12  C   UNL     1      -7.736   0.704 -24.476  1.00  0.00     0.006 C 
BRANCH  12  13
ATOM     13  C   UNL     1      -6.316   0.128 -24.405  1.00  0.00     0.053 C 
BRANCH  13  14
ATOM     14  C   UNL     1      -5.954  -0.247 -23.003  1.00  0.00     0.041 C 
ATOM     15  O   UNL     1      -6.153  -1.420 -22.588  1.00  0.00    -0.550 OA
ATOM     16  O   UNL     1      -5.367   0.690 -22.161  1.00  0.00    -0.550 OA
ENDBRANCH  13  14
ENDBRANCH  12  13
ENDBRANCH  11  12
ENDBRANCH  10  11
ENDBRANCH   9  10
ENDBRANCH   8   9
ENDBRANCH   7   8
ENDBRANCH   6   7
ENDBRANCH   5   6
ENDBRANCH   4   5
ENDBRANCH   3   4
ENDBRANCH   2   3
ENDBRANCH   1   2
BRANCH   1  17
ATOM     17  C   UNL     1      -9.339  -8.131 -26.640  1.00  0.00     0.000 C 
BRANCH  17  18
ATOM     18  C   UNL     1     -10.156  -9.073 -25.735  1.00  0.00     0.000 C 
BRANCH  18  19
ATOM     19  C   UNL     1     -10.057 -10.570 -26.081  1.00  0.00     0.000 C 
BRANCH  19  20
ATOM     20  C   UNL     1      -8.734 -10.946 -26.770  1.00  0.00     0.000 C 
BRANCH  20  21
ATOM     21  C   UNL     1      -8.328 -12.409 -26.519  1.00  0.00     0.000 C 
BRANCH  21  22
ATOM     22  C   UNL     1      -6.885 -12.767 -26.928  1.00  0.00    -0.000 C 
BRANCH  22  23
ATOM     23  C   UNL     1      -6.389 -14.142 -26.441  1.00  0.00    -0.000 C 
BRANCH  23  24
ATOM     24  C   UNL     1      -7.359 -14.888 -25.503  1.00  0.00    -0.000 C 
BRANCH  24  25
ATOM     25  C   UNL     1      -6.911 -14.973 -24.030  1.00  0.00    -0.000 C 
BRANCH  25  26
ATOM     26  C   UNL     1      -7.638 -14.013 -23.070  1.00  0.00    -0.000 C 
BRANCH  26  27
ATOM     27  C   UNL     1      -7.827 -14.604 -21.666  1.00  0.00    -0.000 C 
BRANCH  27  28
ATOM     28  C   UNL     1      -8.386 -13.549 -20.699  1.00  0.00    -0.000 C 
BRANCH  28  29
ATOM     29  C   UNL     1      -8.601 -14.102 -19.282  1.00  0.00    -0.003 C 
ATOM     30  C   UNL     1      -8.018 -13.198 -18.197  1.00  0.00     0.004 C 
ENDBRANCH  28  29
ENDBRANCH  27  28
ENDBRANCH  26  27
ENDBRANCH  25  26
ENDBRANCH  24  25
ENDBRANCH  23  24
ENDBRANCH  22  23
ENDBRANCH  21  22
ENDBRANCH  20  21
ENDBRANCH  19  20
ENDBRANCH  18  19
ENDBRANCH  17  18
ENDBRANCH   1  17
TORSDOF 26
ENDMDL
