MODEL 1
REMARK VINA RESULT:    -3.244      0.000      0.000
REMARK INTER + INTRA:          -9.116
REMARK INTER:                  -6.279
REMARK INTRA:                  -2.837
REMARK UNBOUND:                -2.837
REMARK SMILES CCCCCCCCCCCCCCCCCC(=O)[O-]
REMARK SMILES IDX 10 1 11 2 12 3 13 4 14 5 15 6 16 7 17 8 18 9 19 10 20 11
REMARK SMILES IDX 9 12 8 13 7 14 6 15 5 16 4 17 3 18 2 19 1 20
REMARK H PARENT
REMARK Flexibility Score: inf
ROOT
ATOM      1  C   UNL     1      35.945   7.611  -5.364  1.00  0.00     0.000 C 
ENDROOT
BRANCH   1   2
ATOM      2  C   UNL     1      34.649   6.892  -4.969  1.00  0.00     0.000 C 
BRANCH   2   3
ATOM      3  C   UNL     1      34.791   5.360  -4.963  1.00  0.00     0.000 C 
BRANCH   3   4
ATOM      4  C   UNL     1      34.186   4.678  -6.209  1.00  0.00     0.000 C 
BRANCH   4   5
ATOM      5  C   UNL     1      35.269   4.084  -7.127  1.00  0.00     0.000 C 
BRANCH   5   6
ATOM      6  C   UNL     1      35.636   5.017  -8.292  1.00  0.00     0.000 C 
BRANCH   6   7
ATOM      7  C   UNL     1      37.095   5.502  -8.225  1.00  0.00     0.006 C 
BRANCH   7   8
ATOM      8  C   UNL     1      37.858   4.880  -7.048  1.00  0.00     0.053 C 
BRANCH   8   9
ATOM      9  C   UNL     1      39.289   4.604  -7.398  1.00  0.00     0.041 C 
ATOM     10  O   UNL     1      39.841   5.224  -8.345  1.00  0.00    -0.550 OA
ATOM     11  O   UNL     1      40.020   3.683  -6.659  1.00  0.00    -0.550 OA
ENDBRANCH   8   9
ENDBRANCH   7   8
ENDBRANCH   6   7
ENDBRANCH   5   6
ENDBRANCH   4   5
ENDBRANCH   3   4
ENDBRANCH   2   3
ENDBRANCH   1   2
BRANCH   1  12
ATOM     12  C   UNL     1      35.733   8.492  -6.601  1.00  0.00     0.000 C 
BRANCH  12  13
ATOM     13  C   UNL     1      34.248   8.545  -6.989  1.00  0.00    -0.000 C 
BRANCH  13  14
ATOM     14  C   UNL     1      34.019   8.323  -8.493  1.00  0.00    -0.000 C 
BRANCH  14  15
ATOM     15  C   UNL     1      32.570   7.919  -8.817  1.00  0.00    -0.000 C 
BRANCH  15  16
ATOM     16  C   UNL     1      32.255   6.471  -8.408  1.00  0.00    -0.000 C 
BRANCH  16  17
ATOM     17  C   UNL     1      31.143   6.379  -7.351  1.00  0.00    -0.000 C 
BRANCH  17  18
ATOM     18  C   UNL     1      30.657   7.777  -6.944  1.00  0.00    -0.000 C 
BRANCH  18  19
ATOM     19  C   UNL     1      29.154   7.977  -7.196  1.00  0.00    -0.003 C 
ATOM     20  C   UNL     1      28.750   7.675  -8.638  1.00  0.00     0.004 C 
ENDBRANCH  18  19
ENDBRANCH  17  18
ENDBRANCH  16  17
ENDBRANCH  15  16
ENDBRANCH  14  15
ENDBRANCH  13  14
ENDBRANCH  12  13
ENDBRANCH   1  12
TORSDOF 16
ENDMDL
MODEL 2
REMARK VINA RESULT:    -3.097      1.985      2.924
REMARK INTER + INTRA:          -8.831
REMARK INTER:                  -6.811
REMARK INTRA:                  -2.019
REMARK UNBOUND:                -2.837
REMARK SMILES CCCCCCCCCCCCCCCCCC(=O)[O-]
REMARK SMILES IDX 10 1 11 2 12 3 13 4 14 5 15 6 16 7 17 8 18 9 19 10 20 11
REMARK SMILES IDX 9 12 8 13 7 14 6 15 5 16 4 17 3 18 2 19 1 20
REMARK H PARENT
REMARK Flexibility Score: inf
ROOT
ATOM      1  C   UNL     1      37.118   5.402  -6.974  1.00  0.00     0.000 C 
ENDROOT
BRANCH   1   2
ATOM      2  C   UNL     1      36.675   5.388  -8.443  1.00  0.00     0.000 C 
BRANCH   2   3
ATOM      3  C   UNL     1      35.639   4.292  -8.747  1.00  0.00     0.000 C 
BRANCH   3   4
ATOM      4  C   UNL     1      35.501   3.244  -7.621  1.00  0.00     0.000 C 
BRANCH   4   5
ATOM      5  C   UNL     1      35.716   1.809  -8.136  1.00  0.00     0.000 C 
BRANCH   5   6
ATOM      6  C   UNL     1      37.123   1.590  -8.712  1.00  0.00     0.000 C 
BRANCH   6   7
ATOM      7  C   UNL     1      38.148   1.189  -7.637  1.00  0.00     0.006 C 
BRANCH   7   8
ATOM      8  C   UNL     1      39.320   2.174  -7.558  1.00  0.00     0.053 C 
BRANCH   8   9
ATOM      9  C   UNL     1      40.380   1.703  -6.609  1.00  0.00     0.041 C 
ATOM     10  O   UNL     1      41.593   1.737  -6.946  1.00  0.00    -0.550 OA
ATOM     11  O   UNL     1      40.029   1.256  -5.342  1.00  0.00    -0.550 OA
ENDBRANCH   8   9
ENDBRANCH   7   8
ENDBRANCH   6   7
ENDBRANCH   5   6
ENDBRANCH   4   5
ENDBRANCH   3   4
ENDBRANCH   2   3
ENDBRANCH   1   2
BRANCH   1  12
ATOM     12  C   UNL     1      36.329   6.442  -6.170  1.00  0.00     0.000 C 
BRANCH  12  13
ATOM     13  C   UNL     1      35.706   7.496  -7.097  1.00  0.00    -0.000 C 
BRANCH  13  14
ATOM     14  C   UNL     1      34.170   7.448  -7.104  1.00  0.00    -0.000 C 
BRANCH  14  15
ATOM     15  C   UNL     1      33.613   6.257  -6.303  1.00  0.00    -0.000 C 
BRANCH  15  16
ATOM     16  C   UNL     1      32.402   5.601  -6.985  1.00  0.00    -0.000 C 
BRANCH  16  17
ATOM     17  C   UNL     1      32.085   6.216  -8.357  1.00  0.00    -0.000 C 
BRANCH  17  18
ATOM     18  C   UNL     1      30.876   7.160  -8.268  1.00  0.00    -0.000 C 
BRANCH  18  19
ATOM     19  C   UNL     1      29.845   6.702  -7.224  1.00  0.00    -0.003 C 
ATOM     20  C   UNL     1      29.503   7.794  -6.212  1.00  0.00     0.004 C 
ENDBRANCH  18  19
ENDBRANCH  17  18
ENDBRANCH  16  17
ENDBRANCH  15  16
ENDBRANCH  14  15
ENDBRANCH  13  14
ENDBRANCH  12  13
ENDBRANCH   1  12
TORSDOF 16
ENDMDL
MODEL 3
REMARK VINA RESULT:    -3.093     12.596     14.623
REMARK INTER + INTRA:          -8.823
REMARK INTER:                  -6.271
REMARK INTRA:                  -2.552
REMARK UNBOUND:                -2.837
REMARK SMILES CCCCCCCCCCCCCCCCCC(=O)[O-]
REMARK SMILES IDX 10 1 11 2 12 3 13 4 14 5 15 6 16 7 17 8 18 9 19 10 20 11
REMARK SMILES IDX 9 12 8 13 7 14 6 15 5 16 4 17 3 18 2 19 1 20
REMARK H PARENT
REMARK Flexibility Score: inf
ROOT
ATOM      1  C   UNL     1      28.840  -3.268   2.345  1.00  0.00     0.000 C 
ENDROOT
BRANCH   1   2
ATOM      2  C   UNL     1      29.835  -2.422   3.150  1.00  0.00     0.000 C 
BRANCH   2   3
ATOM      3  C   UNL     1      29.419  -0.944   3.253  1.00  0.00     0.000 C 
BRANCH   3   4
ATOM      4  C   UNL     1      30.096  -0.193   4.420  1.00  0.00     0.000 C 
BRANCH   4   5
ATOM      5  C   UNL     1      30.904   1.023   3.935  1.00  0.00     0.000 C 
BRANCH   5   6
ATOM      6  C   UNL     1      32.304   0.642   3.428  1.00  0.00     0.000 C 
BRANCH   6   7
ATOM      7  C   UNL     1      32.398   0.636   1.893  1.00  0.00     0.006 C 
BRANCH   7   8
ATOM      8  C   UNL     1      31.543   1.738   1.257  1.00  0.00     0.053 C 
BRANCH   8   9
ATOM      9  C   UNL     1      32.370   2.923   0.858  1.00  0.00     0.041 C 
ATOM     10  O   UNL     1      31.851   4.069   0.806  1.00  0.00    -0.550 OA
ATOM     11  O   UNL     1      33.719   2.764   0.573  1.00  0.00    -0.550 OA
ENDBRANCH   8   9
ENDBRANCH   7   8
ENDBRANCH   6   7
ENDBRANCH   5   6
ENDBRANCH   4   5
ENDBRANCH   3   4
ENDBRANCH   2   3
ENDBRANCH   1   2
BRANCH   1  12
ATOM     12  C   UNL     1      27.706  -2.401   1.783  1.00  0.00     0.000 C 
BRANCH  12  13
ATOM     13  C   UNL     1      26.407  -3.211   1.658  1.00  0.00    -0.000 C 
BRANCH  13  14
ATOM     14  C   UNL     1      25.265  -2.634   2.510  1.00  0.00    -0.000 C 
BRANCH  14  15
ATOM     15  C   UNL     1      25.718  -1.452   3.384  1.00  0.00    -0.000 C 
BRANCH  15  16
ATOM     16  C   UNL     1      25.568  -1.737   4.887  1.00  0.00    -0.000 C 
BRANCH  16  17
ATOM     17  C   UNL     1      26.856  -1.459   5.678  1.00  0.00    -0.000 C 
BRANCH  17  18
ATOM     18  C   UNL     1      27.367  -2.738   6.359  1.00  0.00    -0.000 C 
BRANCH  18  19
ATOM     19  C   UNL     1      27.003  -4.009   5.576  1.00  0.00    -0.003 C 
ATOM     20  C   UNL     1      28.166  -4.995   5.473  1.00  0.00     0.004 C 
ENDBRANCH  18  19
ENDBRANCH  17  18
ENDBRANCH  16  17
ENDBRANCH  15  16
ENDBRANCH  14  15
ENDBRANCH  13  14
ENDBRANCH  12  13
ENDBRANCH   1  12
TORSDOF 16
ENDMDL
MODEL 4
REMARK VINA RESULT:    -2.953      2.961      6.664
REMARK INTER + INTRA:          -8.552
REMARK INTER:                  -5.973
REMARK INTRA:                  -2.578
REMARK UNBOUND:                -2.837
REMARK SMILES CCCCCCCCCCCCCCCCCC(=O)[O-]
REMARK SMILES IDX 10 1 11 2 12 3 13 4 14 5 15 6 16 7 17 8 18 9 19 10 20 11
REMARK SMILES IDX 9 12 8 13 7 14 6 15 5 16 4 17 3 18 2 19 1 20
REMARK H PARENT
REMARK Flexibility Score: inf
ROOT
ATOM      1  C   UNL     1      37.845   5.057  -7.365  1.00  0.00     0.000 C 
ENDROOT
BRANCH   1   2
ATOM      2  C   UNL     1      37.696   6.298  -8.255  1.00  0.00     0.000 C 
BRANCH   2   3
ATOM      3  C   UNL     1      36.260   6.499  -8.768  1.00  0.00     0.000 C 
BRANCH   3   4
ATOM      4  C   UNL     1      35.307   5.339  -8.406  1.00  0.00     0.000 C 
BRANCH   4   5
ATOM      5  C   UNL     1      33.858   5.819  -8.208  1.00  0.00     0.000 C 
BRANCH   5   6
ATOM      6  C   UNL     1      33.262   5.367  -6.866  1.00  0.00     0.000 C 
BRANCH   6   7
ATOM      7  C   UNL     1      34.302   4.703  -5.948  1.00  0.00     0.006 C 
BRANCH   7   8
ATOM      8  C   UNL     1      34.457   5.448  -4.616  1.00  0.00     0.053 C 
BRANCH   8   9
ATOM      9  C   UNL     1      34.966   6.843  -4.815  1.00  0.00     0.041 C 
ATOM     10  O   UNL     1      36.164   7.039  -5.149  1.00  0.00    -0.550 OA
ATOM     11  O   UNL     1      34.109   7.924  -4.660  1.00  0.00    -0.550 OA
ENDBRANCH   8   9
ENDBRANCH   7   8
ENDBRANCH   6   7
ENDBRANCH   5   6
ENDBRANCH   4   5
ENDBRANCH   3   4
ENDBRANCH   2   3
ENDBRANCH   1   2
BRANCH   1  12
ATOM     12  C   UNL     1      39.077   4.235  -7.764  1.00  0.00     0.000 C 
BRANCH  12  13
ATOM     13  C   UNL     1      39.729   3.590  -6.532  1.00  0.00    -0.000 C 
BRANCH  13  14
ATOM     14  C   UNL     1      40.533   2.327  -6.880  1.00  0.00    -0.000 C 
BRANCH  14  15
ATOM     15  C   UNL     1      39.760   1.370  -7.805  1.00  0.00    -0.000 C 
BRANCH  15  16
ATOM     16  C   UNL     1      38.596   0.668  -7.087  1.00  0.00    -0.000 C 
BRANCH  16  17
ATOM     17  C   UNL     1      37.421   0.352  -8.026  1.00  0.00    -0.000 C 
BRANCH  17  18
ATOM     18  C   UNL     1      36.325   1.422  -7.913  1.00  0.00    -0.000 C 
BRANCH  18  19
ATOM     19  C   UNL     1      35.806   1.883  -9.284  1.00  0.00    -0.003 C 
ATOM     20  C   UNL     1      36.910   2.446 -10.178  1.00  0.00     0.004 C 
ENDBRANCH  18  19
ENDBRANCH  17  18
ENDBRANCH  16  17
ENDBRANCH  15  16
ENDBRANCH  14  15
ENDBRANCH  13  14
ENDBRANCH  12  13
ENDBRANCH   1  12
TORSDOF 16
ENDMDL
MODEL 5
REMARK VINA RESULT:    -2.916      3.813      7.749
REMARK INTER + INTRA:          -8.481
REMARK INTER:                  -6.917
REMARK INTRA:                  -1.564
REMARK UNBOUND:                -2.837
REMARK SMILES CCCCCCCCCCCCCCCCCC(=O)[O-]
REMARK SMILES IDX 10 1 11 2 12 3 13 4 14 5 15 6 16 7 17 8 18 9 19 10 20 11
REMARK SMILES IDX 9 12 8 13 7 14 6 15 5 16 4 17 3 18 2 19 1 20
REMARK H PARENT
REMARK Flexibility Score: inf
ROOT
ATOM      1  C   UNL     1      35.980   2.787  -9.015  1.00  0.00     0.000 C 
ENDROOT
BRANCH   1   2
ATOM      2  C   UNL     1      35.836   3.314  -7.582  1.00  0.00     0.000 C 
BRANCH   2   3
ATOM      3  C   UNL     1      35.340   4.769  -7.525  1.00  0.00     0.000 C 
BRANCH   3   4
ATOM      4  C   UNL     1      34.192   4.991  -6.517  1.00  0.00     0.000 C 
BRANCH   4   5
ATOM      5  C   UNL     1      34.304   6.349  -5.801  1.00  0.00     0.000 C 
BRANCH   5   6
ATOM      6  C   UNL     1      35.752   6.709  -5.436  1.00  0.00     0.000 C 
BRANCH   6   7
ATOM      7  C   UNL     1      35.856   8.032  -4.657  1.00  0.00     0.006 C 
BRANCH   7   8
ATOM      8  C   UNL     1      34.580   8.336  -3.862  1.00  0.00     0.053 C 
BRANCH   8   9
ATOM      9  C   UNL     1      34.825   8.304  -2.384  1.00  0.00     0.041 C 
ATOM     10  O   UNL     1      35.932   8.679  -1.917  1.00  0.00    -0.550 OA
ATOM     11  O   UNL     1      33.819   7.887  -1.522  1.00  0.00    -0.550 OA
ENDBRANCH   8   9
ENDBRANCH   7   8
ENDBRANCH   6   7
ENDBRANCH   5   6
ENDBRANCH   4   5
ENDBRANCH   3   4
ENDBRANCH   2   3
ENDBRANCH   1   2
BRANCH   1  12
ATOM     12  C   UNL     1      35.991   1.253  -9.041  1.00  0.00     0.000 C 
BRANCH  12  13
ATOM     13  C   UNL     1      36.284   0.683  -7.645  1.00  0.00    -0.000 C 
BRANCH  13  14
ATOM     14  C   UNL     1      36.937  -0.708  -7.697  1.00  0.00    -0.000 C 
BRANCH  14  15
ATOM     15  C   UNL     1      38.474  -0.638  -7.704  1.00  0.00    -0.000 C 
BRANCH  15  16
ATOM     16  C   UNL     1      39.016   0.532  -6.867  1.00  0.00    -0.000 C 
BRANCH  16  17
ATOM     17  C   UNL     1      39.526   1.697  -7.730  1.00  0.00    -0.000 C 
BRANCH  17  18
ATOM     18  C   UNL     1      40.059   2.837  -6.850  1.00  0.00    -0.000 C 
BRANCH  18  19
ATOM     19  C   UNL     1      39.216   4.117  -6.967  1.00  0.00    -0.003 C 
ATOM     20  C   UNL     1      39.543   4.930  -8.219  1.00  0.00     0.004 C 
ENDBRANCH  18  19
ENDBRANCH  17  18
ENDBRANCH  16  17
ENDBRANCH  15  16
ENDBRANCH  14  15
ENDBRANCH  13  14
ENDBRANCH  12  13
ENDBRANCH   1  12
TORSDOF 16
ENDMDL
MODEL 6
REMARK VINA RESULT:    -2.912      3.098      6.698
REMARK INTER + INTRA:          -8.472
REMARK INTER:                  -6.345
REMARK INTRA:                  -2.127
REMARK UNBOUND:                -2.837
REMARK SMILES CCCCCCCCCCCCCCCCCC(=O)[O-]
REMARK SMILES IDX 10 1 11 2 12 3 13 4 14 5 15 6 16 7 17 8 18 9 19 10 20 11
REMARK SMILES IDX 9 12 8 13 7 14 6 15 5 16 4 17 3 18 2 19 1 20
REMARK H PARENT
REMARK Flexibility Score: inf
ROOT
ATOM      1  C   UNL     1      31.924   7.327  -7.635  1.00  0.00     0.000 C 
ENDROOT
BRANCH   1   2
ATOM      2  C   UNL     1      30.653   6.572  -7.223  1.00  0.00     0.000 C 
BRANCH   2   3
ATOM      3  C   UNL     1      29.586   7.490  -6.603  1.00  0.00     0.000 C 
BRANCH   3   4
ATOM      4  C   UNL     1      28.870   8.389  -7.634  1.00  0.00     0.000 C 
BRANCH   4   5
ATOM      5  C   UNL     1      28.528   7.629  -8.927  1.00  0.00     0.000 C 
BRANCH   5   6
ATOM      6  C   UNL     1      28.517   8.538 -10.165  1.00  0.00     0.000 C 
BRANCH   6   7
ATOM      7  C   UNL     1      29.385   7.991 -11.311  1.00  0.00     0.006 C 
BRANCH   7   8
ATOM      8  C   UNL     1      29.911   6.581 -11.015  1.00  0.00     0.053 C 
BRANCH   8   9
ATOM      9  C   UNL     1      31.406   6.515 -11.104  1.00  0.00     0.041 C 
ATOM     10  O   UNL     1      31.994   5.402 -11.079  1.00  0.00    -0.550 OA
ATOM     11  O   UNL     1      32.146   7.682 -11.244  1.00  0.00    -0.550 OA
ENDBRANCH   8   9
ENDBRANCH   7   8
ENDBRANCH   6   7
ENDBRANCH   5   6
ENDBRANCH   4   5
ENDBRANCH   3   4
ENDBRANCH   2   3
ENDBRANCH   1   2
BRANCH   1  12
ATOM     12  C   UNL     1      33.113   6.368  -7.780  1.00  0.00     0.000 C 
BRANCH  12  13
ATOM     13  C   UNL     1      33.069   5.273  -6.704  1.00  0.00    -0.000 C 
BRANCH  13  14
ATOM     14  C   UNL     1      34.405   4.526  -6.563  1.00  0.00    -0.000 C 
BRANCH  14  15
ATOM     15  C   UNL     1      35.240   4.561  -7.855  1.00  0.00    -0.000 C 
BRANCH  15  16
ATOM     16  C   UNL     1      36.515   5.409  -7.711  1.00  0.00    -0.000 C 
BRANCH  16  17
ATOM     17  C   UNL     1      36.719   5.940  -6.284  1.00  0.00    -0.000 C 
BRANCH  17  18
ATOM     18  C   UNL     1      36.344   7.427  -6.194  1.00  0.00    -0.000 C 
BRANCH  18  19
ATOM     19  C   UNL     1      35.815   7.820  -4.805  1.00  0.00    -0.003 C 
ATOM     20  C   UNL     1      34.348   8.246  -4.829  1.00  0.00     0.004 C 
ENDBRANCH  18  19
ENDBRANCH  17  18
ENDBRANCH  16  17
ENDBRANCH  15  16
ENDBRANCH  14  15
ENDBRANCH  13  14
ENDBRANCH  12  13
ENDBRANCH   1  12
TORSDOF 16
ENDMDL
MODEL 7
REMARK VINA RESULT:    -2.887      2.520      4.651
REMARK INTER + INTRA:          -8.425
REMARK INTER:                  -5.938
REMARK INTRA:                  -2.487
REMARK UNBOUND:                -2.837
REMARK SMILES CCCCCCCCCCCCCCCCCC(=O)[O-]
REMARK SMILES IDX 10 1 11 2 12 3 13 4 14 5 15 6 16 7 17 8 18 9 19 10 20 11
REMARK SMILES IDX 9 12 8 13 7 14 6 15 5 16 4 17 3 18 2 19 1 20
REMARK H PARENT
REMARK Flexibility Score: inf
ROOT
ATOM      1  C   UNL     1      36.346   4.115  -8.943  1.00  0.00     0.000 C 
ENDROOT
BRANCH   1   2
ATOM      2  C   UNL     1      36.143   2.974  -7.938  1.00  0.00     0.000 C 
BRANCH   2   3
ATOM      3  C   UNL     1      37.224   1.884  -8.041  1.00  0.00     0.000 C 
BRANCH   3   4
ATOM      4  C   UNL     1      38.247   2.134  -9.170  1.00  0.00     0.000 C 
BRANCH   4   5
ATOM      5  C   UNL     1      39.684   2.253  -8.634  1.00  0.00     0.000 C 
BRANCH   5   6
ATOM      6  C   UNL     1      39.821   3.316  -7.533  1.00  0.00     0.000 C 
BRANCH   6   7
ATOM      7  C   UNL     1      40.422   2.751  -6.234  1.00  0.00     0.006 C 
BRANCH   7   8
ATOM      8  C   UNL     1      40.433   1.217  -6.221  1.00  0.00     0.053 C 
BRANCH   8   9
ATOM      9  C   UNL     1      41.644   0.676  -5.523  1.00  0.00     0.041 C 
ATOM     10  O   UNL     1      41.515  -0.109  -4.547  1.00  0.00    -0.550 OA
ATOM     11  O   UNL     1      42.914   1.016  -5.971  1.00  0.00    -0.550 OA
ENDBRANCH   8   9
ENDBRANCH   7   8
ENDBRANCH   6   7
ENDBRANCH   5   6
ENDBRANCH   4   5
ENDBRANCH   3   4
ENDBRANCH   2   3
ENDBRANCH   1   2
BRANCH   1  12
ATOM     12  C   UNL     1      36.932   5.356  -8.259  1.00  0.00     0.000 C 
BRANCH  12  13
ATOM     13  C   UNL     1      36.813   5.248  -6.732  1.00  0.00    -0.000 C 
BRANCH  13  14
ATOM     14  C   UNL     1      36.272   6.534  -6.086  1.00  0.00    -0.000 C 
BRANCH  14  15
ATOM     15  C   UNL     1      34.981   6.293  -5.285  1.00  0.00    -0.000 C 
BRANCH  15  16
ATOM     16  C   UNL     1      34.301   4.962  -5.644  1.00  0.00    -0.000 C 
BRANCH  16  17
ATOM     17  C   UNL     1      33.040   5.150  -6.502  1.00  0.00    -0.000 C 
BRANCH  17  18
ATOM     18  C   UNL     1      33.081   6.490  -7.251  1.00  0.00    -0.000 C 
BRANCH  18  19
ATOM     19  C   UNL     1      33.347   6.318  -8.755  1.00  0.00    -0.003 C 
ATOM     20  C   UNL     1      34.123   7.488  -9.357  1.00  0.00     0.004 C 
ENDBRANCH  18  19
ENDBRANCH  17  18
ENDBRANCH  16  17
ENDBRANCH  15  16
ENDBRANCH  14  15
ENDBRANCH  13  14
ENDBRANCH  12  13
ENDBRANCH   1  12
TORSDOF 16
ENDMDL
MODEL 8
REMARK VINA RESULT:    -2.886      1.947      3.593
REMARK INTER + INTRA:          -8.423
REMARK INTER:                  -6.086
REMARK INTRA:                  -2.338
REMARK UNBOUND:                -2.837
REMARK SMILES CCCCCCCCCCCCCCCCCC(=O)[O-]
REMARK SMILES IDX 10 1 11 2 12 3 13 4 14 5 15 6 16 7 17 8 18 9 19 10 20 11
REMARK SMILES IDX 9 12 8 13 7 14 6 15 5 16 4 17 3 18 2 19 1 20
REMARK H PARENT
REMARK Flexibility Score: inf
ROOT
ATOM      1  C   UNL     1      33.056   7.177  -7.042  1.00  0.00     0.000 C 
ENDROOT
BRANCH   1   2
ATOM      2  C   UNL     1      32.926   5.671  -6.778  1.00  0.00     0.000 C 
BRANCH   2   3
ATOM      3  C   UNL     1      34.012   5.133  -5.831  1.00  0.00     0.000 C 
BRANCH   3   4
ATOM      4  C   UNL     1      34.857   6.242  -5.168  1.00  0.00     0.000 C 
BRANCH   4   5
ATOM      5  C   UNL     1      36.183   6.483  -5.911  1.00  0.00     0.000 C 
BRANCH   5   6
ATOM      6  C   UNL     1      36.727   5.212  -6.582  1.00  0.00     0.000 C 
BRANCH   6   7
ATOM      7  C   UNL     1      36.765   5.321  -8.115  1.00  0.00     0.006 C 
BRANCH   7   8
ATOM      8  C   UNL     1      35.924   4.233  -8.794  1.00  0.00     0.053 C 
BRANCH   8   9
ATOM      9  C   UNL     1      36.395   2.858  -8.430  1.00  0.00     0.041 C 
ATOM     10  O   UNL     1      35.587   2.014  -7.961  1.00  0.00    -0.550 OA
ATOM     11  O   UNL     1      37.721   2.500  -8.637  1.00  0.00    -0.550 OA
ENDBRANCH   8   9
ENDBRANCH   7   8
ENDBRANCH   6   7
ENDBRANCH   5   6
ENDBRANCH   4   5
ENDBRANCH   3   4
ENDBRANCH   2   3
ENDBRANCH   1   2
BRANCH   1  12
ATOM     12  C   UNL     1      31.695   7.876  -6.930  1.00  0.00     0.000 C 
BRANCH  12  13
ATOM     13  C   UNL     1      30.547   6.882  -7.157  1.00  0.00    -0.000 C 
BRANCH  13  14
ATOM     14  C   UNL     1      29.215   7.578  -7.481  1.00  0.00    -0.000 C 
BRANCH  14  15
ATOM     15  C   UNL     1      28.780   7.370  -8.943  1.00  0.00    -0.000 C 
BRANCH  15  16
ATOM     16  C   UNL     1      29.467   8.349  -9.908  1.00  0.00    -0.000 C 
BRANCH  16  17
ATOM     17  C   UNL     1      30.428   7.650 -10.882  1.00  0.00    -0.000 C 
BRANCH  17  18
ATOM     18  C   UNL     1      31.854   8.201 -10.734  1.00  0.00    -0.000 C 
BRANCH  18  19
ATOM     19  C   UNL     1      32.902   7.089 -10.565  1.00  0.00    -0.003 C 
ATOM     20  C   UNL     1      32.278   5.699 -10.451  1.00  0.00     0.004 C 
ENDBRANCH  18  19
ENDBRANCH  17  18
ENDBRANCH  16  17
ENDBRANCH  15  16
ENDBRANCH  14  15
ENDBRANCH  13  14
ENDBRANCH  12  13
ENDBRANCH   1  12
TORSDOF 16
ENDMDL
MODEL 9
REMARK VINA RESULT:    -2.883      3.907      7.596
REMARK INTER + INTRA:          -8.416
REMARK INTER:                  -5.701
REMARK INTRA:                  -2.715
REMARK UNBOUND:                -2.837
REMARK SMILES CCCCCCCCCCCCCCCCCC(=O)[O-]
REMARK SMILES IDX 10 1 11 2 12 3 13 4 14 5 15 6 16 7 17 8 18 9 19 10 20 11
REMARK SMILES IDX 9 12 8 13 7 14 6 15 5 16 4 17 3 18 2 19 1 20
REMARK H PARENT
REMARK Flexibility Score: inf
ROOT
ATOM      1  C   UNL     1      40.089   1.242  -7.815  1.00  0.00     0.000 C 
ENDROOT
BRANCH   1   2
ATOM      2  C   UNL     1      40.169   1.931  -6.446  1.00  0.00     0.000 C 
BRANCH   2   3
ATOM      3  C   UNL     1      39.968   3.453  -6.529  1.00  0.00     0.000 C 
BRANCH   3   4
ATOM      4  C   UNL     1      39.673   3.961  -7.957  1.00  0.00     0.000 C 
BRANCH   4   5
ATOM      5  C   UNL     1      38.623   5.086  -7.967  1.00  0.00     0.000 C 
BRANCH   5   6
ATOM      6  C   UNL     1      37.465   4.826  -6.992  1.00  0.00     0.000 C 
BRANCH   6   7
ATOM      7  C   UNL     1      36.224   5.678  -7.305  1.00  0.00     0.006 C 
BRANCH   7   8
ATOM      8  C   UNL     1      35.574   6.244  -6.036  1.00  0.00     0.053 C 
BRANCH   8   9
ATOM      9  C   UNL     1      34.498   5.341  -5.513  1.00  0.00     0.041 C 
ATOM     10  O   UNL     1      33.531   5.014  -6.250  1.00  0.00    -0.550 OA
ATOM     11  O   UNL     1      34.580   4.839  -4.221  1.00  0.00    -0.550 OA
ENDBRANCH   8   9
ENDBRANCH   7   8
ENDBRANCH   6   7
ENDBRANCH   5   6
ENDBRANCH   4   5
ENDBRANCH   3   4
ENDBRANCH   2   3
ENDBRANCH   1   2
BRANCH   1  12
ATOM     12  C   UNL     1      40.316  -0.270  -7.687  1.00  0.00     0.000 C 
BRANCH  12  13
ATOM     13  C   UNL     1      39.033  -0.979  -7.228  1.00  0.00    -0.000 C 
BRANCH  13  14
ATOM     14  C   UNL     1      38.203  -1.523  -8.402  1.00  0.00    -0.000 C 
BRANCH  14  15
ATOM     15  C   UNL     1      36.748  -1.022  -8.378  1.00  0.00    -0.000 C 
BRANCH  15  16
ATOM     16  C   UNL     1      36.488  -0.015  -7.246  1.00  0.00    -0.000 C 
BRANCH  16  17
ATOM     17  C   UNL     1      36.326   1.426  -7.755  1.00  0.00    -0.000 C 
BRANCH  17  18
ATOM     18  C   UNL     1      36.010   1.443  -9.258  1.00  0.00    -0.000 C 
BRANCH  18  19
ATOM     19  C   UNL     1      36.789   2.532 -10.013  1.00  0.00    -0.003 C 
ATOM     20  C   UNL     1      38.036   1.991 -10.711  1.00  0.00     0.004 C 
ENDBRANCH  18  19
ENDBRANCH  17  18
ENDBRANCH  16  17
ENDBRANCH  15  16
ENDBRANCH  14  15
ENDBRANCH  13  14
ENDBRANCH  12  13
ENDBRANCH   1  12
TORSDOF 16
ENDMDL
