MODEL 1
REMARK VINA RESULT:    -5.328      0.000      0.000
REMARK INTER + INTRA:         -10.882
REMARK INTER:                  -9.688
REMARK INTRA:                  -1.194
REMARK UNBOUND:                -1.194
REMARK SMILES CCCCCCCCCCCCCCCC(=O)[O-]
REMARK SMILES IDX 9 1 10 2 11 3 12 4 13 5 14 6 15 7 16 8 17 9 18 10 8 11 7 12
REMARK SMILES IDX 6 13 5 14 4 15 3 16 2 17 1 18
REMARK H PARENT
REMARK Flexibility Score: inf
ROOT
ATOM      1  C   UNL     1       7.735  -0.378  35.496  1.00  0.00     0.000 C 
ENDROOT
BRANCH   1   2
ATOM      2  C   UNL     1       8.016   0.994  36.124  1.00  0.00     0.000 C 
BRANCH   2   3
ATOM      3  C   UNL     1       9.351   1.605  35.660  1.00  0.00     0.000 C 
BRANCH   3   4
ATOM      4  C   UNL     1       9.428   1.937  34.158  1.00  0.00     0.000 C 
BRANCH   4   5
ATOM      5  C   UNL     1      10.498   1.117  33.418  1.00  0.00     0.000 C 
BRANCH   5   6
ATOM      6  C   UNL     1      11.189   0.087  34.335  1.00  0.00     0.006 C 
BRANCH   6   7
ATOM      7  C   UNL     1      12.719   0.235  34.383  1.00  0.00     0.053 C 
BRANCH   7   8
ATOM      8  C   UNL     1      13.148   1.658  34.560  1.00  0.00     0.041 C 
ATOM      9  O   UNL     1      12.948   2.249  35.654  1.00  0.00    -0.550 OA
ATOM     10  O   UNL     1      13.748   2.340  33.508  1.00  0.00    -0.550 OA
ENDBRANCH   7   8
ENDBRANCH   6   7
ENDBRANCH   5   6
ENDBRANCH   4   5
ENDBRANCH   3   4
ENDBRANCH   2   3
ENDBRANCH   1   2
BRANCH   1  11
ATOM     11  C   UNL     1       6.412  -0.958  36.010  1.00  0.00     0.000 C 
BRANCH  11  12
ATOM     12  C   UNL     1       5.480   0.157  36.510  1.00  0.00    -0.000 C 
BRANCH  12  13
ATOM     13  C   UNL     1       4.078  -0.357  36.877  1.00  0.00    -0.000 C 
BRANCH  13  14
ATOM     14  C   UNL     1       3.546   0.256  38.184  1.00  0.00    -0.000 C 
BRANCH  14  15
ATOM     15  C   UNL     1       2.804  -0.764  39.066  1.00  0.00    -0.000 C 
BRANCH  15  16
ATOM     16  C   UNL     1       2.488  -2.110  38.386  1.00  0.00    -0.000 C 
BRANCH  16  17
ATOM     17  C   UNL     1       3.282  -3.283  38.980  1.00  0.00    -0.003 C 
ATOM     18  C   UNL     1       4.320  -3.802  37.989  1.00  0.00     0.004 C 
ENDBRANCH  16  17
ENDBRANCH  15  16
ENDBRANCH  14  15
ENDBRANCH  13  14
ENDBRANCH  12  13
ENDBRANCH  11  12
ENDBRANCH   1  11
TORSDOF 14
ENDMDL
MODEL 2
REMARK VINA RESULT:    -5.214      4.494      8.970
REMARK INTER + INTRA:         -10.675
REMARK INTER:                  -9.739
REMARK INTRA:                  -0.936
REMARK UNBOUND:                -1.194
REMARK SMILES CCCCCCCCCCCCCCCC(=O)[O-]
REMARK SMILES IDX 9 1 10 2 11 3 12 4 13 5 14 6 15 7 16 8 17 9 18 10 8 11 7 12
REMARK SMILES IDX 6 13 5 14 4 15 3 16 2 17 1 18
REMARK H PARENT
REMARK Flexibility Score: inf
ROOT
ATOM      1  C   UNL     1       7.410  -0.535  35.581  1.00  0.00     0.000 C 
ENDROOT
BRANCH   1   2
ATOM      2  C   UNL     1       6.682  -1.812  36.024  1.00  0.00     0.000 C 
BRANCH   2   3
ATOM      3  C   UNL     1       5.219  -1.558  36.433  1.00  0.00     0.000 C 
BRANCH   3   4
ATOM      4  C   UNL     1       4.878  -0.091  36.753  1.00  0.00     0.000 C 
BRANCH   4   5
ATOM      5  C   UNL     1       3.694   0.050  37.725  1.00  0.00     0.000 C 
BRANCH   5   6
ATOM      6  C   UNL     1       3.004  -1.300  38.011  1.00  0.00     0.006 C 
BRANCH   6   7
ATOM      7  C   UNL     1       1.994  -1.240  39.168  1.00  0.00     0.053 C 
BRANCH   7   8
ATOM      8  C   UNL     1       2.615  -1.585  40.485  1.00  0.00     0.041 C 
ATOM      9  O   UNL     1       2.628  -0.741  41.421  1.00  0.00    -0.550 OA
ATOM     10  O   UNL     1       3.202  -2.830  40.673  1.00  0.00    -0.550 OA
ENDBRANCH   7   8
ENDBRANCH   6   7
ENDBRANCH   5   6
ENDBRANCH   4   5
ENDBRANCH   3   4
ENDBRANCH   2   3
ENDBRANCH   1   2
BRANCH   1  11
ATOM     11  C   UNL     1       8.079  -0.728  34.215  1.00  0.00     0.000 C 
BRANCH  11  12
ATOM     12  C   UNL     1       9.435  -0.007  34.160  1.00  0.00    -0.000 C 
BRANCH  12  13
ATOM     13  C   UNL     1       9.374   1.422  34.725  1.00  0.00    -0.000 C 
BRANCH  13  14
ATOM     14  C   UNL     1       9.906   2.473  33.734  1.00  0.00    -0.000 C 
BRANCH  14  15
ATOM     15  C   UNL     1      11.313   2.980  34.097  1.00  0.00    -0.000 C 
BRANCH  15  16
ATOM     16  C   UNL     1      11.830   2.543  35.481  1.00  0.00    -0.000 C 
BRANCH  16  17
ATOM     17  C   UNL     1      13.163   1.784  35.411  1.00  0.00    -0.003 C 
ATOM     18  C   UNL     1      12.986   0.422  34.746  1.00  0.00     0.004 C 
ENDBRANCH  16  17
ENDBRANCH  15  16
ENDBRANCH  14  15
ENDBRANCH  13  14
ENDBRANCH  12  13
ENDBRANCH  11  12
ENDBRANCH   1  11
TORSDOF 14
ENDMDL
MODEL 3
REMARK VINA RESULT:    -5.198      1.439      3.105
REMARK INTER + INTRA:         -10.646
REMARK INTER:                  -9.372
REMARK INTRA:                  -1.273
REMARK UNBOUND:                -1.194
REMARK SMILES CCCCCCCCCCCCCCCC(=O)[O-]
REMARK SMILES IDX 9 1 10 2 11 3 12 4 13 5 14 6 15 7 16 8 17 9 18 10 8 11 7 12
REMARK SMILES IDX 6 13 5 14 4 15 3 16 2 17 1 18
REMARK H PARENT
REMARK Flexibility Score: inf
ROOT
ATOM      1  C   UNL     1       3.978   0.366  36.744  1.00  0.00     0.000 C 
ENDROOT
BRANCH   1   2
ATOM      2  C   UNL     1       5.292  -0.425  36.680  1.00  0.00     0.000 C 
BRANCH   2   3
ATOM      3  C   UNL     1       6.478   0.420  36.181  1.00  0.00     0.000 C 
BRANCH   3   4
ATOM      4  C   UNL     1       7.564  -0.367  35.423  1.00  0.00     0.000 C 
BRANCH   4   5
ATOM      5  C   UNL     1       8.518   0.543  34.631  1.00  0.00     0.000 C 
BRANCH   5   6
ATOM      6  C   UNL     1       9.185   1.614  35.519  1.00  0.00     0.006 C 
BRANCH   6   7
ATOM      7  C   UNL     1      10.578   1.209  36.029  1.00  0.00     0.053 C 
BRANCH   7   8
ATOM      8  C   UNL     1      11.648   2.150  35.571  1.00  0.00     0.041 C 
ATOM      9  O   UNL     1      11.381   3.053  34.734  1.00  0.00    -0.550 OA
ATOM     10  O   UNL     1      12.945   2.015  36.050  1.00  0.00    -0.550 OA
ENDBRANCH   7   8
ENDBRANCH   6   7
ENDBRANCH   5   6
ENDBRANCH   4   5
ENDBRANCH   3   4
ENDBRANCH   2   3
ENDBRANCH   1   2
BRANCH   1  11
ATOM     11  C   UNL     1       3.382   0.332  38.156  1.00  0.00     0.000 C 
BRANCH  11  12
ATOM     12  C   UNL     1       2.505  -0.915  38.352  1.00  0.00    -0.000 C 
BRANCH  12  13
ATOM     13  C   UNL     1       2.730  -1.595  39.712  1.00  0.00    -0.000 C 
BRANCH  13  14
ATOM     14  C   UNL     1       3.164  -3.065  39.575  1.00  0.00    -0.000 C 
BRANCH  14  15
ATOM     15  C   UNL     1       3.256  -3.528  38.109  1.00  0.00    -0.000 C 
BRANCH  15  16
ATOM     16  C   UNL     1       4.683  -3.810  37.600  1.00  0.00    -0.000 C 
BRANCH  16  17
ATOM     17  C   UNL     1       4.756  -3.963  36.075  1.00  0.00    -0.003 C 
ATOM     18  C   UNL     1       6.198  -3.887  35.581  1.00  0.00     0.004 C 
ENDBRANCH  16  17
ENDBRANCH  15  16
ENDBRANCH  14  15
ENDBRANCH  13  14
ENDBRANCH  12  13
ENDBRANCH  11  12
ENDBRANCH   1  11
TORSDOF 14
ENDMDL
MODEL 4
REMARK VINA RESULT:    -5.175      1.221      2.286
REMARK INTER + INTRA:         -10.605
REMARK INTER:                  -9.546
REMARK INTRA:                  -1.059
REMARK UNBOUND:                -1.194
REMARK SMILES CCCCCCCCCCCCCCCC(=O)[O-]
REMARK SMILES IDX 9 1 10 2 11 3 12 4 13 5 14 6 15 7 16 8 17 9 18 10 8 11 7 12
REMARK SMILES IDX 6 13 5 14 4 15 3 16 2 17 1 18
REMARK H PARENT
REMARK Flexibility Score: inf
ROOT
ATOM      1  C   UNL     1       5.716   0.366  36.382  1.00  0.00     0.000 C 
ENDROOT
BRANCH   1   2
ATOM      2  C   UNL     1       7.013  -0.119  35.719  1.00  0.00     0.000 C 
BRANCH   2   3
ATOM      3  C   UNL     1       8.169   0.889  35.849  1.00  0.00     0.000 C 
BRANCH   3   4
ATOM      4  C   UNL     1       8.850   1.274  34.522  1.00  0.00     0.000 C 
BRANCH   4   5
ATOM      5  C   UNL     1      10.171   2.034  34.726  1.00  0.00     0.000 C 
BRANCH   5   6
ATOM      6  C   UNL     1      10.923   1.578  35.993  1.00  0.00     0.006 C 
BRANCH   6   7
ATOM      7  C   UNL     1      12.379   1.160  35.726  1.00  0.00     0.053 C 
BRANCH   7   8
ATOM      8  C   UNL     1      13.152   2.218  35.004  1.00  0.00     0.041 C 
ATOM      9  O   UNL     1      13.535   2.026  33.819  1.00  0.00    -0.550 OA
ATOM     10  O   UNL     1      13.469   3.410  35.645  1.00  0.00    -0.550 OA
ENDBRANCH   7   8
ENDBRANCH   6   7
ENDBRANCH   5   6
ENDBRANCH   4   5
ENDBRANCH   3   4
ENDBRANCH   2   3
ENDBRANCH   1   2
BRANCH   1  11
ATOM     11  C   UNL     1       4.810  -0.814  36.749  1.00  0.00     0.000 C 
BRANCH  11  12
ATOM     12  C   UNL     1       5.477  -2.152  36.391  1.00  0.00    -0.000 C 
BRANCH  12  13
ATOM     13  C   UNL     1       4.929  -3.331  37.212  1.00  0.00    -0.000 C 
BRANCH  13  14
ATOM     14  C   UNL     1       3.494  -3.715  36.811  1.00  0.00    -0.000 C 
BRANCH  14  15
ATOM     15  C   UNL     1       2.471  -3.462  37.933  1.00  0.00    -0.000 C 
BRANCH  15  16
ATOM     16  C   UNL     1       2.960  -3.802  39.354  1.00  0.00    -0.000 C 
BRANCH  16  17
ATOM     17  C   UNL     1       2.942  -2.592  40.299  1.00  0.00    -0.003 C 
ATOM     18  C   UNL     1       2.483  -1.331  39.571  1.00  0.00     0.004 C 
ENDBRANCH  16  17
ENDBRANCH  15  16
ENDBRANCH  14  15
ENDBRANCH  13  14
ENDBRANCH  12  13
ENDBRANCH  11  12
ENDBRANCH   1  11
TORSDOF 14
ENDMDL
MODEL 5
REMARK VINA RESULT:    -5.112      3.929      8.670
REMARK INTER + INTRA:         -10.490
REMARK INTER:                  -9.484
REMARK INTRA:                  -1.006
REMARK UNBOUND:                -1.194
REMARK SMILES CCCCCCCCCCCCCCCC(=O)[O-]
REMARK SMILES IDX 9 1 10 2 11 3 12 4 13 5 14 6 15 7 16 8 17 9 18 10 8 11 7 12
REMARK SMILES IDX 6 13 5 14 4 15 3 16 2 17 1 18
REMARK H PARENT
REMARK Flexibility Score: inf
ROOT
ATOM      1  C   UNL     1       6.341  -1.123  36.005  1.00  0.00     0.000 C 
ENDROOT
BRANCH   1   2
ATOM      2  C   UNL     1       6.646  -2.586  36.357  1.00  0.00     0.000 C 
BRANCH   2   3
ATOM      3  C   UNL     1       5.674  -3.579  35.694  1.00  0.00     0.000 C 
BRANCH   3   4
ATOM      4  C   UNL     1       4.267  -3.629  36.319  1.00  0.00     0.000 C 
BRANCH   4   5
ATOM      5  C   UNL     1       4.295  -3.590  37.857  1.00  0.00     0.000 C 
BRANCH   5   6
ATOM      6  C   UNL     1       2.945  -3.149  38.459  1.00  0.00     0.006 C 
BRANCH   6   7
ATOM      7  C   UNL     1       2.986  -1.754  39.105  1.00  0.00     0.053 C 
BRANCH   7   8
ATOM      8  C   UNL     1       2.332  -0.713  38.252  1.00  0.00     0.041 C 
ATOM      9  O   UNL     1       1.112  -0.811  37.955  1.00  0.00    -0.550 OA
ATOM     10  O   UNL     1       3.075   0.355  37.764  1.00  0.00    -0.550 OA
ENDBRANCH   7   8
ENDBRANCH   6   7
ENDBRANCH   5   6
ENDBRANCH   4   5
ENDBRANCH   3   4
ENDBRANCH   2   3
ENDBRANCH   1   2
BRANCH   1  11
ATOM     11  C   UNL     1       7.574  -0.429  35.416  1.00  0.00     0.000 C 
BRANCH  11  12
ATOM     12  C   UNL     1       7.931   0.831  36.219  1.00  0.00    -0.000 C 
BRANCH  12  13
ATOM     13  C   UNL     1       9.087   1.629  35.595  1.00  0.00    -0.000 C 
BRANCH  13  14
ATOM     14  C   UNL     1       9.118   1.523  34.060  1.00  0.00    -0.000 C 
BRANCH  14  15
ATOM     15  C   UNL     1      10.534   1.286  33.504  1.00  0.00    -0.000 C 
BRANCH  15  16
ATOM     16  C   UNL     1      11.289   0.093  34.122  1.00  0.00    -0.000 C 
BRANCH  16  17
ATOM     17  C   UNL     1      12.745   0.425  34.479  1.00  0.00    -0.003 C 
ATOM     18  C   UNL     1      12.836   1.114  35.838  1.00  0.00     0.004 C 
ENDBRANCH  16  17
ENDBRANCH  15  16
ENDBRANCH  14  15
ENDBRANCH  13  14
ENDBRANCH  12  13
ENDBRANCH  11  12
ENDBRANCH   1  11
TORSDOF 14
ENDMDL
MODEL 6
REMARK VINA RESULT:    -5.099      2.846      4.285
REMARK INTER + INTRA:         -10.467
REMARK INTER:                  -9.314
REMARK INTRA:                  -1.153
REMARK UNBOUND:                -1.194
REMARK SMILES CCCCCCCCCCCCCCCC(=O)[O-]
REMARK SMILES IDX 9 1 10 2 11 3 12 4 13 5 14 6 15 7 16 8 17 9 18 10 8 11 7 12
REMARK SMILES IDX 6 13 5 14 4 15 3 16 2 17 1 18
REMARK H PARENT
REMARK Flexibility Score: inf
ROOT
ATOM      1  C   UNL     1      11.001  -0.005  34.110  1.00  0.00     0.000 C 
ENDROOT
BRANCH   1   2
ATOM      2  C   UNL     1      12.450   0.353  34.470  1.00  0.00     0.000 C 
BRANCH   2   3
ATOM      3  C   UNL     1      12.561   1.172  35.768  1.00  0.00     0.000 C 
BRANCH   3   4
ATOM      4  C   UNL     1      13.185   2.571  35.603  1.00  0.00     0.000 C 
BRANCH   4   5
ATOM      5  C   UNL     1      12.169   3.628  35.138  1.00  0.00     0.000 C 
BRANCH   5   6
ATOM      6  C   UNL     1      12.448   4.122  33.703  1.00  0.00     0.006 C 
BRANCH   6   7
ATOM      7  C   UNL     1      11.311   3.813  32.715  1.00  0.00     0.053 C 
BRANCH   7   8
ATOM      8  C   UNL     1      10.553   5.040  32.317  1.00  0.00     0.041 C 
ATOM      9  O   UNL     1       9.304   4.991  32.162  1.00  0.00    -0.550 OA
ATOM     10  O   UNL     1      11.228   6.234  32.095  1.00  0.00    -0.550 OA
ENDBRANCH   7   8
ENDBRANCH   6   7
ENDBRANCH   5   6
ENDBRANCH   4   5
ENDBRANCH   3   4
ENDBRANCH   2   3
ENDBRANCH   1   2
BRANCH   1  11
ATOM     11  C   UNL     1      10.009   0.739  35.012  1.00  0.00     0.000 C 
BRANCH  11  12
ATOM     12  C   UNL     1       8.570   0.262  34.756  1.00  0.00    -0.000 C 
BRANCH  12  13
ATOM     13  C   UNL     1       7.595   0.688  35.866  1.00  0.00    -0.000 C 
BRANCH  13  14
ATOM     14  C   UNL     1       6.450  -0.320  36.067  1.00  0.00    -0.000 C 
BRANCH  14  15
ATOM     15  C   UNL     1       6.852  -1.763  35.710  1.00  0.00    -0.000 C 
BRANCH  15  16
ATOM     16  C   UNL     1       6.073  -2.863  36.455  1.00  0.00    -0.000 C 
BRANCH  16  17
ATOM     17  C   UNL     1       5.930  -4.155  35.638  1.00  0.00    -0.003 C 
ATOM     18  C   UNL     1       6.278  -3.920  34.171  1.00  0.00     0.004 C 
ENDBRANCH  16  17
ENDBRANCH  15  16
ENDBRANCH  14  15
ENDBRANCH  13  14
ENDBRANCH  12  13
ENDBRANCH  11  12
ENDBRANCH   1  11
TORSDOF 14
ENDMDL
MODEL 7
REMARK VINA RESULT:    -5.081      0.974      1.626
REMARK INTER + INTRA:         -10.433
REMARK INTER:                  -9.480
REMARK INTRA:                  -0.953
REMARK UNBOUND:                -1.194
REMARK SMILES CCCCCCCCCCCCCCCC(=O)[O-]
REMARK SMILES IDX 9 1 10 2 11 3 12 4 13 5 14 6 15 7 16 8 17 9 18 10 8 11 7 12
REMARK SMILES IDX 6 13 5 14 4 15 3 16 2 17 1 18
REMARK H PARENT
REMARK Flexibility Score: inf
ROOT
ATOM      1  C   UNL     1       6.267  -1.531  36.133  1.00  0.00     0.000 C 
ENDROOT
BRANCH   1   2
ATOM      2  C   UNL     1       6.908  -0.147  35.961  1.00  0.00     0.000 C 
BRANCH   2   3
ATOM      3  C   UNL     1       8.300  -0.207  35.305  1.00  0.00     0.000 C 
BRANCH   3   4
ATOM      4  C   UNL     1       8.425   0.557  33.973  1.00  0.00     0.000 C 
BRANCH   4   5
ATOM      5  C   UNL     1       9.487   1.668  34.019  1.00  0.00     0.000 C 
BRANCH   5   6
ATOM      6  C   UNL     1      10.615   1.363  35.026  1.00  0.00     0.006 C 
BRANCH   6   7
ATOM      7  C   UNL     1      11.833   0.668  34.393  1.00  0.00     0.053 C 
BRANCH   7   8
ATOM      8  C   UNL     1      13.096   1.446  34.587  1.00  0.00     0.041 C 
ATOM      9  O   UNL     1      13.791   1.784  33.592  1.00  0.00    -0.550 OA
ATOM     10  O   UNL     1      13.520   1.778  35.868  1.00  0.00    -0.550 OA
ENDBRANCH   7   8
ENDBRANCH   6   7
ENDBRANCH   5   6
ENDBRANCH   4   5
ENDBRANCH   3   4
ENDBRANCH   2   3
ENDBRANCH   1   2
BRANCH   1  11
ATOM     11  C   UNL     1       4.853  -1.415  36.716  1.00  0.00     0.000 C 
BRANCH  11  12
ATOM     12  C   UNL     1       4.386   0.049  36.737  1.00  0.00    -0.000 C 
BRANCH  12  13
ATOM     13  C   UNL     1       3.395   0.343  37.875  1.00  0.00    -0.000 C 
BRANCH  13  14
ATOM     14  C   UNL     1       2.605  -0.904  38.308  1.00  0.00    -0.000 C 
BRANCH  14  15
ATOM     15  C   UNL     1       2.631  -1.131  39.831  1.00  0.00    -0.000 C 
BRANCH  15  16
ATOM     16  C   UNL     1       2.620  -2.607  40.272  1.00  0.00    -0.000 C 
BRANCH  16  17
ATOM     17  C   UNL     1       3.498  -3.504  39.388  1.00  0.00    -0.003 C 
ATOM     18  C   UNL     1       2.680  -4.633  38.765  1.00  0.00     0.004 C 
ENDBRANCH  16  17
ENDBRANCH  15  16
ENDBRANCH  14  15
ENDBRANCH  13  14
ENDBRANCH  12  13
ENDBRANCH  11  12
ENDBRANCH   1  11
TORSDOF 14
ENDMDL
MODEL 8
REMARK VINA RESULT:    -5.071      1.312      2.877
REMARK INTER + INTRA:         -10.415
REMARK INTER:                  -9.400
REMARK INTRA:                  -1.015
REMARK UNBOUND:                -1.194
REMARK SMILES CCCCCCCCCCCCCCCC(=O)[O-]
REMARK SMILES IDX 9 1 10 2 11 3 12 4 13 5 14 6 15 7 16 8 17 9 18 10 8 11 7 12
REMARK SMILES IDX 6 13 5 14 4 15 3 16 2 17 1 18
REMARK H PARENT
REMARK Flexibility Score: inf
ROOT
ATOM      1  C   UNL     1       5.798  -2.057  36.342  1.00  0.00     0.000 C 
ENDROOT
BRANCH   1   2
ATOM      2  C   UNL     1       7.012  -1.584  35.530  1.00  0.00     0.000 C 
BRANCH   2   3
ATOM      3  C   UNL     1       7.325  -0.090  35.731  1.00  0.00     0.000 C 
BRANCH   3   4
ATOM      4  C   UNL     1       8.730   0.348  35.275  1.00  0.00     0.000 C 
BRANCH   4   5
ATOM      5  C   UNL     1       9.295   1.508  36.112  1.00  0.00     0.000 C 
BRANCH   5   6
ATOM      6  C   UNL     1      10.821   1.401  36.312  1.00  0.00     0.006 C 
BRANCH   6   7
ATOM      7  C   UNL     1      11.636   2.119  35.223  1.00  0.00     0.053 C 
BRANCH   7   8
ATOM      8  C   UNL     1      12.474   1.172  34.422  1.00  0.00     0.041 C 
ATOM      9  O   UNL     1      13.533   1.574  33.871  1.00  0.00    -0.550 OA
ATOM     10  O   UNL     1      12.074  -0.150  34.265  1.00  0.00    -0.550 OA
ENDBRANCH   7   8
ENDBRANCH   6   7
ENDBRANCH   5   6
ENDBRANCH   4   5
ENDBRANCH   3   4
ENDBRANCH   2   3
ENDBRANCH   1   2
BRANCH   1  11
ATOM     11  C   UNL     1       5.505  -3.539  36.082  1.00  0.00     0.000 C 
BRANCH  11  12
ATOM     12  C   UNL     1       4.132  -3.934  36.648  1.00  0.00    -0.000 C 
BRANCH  12  13
ATOM     13  C   UNL     1       4.121  -4.019  38.183  1.00  0.00    -0.000 C 
BRANCH  13  14
ATOM     14  C   UNL     1       2.806  -3.508  38.795  1.00  0.00    -0.000 C 
BRANCH  14  15
ATOM     15  C   UNL     1       3.027  -2.605  40.023  1.00  0.00    -0.000 C 
BRANCH  15  16
ATOM     16  C   UNL     1       2.650  -1.125  39.824  1.00  0.00    -0.000 C 
BRANCH  16  17
ATOM     17  C   UNL     1       2.290  -0.788  38.369  1.00  0.00    -0.003 C 
ATOM     18  C   UNL     1       3.311   0.167  37.757  1.00  0.00     0.004 C 
ENDBRANCH  16  17
ENDBRANCH  15  16
ENDBRANCH  14  15
ENDBRANCH  13  14
ENDBRANCH  12  13
ENDBRANCH  11  12
ENDBRANCH   1  11
TORSDOF 14
ENDMDL
MODEL 9
REMARK VINA RESULT:    -5.062      1.487      2.417
REMARK INTER + INTRA:         -10.399
REMARK INTER:                  -9.438
REMARK INTRA:                  -0.962
REMARK UNBOUND:                -1.194
REMARK SMILES CCCCCCCCCCCCCCCC(=O)[O-]
REMARK SMILES IDX 9 1 10 2 11 3 12 4 13 5 14 6 15 7 16 8 17 9 18 10 8 11 7 12
REMARK SMILES IDX 6 13 5 14 4 15 3 16 2 17 1 18
REMARK H PARENT
REMARK Flexibility Score: inf
ROOT
ATOM      1  C   UNL     1       8.236  -0.023  34.551  1.00  0.00     0.000 C 
ENDROOT
BRANCH   1   2
ATOM      2  C   UNL     1       9.595   0.546  34.982  1.00  0.00     0.000 C 
BRANCH   2   3
ATOM      3  C   UNL     1      10.687   0.369  33.912  1.00  0.00     0.000 C 
BRANCH   3   4
ATOM      4  C   UNL     1      12.128   0.318  34.455  1.00  0.00     0.000 C 
BRANCH   4   5
ATOM      5  C   UNL     1      12.330   1.204  35.696  1.00  0.00     0.000 C 
BRANCH   5   6
ATOM      6  C   UNL     1      13.157   2.469  35.389  1.00  0.00     0.006 C 
BRANCH   6   7
ATOM      7  C   UNL     1      12.298   3.700  35.056  1.00  0.00     0.053 C 
BRANCH   7   8
ATOM      8  C   UNL     1      12.140   3.901  33.581  1.00  0.00     0.041 C 
ATOM      9  O   UNL     1      13.133   4.221  32.875  1.00  0.00    -0.550 OA
ATOM     10  O   UNL     1      10.891   3.758  32.989  1.00  0.00    -0.550 OA
ENDBRANCH   7   8
ENDBRANCH   6   7
ENDBRANCH   5   6
ENDBRANCH   4   5
ENDBRANCH   3   4
ENDBRANCH   2   3
ENDBRANCH   1   2
BRANCH   1  11
ATOM     11  C   UNL     1       7.240  -0.014  35.716  1.00  0.00     0.000 C 
BRANCH  11  12
ATOM     12  C   UNL     1       6.725  -1.432  36.011  1.00  0.00    -0.000 C 
BRANCH  12  13
ATOM     13  C   UNL     1       5.255  -1.451  36.462  1.00  0.00    -0.000 C 
BRANCH  13  14
ATOM     14  C   UNL     1       4.690  -0.040  36.700  1.00  0.00    -0.000 C 
BRANCH  14  15
ATOM     15  C   UNL     1       3.788   0.042  37.944  1.00  0.00    -0.000 C 
BRANCH  15  16
ATOM     16  C   UNL     1       2.705  -1.049  38.041  1.00  0.00    -0.000 C 
BRANCH  16  17
ATOM     17  C   UNL     1       2.682  -1.751  39.407  1.00  0.00    -0.003 C 
ATOM     18  C   UNL     1       3.337  -3.128  39.329  1.00  0.00     0.004 C 
ENDBRANCH  16  17
ENDBRANCH  15  16
ENDBRANCH  14  15
ENDBRANCH  13  14
ENDBRANCH  12  13
ENDBRANCH  11  12
ENDBRANCH   1  11
TORSDOF 14
ENDMDL
