MODEL 1
REMARK VINA RESULT:    -5.441      0.000      0.000
REMARK INTER + INTRA:          -6.550
REMARK INTER:                  -6.396
REMARK INTRA:                  -0.155
REMARK UNBOUND:                -0.155
REMARK SMILES O=C([O-])C=Cc1ccc(O)c(O)c1
REMARK SMILES IDX 6 1 13 2 7 3 11 4 8 5 9 6 5 7 4 8 2 9 1 10 3 11 12 12 10 14
REMARK H PARENT 12 13 10 15
REMARK Flexibility Score: inf
ROOT
ATOM      1  C   UNL     1      74.310  42.340  -3.439  1.00  0.00    -0.022 A 
ATOM      2  C   UNL     1      74.760  43.672  -3.338  1.00  0.00     0.058 A 
ATOM      3  C   UNL     1      73.490  41.824  -2.423  1.00  0.00     0.012 A 
ATOM      4  C   UNL     1      74.415  44.460  -2.230  1.00  0.00     0.157 A 
ATOM      5  C   UNL     1      73.148  42.607  -1.318  1.00  0.00     0.051 A 
ATOM      6  C   UNL     1      73.609  43.923  -1.214  1.00  0.00     0.157 A 
ENDROOT
BRANCH   1   7
ATOM      7  C   UNL     1      74.638  41.471  -4.596  1.00  0.00     0.010 C 
ATOM      8  C   UNL     1      74.034  40.300  -4.841  1.00  0.00     0.025 C 
BRANCH   8   9
ATOM      9  C   UNL     1      74.384  39.475  -6.009  1.00  0.00     0.064 C 
ATOM     10  O   UNL     1      75.125  39.951  -6.907  1.00  0.00    -0.545 OA
ATOM     11  O   UNL     1      73.906  38.175  -6.138  1.00  0.00    -0.545 OA
ENDBRANCH   8   9
ENDBRANCH   1   7
BRANCH   4  12
ATOM     12  O   UNL     1      74.868  45.776  -2.138  1.00  0.00    -0.504 OA
ATOM     13  H   UNL     1      74.519  46.502  -2.754  1.00  0.00     0.293 HD
ENDBRANCH   4  12
BRANCH   6  14
ATOM     14  O   UNL     1      73.251  44.680  -0.099  1.00  0.00    -0.504 OA
ATOM     15  H   UNL     1      72.624  44.327   0.613  1.00  0.00     0.293 HD
ENDBRANCH   6  14
TORSDOF 4
ENDMDL
MODEL 2
REMARK VINA RESULT:    -5.400      1.591      5.923
REMARK INTER + INTRA:          -6.501
REMARK INTER:                  -6.375
REMARK INTRA:                  -0.126
REMARK UNBOUND:                -0.155
REMARK SMILES O=C([O-])C=Cc1ccc(O)c(O)c1
REMARK SMILES IDX 6 1 13 2 7 3 11 4 8 5 9 6 5 7 4 8 2 9 1 10 3 11 12 12 10 14
REMARK H PARENT 12 13 10 15
REMARK Flexibility Score: inf
ROOT
ATOM      1  C   UNL     1      72.965  40.986  -3.113  1.00  0.00    -0.022 A 
ATOM      2  C   UNL     1      73.850  40.454  -4.073  1.00  0.00     0.058 A 
ATOM      3  C   UNL     1      71.692  40.410  -2.973  1.00  0.00     0.012 A 
ATOM      4  C   UNL     1      73.458  39.383  -4.890  1.00  0.00     0.157 A 
ATOM      5  C   UNL     1      71.300  39.345  -3.788  1.00  0.00     0.051 A 
ATOM      6  C   UNL     1      72.175  38.829  -4.748  1.00  0.00     0.157 A 
ENDROOT
BRANCH   1   7
ATOM      7  C   UNL     1      73.338  42.109  -2.219  1.00  0.00     0.010 C 
ATOM      8  C   UNL     1      73.561  43.359  -2.647  1.00  0.00     0.025 C 
BRANCH   8   9
ATOM      9  C   UNL     1      73.918  44.446  -1.721  1.00  0.00     0.064 C 
ATOM     10  O   UNL     1      73.509  44.409  -0.532  1.00  0.00    -0.545 OA
ATOM     11  O   UNL     1      74.700  45.518  -2.140  1.00  0.00    -0.545 OA
ENDBRANCH   8   9
ENDBRANCH   1   7
BRANCH   4  12
ATOM     12  O   UNL     1      74.339  38.865  -5.837  1.00  0.00    -0.504 OA
ATOM     13  H   UNL     1      74.928  39.468  -6.401  1.00  0.00     0.293 HD
ENDBRANCH   4  12
BRANCH   6  14
ATOM     14  O   UNL     1      71.755  37.766  -5.547  1.00  0.00    -0.504 OA
ATOM     15  H   UNL     1      71.396  37.906  -6.484  1.00  0.00     0.293 HD
ENDBRANCH   6  14
TORSDOF 4
ENDMDL
MODEL 3
REMARK VINA RESULT:    -5.399      1.979      6.100
REMARK INTER + INTRA:          -6.500
REMARK INTER:                  -6.376
REMARK INTRA:                  -0.124
REMARK UNBOUND:                -0.155
REMARK SMILES O=C([O-])C=Cc1ccc(O)c(O)c1
REMARK SMILES IDX 6 1 13 2 7 3 11 4 8 5 9 6 5 7 4 8 2 9 1 10 3 11 12 12 10 14
REMARK H PARENT 12 13 10 15
REMARK Flexibility Score: inf
ROOT
ATOM      1  C   UNL     1      73.144  40.978  -3.097  1.00  0.00    -0.022 A 
ATOM      2  C   UNL     1      71.819  40.509  -2.981  1.00  0.00     0.058 A 
ATOM      3  C   UNL     1      73.985  40.399  -4.061  1.00  0.00     0.012 A 
ATOM      4  C   UNL     1      71.357  39.467  -3.799  1.00  0.00     0.157 A 
ATOM      5  C   UNL     1      73.525  39.361  -4.874  1.00  0.00     0.051 A 
ATOM      6  C   UNL     1      72.216  38.888  -4.747  1.00  0.00     0.157 A 
ENDROOT
BRANCH   1   7
ATOM      7  C   UNL     1      73.675  42.084  -2.264  1.00  0.00     0.010 C 
ATOM      8  C   UNL     1      73.175  43.327  -2.270  1.00  0.00     0.025 C 
BRANCH   8   9
ATOM      9  C   UNL     1      73.728  44.392  -1.418  1.00  0.00     0.064 C 
ATOM     10  O   UNL     1      73.387  44.459  -0.208  1.00  0.00    -0.545 OA
ATOM     11  O   UNL     1      74.620  45.330  -1.928  1.00  0.00    -0.545 OA
ENDBRANCH   8   9
ENDBRANCH   1   7
BRANCH   4  12
ATOM     12  O   UNL     1      70.046  39.009  -3.676  1.00  0.00    -0.504 OA
ATOM     13  H   UNL     1      69.840  38.053  -3.408  1.00  0.00     0.293 HD
ENDBRANCH   4  12
BRANCH   6  14
ATOM     14  O   UNL     1      71.787  37.850  -5.572  1.00  0.00    -0.504 OA
ATOM     15  H   UNL     1      71.932  36.876  -5.332  1.00  0.00     0.293 HD
ENDBRANCH   6  14
TORSDOF 4
ENDMDL
MODEL 4
REMARK VINA RESULT:    -5.175      0.949      1.948
REMARK INTER + INTRA:          -6.237
REMARK INTER:                  -6.090
REMARK INTRA:                  -0.146
REMARK UNBOUND:                -0.155
REMARK SMILES O=C([O-])C=Cc1ccc(O)c(O)c1
REMARK SMILES IDX 6 1 13 2 7 3 11 4 8 5 9 6 5 7 4 8 2 9 1 10 3 11 12 12 10 14
REMARK H PARENT 12 13 10 15
REMARK Flexibility Score: inf
ROOT
ATOM      1  C   UNL     1      73.914  41.655  -3.423  1.00  0.00    -0.022 A 
ATOM      2  C   UNL     1      73.173  41.949  -2.261  1.00  0.00     0.058 A 
ATOM      3  C   UNL     1      74.748  42.648  -3.964  1.00  0.00     0.012 A 
ATOM      4  C   UNL     1      73.248  43.219  -1.669  1.00  0.00     0.157 A 
ATOM      5  C   UNL     1      74.821  43.913  -3.376  1.00  0.00     0.051 A 
ATOM      6  C   UNL     1      74.073  44.206  -2.232  1.00  0.00     0.157 A 
ENDROOT
BRANCH   1   7
ATOM      7  C   UNL     1      73.878  40.325  -4.079  1.00  0.00     0.010 C 
ATOM      8  C   UNL     1      74.121  40.132  -5.383  1.00  0.00     0.025 C 
BRANCH   8   9
ATOM      9  C   UNL     1      74.085  38.791  -5.990  1.00  0.00     0.064 C 
ATOM     10  O   UNL     1      75.125  38.323  -6.522  1.00  0.00    -0.545 OA
ATOM     11  O   UNL     1      72.919  38.033  -5.988  1.00  0.00    -0.545 OA
ENDBRANCH   8   9
ENDBRANCH   1   7
BRANCH   4  12
ATOM     12  O   UNL     1      72.508  43.501  -0.521  1.00  0.00    -0.504 OA
ATOM     13  H   UNL     1      71.857  44.277  -0.486  1.00  0.00     0.293 HD
ENDBRANCH   4  12
BRANCH   6  14
ATOM     14  O   UNL     1      74.166  45.477  -1.668  1.00  0.00    -0.504 OA
ATOM     15  H   UNL     1      74.380  45.617  -0.688  1.00  0.00     0.293 HD
ENDBRANCH   6  14
TORSDOF 4
ENDMDL
MODEL 5
REMARK VINA RESULT:    -4.757     14.081     15.287
REMARK INTER + INTRA:          -5.746
REMARK INTER:                  -5.599
REMARK INTRA:                  -0.147
REMARK UNBOUND:                -0.155
REMARK SMILES O=C([O-])C=Cc1ccc(O)c(O)c1
REMARK SMILES IDX 6 1 13 2 7 3 11 4 8 5 9 6 5 7 4 8 2 9 1 10 3 11 12 12 10 14
REMARK H PARENT 12 13 10 15
REMARK Flexibility Score: inf
ROOT
ATOM      1  C   UNL     1      68.558  49.314   8.273  1.00  0.00    -0.022 A 
ATOM      2  C   UNL     1      67.425  49.756   8.987  1.00  0.00     0.058 A 
ATOM      3  C   UNL     1      68.374  48.459   7.175  1.00  0.00     0.012 A 
ATOM      4  C   UNL     1      66.140  49.330   8.622  1.00  0.00     0.157 A 
ATOM      5  C   UNL     1      67.094  48.033   6.811  1.00  0.00     0.051 A 
ATOM      6  C   UNL     1      65.975  48.461   7.531  1.00  0.00     0.157 A 
ENDROOT
BRANCH   1   7
ATOM      7  C   UNL     1      69.936  49.746   8.613  1.00  0.00     0.010 C 
ATOM      8  C   UNL     1      70.992  49.562   7.810  1.00  0.00     0.025 C 
BRANCH   8   9
ATOM      9  C   UNL     1      72.342  50.017   8.183  1.00  0.00     0.064 C 
ATOM     10  O   UNL     1      72.874  50.966   7.551  1.00  0.00    -0.545 OA
ATOM     11  O   UNL     1      73.040  49.414   9.224  1.00  0.00    -0.545 OA
ENDBRANCH   8   9
ENDBRANCH   1   7
BRANCH   4  12
ATOM     12  O   UNL     1      65.026  49.771   9.336  1.00  0.00    -0.504 OA
ATOM     13  H   UNL     1      64.795  50.755   9.405  1.00  0.00     0.293 HD
ENDBRANCH   4  12
BRANCH   6  14
ATOM     14  O   UNL     1      64.711  48.018   7.145  1.00  0.00    -0.504 OA
ATOM     15  H   UNL     1      64.350  47.112   7.421  1.00  0.00     0.293 HD
ENDBRANCH   6  14
TORSDOF 4
ENDMDL
MODEL 6
REMARK VINA RESULT:    -4.688     12.932     14.599
REMARK INTER + INTRA:          -5.665
REMARK INTER:                  -5.539
REMARK INTRA:                  -0.126
REMARK UNBOUND:                -0.155
REMARK SMILES O=C([O-])C=Cc1ccc(O)c(O)c1
REMARK SMILES IDX 6 1 13 2 7 3 11 4 8 5 9 6 5 7 4 8 2 9 1 10 3 11 12 12 10 14
REMARK H PARENT 12 13 10 15
REMARK Flexibility Score: inf
ROOT
ATOM      1  C   UNL     1      69.336  49.499   8.063  1.00  0.00    -0.022 A 
ATOM      2  C   UNL     1      68.712  48.545   7.234  1.00  0.00     0.058 A 
ATOM      3  C   UNL     1      68.549  50.218   8.978  1.00  0.00     0.012 A 
ATOM      4  C   UNL     1      67.326  48.334   7.305  1.00  0.00     0.157 A 
ATOM      5  C   UNL     1      67.170  50.010   9.048  1.00  0.00     0.051 A 
ATOM      6  C   UNL     1      66.552  49.073   8.214  1.00  0.00     0.157 A 
ENDROOT
BRANCH   1   7
ATOM      7  C   UNL     1      70.797  49.750   8.033  1.00  0.00     0.010 C 
ATOM      8  C   UNL     1      71.665  49.012   7.327  1.00  0.00     0.025 C 
BRANCH   8   9
ATOM      9  C   UNL     1      73.107  49.304   7.318  1.00  0.00     0.064 C 
ATOM     10  O   UNL     1      73.603  50.015   8.230  1.00  0.00    -0.545 OA
ATOM     11  O   UNL     1      73.934  48.807   6.316  1.00  0.00    -0.545 OA
ENDBRANCH   8   9
ENDBRANCH   1   7
BRANCH   4  12
ATOM     12  O   UNL     1      66.719  47.389   6.480  1.00  0.00    -0.504 OA
ATOM     13  H   UNL     1      67.105  47.149   5.573  1.00  0.00     0.293 HD
ENDBRANCH   4  12
BRANCH   6  14
ATOM     14  O   UNL     1      65.174  48.888   8.307  1.00  0.00    -0.504 OA
ATOM     15  H   UNL     1      64.765  47.988   8.527  1.00  0.00     0.293 HD
ENDBRANCH   6  14
TORSDOF 4
ENDMDL
MODEL 7
REMARK VINA RESULT:    -4.631      1.360      6.084
REMARK INTER + INTRA:          -5.598
REMARK INTER:                  -5.462
REMARK INTRA:                  -0.136
REMARK UNBOUND:                -0.155
REMARK SMILES O=C([O-])C=Cc1ccc(O)c(O)c1
REMARK SMILES IDX 6 1 13 2 7 3 11 4 8 5 9 6 5 7 4 8 2 9 1 10 3 11 12 12 10 14
REMARK H PARENT 12 13 10 15
REMARK Flexibility Score: inf
ROOT
ATOM      1  C   UNL     1      73.637  41.702  -2.966  1.00  0.00    -0.022 A 
ATOM      2  C   UNL     1      72.861  40.592  -3.359  1.00  0.00     0.058 A 
ATOM      3  C   UNL     1      74.764  42.044  -3.731  1.00  0.00     0.012 A 
ATOM      4  C   UNL     1      73.222  39.829  -4.480  1.00  0.00     0.157 A 
ATOM      5  C   UNL     1      75.125  41.283  -4.846  1.00  0.00     0.051 A 
ATOM      6  C   UNL     1      74.361  40.175  -5.224  1.00  0.00     0.157 A 
ENDROOT
BRANCH   1   7
ATOM      7  C   UNL     1      73.291  42.546  -1.797  1.00  0.00     0.010 C 
ATOM      8  C   UNL     1      72.900  43.824  -1.891  1.00  0.00     0.025 C 
BRANCH   8   9
ATOM      9  C   UNL     1      72.555  44.622  -0.703  1.00  0.00     0.064 C 
ATOM     10  O   UNL     1      71.625  45.467  -0.772  1.00  0.00    -0.545 OA
ATOM     11  O   UNL     1      73.241  44.459   0.495  1.00  0.00    -0.545 OA
ENDBRANCH   8   9
ENDBRANCH   1   7
BRANCH   4  12
ATOM     12  O   UNL     1      72.449  38.733  -4.859  1.00  0.00    -0.504 OA
ATOM     13  H   UNL     1      71.436  38.782  -4.892  1.00  0.00     0.293 HD
ENDBRANCH   4  12
BRANCH   6  14
ATOM     14  O   UNL     1      74.747  39.435  -6.340  1.00  0.00    -0.504 OA
ATOM     15  H   UNL     1      74.071  39.019  -6.970  1.00  0.00     0.293 HD
ENDBRANCH   6  14
TORSDOF 4
ENDMDL
MODEL 8
REMARK VINA RESULT:    -4.602     13.021     15.221
REMARK INTER + INTRA:          -5.563
REMARK INTER:                  -5.434
REMARK INTRA:                  -0.130
REMARK UNBOUND:                -0.155
REMARK SMILES O=C([O-])C=Cc1ccc(O)c(O)c1
REMARK SMILES IDX 6 1 13 2 7 3 11 4 8 5 9 6 5 7 4 8 2 9 1 10 3 11 12 12 10 14
REMARK H PARENT 12 13 10 15
REMARK Flexibility Score: inf
ROOT
ATOM      1  C   UNL     1      71.123  49.674   8.854  1.00  0.00    -0.022 A 
ATOM      2  C   UNL     1      71.797  49.568   7.620  1.00  0.00     0.058 A 
ATOM      3  C   UNL     1      71.791  49.287  10.026  1.00  0.00     0.012 A 
ATOM      4  C   UNL     1      73.104  49.060   7.563  1.00  0.00     0.157 A 
ATOM      5  C   UNL     1      73.091  48.780   9.970  1.00  0.00     0.051 A 
ATOM      6  C   UNL     1      73.752  48.662   8.744  1.00  0.00     0.157 A 
ENDROOT
BRANCH   1   7
ATOM      7  C   UNL     1      69.746  50.215   8.968  1.00  0.00     0.010 C 
ATOM      8  C   UNL     1      68.642  49.457   8.911  1.00  0.00     0.025 C 
BRANCH   8   9
ATOM      9  C   UNL     1      67.294  50.034   9.039  1.00  0.00     0.064 C 
ATOM     10  O   UNL     1      67.125  51.066   9.740  1.00  0.00    -0.545 OA
ATOM     11  O   UNL     1      66.202  49.457   8.400  1.00  0.00    -0.545 OA
ENDBRANCH   8   9
ENDBRANCH   1   7
BRANCH   4  12
ATOM     12  O   UNL     1      73.761  48.956   6.338  1.00  0.00    -0.504 OA
ATOM     13  H   UNL     1      73.963  48.056   5.918  1.00  0.00     0.293 HD
ENDBRANCH   4  12
BRANCH   6  14
ATOM     14  O   UNL     1      75.049  48.152   8.718  1.00  0.00    -0.504 OA
ATOM     15  H   UNL     1      75.450  47.660   9.508  1.00  0.00     0.293 HD
ENDBRANCH   6  14
TORSDOF 4
ENDMDL
