MODEL 1
REMARK VINA RESULT:    -6.992      0.000      0.000
REMARK INTER + INTRA:          -8.746
REMARK INTER:                  -8.422
REMARK INTRA:                  -0.324
REMARK UNBOUND:                -0.324
REMARK SMILES O=c1c(O)c(-c2ccc(O)c(O)c2)oc2cc(O)cc(O)c12
REMARK SMILES IDX 5 1 3 2 2 3 1 4 22 5 20 6 19 7 17 8 16 9 15 10 14 11 6 12
REMARK SMILES IDX 7 13 8 14 9 15 13 16 11 17 10 18 12 20 4 22 21 24 18 26
REMARK H PARENT 10 19 12 21 4 23 21 25 18 27
REMARK Flexibility Score: inf
ROOT
ATOM      1  C   UNL     1      21.206   6.345  31.231  1.00  0.00     0.180 A 
ATOM      2  C   UNL     1      19.847   6.688  31.334  1.00  0.00     0.208 A 
ATOM      3  C   UNL     1      19.285   7.543  30.371  1.00  0.00     0.238 A 
ATOM      4  O   UNL     1      18.055   7.802  30.438  1.00  0.00    -0.285 OA
ATOM      5  C   UNL     1      20.093   8.055  29.328  1.00  0.00     0.111 A 
ATOM      6  C   UNL     1      19.639   8.960  28.322  1.00  0.00     0.134 A 
ATOM      7  C   UNL     1      20.490   9.300  27.263  1.00  0.00     0.093 A 
ATOM      8  C   UNL     1      21.800   8.818  27.209  1.00  0.00     0.123 A 
ATOM      9  C   UNL     1      22.272   7.981  28.219  1.00  0.00     0.094 A 
ATOM     10  C   UNL     1      21.435   7.597  29.268  1.00  0.00     0.146 A 
ATOM     11  O   UNL     1      21.920   6.790  30.203  1.00  0.00    -0.452 OA
ENDROOT
BRANCH   1  12
ATOM     12  C   UNL     1      21.874   5.470  32.221  1.00  0.00     0.025 A 
ATOM     13  C   UNL     1      22.568   6.004  33.318  1.00  0.00     0.016 A 
ATOM     14  C   UNL     1      23.211   5.161  34.225  1.00  0.00     0.051 A 
ATOM     15  C   UNL     1      23.187   3.773  34.050  1.00  0.00     0.157 A 
ATOM     16  C   UNL     1      21.868   4.080  32.031  1.00  0.00     0.062 A 
ATOM     17  C   UNL     1      22.509   3.225  32.936  1.00  0.00     0.158 A 
BRANCH  15  18
ATOM     18  O   UNL     1      23.847   2.985  34.995  1.00  0.00    -0.504 OA
ATOM     19  H   UNL     1      24.849   2.983  35.130  1.00  0.00     0.293 HD
ENDBRANCH  15  18
BRANCH  17  20
ATOM     20  O   UNL     1      22.450   1.851  32.690  1.00  0.00    -0.504 OA
ATOM     21  H   UNL     1      22.623   1.144  33.390  1.00  0.00     0.293 HD
ENDBRANCH  17  20
ENDBRANCH   1  12
BRANCH   2  22
ATOM     22  O   UNL     1      19.062   6.154  32.360  1.00  0.00    -0.502 OA
ATOM     23  H   UNL     1      18.095   5.888  32.223  1.00  0.00     0.293 HD
ENDBRANCH   2  22
BRANCH   6  24
ATOM     24  O   UNL     1      18.381   9.571  28.331  1.00  0.00    -0.507 OA
ATOM     25  H   UNL     1      17.551   9.182  27.910  1.00  0.00     0.293 HD
ENDBRANCH   6  24
BRANCH   8  26
ATOM     26  O   UNL     1      22.645   9.174  26.161  1.00  0.00    -0.508 OA
ATOM     27  H   UNL     1      22.394   9.001  25.195  1.00  0.00     0.293 HD
ENDBRANCH   8  26
TORSDOF 6
ENDMDL
MODEL 2
REMARK VINA RESULT:    -6.645     10.497     12.712
REMARK INTER + INTRA:          -8.329
REMARK INTER:                  -8.060
REMARK INTRA:                  -0.269
REMARK UNBOUND:                -0.324
REMARK SMILES O=c1c(O)c(-c2ccc(O)c(O)c2)oc2cc(O)cc(O)c12
REMARK SMILES IDX 5 1 3 2 2 3 1 4 22 5 20 6 19 7 17 8 16 9 15 10 14 11 6 12
REMARK SMILES IDX 7 13 8 14 9 15 13 16 11 17 10 18 12 20 4 22 21 24 18 26
REMARK H PARENT 10 19 12 21 4 23 21 25 18 27
REMARK Flexibility Score: inf
ROOT
ATOM      1  C   UNL     1      27.135   1.450  23.154  1.00  0.00     0.180 A 
ATOM      2  C   UNL     1      26.543   1.112  21.925  1.00  0.00     0.208 A 
ATOM      3  C   UNL     1      27.015  -0.013  21.229  1.00  0.00     0.238 A 
ATOM      4  O   UNL     1      26.444  -0.342  20.156  1.00  0.00    -0.285 OA
ATOM      5  C   UNL     1      28.082  -0.775  21.762  1.00  0.00     0.111 A 
ATOM      6  C   UNL     1      28.665  -1.910  21.122  1.00  0.00     0.134 A 
ATOM      7  C   UNL     1      29.629  -2.666  21.802  1.00  0.00     0.093 A 
ATOM      8  C   UNL     1      30.076  -2.290  23.071  1.00  0.00     0.123 A 
ATOM      9  C   UNL     1      29.555  -1.150  23.678  1.00  0.00     0.094 A 
ATOM     10  C   UNL     1      28.567  -0.396  23.040  1.00  0.00     0.146 A 
ATOM     11  O   UNL     1      28.090   0.677  23.659  1.00  0.00    -0.452 OA
ENDROOT
BRANCH   1  12
ATOM     12  C   UNL     1      26.710   2.635  23.933  1.00  0.00     0.025 A 
ATOM     13  C   UNL     1      25.514   2.636  24.668  1.00  0.00     0.016 A 
ATOM     14  C   UNL     1      25.121   3.773  25.376  1.00  0.00     0.051 A 
ATOM     15  C   UNL     1      25.903   4.933  25.355  1.00  0.00     0.157 A 
ATOM     16  C   UNL     1      27.484   3.805  23.892  1.00  0.00     0.062 A 
ATOM     17  C   UNL     1      27.099   4.951  24.599  1.00  0.00     0.158 A 
BRANCH  15  18
ATOM     18  O   UNL     1      25.455   6.035  26.087  1.00  0.00    -0.504 OA
ATOM     19  H   UNL     1      26.018   6.528  26.767  1.00  0.00     0.293 HD
ENDBRANCH  15  18
BRANCH  17  20
ATOM     20  O   UNL     1      27.926   6.073  24.522  1.00  0.00    -0.504 OA
ATOM     21  H   UNL     1      27.817   6.896  25.098  1.00  0.00     0.293 HD
ENDBRANCH  17  20
ENDBRANCH   1  12
BRANCH   2  22
ATOM     22  O   UNL     1      25.477   1.865  21.427  1.00  0.00    -0.502 OA
ATOM     23  H   UNL     1      24.706   1.449  20.919  1.00  0.00     0.293 HD
ENDBRANCH   2  22
BRANCH   6  24
ATOM     24  O   UNL     1      28.357  -2.317  19.821  1.00  0.00    -0.507 OA
ATOM     25  H   UNL     1      27.640  -1.905  19.245  1.00  0.00     0.293 HD
ENDBRANCH   6  24
BRANCH   8  26
ATOM     26  O   UNL     1      31.046  -3.039  23.733  1.00  0.00    -0.508 OA
ATOM     27  H   UNL     1      31.088  -3.078  24.744  1.00  0.00     0.293 HD
ENDBRANCH   8  26
TORSDOF 6
ENDMDL
MODEL 3
REMARK VINA RESULT:    -6.574     10.559     12.658
REMARK INTER + INTRA:          -8.243
REMARK INTER:                  -7.962
REMARK INTRA:                  -0.281
REMARK UNBOUND:                -0.324
REMARK SMILES O=c1c(O)c(-c2ccc(O)c(O)c2)oc2cc(O)cc(O)c12
REMARK SMILES IDX 5 1 3 2 2 3 1 4 22 5 20 6 19 7 17 8 16 9 15 10 14 11 6 12
REMARK SMILES IDX 7 13 8 14 9 15 13 16 11 17 10 18 12 20 4 22 21 24 18 26
REMARK H PARENT 10 19 12 21 4 23 21 25 18 27
REMARK Flexibility Score: inf
ROOT
ATOM      1  C   UNL     1      27.188   1.436  23.040  1.00  0.00     0.180 A 
ATOM      2  C   UNL     1      26.589   1.088  21.818  1.00  0.00     0.208 A 
ATOM      3  C   UNL     1      27.043  -0.053  21.137  1.00  0.00     0.238 A 
ATOM      4  O   UNL     1      26.465  -0.390  20.070  1.00  0.00    -0.285 OA
ATOM      5  C   UNL     1      28.100  -0.822  21.679  1.00  0.00     0.111 A 
ATOM      6  C   UNL     1      28.667  -1.974  21.055  1.00  0.00     0.134 A 
ATOM      7  C   UNL     1      29.621  -2.734  21.744  1.00  0.00     0.093 A 
ATOM      8  C   UNL     1      30.076  -2.345  23.006  1.00  0.00     0.123 A 
ATOM      9  C   UNL     1      29.572  -1.189  23.598  1.00  0.00     0.094 A 
ATOM     10  C   UNL     1      28.594  -0.431  22.951  1.00  0.00     0.146 A 
ATOM     11  O   UNL     1      28.133   0.657  23.554  1.00  0.00    -0.452 OA
ENDROOT
BRANCH   1  12
ATOM     12  C   UNL     1      26.781   2.639  23.803  1.00  0.00     0.025 A 
ATOM     13  C   UNL     1      27.562   3.805  23.802  1.00  0.00     0.016 A 
ATOM     14  C   UNL     1      27.170   4.918  24.548  1.00  0.00     0.051 A 
ATOM     15  C   UNL     1      26.003   4.886  25.318  1.00  0.00     0.157 A 
ATOM     16  C   UNL     1      25.621   2.597  24.592  1.00  0.00     0.062 A 
ATOM     17  C   UNL     1      25.220   3.708  25.344  1.00  0.00     0.158 A 
BRANCH  15  18
ATOM     18  O   UNL     1      25.665   6.033  26.039  1.00  0.00    -0.504 OA
ATOM     19  H   UNL     1      25.236   6.852  25.629  1.00  0.00     0.293 HD
ENDBRANCH  15  18
BRANCH  17  20
ATOM     20  O   UNL     1      24.048   3.598  26.096  1.00  0.00    -0.504 OA
ATOM     21  H   UNL     1      23.476   4.384  26.369  1.00  0.00     0.293 HD
ENDBRANCH  17  20
ENDBRANCH   1  12
BRANCH   2  22
ATOM     22  O   UNL     1      25.532   1.849  21.310  1.00  0.00    -0.502 OA
ATOM     23  H   UNL     1      24.606   1.835  21.719  1.00  0.00     0.293 HD
ENDBRANCH   2  22
BRANCH   6  24
ATOM     24  O   UNL     1      28.350  -2.397  19.760  1.00  0.00    -0.507 OA
ATOM     25  H   UNL     1      27.783  -1.876  19.109  1.00  0.00     0.293 HD
ENDBRANCH   6  24
BRANCH   8  26
ATOM     26  O   UNL     1      31.037  -3.098  23.677  1.00  0.00    -0.508 OA
ATOM     27  H   UNL     1      30.958  -4.104  23.763  1.00  0.00     0.293 HD
ENDBRANCH   8  26
TORSDOF 6
ENDMDL
MODEL 4
REMARK VINA RESULT:    -6.378      1.530      7.074
REMARK INTER + INTRA:          -8.007
REMARK INTER:                  -7.752
REMARK INTRA:                  -0.255
REMARK UNBOUND:                -0.324
REMARK SMILES O=c1c(O)c(-c2ccc(O)c(O)c2)oc2cc(O)cc(O)c12
REMARK SMILES IDX 5 1 3 2 2 3 1 4 22 5 20 6 19 7 17 8 16 9 15 10 14 11 6 12
REMARK SMILES IDX 7 13 8 14 9 15 13 16 11 17 10 18 12 20 4 22 21 24 18 26
REMARK H PARENT 10 19 12 21 4 23 21 25 18 27
REMARK Flexibility Score: inf
ROOT
ATOM      1  C   UNL     1      21.843   7.134  30.862  1.00  0.00     0.180 A 
ATOM      2  C   UNL     1      22.717   7.863  31.687  1.00  0.00     0.208 A 
ATOM      3  C   UNL     1      23.346   7.210  32.759  1.00  0.00     0.238 A 
ATOM      4  O   UNL     1      24.168   7.854  33.461  1.00  0.00    -0.285 OA
ATOM      5  C   UNL     1      23.081   5.841  33.002  1.00  0.00     0.111 A 
ATOM      6  C   UNL     1      23.631   5.089  34.084  1.00  0.00     0.134 A 
ATOM      7  C   UNL     1      23.403   3.708  34.151  1.00  0.00     0.093 A 
ATOM      8  C   UNL     1      22.591   3.065  33.213  1.00  0.00     0.123 A 
ATOM      9  C   UNL     1      22.001   3.802  32.189  1.00  0.00     0.094 A 
ATOM     10  C   UNL     1      22.239   5.173  32.075  1.00  0.00     0.146 A 
ATOM     11  O   UNL     1      21.667   5.835  31.077  1.00  0.00    -0.452 OA
ENDROOT
BRANCH   1  12
ATOM     12  C   UNL     1      21.124   7.760  29.728  1.00  0.00     0.025 A 
ATOM     13  C   UNL     1      19.747   8.022  29.791  1.00  0.00     0.016 A 
ATOM     14  C   UNL     1      19.086   8.590  28.701  1.00  0.00     0.051 A 
ATOM     15  C   UNL     1      19.780   8.894  27.525  1.00  0.00     0.157 A 
ATOM     16  C   UNL     1      21.818   8.043  28.542  1.00  0.00     0.062 A 
ATOM     17  C   UNL     1      21.165   8.614  27.443  1.00  0.00     0.158 A 
BRANCH  15  18
ATOM     18  O   UNL     1      19.061   9.464  26.472  1.00  0.00    -0.504 OA
ATOM     19  H   UNL     1      18.438  10.253  26.575  1.00  0.00     0.293 HD
ENDBRANCH  15  18
BRANCH  17  20
ATOM     20  O   UNL     1      21.922   8.880  26.300  1.00  0.00    -0.504 OA
ATOM     21  H   UNL     1      22.930   8.943  26.292  1.00  0.00     0.293 HD
ENDBRANCH  17  20
ENDBRANCH   1  12
BRANCH   2  22
ATOM     22  O   UNL     1      22.980   9.208  31.417  1.00  0.00    -0.502 OA
ATOM     23  H   UNL     1      23.236   9.870  32.140  1.00  0.00     0.293 HD
ENDBRANCH   2  22
BRANCH   6  24
ATOM     24  O   UNL     1      24.379   5.649  35.124  1.00  0.00    -0.507 OA
ATOM     25  H   UNL     1      24.791   5.126  35.881  1.00  0.00     0.293 HD
ENDBRANCH   6  24
BRANCH   8  26
ATOM     26  O   UNL     1      22.357   1.695  33.298  1.00  0.00    -0.508 OA
ATOM     27  H   UNL     1      22.923   1.095  33.886  1.00  0.00     0.293 HD
ENDBRANCH   8  26
TORSDOF 6
ENDMDL
MODEL 5
REMARK VINA RESULT:    -6.179      9.684     11.495
REMARK INTER + INTRA:          -7.767
REMARK INTER:                  -7.447
REMARK INTRA:                  -0.320
REMARK UNBOUND:                -0.324
REMARK SMILES O=c1c(O)c(-c2ccc(O)c(O)c2)oc2cc(O)cc(O)c12
REMARK SMILES IDX 5 1 3 2 2 3 1 4 22 5 20 6 19 7 17 8 16 9 15 10 14 11 6 12
REMARK SMILES IDX 7 13 8 14 9 15 13 16 11 17 10 18 12 20 4 22 21 24 18 26
REMARK H PARENT 10 19 12 21 4 23 21 25 18 27
REMARK Flexibility Score: inf
ROOT
ATOM      1  C   UNL     1      27.387   1.532  23.402  1.00  0.00     0.180 A 
ATOM      2  C   UNL     1      27.938   2.816  23.252  1.00  0.00     0.208 A 
ATOM      3  C   UNL     1      27.339   3.896  23.922  1.00  0.00     0.238 A 
ATOM      4  O   UNL     1      27.869   5.034  23.827  1.00  0.00    -0.285 OA
ATOM      5  C   UNL     1      26.190   3.681  24.719  1.00  0.00     0.111 A 
ATOM      6  C   UNL     1      25.479   4.708  25.409  1.00  0.00     0.134 A 
ATOM      7  C   UNL     1      24.433   4.362  26.275  1.00  0.00     0.093 A 
ATOM      8  C   UNL     1      24.031   3.033  26.424  1.00  0.00     0.123 A 
ATOM      9  C   UNL     1      24.681   2.029  25.708  1.00  0.00     0.094 A 
ATOM     10  C   UNL     1      25.750   2.339  24.865  1.00  0.00     0.146 A 
ATOM     11  O   UNL     1      26.349   1.352  24.210  1.00  0.00    -0.452 OA
ENDROOT
BRANCH   1  12
ATOM     12  C   UNL     1      27.947   0.349  22.709  1.00  0.00     0.025 A 
ATOM     13  C   UNL     1      28.920  -0.461  23.315  1.00  0.00     0.016 A 
ATOM     14  C   UNL     1      29.451  -1.557  22.633  1.00  0.00     0.051 A 
ATOM     15  C   UNL     1      29.034  -1.859  21.332  1.00  0.00     0.157 A 
ATOM     16  C   UNL     1      27.544   0.062  21.396  1.00  0.00     0.062 A 
ATOM     17  C   UNL     1      28.070  -1.036  20.703  1.00  0.00     0.158 A 
BRANCH  15  18
ATOM     18  O   UNL     1      29.601  -2.971  20.707  1.00  0.00    -0.504 OA
ATOM     19  H   UNL     1      29.991  -3.761  21.202  1.00  0.00     0.293 HD
ENDBRANCH  15  18
BRANCH  17  20
ATOM     20  O   UNL     1      27.612  -1.268  19.405  1.00  0.00    -0.504 OA
ATOM     21  H   UNL     1      26.750  -0.894  19.034  1.00  0.00     0.293 HD
ENDBRANCH  17  20
ENDBRANCH   1  12
BRANCH   2  22
ATOM     22  O   UNL     1      29.085   3.003  22.477  1.00  0.00    -0.502 OA
ATOM     23  H   UNL     1      29.865   2.358  22.493  1.00  0.00     0.293 HD
ENDBRANCH   2  22
BRANCH   6  24
ATOM     24  O   UNL     1      25.740   6.074  25.261  1.00  0.00    -0.507 OA
ATOM     25  H   UNL     1      25.676   6.579  24.390  1.00  0.00     0.293 HD
ENDBRANCH   6  24
BRANCH   8  26
ATOM     26  O   UNL     1      22.980   2.700  27.274  1.00  0.00    -0.508 OA
ATOM     27  H   UNL     1      23.022   1.888  27.878  1.00  0.00     0.293 HD
ENDBRANCH   8  26
TORSDOF 6
ENDMDL
MODEL 6
REMARK VINA RESULT:    -6.164      9.637     11.408
REMARK INTER + INTRA:          -7.750
REMARK INTER:                  -7.420
REMARK INTRA:                  -0.329
REMARK UNBOUND:                -0.324
REMARK SMILES O=c1c(O)c(-c2ccc(O)c(O)c2)oc2cc(O)cc(O)c12
REMARK SMILES IDX 5 1 3 2 2 3 1 4 22 5 20 6 19 7 17 8 16 9 15 10 14 11 6 12
REMARK SMILES IDX 7 13 8 14 9 15 13 16 11 17 10 18 12 20 4 22 21 24 18 26
REMARK H PARENT 10 19 12 21 4 23 21 25 18 27
REMARK Flexibility Score: inf
ROOT
ATOM      1  C   UNL     1      27.415   1.580  23.397  1.00  0.00     0.180 A 
ATOM      2  C   UNL     1      27.942   2.877  23.266  1.00  0.00     0.208 A 
ATOM      3  C   UNL     1      27.325   3.935  23.953  1.00  0.00     0.238 A 
ATOM      4  O   UNL     1      27.833   5.084  23.875  1.00  0.00    -0.285 OA
ATOM      5  C   UNL     1      26.181   3.686  24.748  1.00  0.00     0.111 A 
ATOM      6  C   UNL     1      25.452   4.689  25.455  1.00  0.00     0.134 A 
ATOM      7  C   UNL     1      24.413   4.311  26.317  1.00  0.00     0.093 A 
ATOM      8  C   UNL     1      24.036   2.972  26.445  1.00  0.00     0.123 A 
ATOM      9  C   UNL     1      24.703   1.992  25.713  1.00  0.00     0.094 A 
ATOM     10  C   UNL     1      25.766   2.335  24.874  1.00  0.00     0.146 A 
ATOM     11  O   UNL     1      26.381   1.369  24.203  1.00  0.00    -0.452 OA
ENDROOT
BRANCH   1  12
ATOM     12  C   UNL     1      27.996   0.419  22.685  1.00  0.00     0.025 A 
ATOM     13  C   UNL     1      27.626   0.110  21.367  1.00  0.00     0.016 A 
ATOM     14  C   UNL     1      28.168  -1.004  20.724  1.00  0.00     0.051 A 
ATOM     15  C   UNL     1      29.077  -1.837  21.385  1.00  0.00     0.157 A 
ATOM     16  C   UNL     1      28.890  -0.428  23.357  1.00  0.00     0.062 A 
ATOM     17  C   UNL     1      29.440  -1.548  22.721  1.00  0.00     0.158 A 
BRANCH  15  18
ATOM     18  O   UNL     1      29.585  -2.933  20.684  1.00  0.00    -0.504 OA
ATOM     19  H   UNL     1      30.572  -3.123  20.570  1.00  0.00     0.293 HD
ENDBRANCH  15  18
BRANCH  17  20
ATOM     20  O   UNL     1      30.333  -2.338  23.448  1.00  0.00    -0.504 OA
ATOM     21  H   UNL     1      30.532  -2.209  24.430  1.00  0.00     0.293 HD
ENDBRANCH  17  20
ENDBRANCH   1  12
BRANCH   2  22
ATOM     22  O   UNL     1      29.084   3.097  22.493  1.00  0.00    -0.502 OA
ATOM     23  H   UNL     1      29.048   3.533  21.579  1.00  0.00     0.293 HD
ENDBRANCH   2  22
BRANCH   6  24
ATOM     24  O   UNL     1      25.687   6.062  25.328  1.00  0.00    -0.507 OA
ATOM     25  H   UNL     1      26.481   6.466  24.857  1.00  0.00     0.293 HD
ENDBRANCH   6  24
BRANCH   8  26
ATOM     26  O   UNL     1      22.992   2.607  27.291  1.00  0.00    -0.508 OA
ATOM     27  H   UNL     1      22.088   3.062  27.246  1.00  0.00     0.293 HD
ENDBRANCH   8  26
TORSDOF 6
ENDMDL
MODEL 7
REMARK VINA RESULT:    -6.031      8.970     11.070
REMARK INTER + INTRA:          -7.589
REMARK INTER:                  -7.278
REMARK INTRA:                  -0.311
REMARK UNBOUND:                -0.324
REMARK SMILES O=c1c(O)c(-c2ccc(O)c(O)c2)oc2cc(O)cc(O)c12
REMARK SMILES IDX 5 1 3 2 2 3 1 4 22 5 20 6 19 7 17 8 16 9 15 10 14 11 6 12
REMARK SMILES IDX 7 13 8 14 9 15 13 16 11 17 10 18 12 20 4 22 21 24 18 26
REMARK H PARENT 10 19 12 21 4 23 21 25 18 27
REMARK Flexibility Score: inf
ROOT
ATOM      1  C   UNL     1      27.491   3.141  23.667  1.00  0.00     0.180 A 
ATOM      2  C   UNL     1      26.292   3.488  24.313  1.00  0.00     0.208 A 
ATOM      3  C   UNL     1      26.291   4.564  25.214  1.00  0.00     0.238 A 
ATOM      4  O   UNL     1      25.203   4.904  25.748  1.00  0.00    -0.285 OA
ATOM      5  C   UNL     1      27.491   5.269  25.471  1.00  0.00     0.111 A 
ATOM      6  C   UNL     1      27.614   6.350  26.395  1.00  0.00     0.134 A 
ATOM      7  C   UNL     1      28.819   7.060  26.472  1.00  0.00     0.093 A 
ATOM      8  C   UNL     1      29.926   6.685  25.705  1.00  0.00     0.123 A 
ATOM      9  C   UNL     1      29.833   5.594  24.844  1.00  0.00     0.094 A 
ATOM     10  C   UNL     1      28.634   4.890  24.719  1.00  0.00     0.146 A 
ATOM     11  O   UNL     1      28.585   3.864  23.879  1.00  0.00    -0.452 OA
ENDROOT
BRANCH   1  12
ATOM     12  C   UNL     1      27.577   2.003  22.723  1.00  0.00     0.025 A 
ATOM     13  C   UNL     1      27.690   0.681  23.180  1.00  0.00     0.016 A 
ATOM     14  C   UNL     1      27.794  -0.374  22.271  1.00  0.00     0.051 A 
ATOM     15  C   UNL     1      27.801  -0.130  20.893  1.00  0.00     0.157 A 
ATOM     16  C   UNL     1      27.607   2.251  21.342  1.00  0.00     0.062 A 
ATOM     17  C   UNL     1      27.710   1.200  20.422  1.00  0.00     0.158 A 
BRANCH  15  18
ATOM     18  O   UNL     1      27.903  -1.229  20.037  1.00  0.00    -0.504 OA
ATOM     19  H   UNL     1      28.503  -1.258  19.224  1.00  0.00     0.293 HD
ENDBRANCH  15  18
BRANCH  17  20
ATOM     20  O   UNL     1      27.720   1.522  19.063  1.00  0.00    -0.504 OA
ATOM     21  H   UNL     1      26.908   1.836  18.550  1.00  0.00     0.293 HD
ENDBRANCH  17  20
ENDBRANCH   1  12
BRANCH   2  22
ATOM     22  O   UNL     1      25.114   2.792  24.029  1.00  0.00    -0.502 OA
ATOM     23  H   UNL     1      24.588   2.936  23.176  1.00  0.00     0.293 HD
ENDBRANCH   2  22
BRANCH   6  24
ATOM     24  O   UNL     1      26.600   6.747  27.273  1.00  0.00    -0.507 OA
ATOM     25  H   UNL     1      26.219   6.171  28.007  1.00  0.00     0.293 HD
ENDBRANCH   6  24
BRANCH   8  26
ATOM     26  O   UNL     1      31.125   7.387  25.800  1.00  0.00    -0.508 OA
ATOM     27  H   UNL     1      31.643   7.667  24.976  1.00  0.00     0.293 HD
ENDBRANCH   8  26
TORSDOF 6
ENDMDL
MODEL 8
REMARK VINA RESULT:    -6.019      1.350      2.941
REMARK INTER + INTRA:          -7.574
REMARK INTER:                  -7.455
REMARK INTRA:                  -0.119
REMARK UNBOUND:                -0.324
REMARK SMILES O=c1c(O)c(-c2ccc(O)c(O)c2)oc2cc(O)cc(O)c12
REMARK SMILES IDX 5 1 3 2 2 3 1 4 22 5 20 6 19 7 17 8 16 9 15 10 14 11 6 12
REMARK SMILES IDX 7 13 8 14 9 15 13 16 11 17 10 18 12 20 4 22 21 24 18 26
REMARK H PARENT 10 19 12 21 4 23 21 25 18 27
REMARK Flexibility Score: inf
ROOT
ATOM      1  C   UNL     1      22.469   6.774  30.984  1.00  0.00     0.180 A 
ATOM      2  C   UNL     1      23.605   7.412  30.457  1.00  0.00     0.208 A 
ATOM      3  C   UNL     1      23.443   8.347  29.422  1.00  0.00     0.238 A 
ATOM      4  O   UNL     1      24.457   8.955  28.992  1.00  0.00    -0.285 OA
ATOM      5  C   UNL     1      22.149   8.620  28.916  1.00  0.00     0.111 A 
ATOM      6  C   UNL     1      21.872   9.519  27.842  1.00  0.00     0.134 A 
ATOM      7  C   UNL     1      20.542   9.812  27.512  1.00  0.00     0.093 A 
ATOM      8  C   UNL     1      19.482   9.188  28.174  1.00  0.00     0.123 A 
ATOM      9  C   UNL     1      19.744   8.264  29.184  1.00  0.00     0.094 A 
ATOM     10  C   UNL     1      21.058   7.979  29.559  1.00  0.00     0.146 A 
ATOM     11  O   UNL     1      21.263   7.102  30.534  1.00  0.00    -0.452 OA
ENDROOT
BRANCH   1  12
ATOM     12  C   UNL     1      22.563   5.760  32.059  1.00  0.00     0.025 A 
ATOM     13  C   UNL     1      23.095   6.076  33.318  1.00  0.00     0.016 A 
ATOM     14  C   UNL     1      23.196   5.097  34.308  1.00  0.00     0.051 A 
ATOM     15  C   UNL     1      22.782   3.784  34.058  1.00  0.00     0.157 A 
ATOM     16  C   UNL     1      22.168   4.438  31.799  1.00  0.00     0.062 A 
ATOM     17  C   UNL     1      22.264   3.449  32.785  1.00  0.00     0.158 A 
BRANCH  15  18
ATOM     18  O   UNL     1      22.906   2.853  35.092  1.00  0.00    -0.504 OA
ATOM     19  H   UNL     1      22.205   2.160  35.316  1.00  0.00     0.293 HD
ENDBRANCH  15  18
BRANCH  17  20
ATOM     20  O   UNL     1      21.840   2.159  32.459  1.00  0.00    -0.504 OA
ATOM     21  H   UNL     1      21.450   1.507  33.124  1.00  0.00     0.293 HD
ENDBRANCH  17  20
ENDBRANCH   1  12
BRANCH   2  22
ATOM     22  O   UNL     1      24.871   7.143  30.985  1.00  0.00    -0.502 OA
ATOM     23  H   UNL     1      25.004   6.745  31.906  1.00  0.00     0.293 HD
ENDBRANCH   2  22
BRANCH   6  24
ATOM     24  O   UNL     1      22.857  10.125  27.057  1.00  0.00    -0.507 OA
ATOM     25  H   UNL     1      23.193  11.067  27.183  1.00  0.00     0.293 HD
ENDBRANCH   6  24
BRANCH   8  26
ATOM     26  O   UNL     1      18.163   9.473  27.828  1.00  0.00    -0.508 OA
ATOM     27  H   UNL     1      17.385   9.139  28.383  1.00  0.00     0.293 HD
ENDBRANCH   8  26
TORSDOF 6
ENDMDL
MODEL 9
REMARK VINA RESULT:    -5.945     11.014     13.002
REMARK INTER + INTRA:          -7.485
REMARK INTER:                  -7.193
REMARK INTRA:                  -0.292
REMARK UNBOUND:                -0.324
REMARK SMILES O=c1c(O)c(-c2ccc(O)c(O)c2)oc2cc(O)cc(O)c12
REMARK SMILES IDX 5 1 3 2 2 3 1 4 22 5 20 6 19 7 17 8 16 9 15 10 14 11 6 12
REMARK SMILES IDX 7 13 8 14 9 15 13 16 11 17 10 18 12 20 4 22 21 24 18 26
REMARK H PARENT 10 19 12 21 4 23 21 25 18 27
REMARK Flexibility Score: inf
ROOT
ATOM      1  C   UNL     1      28.171   0.997  22.072  1.00  0.00     0.180 A 
ATOM      2  C   UNL     1      29.136   2.016  22.006  1.00  0.00     0.208 A 
ATOM      3  C   UNL     1      28.927   3.200  22.733  1.00  0.00     0.238 A 
ATOM      4  O   UNL     1      29.820   4.087  22.712  1.00  0.00    -0.285 OA
ATOM      5  C   UNL     1      27.751   3.354  23.504  1.00  0.00     0.111 A 
ATOM      6  C   UNL     1      27.418   4.526  24.248  1.00  0.00     0.134 A 
ATOM      7  C   UNL     1      26.291   4.518  25.081  1.00  0.00     0.093 A 
ATOM      8  C   UNL     1      25.449   3.405  25.144  1.00  0.00     0.123 A 
ATOM      9  C   UNL     1      25.734   2.278  24.376  1.00  0.00     0.094 A 
ATOM     10  C   UNL     1      26.870   2.242  23.565  1.00  0.00     0.146 A 
ATOM     11  O   UNL     1      27.110   1.145  22.857  1.00  0.00    -0.452 OA
ENDROOT
BRANCH   1  12
ATOM     12  C   UNL     1      28.309  -0.268  21.314  1.00  0.00     0.025 A 
ATOM     13  C   UNL     1      29.132  -1.309  21.772  1.00  0.00     0.016 A 
ATOM     14  C   UNL     1      29.265  -2.483  21.028  1.00  0.00     0.051 A 
ATOM     15  C   UNL     1      28.593  -2.637  19.811  1.00  0.00     0.157 A 
ATOM     16  C   UNL     1      27.652  -0.412  20.082  1.00  0.00     0.062 A 
ATOM     17  C   UNL     1      27.778  -1.585  19.329  1.00  0.00     0.158 A 
BRANCH  15  18
ATOM     18  O   UNL     1      28.766  -3.837  19.118  1.00  0.00    -0.504 OA
ATOM     19  H   UNL     1      29.396  -3.952  18.336  1.00  0.00     0.293 HD
ENDBRANCH  15  18
BRANCH  17  20
ATOM     20  O   UNL     1      27.085  -1.662  18.120  1.00  0.00    -0.504 OA
ATOM     21  H   UNL     1      27.520  -1.572  17.212  1.00  0.00     0.293 HD
ENDBRANCH  17  20
ENDBRANCH   1  12
BRANCH   2  22
ATOM     22  O   UNL     1      30.300   1.835  21.255  1.00  0.00    -0.502 OA
ATOM     23  H   UNL     1      30.504   0.973  20.765  1.00  0.00     0.293 HD
ENDBRANCH   2  22
BRANCH   6  24
ATOM     24  O   UNL     1      28.138   5.722  24.185  1.00  0.00    -0.507 OA
ATOM     25  H   UNL     1      27.902   6.561  24.692  1.00  0.00     0.293 HD
ENDBRANCH   6  24
BRANCH   8  26
ATOM     26  O   UNL     1      24.322   3.412  25.962  1.00  0.00    -0.508 OA
ATOM     27  H   UNL     1      24.207   2.743  26.713  1.00  0.00     0.293 HD
ENDBRANCH   8  26
TORSDOF 6
ENDMDL
