MODEL 1
REMARK VINA RESULT:    -5.071      0.000      0.000
REMARK INTER + INTRA:          -6.328
REMARK INTER:                  -6.108
REMARK INTRA:                  -0.220
REMARK UNBOUND:                -0.220
REMARK SMILES O=c1c(O)c(-c2ccc(O)c(O)c2)oc2cc(O)cc(O)c12
REMARK SMILES IDX 5 1 3 2 2 3 1 4 22 5 20 6 19 7 17 8 16 9 15 10 14 11 6 12
REMARK SMILES IDX 7 13 8 14 9 15 13 16 11 17 10 18 12 20 4 22 21 24 18 26
REMARK H PARENT 10 19 12 21 4 23 21 25 18 27
REMARK Flexibility Score: inf
ROOT
ATOM      1  C   UNL     1      -6.979  10.289  -8.406  1.00  0.00     0.180 A 
ATOM      2  C   UNL     1      -8.110   9.787  -7.739  1.00  0.00     0.208 A 
ATOM      3  C   UNL     1      -8.213   8.404  -7.521  1.00  0.00     0.238 A 
ATOM      4  O   UNL     1      -9.202   7.966  -6.875  1.00  0.00    -0.285 OA
ATOM      5  C   UNL     1      -7.194   7.538  -7.985  1.00  0.00     0.111 A 
ATOM      6  C   UNL     1      -7.214   6.117  -7.853  1.00  0.00     0.134 A 
ATOM      7  C   UNL     1      -6.090   5.372  -8.232  1.00  0.00     0.093 A 
ATOM      8  C   UNL     1      -4.975   5.988  -8.797  1.00  0.00     0.123 A 
ATOM      9  C   UNL     1      -4.968   7.372  -8.985  1.00  0.00     0.094 A 
ATOM     10  C   UNL     1      -6.059   8.145  -8.584  1.00  0.00     0.146 A 
ATOM     11  O   UNL     1      -6.008   9.459  -8.770  1.00  0.00    -0.452 OA
ENDROOT
BRANCH   1  12
ATOM     12  C   UNL     1      -6.811  11.731  -8.696  1.00  0.00     0.025 A 
ATOM     13  C   UNL     1      -5.760  12.438  -8.092  1.00  0.00     0.016 A 
ATOM     14  C   UNL     1      -5.569  13.795  -8.367  1.00  0.00     0.051 A 
ATOM     15  C   UNL     1      -6.415  14.461  -9.259  1.00  0.00     0.157 A 
ATOM     16  C   UNL     1      -7.648  12.397  -9.608  1.00  0.00     0.062 A 
ATOM     17  C   UNL     1      -7.458  13.758  -9.887  1.00  0.00     0.158 A 
BRANCH  15  18
ATOM     18  O   UNL     1      -6.203  15.816  -9.513  1.00  0.00    -0.504 OA
ATOM     19  H   UNL     1      -5.742  16.423  -8.846  1.00  0.00     0.293 HD
ENDBRANCH  15  18
BRANCH  17  20
ATOM     20  O   UNL     1      -8.296  14.412 -10.789  1.00  0.00    -0.504 OA
ATOM     21  H   UNL     1      -8.522  14.011 -11.692  1.00  0.00     0.293 HD
ENDBRANCH  17  20
ENDBRANCH   1  12
BRANCH   2  22
ATOM     22  O   UNL     1      -9.095  10.661  -7.270  1.00  0.00    -0.502 OA
ATOM     23  H   UNL     1      -9.169  10.924  -6.295  1.00  0.00     0.293 HD
ENDBRANCH   2  22
BRANCH   6  24
ATOM     24  O   UNL     1      -8.314   5.392  -7.386  1.00  0.00    -0.507 OA
ATOM     25  H   UNL     1      -8.379   4.971  -6.471  1.00  0.00     0.293 HD
ENDBRANCH   6  24
BRANCH   8  26
ATOM     26  O   UNL     1      -3.881   5.214  -9.178  1.00  0.00    -0.508 OA
ATOM     27  H   UNL     1      -3.118   5.604  -9.717  1.00  0.00     0.293 HD
ENDBRANCH   8  26
TORSDOF 6
ENDMDL
MODEL 2
REMARK VINA RESULT:    -5.032      2.416      7.539
REMARK INTER + INTRA:          -6.282
REMARK INTER:                  -6.074
REMARK INTRA:                  -0.208
REMARK UNBOUND:                -0.220
REMARK SMILES O=c1c(O)c(-c2ccc(O)c(O)c2)oc2cc(O)cc(O)c12
REMARK SMILES IDX 5 1 3 2 2 3 1 4 22 5 20 6 19 7 17 8 16 9 15 10 14 11 6 12
REMARK SMILES IDX 7 13 8 14 9 15 13 16 11 17 10 18 12 20 4 22 21 24 18 26
REMARK H PARENT 10 19 12 21 4 23 21 25 18 27
REMARK Flexibility Score: inf
ROOT
ATOM      1  C   UNL     1      -6.551  12.170  -8.248  1.00  0.00     0.180 A 
ATOM      2  C   UNL     1      -5.614  13.175  -7.947  1.00  0.00     0.208 A 
ATOM      3  C   UNL     1      -6.064  14.490  -7.755  1.00  0.00     0.238 A 
ATOM      4  O   UNL     1      -5.228  15.374  -7.431  1.00  0.00    -0.285 OA
ATOM      5  C   UNL     1      -7.442  14.789  -7.881  1.00  0.00     0.111 A 
ATOM      6  C   UNL     1      -8.004  16.095  -7.746  1.00  0.00     0.134 A 
ATOM      7  C   UNL     1      -9.396  16.252  -7.762  1.00  0.00     0.093 A 
ATOM      8  C   UNL     1     -10.241  15.164  -7.973  1.00  0.00     0.123 A 
ATOM      9  C   UNL     1      -9.700  13.892  -8.165  1.00  0.00     0.094 A 
ATOM     10  C   UNL     1      -8.317  13.698  -8.118  1.00  0.00     0.146 A 
ATOM     11  O   UNL     1      -7.844  12.470  -8.295  1.00  0.00    -0.452 OA
ENDROOT
BRANCH   1  12
ATOM     12  C   UNL     1      -6.150  10.766  -8.489  1.00  0.00     0.025 A 
ATOM     13  C   UNL     1      -5.411  10.447  -9.639  1.00  0.00     0.016 A 
ATOM     14  C   UNL     1      -5.004   9.131  -9.877  1.00  0.00     0.051 A 
ATOM     15  C   UNL     1      -5.315   8.119  -8.964  1.00  0.00     0.157 A 
ATOM     16  C   UNL     1      -6.445   9.750  -7.562  1.00  0.00     0.062 A 
ATOM     17  C   UNL     1      -6.036   8.429  -7.797  1.00  0.00     0.158 A 
BRANCH  15  18
ATOM     18  O   UNL     1      -4.899   6.815  -9.228  1.00  0.00    -0.504 OA
ATOM     19  H   UNL     1      -5.087   6.050  -8.591  1.00  0.00     0.293 HD
ENDBRANCH  15  18
BRANCH  17  20
ATOM     20  O   UNL     1      -6.337   7.428  -6.876  1.00  0.00    -0.504 OA
ATOM     21  H   UNL     1      -6.933   6.645  -7.119  1.00  0.00     0.293 HD
ENDBRANCH  17  20
ENDBRANCH   1  12
BRANCH   2  22
ATOM     22  O   UNL     1      -4.261  12.854  -7.805  1.00  0.00    -0.502 OA
ATOM     23  H   UNL     1      -3.520  13.488  -8.079  1.00  0.00     0.293 HD
ENDBRANCH   2  22
BRANCH   6  24
ATOM     24  O   UNL     1      -7.246  17.262  -7.624  1.00  0.00    -0.507 OA
ATOM     25  H   UNL     1      -7.138  17.791  -6.771  1.00  0.00     0.293 HD
ENDBRANCH   6  24
BRANCH   8  26
ATOM     26  O   UNL     1     -11.621  15.360  -7.998  1.00  0.00    -0.508 OA
ATOM     27  H   UNL     1     -12.046  16.186  -7.593  1.00  0.00     0.293 HD
ENDBRANCH   8  26
TORSDOF 6
ENDMDL
MODEL 3
REMARK VINA RESULT:    -4.686      3.601      6.988
REMARK INTER + INTRA:          -5.864
REMARK INTER:                  -6.170
REMARK INTRA:                   0.306
REMARK UNBOUND:                -0.220
REMARK SMILES O=c1c(O)c(-c2ccc(O)c(O)c2)oc2cc(O)cc(O)c12
REMARK SMILES IDX 5 1 3 2 2 3 1 4 22 5 20 6 19 7 17 8 16 9 15 10 14 11 6 12
REMARK SMILES IDX 7 13 8 14 9 15 13 16 11 17 10 18 12 20 4 22 21 24 18 26
REMARK H PARENT 10 19 12 21 4 23 21 25 18 27
REMARK Flexibility Score: inf
ROOT
ATOM      1  C   UNL     1      -9.667  11.717  -8.129  1.00  0.00     0.180 A 
ATOM      2  C   UNL     1     -10.251  12.983  -8.302  1.00  0.00     0.208 A 
ATOM      3  C   UNL     1      -9.419  14.098  -8.488  1.00  0.00     0.238 A 
ATOM      4  O   UNL     1      -9.949  15.221  -8.697  1.00  0.00    -0.285 OA
ATOM      5  C   UNL     1      -8.012  13.936  -8.483  1.00  0.00     0.111 A 
ATOM      6  C   UNL     1      -7.073  15.002  -8.623  1.00  0.00     0.134 A 
ATOM      7  C   UNL     1      -5.708  14.710  -8.734  1.00  0.00     0.093 A 
ATOM      8  C   UNL     1      -5.243  13.399  -8.646  1.00  0.00     0.123 A 
ATOM      9  C   UNL     1      -6.148  12.353  -8.450  1.00  0.00     0.094 A 
ATOM     10  C   UNL     1      -7.519  12.611  -8.371  1.00  0.00     0.146 A 
ATOM     11  O   UNL     1      -8.346  11.587  -8.195  1.00  0.00    -0.452 OA
ENDROOT
BRANCH   1  12
ATOM     12  C   UNL     1     -10.477  10.499  -7.903  1.00  0.00     0.025 A 
ATOM     13  C   UNL     1      -9.955   9.458  -7.120  1.00  0.00     0.016 A 
ATOM     14  C   UNL     1     -10.711   8.308  -6.875  1.00  0.00     0.051 A 
ATOM     15  C   UNL     1     -12.003   8.188  -7.396  1.00  0.00     0.157 A 
ATOM     16  C   UNL     1     -11.784  10.385  -8.410  1.00  0.00     0.062 A 
ATOM     17  C   UNL     1     -12.546   9.232  -8.164  1.00  0.00     0.158 A 
BRANCH  15  18
ATOM     18  O   UNL     1     -12.733   7.028  -7.139  1.00  0.00    -0.504 OA
ATOM     19  H   UNL     1     -13.745   7.008  -7.179  1.00  0.00     0.293 HD
ENDBRANCH  15  18
BRANCH  17  20
ATOM     20  O   UNL     1     -13.838   9.124  -8.675  1.00  0.00    -0.504 OA
ATOM     21  H   UNL     1     -14.626   9.580  -8.228  1.00  0.00     0.293 HD
ENDBRANCH  17  20
ENDBRANCH   1  12
BRANCH   2  22
ATOM     22  O   UNL     1     -11.643  13.118  -8.326  1.00  0.00    -0.502 OA
ATOM     23  H   UNL     1     -12.207  12.795  -9.103  1.00  0.00     0.293 HD
ENDBRANCH   2  22
BRANCH   6  24
ATOM     24  O   UNL     1      -7.423  16.355  -8.629  1.00  0.00    -0.507 OA
ATOM     25  H   UNL     1      -7.139  17.026  -7.930  1.00  0.00     0.293 HD
ENDBRANCH   6  24
BRANCH   8  26
ATOM     26  O   UNL     1      -3.876  13.145  -8.745  1.00  0.00    -0.508 OA
ATOM     27  H   UNL     1      -3.525  12.243  -9.042  1.00  0.00     0.293 HD
ENDBRANCH   8  26
TORSDOF 6
ENDMDL
MODEL 4
REMARK VINA RESULT:    -4.677      2.246      6.914
REMARK INTER + INTRA:          -5.854
REMARK INTER:                  -5.653
REMARK INTRA:                  -0.201
REMARK UNBOUND:                -0.220
REMARK SMILES O=c1c(O)c(-c2ccc(O)c(O)c2)oc2cc(O)cc(O)c12
REMARK SMILES IDX 5 1 3 2 2 3 1 4 22 5 20 6 19 7 17 8 16 9 15 10 14 11 6 12
REMARK SMILES IDX 7 13 8 14 9 15 13 16 11 17 10 18 12 20 4 22 21 24 18 26
REMARK H PARENT 10 19 12 21 4 23 21 25 18 27
REMARK Flexibility Score: inf
ROOT
ATOM      1  C   UNL     1      -6.989   9.980  -8.076  1.00  0.00     0.180 A 
ATOM      2  C   UNL     1      -6.338  11.117  -7.568  1.00  0.00     0.208 A 
ATOM      3  C   UNL     1      -7.066  12.308  -7.417  1.00  0.00     0.238 A 
ATOM      4  O   UNL     1      -6.492  13.307  -6.910  1.00  0.00    -0.285 OA
ATOM      5  C   UNL     1      -8.431  12.352  -7.792  1.00  0.00     0.111 A 
ATOM      6  C   UNL     1      -9.254  13.516  -7.720  1.00  0.00     0.134 A 
ATOM      7  C   UNL     1     -10.623  13.412  -7.993  1.00  0.00     0.093 A 
ATOM      8  C   UNL     1     -11.186  12.203  -8.399  1.00  0.00     0.123 A 
ATOM      9  C   UNL     1     -10.379  11.071  -8.530  1.00  0.00     0.094 A 
ATOM     10  C   UNL     1      -9.017  11.136  -8.229  1.00  0.00     0.146 A 
ATOM     11  O   UNL     1      -8.286  10.035  -8.356  1.00  0.00    -0.452 OA
ENDROOT
BRANCH   1  12
ATOM     12  C   UNL     1      -6.282   8.696  -8.287  1.00  0.00     0.025 A 
ATOM     13  C   UNL     1      -5.292   8.608  -9.278  1.00  0.00     0.016 A 
ATOM     14  C   UNL     1      -4.598   7.412  -9.480  1.00  0.00     0.051 A 
ATOM     15  C   UNL     1      -4.871   6.293  -8.688  1.00  0.00     0.157 A 
ATOM     16  C   UNL     1      -6.542   7.576  -7.478  1.00  0.00     0.062 A 
ATOM     17  C   UNL     1      -5.845   6.375  -7.678  1.00  0.00     0.158 A 
BRANCH  15  18
ATOM     18  O   UNL     1      -4.165   5.112  -8.914  1.00  0.00    -0.504 OA
ATOM     19  H   UNL     1      -4.553   4.202  -8.697  1.00  0.00     0.293 HD
ENDBRANCH  15  18
BRANCH  17  20
ATOM     20  O   UNL     1      -6.112   5.268  -6.875  1.00  0.00    -0.504 OA
ATOM     21  H   UNL     1      -5.539   4.433  -6.913  1.00  0.00     0.293 HD
ENDBRANCH  17  20
ENDBRANCH   1  12
BRANCH   2  22
ATOM     22  O   UNL     1      -4.996  11.046  -7.184  1.00  0.00    -0.502 OA
ATOM     23  H   UNL     1      -4.538  11.787  -6.666  1.00  0.00     0.293 HD
ENDBRANCH   2  22
BRANCH   6  24
ATOM     24  O   UNL     1      -8.775  14.793  -7.414  1.00  0.00    -0.507 OA
ATOM     25  H   UNL     1      -9.010  15.311  -6.580  1.00  0.00     0.293 HD
ENDBRANCH   6  24
BRANCH   8  26
ATOM     26  O   UNL     1     -12.550  12.138  -8.678  1.00  0.00    -0.508 OA
ATOM     27  H   UNL     1     -12.996  11.268  -8.943  1.00  0.00     0.293 HD
ENDBRANCH   8  26
TORSDOF 6
ENDMDL
MODEL 5
REMARK VINA RESULT:    -4.671      2.300      7.046
REMARK INTER + INTRA:          -5.847
REMARK INTER:                  -6.044
REMARK INTRA:                   0.198
REMARK UNBOUND:                -0.220
REMARK SMILES O=c1c(O)c(-c2ccc(O)c(O)c2)oc2cc(O)cc(O)c12
REMARK SMILES IDX 5 1 3 2 2 3 1 4 22 5 20 6 19 7 17 8 16 9 15 10 14 11 6 12
REMARK SMILES IDX 7 13 8 14 9 15 13 16 11 17 10 18 12 20 4 22 21 24 18 26
REMARK H PARENT 10 19 12 21 4 23 21 25 18 27
REMARK Flexibility Score: inf
ROOT
ATOM      1  C   UNL     1      -8.171  11.200  -8.156  1.00  0.00     0.180 A 
ATOM      2  C   UNL     1      -9.554  11.230  -8.404  1.00  0.00     0.208 A 
ATOM      3  C   UNL     1     -10.221  12.466  -8.395  1.00  0.00     0.238 A 
ATOM      4  O   UNL     1     -11.448  12.492  -8.672  1.00  0.00    -0.285 OA
ATOM      5  C   UNL     1      -9.500  13.653  -8.123  1.00  0.00     0.111 A 
ATOM      6  C   UNL     1     -10.080  14.956  -8.049  1.00  0.00     0.134 A 
ATOM      7  C   UNL     1      -9.251  16.074  -7.903  1.00  0.00     0.093 A 
ATOM      8  C   UNL     1      -7.871  15.934  -7.763  1.00  0.00     0.123 A 
ATOM      9  C   UNL     1      -7.298  14.661  -7.774  1.00  0.00     0.094 A 
ATOM     10  C   UNL     1      -8.096  13.529  -7.954  1.00  0.00     0.146 A 
ATOM     11  O   UNL     1      -7.511  12.337  -7.970  1.00  0.00    -0.452 OA
ENDROOT
BRANCH   1  12
ATOM     12  C   UNL     1      -7.404   9.934  -8.124  1.00  0.00     0.025 A 
ATOM     13  C   UNL     1      -7.990   8.786  -7.568  1.00  0.00     0.016 A 
ATOM     14  C   UNL     1      -7.292   7.575  -7.545  1.00  0.00     0.051 A 
ATOM     15  C   UNL     1      -6.008   7.489  -8.090  1.00  0.00     0.157 A 
ATOM     16  C   UNL     1      -6.120   9.841  -8.689  1.00  0.00     0.062 A 
ATOM     17  C   UNL     1      -5.418   8.626  -8.670  1.00  0.00     0.158 A 
BRANCH  15  18
ATOM     18  O   UNL     1      -5.334   6.269  -8.052  1.00  0.00    -0.504 OA
ATOM     19  H   UNL     1      -5.822   5.382  -8.101  1.00  0.00     0.293 HD
ENDBRANCH  15  18
BRANCH  17  20
ATOM     20  O   UNL     1      -4.144   8.544  -9.228  1.00  0.00    -0.504 OA
ATOM     21  H   UNL     1      -3.869   9.124 -10.012  1.00  0.00     0.293 HD
ENDBRANCH  17  20
ENDBRANCH   1  12
BRANCH   2  22
ATOM     22  O   UNL     1     -10.243  10.048  -8.692  1.00  0.00    -0.502 OA
ATOM     23  H   UNL     1      -9.932   9.397  -9.403  1.00  0.00     0.293 HD
ENDBRANCH   2  22
BRANCH   6  24
ATOM     24  O   UNL     1     -11.456  15.200  -8.086  1.00  0.00    -0.507 OA
ATOM     25  H   UNL     1     -12.151  14.530  -8.382  1.00  0.00     0.293 HD
ENDBRANCH   6  24
BRANCH   8  26
ATOM     26  O   UNL     1      -7.078  17.069  -7.603  1.00  0.00    -0.508 OA
ATOM     27  H   UNL     1      -6.098  17.070  -7.860  1.00  0.00     0.293 HD
ENDBRANCH   8  26
TORSDOF 6
ENDMDL
MODEL 6
REMARK VINA RESULT:    -4.649      2.398      7.059
REMARK INTER + INTRA:          -5.820
REMARK INTER:                  -5.688
REMARK INTRA:                  -0.132
REMARK UNBOUND:                -0.220
REMARK SMILES O=c1c(O)c(-c2ccc(O)c(O)c2)oc2cc(O)cc(O)c12
REMARK SMILES IDX 5 1 3 2 2 3 1 4 22 5 20 6 19 7 17 8 16 9 15 10 14 11 6 12
REMARK SMILES IDX 7 13 8 14 9 15 13 16 11 17 10 18 12 20 4 22 21 24 18 26
REMARK H PARENT 10 19 12 21 4 23 21 25 18 27
REMARK Flexibility Score: inf
ROOT
ATOM      1  C   UNL     1      -7.850  11.513  -8.445  1.00  0.00     0.180 A 
ATOM      2  C   UNL     1      -9.246  11.434  -8.595  1.00  0.00     0.208 A 
ATOM      3  C   UNL     1     -10.013  12.601  -8.446  1.00  0.00     0.238 A 
ATOM      4  O   UNL     1     -11.256  12.534  -8.636  1.00  0.00    -0.285 OA
ATOM      5  C   UNL     1      -9.379  13.826  -8.132  1.00  0.00     0.111 A 
ATOM      6  C   UNL     1     -10.062  15.062  -7.919  1.00  0.00     0.134 A 
ATOM      7  C   UNL     1      -9.323  16.238  -7.743  1.00  0.00     0.093 A 
ATOM      8  C   UNL     1      -7.930  16.215  -7.707  1.00  0.00     0.123 A 
ATOM      9  C   UNL     1      -7.252  15.003  -7.855  1.00  0.00     0.094 A 
ATOM     10  C   UNL     1      -7.961  13.819  -8.069  1.00  0.00     0.146 A 
ATOM     11  O   UNL     1      -7.278  12.689  -8.216  1.00  0.00    -0.452 OA
ENDROOT
BRANCH   1  12
ATOM     12  C   UNL     1      -6.977  10.323  -8.562  1.00  0.00     0.025 A 
ATOM     13  C   UNL     1      -5.930  10.324  -9.497  1.00  0.00     0.016 A 
ATOM     14  C   UNL     1      -5.081   9.220  -9.610  1.00  0.00     0.051 A 
ATOM     15  C   UNL     1      -5.255   8.107  -8.784  1.00  0.00     0.157 A 
ATOM     16  C   UNL     1      -7.138   9.210  -7.717  1.00  0.00     0.062 A 
ATOM     17  C   UNL     1      -6.286   8.101  -7.828  1.00  0.00     0.158 A 
BRANCH  15  18
ATOM     18  O   UNL     1      -4.394   7.018  -8.921  1.00  0.00    -0.504 OA
ATOM     19  H   UNL     1      -3.509   7.090  -9.409  1.00  0.00     0.293 HD
ENDBRANCH  15  18
BRANCH  17  20
ATOM     20  O   UNL     1      -6.455   7.001  -6.991  1.00  0.00    -0.504 OA
ATOM     21  H   UNL     1      -7.028   7.051  -6.155  1.00  0.00     0.293 HD
ENDBRANCH  17  20
ENDBRANCH   1  12
BRANCH   2  22
ATOM     22  O   UNL     1      -9.849  10.218  -8.927  1.00  0.00    -0.502 OA
ATOM     23  H   UNL     1     -10.839  10.047  -8.792  1.00  0.00     0.293 HD
ENDBRANCH   2  22
BRANCH   6  24
ATOM     24  O   UNL     1     -11.452  15.181  -7.844  1.00  0.00    -0.507 OA
ATOM     25  H   UNL     1     -12.066  15.272  -8.640  1.00  0.00     0.293 HD
ENDBRANCH   6  24
BRANCH   8  26
ATOM     26  O   UNL     1      -7.227  17.403  -7.514  1.00  0.00    -0.508 OA
ATOM     27  H   UNL     1      -6.230  17.405  -7.334  1.00  0.00     0.293 HD
ENDBRANCH   8  26
TORSDOF 6
ENDMDL
MODEL 7
REMARK VINA RESULT:    -4.531      2.917      6.880
REMARK INTER + INTRA:          -5.678
REMARK INTER:                  -5.851
REMARK INTRA:                   0.174
REMARK UNBOUND:                -0.220
REMARK SMILES O=c1c(O)c(-c2ccc(O)c(O)c2)oc2cc(O)cc(O)c12
REMARK SMILES IDX 5 1 3 2 2 3 1 4 22 5 20 6 19 7 17 8 16 9 15 10 14 11 6 12
REMARK SMILES IDX 7 13 8 14 9 15 13 16 11 17 10 18 12 20 4 22 21 24 18 26
REMARK H PARENT 10 19 12 21 4 23 21 25 18 27
REMARK Flexibility Score: inf
ROOT
ATOM      1  C   UNL     1      -8.965  10.909  -8.017  1.00  0.00     0.180 A 
ATOM      2  C   UNL     1      -7.715  10.267  -7.972  1.00  0.00     0.208 A 
ATOM      3  C   UNL     1      -6.548  11.047  -7.997  1.00  0.00     0.238 A 
ATOM      4  O   UNL     1      -5.434  10.469  -7.902  1.00  0.00    -0.285 OA
ATOM      5  C   UNL     1      -6.644  12.457  -8.083  1.00  0.00     0.111 A 
ATOM      6  C   UNL     1      -5.527  13.342  -8.155  1.00  0.00     0.134 A 
ATOM      7  C   UNL     1      -5.738  14.726  -8.104  1.00  0.00     0.093 A 
ATOM      8  C   UNL     1      -7.026  15.256  -8.050  1.00  0.00     0.123 A 
ATOM      9  C   UNL     1      -8.129  14.400  -8.039  1.00  0.00     0.094 A 
ATOM     10  C   UNL     1      -7.948  13.015  -8.052  1.00  0.00     0.146 A 
ATOM     11  O   UNL     1      -9.023  12.236  -8.029  1.00  0.00    -0.452 OA
ENDROOT
BRANCH   1  12
ATOM     12  C   UNL     1     -10.239  10.154  -8.019  1.00  0.00     0.025 A 
ATOM     13  C   UNL     1     -10.389   9.050  -7.166  1.00  0.00     0.016 A 
ATOM     14  C   UNL     1     -11.590   8.336  -7.137  1.00  0.00     0.051 A 
ATOM     15  C   UNL     1     -12.662   8.722  -7.948  1.00  0.00     0.157 A 
ATOM     16  C   UNL     1     -11.325  10.553  -8.820  1.00  0.00     0.062 A 
ATOM     17  C   UNL     1     -12.532   9.839  -8.791  1.00  0.00     0.158 A 
BRANCH  15  18
ATOM     18  O   UNL     1     -13.847   7.989  -7.900  1.00  0.00    -0.504 OA
ATOM     19  H   UNL     1     -14.752   8.417  -8.054  1.00  0.00     0.293 HD
ENDBRANCH  15  18
BRANCH  17  20
ATOM     20  O   UNL     1     -13.601  10.237  -9.591  1.00  0.00    -0.504 OA
ATOM     21  H   UNL     1     -13.831  11.216  -9.721  1.00  0.00     0.293 HD
ENDBRANCH  17  20
ENDBRANCH   1  12
BRANCH   2  22
ATOM     22  O   UNL     1      -7.644   8.875  -7.866  1.00  0.00    -0.502 OA
ATOM     23  H   UNL     1      -7.838   8.259  -8.647  1.00  0.00     0.293 HD
ENDBRANCH   2  22
BRANCH   6  24
ATOM     24  O   UNL     1      -4.203  12.919  -8.303  1.00  0.00    -0.507 OA
ATOM     25  H   UNL     1      -3.925  12.011  -8.647  1.00  0.00     0.293 HD
ENDBRANCH   6  24
BRANCH   8  26
ATOM     26  O   UNL     1      -7.200  16.639  -8.017  1.00  0.00    -0.508 OA
ATOM     27  H   UNL     1      -8.121  17.055  -7.952  1.00  0.00     0.293 HD
ENDBRANCH   8  26
TORSDOF 6
ENDMDL
