MODEL 1
REMARK VINA RESULT:    -5.256      0.000      0.000
REMARK INTER + INTRA:         -18.522
REMARK INTER:                 -13.860
REMARK INTRA:                  -4.662
REMARK UNBOUND:                -4.662
REMARK SMILES CCCCCCCCCCCCCCCCCCCCCCCCCCCCCC(=O)[O-]
REMARK SMILES IDX 16 1 17 2 18 3 19 4 20 5 21 6 22 7 23 8 24 9 25 10 26 11
REMARK SMILES IDX 27 12 28 13 29 14 30 15 31 16 32 17 15 18 14 19 13 20 12 21
REMARK SMILES IDX 11 22 10 23 9 24 8 25 7 26 6 27 5 28 4 29 3 30 2 31 1 32
REMARK H PARENT
REMARK Flexibility Score: inf
ROOT
ATOM      1  C   UNL     1      21.113   0.523 -19.126  1.00  0.00     0.000 C 
ENDROOT
BRANCH   1   2
ATOM      2  C   UNL     1      21.255  -0.856 -18.463  1.00  0.00     0.000 C 
BRANCH   2   3
ATOM      3  C   UNL     1      19.904  -1.437 -18.015  1.00  0.00     0.000 C 
BRANCH   3   4
ATOM      4  C   UNL     1      19.999  -2.218 -16.691  1.00  0.00     0.000 C 
BRANCH   4   5
ATOM      5  C   UNL     1      19.946  -1.329 -15.431  1.00  0.00     0.000 C 
BRANCH   5   6
ATOM      6  C   UNL     1      19.114  -0.053 -15.645  1.00  0.00     0.000 C 
BRANCH   6   7
ATOM      7  C   UNL     1      19.701   1.169 -14.916  1.00  0.00     0.000 C 
BRANCH   7   8
ATOM      8  C   UNL     1      20.207   2.272 -15.873  1.00  0.00     0.000 C 
BRANCH   8   9
ATOM      9  C   UNL     1      21.724   2.179 -16.123  1.00  0.00     0.000 C 
BRANCH   9  10
ATOM     10  C   UNL     1      22.459   1.396 -15.023  1.00  0.00     0.000 C 
BRANCH  10  11
ATOM     11  C   UNL     1      23.420   0.337 -15.591  1.00  0.00     0.000 C 
BRANCH  11  12
ATOM     12  C   UNL     1      23.399  -0.975 -14.788  1.00  0.00     0.000 C 
BRANCH  12  13
ATOM     13  C   UNL     1      24.805  -1.436 -14.374  1.00  0.00     0.006 C 
BRANCH  13  14
ATOM     14  C   UNL     1      25.340  -0.598 -13.204  1.00  0.00     0.053 C 
BRANCH  14  15
ATOM     15  C   UNL     1      26.547  -1.235 -12.582  1.00  0.00     0.041 C 
ATOM     16  O   UNL     1      27.349  -0.549 -11.890  1.00  0.00    -0.550 OA
ATOM     17  O   UNL     1      26.809  -2.583 -12.804  1.00  0.00    -0.550 OA
ENDBRANCH  14  15
ENDBRANCH  13  14
ENDBRANCH  12  13
ENDBRANCH  11  12
ENDBRANCH  10  11
ENDBRANCH   9  10
ENDBRANCH   8   9
ENDBRANCH   7   8
ENDBRANCH   6   7
ENDBRANCH   5   6
ENDBRANCH   4   5
ENDBRANCH   3   4
ENDBRANCH   2   3
ENDBRANCH   1   2
BRANCH   1  18
ATOM     18  C   UNL     1      19.678   0.809 -19.596  1.00  0.00     0.000 C 
BRANCH  18  19
ATOM     19  C   UNL     1      19.543   0.864 -21.128  1.00  0.00     0.000 C 
BRANCH  19  20
ATOM     20  C   UNL     1      20.882   0.737 -21.885  1.00  0.00     0.000 C 
BRANCH  20  21
ATOM     21  C   UNL     1      21.084   1.849 -22.926  1.00  0.00     0.000 C 
BRANCH  21  22
ATOM     22  C   UNL     1      21.318   1.260 -24.328  1.00  0.00     0.000 C 
BRANCH  22  23
ATOM     23  C   UNL     1      21.574  -0.256 -24.299  1.00  0.00     0.000 C 
BRANCH  23  24
ATOM     24  C   UNL     1      20.892  -0.996 -25.464  1.00  0.00    -0.000 C 
BRANCH  24  25
ATOM     25  C   UNL     1      19.358  -1.024 -25.336  1.00  0.00    -0.000 C 
BRANCH  25  26
ATOM     26  C   UNL     1      18.823  -1.549 -23.988  1.00  0.00    -0.000 C 
BRANCH  26  27
ATOM     27  C   UNL     1      17.456  -0.984 -23.558  1.00  0.00    -0.000 C 
BRANCH  27  28
ATOM     28  C   UNL     1      16.561  -0.616 -24.749  1.00  0.00    -0.000 C 
BRANCH  28  29
ATOM     29  C   UNL     1      16.058   0.830 -24.629  1.00  0.00    -0.000 C 
BRANCH  29  30
ATOM     30  C   UNL     1      17.071   1.751 -23.931  1.00  0.00    -0.000 C 
BRANCH  30  31
ATOM     31  C   UNL     1      17.948   2.525 -24.924  1.00  0.00    -0.003 C 
ATOM     32  C   UNL     1      17.231   2.713 -26.259  1.00  0.00     0.004 C 
ENDBRANCH  30  31
ENDBRANCH  29  30
ENDBRANCH  28  29
ENDBRANCH  27  28
ENDBRANCH  26  27
ENDBRANCH  25  26
ENDBRANCH  24  25
ENDBRANCH  23  24
ENDBRANCH  22  23
ENDBRANCH  21  22
ENDBRANCH  20  21
ENDBRANCH  19  20
ENDBRANCH  18  19
ENDBRANCH   1  18
TORSDOF 28
ENDMDL
MODEL 2
REMARK VINA RESULT:    -5.181      1.504      3.040
REMARK INTER + INTRA:         -18.324
REMARK INTER:                 -14.443
REMARK INTRA:                  -3.881
REMARK UNBOUND:                -4.662
REMARK SMILES CCCCCCCCCCCCCCCCCCCCCCCCCCCCCC(=O)[O-]
REMARK SMILES IDX 16 1 17 2 18 3 19 4 20 5 21 6 22 7 23 8 24 9 25 10 26 11
REMARK SMILES IDX 27 12 28 13 29 14 30 15 31 16 32 17 15 18 14 19 13 20 12 21
REMARK SMILES IDX 11 22 10 23 9 24 8 25 7 26 6 27 5 28 4 29 3 30 2 31 1 32
REMARK H PARENT
REMARK Flexibility Score: inf
ROOT
ATOM      1  C   UNL     1      19.745  -2.103 -17.246  1.00  0.00     0.000 C 
ENDROOT
BRANCH   1   2
ATOM      2  C   UNL     1      20.678  -1.864 -16.048  1.00  0.00     0.000 C 
BRANCH   2   3
ATOM      3  C   UNL     1      20.093  -0.869 -15.034  1.00  0.00     0.000 C 
BRANCH   3   4
ATOM      4  C   UNL     1      19.138   0.151 -15.680  1.00  0.00     0.000 C 
BRANCH   4   5
ATOM      5  C   UNL     1      19.506   1.623 -15.399  1.00  0.00     0.000 C 
BRANCH   5   6
ATOM      6  C   UNL     1      20.871   1.767 -14.705  1.00  0.00     0.000 C 
BRANCH   6   7
ATOM      7  C   UNL     1      21.898   2.526 -15.565  1.00  0.00     0.000 C 
BRANCH   7   8
ATOM      8  C   UNL     1      23.077   1.644 -16.036  1.00  0.00     0.000 C 
BRANCH   8   9
ATOM      9  C   UNL     1      23.679   0.810 -14.890  1.00  0.00     0.000 C 
BRANCH   9  10
ATOM     10  C   UNL     1      23.853  -0.671 -15.265  1.00  0.00     0.000 C 
BRANCH  10  11
ATOM     11  C   UNL     1      24.604  -1.471 -14.186  1.00  0.00     0.000 C 
BRANCH  11  12
ATOM     12  C   UNL     1      25.401  -0.571 -13.228  1.00  0.00     0.000 C 
BRANCH  12  13
ATOM     13  C   UNL     1      26.447  -1.351 -12.417  1.00  0.00     0.006 C 
BRANCH  13  14
ATOM     14  C   UNL     1      26.136  -1.298 -10.916  1.00  0.00     0.053 C 
BRANCH  14  15
ATOM     15  C   UNL     1      26.832  -0.147 -10.253  1.00  0.00     0.041 C 
ATOM     16  O   UNL     1      27.934  -0.317  -9.662  1.00  0.00    -0.550 OA
ATOM     17  O   UNL     1      26.238   1.111 -10.251  1.00  0.00    -0.550 OA
ENDBRANCH  14  15
ENDBRANCH  13  14
ENDBRANCH  12  13
ENDBRANCH  11  12
ENDBRANCH  10  11
ENDBRANCH   9  10
ENDBRANCH   8   9
ENDBRANCH   7   8
ENDBRANCH   6   7
ENDBRANCH   5   6
ENDBRANCH   4   5
ENDBRANCH   3   4
ENDBRANCH   2   3
ENDBRANCH   1   2
BRANCH   1  18
ATOM     18  C   UNL     1      20.413  -1.773 -18.591  1.00  0.00     0.000 C 
BRANCH  18  19
ATOM     19  C   UNL     1      21.460  -0.649 -18.486  1.00  0.00     0.000 C 
BRANCH  19  20
ATOM     20  C   UNL     1      20.927   0.747 -18.872  1.00  0.00     0.000 C 
BRANCH  20  21
ATOM     21  C   UNL     1      19.855   0.691 -19.972  1.00  0.00     0.000 C 
BRANCH  21  22
ATOM     22  C   UNL     1      20.494   0.751 -21.370  1.00  0.00     0.000 C 
BRANCH  22  23
ATOM     23  C   UNL     1      19.491   0.444 -22.495  1.00  0.00     0.000 C 
BRANCH  23  24
ATOM     24  C   UNL     1      18.743   1.697 -22.983  1.00  0.00    -0.000 C 
BRANCH  24  25
ATOM     25  C   UNL     1      17.222   1.609 -22.760  1.00  0.00    -0.000 C 
BRANCH  25  26
ATOM     26  C   UNL     1      16.597   0.228 -23.050  1.00  0.00    -0.000 C 
BRANCH  26  27
ATOM     27  C   UNL     1      16.219  -0.024 -24.521  1.00  0.00    -0.000 C 
BRANCH  27  28
ATOM     28  C   UNL     1      15.940   1.269 -25.298  1.00  0.00    -0.000 C 
BRANCH  28  29
ATOM     29  C   UNL     1      16.951   1.450 -26.440  1.00  0.00    -0.000 C 
BRANCH  29  30
ATOM     30  C   UNL     1      17.277   0.130 -27.155  1.00  0.00    -0.000 C 
BRANCH  30  31
ATOM     31  C   UNL     1      18.777  -0.036 -27.436  1.00  0.00    -0.003 C 
ATOM     32  C   UNL     1      19.599   0.161 -26.164  1.00  0.00     0.004 C 
ENDBRANCH  30  31
ENDBRANCH  29  30
ENDBRANCH  28  29
ENDBRANCH  27  28
ENDBRANCH  26  27
ENDBRANCH  25  26
ENDBRANCH  24  25
ENDBRANCH  23  24
ENDBRANCH  22  23
ENDBRANCH  21  22
ENDBRANCH  20  21
ENDBRANCH  19  20
ENDBRANCH  18  19
ENDBRANCH   1  18
TORSDOF 28
ENDMDL
MODEL 3
REMARK VINA RESULT:    -5.180      4.172      9.514
REMARK INTER + INTRA:         -18.321
REMARK INTER:                 -12.871
REMARK INTRA:                  -5.450
REMARK UNBOUND:                -4.662
REMARK SMILES CCCCCCCCCCCCCCCCCCCCCCCCCCCCCC(=O)[O-]
REMARK SMILES IDX 16 1 17 2 18 3 19 4 20 5 21 6 22 7 23 8 24 9 25 10 26 11
REMARK SMILES IDX 27 12 28 13 29 14 30 15 31 16 32 17 15 18 14 19 13 20 12 21
REMARK SMILES IDX 11 22 10 23 9 24 8 25 7 26 6 27 5 28 4 29 3 30 2 31 1 32
REMARK H PARENT
REMARK Flexibility Score: inf
ROOT
ATOM      1  C   UNL     1      22.519   1.145 -23.638  1.00  0.00     0.000 C 
ENDROOT
BRANCH   1   2
ATOM      2  C   UNL     1      21.808   1.798 -24.834  1.00  0.00     0.000 C 
BRANCH   2   3
ATOM      3  C   UNL     1      20.470   2.444 -24.444  1.00  0.00     0.000 C 
BRANCH   3   4
ATOM      4  C   UNL     1      19.600   1.531 -23.562  1.00  0.00     0.000 C 
BRANCH   4   5
ATOM      5  C   UNL     1      18.311   2.200 -23.042  1.00  0.00     0.000 C 
BRANCH   5   6
ATOM      6  C   UNL     1      17.382   1.209 -22.320  1.00  0.00     0.000 C 
BRANCH   6   7
ATOM      7  C   UNL     1      16.699   0.223 -23.285  1.00  0.00     0.000 C 
BRANCH   7   8
ATOM      8  C   UNL     1      16.179   0.889 -24.578  1.00  0.00     0.000 C 
BRANCH   8   9
ATOM      9  C   UNL     1      16.561   0.094 -25.841  1.00  0.00     0.000 C 
BRANCH   9  10
ATOM     10  C   UNL     1      17.444   0.905 -26.805  1.00  0.00     0.000 C 
BRANCH  10  11
ATOM     11  C   UNL     1      18.880   0.360 -26.894  1.00  0.00     0.000 C 
BRANCH  11  12
ATOM     12  C   UNL     1      18.950  -1.162 -26.690  1.00  0.00     0.000 C 
BRANCH  12  13
ATOM     13  C   UNL     1      19.711  -1.553 -25.414  1.00  0.00     0.006 C 
BRANCH  13  14
ATOM     14  C   UNL     1      18.846  -2.432 -24.501  1.00  0.00     0.053 C 
BRANCH  14  15
ATOM     15  C   UNL     1      19.097  -3.890 -24.746  1.00  0.00     0.041 C 
ATOM     16  O   UNL     1      18.172  -4.735 -24.593  1.00  0.00    -0.550 OA
ATOM     17  O   UNL     1      20.370  -4.322 -25.103  1.00  0.00    -0.550 OA
ENDBRANCH  14  15
ENDBRANCH  13  14
ENDBRANCH  12  13
ENDBRANCH  11  12
ENDBRANCH  10  11
ENDBRANCH   9  10
ENDBRANCH   8   9
ENDBRANCH   7   8
ENDBRANCH   6   7
ENDBRANCH   5   6
ENDBRANCH   4   5
ENDBRANCH   3   4
ENDBRANCH   2   3
ENDBRANCH   1   2
BRANCH   1  18
ATOM     18  C   UNL     1      23.229   2.170 -22.740  1.00  0.00     0.000 C 
BRANCH  18  19
ATOM     19  C   UNL     1      22.917   1.981 -21.244  1.00  0.00     0.000 C 
BRANCH  19  20
ATOM     20  C   UNL     1      21.686   2.771 -20.751  1.00  0.00     0.000 C 
BRANCH  20  21
ATOM     21  C   UNL     1      20.623   1.870 -20.103  1.00  0.00     0.000 C 
BRANCH  21  22
ATOM     22  C   UNL     1      21.200   0.484 -19.771  1.00  0.00     0.000 C 
BRANCH  22  23
ATOM     23  C   UNL     1      20.113  -0.539 -19.400  1.00  0.00     0.000 C 
BRANCH  23  24
ATOM     24  C   UNL     1      20.662  -1.715 -18.572  1.00  0.00    -0.000 C 
BRANCH  24  25
ATOM     25  C   UNL     1      19.742  -2.101 -17.399  1.00  0.00    -0.000 C 
BRANCH  25  26
ATOM     26  C   UNL     1      20.280  -1.739 -15.999  1.00  0.00    -0.000 C 
BRANCH  26  27
ATOM     27  C   UNL     1      21.599  -0.945 -15.989  1.00  0.00    -0.000 C 
BRANCH  27  28
ATOM     28  C   UNL     1      21.471   0.417 -15.294  1.00  0.00    -0.000 C 
BRANCH  28  29
ATOM     29  C   UNL     1      21.405   1.553 -16.325  1.00  0.00    -0.000 C 
BRANCH  29  30
ATOM     30  C   UNL     1      20.134   2.406 -16.183  1.00  0.00    -0.000 C 
BRANCH  30  31
ATOM     31  C   UNL     1      18.877   1.681 -16.682  1.00  0.00    -0.003 C 
ATOM     32  C   UNL     1      17.961   1.306 -15.519  1.00  0.00     0.004 C 
ENDBRANCH  30  31
ENDBRANCH  29  30
ENDBRANCH  28  29
ENDBRANCH  27  28
ENDBRANCH  26  27
ENDBRANCH  25  26
ENDBRANCH  24  25
ENDBRANCH  23  24
ENDBRANCH  22  23
ENDBRANCH  21  22
ENDBRANCH  20  21
ENDBRANCH  19  20
ENDBRANCH  18  19
ENDBRANCH   1  18
TORSDOF 28
ENDMDL
MODEL 4
REMARK VINA RESULT:    -5.164      4.564     11.426
REMARK INTER + INTRA:         -18.279
REMARK INTER:                 -14.722
REMARK INTRA:                  -3.557
REMARK UNBOUND:                -4.662
REMARK SMILES CCCCCCCCCCCCCCCCCCCCCCCCCCCCCC(=O)[O-]
REMARK SMILES IDX 16 1 17 2 18 3 19 4 20 5 21 6 22 7 23 8 24 9 25 10 26 11
REMARK SMILES IDX 27 12 28 13 29 14 30 15 31 16 32 17 15 18 14 19 13 20 12 21
REMARK SMILES IDX 11 22 10 23 9 24 8 25 7 26 6 27 5 28 4 29 3 30 2 31 1 32
REMARK H PARENT
REMARK Flexibility Score: inf
ROOT
ATOM      1  C   UNL     1      19.704  -2.371 -17.484  1.00  0.00     0.000 C 
ENDROOT
BRANCH   1   2
ATOM      2  C   UNL     1      20.090  -1.844 -18.875  1.00  0.00     0.000 C 
BRANCH   2   3
ATOM      3  C   UNL     1      20.943  -0.567 -18.806  1.00  0.00     0.000 C 
BRANCH   3   4
ATOM      4  C   UNL     1      20.158   0.698 -19.197  1.00  0.00     0.000 C 
BRANCH   4   5
ATOM      5  C   UNL     1      21.041   1.944 -19.417  1.00  0.00     0.000 C 
BRANCH   5   6
ATOM      6  C   UNL     1      21.531   2.069 -20.870  1.00  0.00     0.000 C 
BRANCH   6   7
ATOM      7  C   UNL     1      20.420   1.792 -21.899  1.00  0.00     0.000 C 
BRANCH   7   8
ATOM      8  C   UNL     1      20.711   0.575 -22.805  1.00  0.00     0.000 C 
BRANCH   8   9
ATOM      9  C   UNL     1      19.429  -0.019 -23.417  1.00  0.00     0.000 C 
BRANCH   9  10
ATOM     10  C   UNL     1      18.303  -0.189 -22.383  1.00  0.00     0.000 C 
BRANCH  10  11
ATOM     11  C   UNL     1      16.948   0.334 -22.892  1.00  0.00     0.000 C 
BRANCH  11  12
ATOM     12  C   UNL     1      17.044   1.746 -23.492  1.00  0.00     0.000 C 
BRANCH  12  13
ATOM     13  C   UNL     1      16.440   1.831 -24.902  1.00  0.00     0.006 C 
BRANCH  13  14
ATOM     14  C   UNL     1      17.531   1.755 -25.978  1.00  0.00     0.053 C 
BRANCH  14  15
ATOM     15  C   UNL     1      17.423   0.492 -26.779  1.00  0.00     0.041 C 
ATOM     16  O   UNL     1      18.084   0.349 -27.844  1.00  0.00    -0.550 OA
ATOM     17  O   UNL     1      16.555  -0.514 -26.369  1.00  0.00    -0.550 OA
ENDBRANCH  14  15
ENDBRANCH  13  14
ENDBRANCH  12  13
ENDBRANCH  11  12
ENDBRANCH  10  11
ENDBRANCH   9  10
ENDBRANCH   8   9
ENDBRANCH   7   8
ENDBRANCH   6   7
ENDBRANCH   5   6
ENDBRANCH   4   5
ENDBRANCH   3   4
ENDBRANCH   2   3
ENDBRANCH   1   2
BRANCH   1  18
ATOM     18  C   UNL     1      20.590  -1.797 -16.366  1.00  0.00     0.000 C 
BRANCH  18  19
ATOM     19  C   UNL     1      19.782  -1.133 -15.236  1.00  0.00     0.000 C 
BRANCH  19  20
ATOM     20  C   UNL     1      19.067   0.170 -15.652  1.00  0.00     0.000 C 
BRANCH  20  21
ATOM     21  C   UNL     1      19.591   1.402 -14.898  1.00  0.00     0.000 C 
BRANCH  21  22
ATOM     22  C   UNL     1      20.728   2.085 -15.676  1.00  0.00     0.000 C 
BRANCH  22  23
ATOM     23  C   UNL     1      22.095   1.929 -14.989  1.00  0.00     0.000 C 
BRANCH  23  24
ATOM     24  C   UNL     1      23.057   1.022 -15.778  1.00  0.00    -0.000 C 
BRANCH  24  25
ATOM     25  C   UNL     1      23.297  -0.335 -15.090  1.00  0.00    -0.000 C 
BRANCH  25  26
ATOM     26  C   UNL     1      24.576  -0.415 -14.230  1.00  0.00    -0.000 C 
BRANCH  26  27
ATOM     27  C   UNL     1      25.344  -1.746 -14.320  1.00  0.00    -0.000 C 
BRANCH  27  28
ATOM     28  C   UNL     1      26.369  -1.922 -13.191  1.00  0.00    -0.000 C 
BRANCH  28  29
ATOM     29  C   UNL     1      26.027  -1.019 -11.997  1.00  0.00    -0.000 C 
BRANCH  29  30
ATOM     30  C   UNL     1      26.338  -1.683 -10.646  1.00  0.00    -0.000 C 
BRANCH  30  31
ATOM     31  C   UNL     1      26.516  -0.663  -9.514  1.00  0.00    -0.003 C 
ATOM     32  C   UNL     1      26.658   0.753 -10.067  1.00  0.00     0.004 C 
ENDBRANCH  30  31
ENDBRANCH  29  30
ENDBRANCH  28  29
ENDBRANCH  27  28
ENDBRANCH  26  27
ENDBRANCH  25  26
ENDBRANCH  24  25
ENDBRANCH  23  24
ENDBRANCH  22  23
ENDBRANCH  21  22
ENDBRANCH  20  21
ENDBRANCH  19  20
ENDBRANCH  18  19
ENDBRANCH   1  18
TORSDOF 28
ENDMDL
MODEL 5
REMARK VINA RESULT:    -5.143      1.127      2.726
REMARK INTER + INTRA:         -18.223
REMARK INTER:                 -14.145
REMARK INTRA:                  -4.077
REMARK UNBOUND:                -4.662
REMARK SMILES CCCCCCCCCCCCCCCCCCCCCCCCCCCCCC(=O)[O-]
REMARK SMILES IDX 16 1 17 2 18 3 19 4 20 5 21 6 22 7 23 8 24 9 25 10 26 11
REMARK SMILES IDX 27 12 28 13 29 14 30 15 31 16 32 17 15 18 14 19 13 20 12 21
REMARK SMILES IDX 11 22 10 23 9 24 8 25 7 26 6 27 5 28 4 29 3 30 2 31 1 32
REMARK H PARENT
REMARK Flexibility Score: inf
ROOT
ATOM      1  C   UNL     1      20.474  -1.921 -16.520  1.00  0.00     0.000 C 
ENDROOT
BRANCH   1   2
ATOM      2  C   UNL     1      20.072  -1.144 -15.257  1.00  0.00     0.000 C 
BRANCH   2   3
ATOM      3  C   UNL     1      19.140   0.040 -15.563  1.00  0.00     0.000 C 
BRANCH   3   4
ATOM      4  C   UNL     1      19.363   1.235 -14.618  1.00  0.00     0.000 C 
BRANCH   4   5
ATOM      5  C   UNL     1      19.498   2.591 -15.341  1.00  0.00     0.000 C 
BRANCH   5   6
ATOM      6  C   UNL     1      20.294   2.483 -16.653  1.00  0.00     0.000 C 
BRANCH   6   7
ATOM      7  C   UNL     1      21.812   2.630 -16.441  1.00  0.00     0.000 C 
BRANCH   7   8
ATOM      8  C   UNL     1      22.580   1.294 -16.554  1.00  0.00     0.000 C 
BRANCH   8   9
ATOM      9  C   UNL     1      23.149   0.829 -15.201  1.00  0.00     0.000 C 
BRANCH   9  10
ATOM     10  C   UNL     1      23.693  -0.609 -15.251  1.00  0.00     0.000 C 
BRANCH  10  11
ATOM     11  C   UNL     1      24.623  -0.932 -14.068  1.00  0.00     0.000 C 
BRANCH  11  12
ATOM     12  C   UNL     1      25.337   0.314 -13.517  1.00  0.00     0.000 C 
BRANCH  12  13
ATOM     13  C   UNL     1      26.425  -0.034 -12.490  1.00  0.00     0.006 C 
BRANCH  13  14
ATOM     14  C   UNL     1      26.138  -1.382 -11.814  1.00  0.00     0.053 C 
BRANCH  14  15
ATOM     15  C   UNL     1      26.054  -1.240 -10.324  1.00  0.00     0.041 C 
ATOM     16  O   UNL     1      25.461  -2.110  -9.629  1.00  0.00    -0.550 OA
ATOM     17  O   UNL     1      26.597  -0.119  -9.705  1.00  0.00    -0.550 OA
ENDBRANCH  14  15
ENDBRANCH  13  14
ENDBRANCH  12  13
ENDBRANCH  11  12
ENDBRANCH  10  11
ENDBRANCH   9  10
ENDBRANCH   8   9
ENDBRANCH   7   8
ENDBRANCH   6   7
ENDBRANCH   5   6
ENDBRANCH   4   5
ENDBRANCH   3   4
ENDBRANCH   2   3
ENDBRANCH   1   2
BRANCH   1  18
ATOM     18  C   UNL     1      19.724  -1.441 -17.774  1.00  0.00     0.000 C 
BRANCH  18  19
ATOM     19  C   UNL     1      20.661  -0.887 -18.863  1.00  0.00     0.000 C 
BRANCH  19  20
ATOM     20  C   UNL     1      20.096   0.332 -19.622  1.00  0.00     0.000 C 
BRANCH  20  21
ATOM     21  C   UNL     1      20.104   0.139 -21.147  1.00  0.00     0.000 C 
BRANCH  21  22
ATOM     22  C   UNL     1      19.726   1.441 -21.872  1.00  0.00     0.000 C 
BRANCH  22  23
ATOM     23  C   UNL     1      20.529   1.655 -23.166  1.00  0.00     0.000 C 
BRANCH  23  24
ATOM     24  C   UNL     1      21.502   0.499 -23.460  1.00  0.00    -0.000 C 
BRANCH  24  25
ATOM     25  C   UNL     1      21.361  -0.051 -24.891  1.00  0.00    -0.000 C 
BRANCH  25  26
ATOM     26  C   UNL     1      20.539  -1.351 -25.015  1.00  0.00    -0.000 C 
BRANCH  26  27
ATOM     27  C   UNL     1      19.038  -1.153 -25.294  1.00  0.00    -0.000 C 
BRANCH  27  28
ATOM     28  C   UNL     1      18.163  -1.402 -24.059  1.00  0.00    -0.000 C 
BRANCH  28  29
ATOM     29  C   UNL     1      16.765  -0.793 -24.247  1.00  0.00    -0.000 C 
BRANCH  29  30
ATOM     30  C   UNL     1      16.566   0.492 -23.429  1.00  0.00    -0.000 C 
BRANCH  30  31
ATOM     31  C   UNL     1      16.905   1.759 -24.228  1.00  0.00    -0.003 C 
ATOM     32  C   UNL     1      15.973   1.918 -25.427  1.00  0.00     0.004 C 
ENDBRANCH  30  31
ENDBRANCH  29  30
ENDBRANCH  28  29
ENDBRANCH  27  28
ENDBRANCH  26  27
ENDBRANCH  25  26
ENDBRANCH  24  25
ENDBRANCH  23  24
ENDBRANCH  22  23
ENDBRANCH  21  22
ENDBRANCH  20  21
ENDBRANCH  19  20
ENDBRANCH  18  19
ENDBRANCH   1  18
TORSDOF 28
ENDMDL
MODEL 6
REMARK VINA RESULT:    -5.139      3.130      4.552
REMARK INTER + INTRA:         -18.213
REMARK INTER:                 -14.118
REMARK INTRA:                  -4.094
REMARK UNBOUND:                -4.662
REMARK SMILES CCCCCCCCCCCCCCCCCCCCCCCCCCCCCC(=O)[O-]
REMARK SMILES IDX 16 1 17 2 18 3 19 4 20 5 21 6 22 7 23 8 24 9 25 10 26 11
REMARK SMILES IDX 27 12 28 13 29 14 30 15 31 16 32 17 15 18 14 19 13 20 12 21
REMARK SMILES IDX 11 22 10 23 9 24 8 25 7 26 6 27 5 28 4 29 3 30 2 31 1 32
REMARK H PARENT
REMARK Flexibility Score: inf
ROOT
ATOM      1  C   UNL     1      20.442   0.716 -21.161  1.00  0.00     0.000 C 
ENDROOT
BRANCH   1   2
ATOM      2  C   UNL     1      19.778   0.166 -19.889  1.00  0.00     0.000 C 
BRANCH   2   3
ATOM      3  C   UNL     1      20.744  -0.666 -19.031  1.00  0.00     0.000 C 
BRANCH   3   4
ATOM      4  C   UNL     1      20.188  -2.059 -18.685  1.00  0.00     0.000 C 
BRANCH   4   5
ATOM      5  C   UNL     1      19.766  -2.219 -17.210  1.00  0.00     0.000 C 
BRANCH   5   6
ATOM      6  C   UNL     1      20.156  -1.005 -16.350  1.00  0.00     0.000 C 
BRANCH   6   7
ATOM      7  C   UNL     1      20.972  -1.395 -15.104  1.00  0.00     0.000 C 
BRANCH   7   8
ATOM      8  C   UNL     1      22.470  -1.034 -15.212  1.00  0.00     0.000 C 
BRANCH   8   9
ATOM      9  C   UNL     1      22.701   0.292 -15.960  1.00  0.00     0.000 C 
BRANCH   9  10
ATOM     10  C   UNL     1      22.739   1.505 -15.015  1.00  0.00     0.000 C 
BRANCH  10  11
ATOM     11  C   UNL     1      21.557   2.465 -15.237  1.00  0.00     0.000 C 
BRANCH  11  12
ATOM     12  C   UNL     1      21.222   2.660 -16.725  1.00  0.00     0.000 C 
BRANCH  12  13
ATOM     13  C   UNL     1      19.734   2.427 -17.030  1.00  0.00     0.006 C 
BRANCH  13  14
ATOM     14  C   UNL     1      18.866   2.699 -15.794  1.00  0.00     0.053 C 
BRANCH  14  15
ATOM     15  C   UNL     1      17.642   1.832 -15.783  1.00  0.00     0.041 C 
ATOM     16  O   UNL     1      17.539   0.879 -14.962  1.00  0.00    -0.550 OA
ATOM     17  O   UNL     1      16.631   2.052 -16.712  1.00  0.00    -0.550 OA
ENDBRANCH  14  15
ENDBRANCH  13  14
ENDBRANCH  12  13
ENDBRANCH  11  12
ENDBRANCH  10  11
ENDBRANCH   9  10
ENDBRANCH   8   9
ENDBRANCH   7   8
ENDBRANCH   6   7
ENDBRANCH   5   6
ENDBRANCH   4   5
ENDBRANCH   3   4
ENDBRANCH   2   3
ENDBRANCH   1   2
BRANCH   1  18
ATOM     18  C   UNL     1      21.800   1.379 -20.881  1.00  0.00     0.000 C 
BRANCH  18  19
ATOM     19  C   UNL     1      21.976   2.727 -21.604  1.00  0.00     0.000 C 
BRANCH  19  20
ATOM     20  C   UNL     1      23.260   2.824 -22.455  1.00  0.00     0.000 C 
BRANCH  20  21
ATOM     21  C   UNL     1      24.298   1.752 -22.088  1.00  0.00     0.000 C 
BRANCH  21  22
ATOM     22  C   UNL     1      24.527   0.780 -23.258  1.00  0.00     0.000 C 
BRANCH  22  23
ATOM     23  C   UNL     1      24.116   1.376 -24.615  1.00  0.00     0.000 C 
BRANCH  23  24
ATOM     24  C   UNL     1      23.038   0.541 -25.328  1.00  0.00    -0.000 C 
BRANCH  24  25
ATOM     25  C   UNL     1      22.131  -0.227 -24.348  1.00  0.00    -0.000 C 
BRANCH  25  26
ATOM     26  C   UNL     1      21.034  -1.087 -25.009  1.00  0.00    -0.000 C 
BRANCH  26  27
ATOM     27  C   UNL     1      19.864  -0.298 -25.625  1.00  0.00    -0.000 C 
BRANCH  27  28
ATOM     28  C   UNL     1      18.502  -0.960 -25.379  1.00  0.00    -0.000 C 
BRANCH  28  29
ATOM     29  C   UNL     1      17.361   0.051 -25.563  1.00  0.00    -0.000 C 
BRANCH  29  30
ATOM     30  C   UNL     1      16.290  -0.061 -24.467  1.00  0.00    -0.000 C 
BRANCH  30  31
ATOM     31  C   UNL     1      16.869   0.111 -23.056  1.00  0.00    -0.003 C 
ATOM     32  C   UNL     1      17.187   1.577 -22.768  1.00  0.00     0.004 C 
ENDBRANCH  30  31
ENDBRANCH  29  30
ENDBRANCH  28  29
ENDBRANCH  27  28
ENDBRANCH  26  27
ENDBRANCH  25  26
ENDBRANCH  24  25
ENDBRANCH  23  24
ENDBRANCH  22  23
ENDBRANCH  21  22
ENDBRANCH  20  21
ENDBRANCH  19  20
ENDBRANCH  18  19
ENDBRANCH   1  18
TORSDOF 28
ENDMDL
MODEL 7
REMARK VINA RESULT:    -5.102      3.137      4.659
REMARK INTER + INTRA:         -18.116
REMARK INTER:                 -14.230
REMARK INTRA:                  -3.886
REMARK UNBOUND:                -4.662
REMARK SMILES CCCCCCCCCCCCCCCCCCCCCCCCCCCCCC(=O)[O-]
REMARK SMILES IDX 16 1 17 2 18 3 19 4 20 5 21 6 22 7 23 8 24 9 25 10 26 11
REMARK SMILES IDX 27 12 28 13 29 14 30 15 31 16 32 17 15 18 14 19 13 20 12 21
REMARK SMILES IDX 11 22 10 23 9 24 8 25 7 26 6 27 5 28 4 29 3 30 2 31 1 32
REMARK H PARENT
REMARK Flexibility Score: inf
ROOT
ATOM      1  C   UNL     1      21.592   1.458 -21.883  1.00  0.00     0.000 C 
ENDROOT
BRANCH   1   2
ATOM      2  C   UNL     1      20.740   1.535 -20.606  1.00  0.00     0.000 C 
BRANCH   2   3
ATOM      3  C   UNL     1      21.198   0.538 -19.530  1.00  0.00     0.000 C 
BRANCH   3   4
ATOM      4  C   UNL     1      20.074  -0.413 -19.080  1.00  0.00     0.000 C 
BRANCH   4   5
ATOM      5  C   UNL     1      20.577  -1.740 -18.476  1.00  0.00     0.000 C 
BRANCH   5   6
ATOM      6  C   UNL     1      19.693  -2.232 -17.317  1.00  0.00     0.000 C 
BRANCH   6   7
ATOM      7  C   UNL     1      20.030  -1.546 -15.980  1.00  0.00     0.000 C 
BRANCH   7   8
ATOM      8  C   UNL     1      21.508  -1.708 -15.560  1.00  0.00     0.000 C 
BRANCH   8   9
ATOM      9  C   UNL     1      22.116  -0.394 -15.037  1.00  0.00     0.000 C 
BRANCH   9  10
ATOM     10  C   UNL     1      22.567   0.542 -16.171  1.00  0.00     0.000 C 
BRANCH  10  11
ATOM     11  C   UNL     1      22.148   2.003 -15.934  1.00  0.00     0.000 C 
BRANCH  11  12
ATOM     12  C   UNL     1      21.140   2.152 -14.782  1.00  0.00     0.000 C 
BRANCH  12  13
ATOM     13  C   UNL     1      19.828   2.815 -15.228  1.00  0.00     0.006 C 
BRANCH  13  14
ATOM     14  C   UNL     1      19.139   1.997 -16.328  1.00  0.00     0.053 C 
BRANCH  14  15
ATOM     15  C   UNL     1      17.749   1.600 -15.928  1.00  0.00     0.041 C 
ATOM     16  O   UNL     1      17.562   0.809 -14.963  1.00  0.00    -0.550 OA
ATOM     17  O   UNL     1      16.660   2.075 -16.650  1.00  0.00    -0.550 OA
ENDBRANCH  14  15
ENDBRANCH  13  14
ENDBRANCH  12  13
ENDBRANCH  11  12
ENDBRANCH  10  11
ENDBRANCH   9  10
ENDBRANCH   8   9
ENDBRANCH   7   8
ENDBRANCH   6   7
ENDBRANCH   5   6
ENDBRANCH   4   5
ENDBRANCH   3   4
ENDBRANCH   2   3
ENDBRANCH   1   2
BRANCH   1  18
ATOM     18  C   UNL     1      22.986   2.082 -21.703  1.00  0.00     0.000 C 
BRANCH  18  19
ATOM     19  C   UNL     1      24.091   1.320 -22.457  1.00  0.00     0.000 C 
BRANCH  19  20
ATOM     20  C   UNL     1      24.032   1.475 -23.991  1.00  0.00     0.000 C 
BRANCH  20  21
ATOM     21  C   UNL     1      23.616   0.178 -24.703  1.00  0.00     0.000 C 
BRANCH  21  22
ATOM     22  C   UNL     1      22.127   0.211 -25.087  1.00  0.00     0.000 C 
BRANCH  22  23
ATOM     23  C   UNL     1      21.412  -1.122 -24.806  1.00  0.00     0.000 C 
BRANCH  23  24
ATOM     24  C   UNL     1      20.216  -1.364 -25.745  1.00  0.00    -0.000 C 
BRANCH  24  25
ATOM     25  C   UNL     1      19.994  -0.209 -26.738  1.00  0.00    -0.000 C 
BRANCH  25  26
ATOM     26  C   UNL     1      18.686  -0.289 -27.553  1.00  0.00    -0.000 C 
BRANCH  26  27
ATOM     27  C   UNL     1      17.456   0.354 -26.885  1.00  0.00    -0.000 C 
BRANCH  27  28
ATOM     28  C   UNL     1      17.826   1.472 -25.903  1.00  0.00    -0.000 C 
BRANCH  28  29
ATOM     29  C   UNL     1      16.635   1.823 -24.999  1.00  0.00    -0.000 C 
BRANCH  29  30
ATOM     30  C   UNL     1      16.980   1.730 -23.504  1.00  0.00    -0.000 C 
BRANCH  30  31
ATOM     31  C   UNL     1      16.777   0.319 -22.937  1.00  0.00    -0.003 C 
ATOM     32  C   UNL     1      18.116  -0.379 -22.708  1.00  0.00     0.004 C 
ENDBRANCH  30  31
ENDBRANCH  29  30
ENDBRANCH  28  29
ENDBRANCH  27  28
ENDBRANCH  26  27
ENDBRANCH  25  26
ENDBRANCH  24  25
ENDBRANCH  23  24
ENDBRANCH  22  23
ENDBRANCH  21  22
ENDBRANCH  20  21
ENDBRANCH  19  20
ENDBRANCH  18  19
ENDBRANCH   1  18
TORSDOF 28
ENDMDL
MODEL 8
REMARK VINA RESULT:    -5.095      3.613      6.485
REMARK INTER + INTRA:         -18.098
REMARK INTER:                 -13.251
REMARK INTRA:                  -4.847
REMARK UNBOUND:                -4.662
REMARK SMILES CCCCCCCCCCCCCCCCCCCCCCCCCCCCCC(=O)[O-]
REMARK SMILES IDX 16 1 17 2 18 3 19 4 20 5 21 6 22 7 23 8 24 9 25 10 26 11
REMARK SMILES IDX 27 12 28 13 29 14 30 15 31 16 32 17 15 18 14 19 13 20 12 21
REMARK SMILES IDX 11 22 10 23 9 24 8 25 7 26 6 27 5 28 4 29 3 30 2 31 1 32
REMARK H PARENT
REMARK Flexibility Score: inf
ROOT
ATOM      1  C   UNL     1      16.608   2.374 -25.254  1.00  0.00     0.000 C 
ENDROOT
BRANCH   1   2
ATOM      2  C   UNL     1      18.091   2.660 -25.540  1.00  0.00     0.000 C 
BRANCH   2   3
ATOM      3  C   UNL     1      18.904   2.897 -24.258  1.00  0.00     0.000 C 
BRANCH   3   4
ATOM      4  C   UNL     1      19.962   1.807 -24.011  1.00  0.00     0.000 C 
BRANCH   4   5
ATOM      5  C   UNL     1      20.817   2.035 -22.747  1.00  0.00     0.000 C 
BRANCH   5   6
ATOM      6  C   UNL     1      20.766   0.841 -21.779  1.00  0.00     0.000 C 
BRANCH   6   7
ATOM      7  C   UNL     1      19.469   0.802 -20.950  1.00  0.00     0.000 C 
BRANCH   7   8
ATOM      8  C   UNL     1      19.710   0.578 -19.440  1.00  0.00     0.000 C 
BRANCH   8   9
ATOM      9  C   UNL     1      21.156   0.145 -19.136  1.00  0.00     0.000 C 
BRANCH   9  10
ATOM     10  C   UNL     1      21.223  -1.108 -18.246  1.00  0.00     0.000 C 
BRANCH  10  11
ATOM     11  C   UNL     1      19.869  -1.448 -17.599  1.00  0.00     0.000 C 
BRANCH  11  12
ATOM     12  C   UNL     1      19.821  -1.096 -16.102  1.00  0.00     0.000 C 
BRANCH  12  13
ATOM     13  C   UNL     1      19.745   0.418 -15.853  1.00  0.00     0.006 C 
BRANCH  13  14
ATOM     14  C   UNL     1      18.362   0.823 -15.325  1.00  0.00     0.053 C 
BRANCH  14  15
ATOM     15  C   UNL     1      17.793   1.971 -16.104  1.00  0.00     0.041 C 
ATOM     16  O   UNL     1      16.575   2.281 -15.992  1.00  0.00    -0.550 OA
ATOM     17  O   UNL     1      18.602   2.673 -16.990  1.00  0.00    -0.550 OA
ENDBRANCH  14  15
ENDBRANCH  13  14
ENDBRANCH  12  13
ENDBRANCH  11  12
ENDBRANCH  10  11
ENDBRANCH   9  10
ENDBRANCH   8   9
ENDBRANCH   7   8
ENDBRANCH   6   7
ENDBRANCH   5   6
ENDBRANCH   4   5
ENDBRANCH   3   4
ENDBRANCH   2   3
ENDBRANCH   1   2
BRANCH   1  18
ATOM     18  C   UNL     1      16.085   1.144 -26.013  1.00  0.00     0.000 C 
BRANCH  18  19
ATOM     19  C   UNL     1      15.969  -0.109 -25.126  1.00  0.00     0.000 C 
BRANCH  19  20
ATOM     20  C   UNL     1      16.423   0.106 -23.667  1.00  0.00     0.000 C 
BRANCH  20  21
ATOM     21  C   UNL     1      17.623  -0.774 -23.283  1.00  0.00     0.000 C 
BRANCH  21  22
ATOM     22  C   UNL     1      18.037  -1.687 -24.450  1.00  0.00     0.000 C 
BRANCH  22  23
ATOM     23  C   UNL     1      19.562  -1.765 -24.631  1.00  0.00     0.000 C 
BRANCH  23  24
ATOM     24  C   UNL     1      19.980  -1.853 -26.110  1.00  0.00    -0.000 C 
BRANCH  24  25
ATOM     25  C   UNL     1      19.003  -1.126 -27.051  1.00  0.00    -0.000 C 
BRANCH  25  26
ATOM     26  C   UNL     1      19.594   0.088 -27.798  1.00  0.00    -0.000 C 
BRANCH  26  27
ATOM     27  C   UNL     1      20.905  -0.183 -28.557  1.00  0.00    -0.000 C 
BRANCH  27  28
ATOM     28  C   UNL     1      22.017   0.814 -28.205  1.00  0.00    -0.000 C 
BRANCH  28  29
ATOM     29  C   UNL     1      21.733   1.498 -26.859  1.00  0.00    -0.000 C 
BRANCH  29  30
ATOM     30  C   UNL     1      23.018   1.904 -26.120  1.00  0.00    -0.000 C 
BRANCH  30  31
ATOM     31  C   UNL     1      23.867   0.696 -25.704  1.00  0.00    -0.003 C 
ATOM     32  C   UNL     1      23.161  -0.128 -24.630  1.00  0.00     0.004 C 
ENDBRANCH  30  31
ENDBRANCH  29  30
ENDBRANCH  28  29
ENDBRANCH  27  28
ENDBRANCH  26  27
ENDBRANCH  25  26
ENDBRANCH  24  25
ENDBRANCH  23  24
ENDBRANCH  22  23
ENDBRANCH  21  22
ENDBRANCH  20  21
ENDBRANCH  19  20
ENDBRANCH  18  19
ENDBRANCH   1  18
TORSDOF 28
ENDMDL
MODEL 9
REMARK VINA RESULT:    -5.077      4.132      9.620
REMARK INTER + INTRA:         -18.049
REMARK INTER:                 -12.774
REMARK INTRA:                  -5.275
REMARK UNBOUND:                -4.662
REMARK SMILES CCCCCCCCCCCCCCCCCCCCCCCCCCCCCC(=O)[O-]
REMARK SMILES IDX 16 1 17 2 18 3 19 4 20 5 21 6 22 7 23 8 24 9 25 10 26 11
REMARK SMILES IDX 27 12 28 13 29 14 30 15 31 16 32 17 15 18 14 19 13 20 12 21
REMARK SMILES IDX 11 22 10 23 9 24 8 25 7 26 6 27 5 28 4 29 3 30 2 31 1 32
REMARK H PARENT
REMARK Flexibility Score: inf
ROOT
ATOM      1  C   UNL     1      22.341   1.285 -25.711  1.00  0.00     0.000 C 
ENDROOT
BRANCH   1   2
ATOM      2  C   UNL     1      21.033   2.015 -25.367  1.00  0.00     0.000 C 
BRANCH   2   3
ATOM      3  C   UNL     1      20.281   1.358 -24.199  1.00  0.00     0.000 C 
BRANCH   3   4
ATOM      4  C   UNL     1      19.295   2.318 -23.508  1.00  0.00     0.000 C 
BRANCH   4   5
ATOM      5  C   UNL     1      18.456   1.662 -22.392  1.00  0.00     0.000 C 
BRANCH   5   6
ATOM      6  C   UNL     1      17.004   1.396 -22.825  1.00  0.00     0.000 C 
BRANCH   6   7
ATOM      7  C   UNL     1      16.815   0.000 -23.448  1.00  0.00     0.000 C 
BRANCH   7   8
ATOM      8  C   UNL     1      15.981   0.014 -24.748  1.00  0.00     0.000 C 
BRANCH   8   9
ATOM      9  C   UNL     1      16.162   1.318 -25.546  1.00  0.00     0.000 C 
BRANCH   9  10
ATOM     10  C   UNL     1      17.319   1.237 -26.557  1.00  0.00     0.000 C 
BRANCH  10  11
ATOM     11  C   UNL     1      17.626  -0.207 -26.990  1.00  0.00     0.000 C 
BRANCH  11  12
ATOM     12  C   UNL     1      19.074  -0.387 -27.475  1.00  0.00     0.000 C 
BRANCH  12  13
ATOM     13  C   UNL     1      19.682  -1.728 -27.039  1.00  0.00     0.006 C 
BRANCH  13  14
ATOM     14  C   UNL     1      19.802  -1.812 -25.511  1.00  0.00     0.053 C 
BRANCH  14  15
ATOM     15  C   UNL     1      19.297  -3.125 -24.993  1.00  0.00     0.041 C 
ATOM     16  O   UNL     1      18.119  -3.231 -24.554  1.00  0.00    -0.550 OA
ATOM     17  O   UNL     1      20.147  -4.226 -24.956  1.00  0.00    -0.550 OA
ENDBRANCH  14  15
ENDBRANCH  13  14
ENDBRANCH  12  13
ENDBRANCH  11  12
ENDBRANCH  10  11
ENDBRANCH   9  10
ENDBRANCH   8   9
ENDBRANCH   7   8
ENDBRANCH   6   7
ENDBRANCH   5   6
ENDBRANCH   4   5
ENDBRANCH   3   4
ENDBRANCH   2   3
ENDBRANCH   1   2
BRANCH   1  18
ATOM     18  C   UNL     1      22.732   0.240 -24.654  1.00  0.00     0.000 C 
BRANCH  18  19
ATOM     19  C   UNL     1      24.104   0.514 -24.011  1.00  0.00     0.000 C 
BRANCH  19  20
ATOM     20  C   UNL     1      24.215   1.892 -23.324  1.00  0.00     0.000 C 
BRANCH  20  21
ATOM     21  C   UNL     1      23.762   1.862 -21.856  1.00  0.00     0.000 C 
BRANCH  21  22
ATOM     22  C   UNL     1      22.549   2.780 -21.631  1.00  0.00     0.000 C 
BRANCH  22  23
ATOM     23  C   UNL     1      21.613   2.268 -20.523  1.00  0.00     0.000 C 
BRANCH  23  24
ATOM     24  C   UNL     1      21.482   0.735 -20.517  1.00  0.00    -0.000 C 
BRANCH  24  25
ATOM     25  C   UNL     1      20.776   0.201 -19.257  1.00  0.00    -0.000 C 
BRANCH  25  26
ATOM     26  C   UNL     1      19.792   1.186 -18.592  1.00  0.00    -0.000 C 
BRANCH  26  27
ATOM     27  C   UNL     1      18.823   0.558 -17.573  1.00  0.00    -0.000 C 
BRANCH  27  28
ATOM     28  C   UNL     1      18.860   1.252 -16.206  1.00  0.00    -0.000 C 
BRANCH  28  29
ATOM     29  C   UNL     1      19.688   0.438 -15.201  1.00  0.00    -0.000 C 
BRANCH  29  30
ATOM     30  C   UNL     1      19.782  -1.049 -15.580  1.00  0.00    -0.000 C 
BRANCH  30  31
ATOM     31  C   UNL     1      21.224  -1.571 -15.567  1.00  0.00    -0.003 C 
ATOM     32  C   UNL     1      22.220  -0.445 -15.837  1.00  0.00     0.004 C 
ENDBRANCH  30  31
ENDBRANCH  29  30
ENDBRANCH  28  29
ENDBRANCH  27  28
ENDBRANCH  26  27
ENDBRANCH  25  26
ENDBRANCH  24  25
ENDBRANCH  23  24
ENDBRANCH  22  23
ENDBRANCH  21  22
ENDBRANCH  20  21
ENDBRANCH  19  20
ENDBRANCH  18  19
ENDBRANCH   1  18
TORSDOF 28
ENDMDL
