MODEL 1
REMARK VINA RESULT:    81.885      0.000      0.000
REMARK INTER + INTRA:          89.627
REMARK INTER:                  89.066
REMARK INTRA:                   0.561
REMARK UNBOUND:                 0.561
REMARK SMILES C[C@@H]1[C@H](C)CC[C@@]2(C(=O)[O-])CC[C@]3(C)C(=CC[C@@H]4[C@]5(C)CC[C@H](O)C(C)(C)[C@@H]5CC[C@@]43C)[C@H]12
REMARK SMILES IDX 7 1 6 2 11 3 33 4 5 5 12 6 15 7 2 8 3 9 13 10 16 11 1 12
REMARK SMILES IDX 4 13 14 14 31 15 17 16 18 17 30 18 32 19 19 20 29 21 28 22
REMARK SMILES IDX 21 23 20 24 25 25 22 26 23 27 26 28 27 29 8 30 9 31 10 32
REMARK SMILES IDX 24 33
REMARK H PARENT 24 34
REMARK Flexibility Score: inf
ROOT
ATOM      1  C   UNL     1      -2.476  -9.881  14.913  1.00  0.00     0.017 C 
ATOM      2  C   UNL     1      -3.305  -9.266  13.742  1.00  0.00     0.014 C 
ATOM      3  C   UNL     1      -2.997 -11.336  15.170  1.00  0.00     0.014 C 
ATOM      4  C   UNL     1      -0.968  -9.889  14.478  1.00  0.00     0.030 C 
ATOM      5  C   UNL     1      -2.820  -7.872  13.320  1.00  0.00     0.004 C 
ATOM      6  C   UNL     1      -1.935 -12.450  15.077  1.00  0.00     0.013 C 
ATOM      7  C   UNL     1      -0.083 -10.758  15.394  1.00  0.00    -0.063 C 
ATOM      8  C   UNL     1      -0.437  -8.472  14.048  1.00  0.00    -0.003 C 
ATOM      9  C   UNL     1      -1.336  -7.901  12.913  1.00  0.00    -0.011 C 
ATOM     10  C   UNL     1      -0.582 -12.147  15.819  1.00  0.00    -0.006 C 
ATOM     11  C   UNL     1       1.205 -10.431  15.624  1.00  0.00    -0.027 C 
ATOM     12  C   UNL     1      -0.239  -7.464  15.206  1.00  0.00     0.008 C 
ATOM     13  C   UNL     1      -0.877  -6.520  12.422  1.00  0.00     0.008 C 
ATOM     14  C   UNL     1      -0.895 -12.086  17.348  1.00  0.00     0.017 C 
ATOM     15  C   UNL     1       0.556 -13.256  15.516  1.00  0.00    -0.020 C 
ATOM     16  C   UNL     1       2.273 -11.405  16.023  1.00  0.00     0.032 C 
ATOM     17  C   UNL     1       1.867 -12.886  16.311  1.00  0.00     0.006 C 
ATOM     18  C   UNL     1       0.952 -13.274  14.014  1.00  0.00     0.008 C 
ATOM     19  C   UNL     1       0.028 -14.673  15.904  1.00  0.00     0.012 C 
ATOM     20  C   UNL     1       3.105 -13.895  16.149  1.00  0.00    -0.025 C 
ATOM     21  C   UNL     1       2.086 -14.247  13.655  1.00  0.00     0.005 C 
ATOM     22  C   UNL     1       3.291 -14.430  14.653  1.00  0.00     0.003 C 
ATOM     23  C   UNL     1       4.421 -13.218  16.695  1.00  0.00     0.010 C 
ATOM     24  C   UNL     1       2.903 -15.118  17.114  1.00  0.00     0.012 C 
ATOM     25  C   UNL     1       4.709 -14.181  13.989  1.00  0.00    -0.006 C 
ATOM     26  C   UNL     1       5.727 -13.971  16.418  1.00  0.00     0.033 C 
ATOM     27  C   UNL     1       5.824 -14.601  15.009  1.00  0.00     0.120 C 
ATOM     28  C   UNL     1       4.893 -12.717  13.497  1.00  0.00     0.014 C 
ATOM     29  C   UNL     1       4.878 -15.109  12.745  1.00  0.00     0.014 C 
ENDROOT
BRANCH   1  30
ATOM     30  C   UNL     1      -2.713  -9.071  16.185  1.00  0.00     0.048 C 
ATOM     31  O   UNL     1      -1.853  -9.038  17.103  1.00  0.00    -0.550 OA
ATOM     32  O   UNL     1      -3.935  -8.440  16.399  1.00  0.00    -0.550 OA
ENDBRANCH   1  30
BRANCH  27  33
ATOM     33  O   UNL     1       7.118 -14.422  14.476  1.00  0.00    -0.393 OA
ATOM     34  H   UNL     1       7.231 -13.459  14.266  1.00  0.00     0.210 HD
ENDBRANCH  27  33
TORSDOF 2
ENDMDL
