MODEL 1
REMARK VINA RESULT:    -6.433      0.000      0.000
REMARK INTER + INTRA:          -7.053
REMARK INTER:                  -6.997
REMARK INTRA:                  -0.056
REMARK UNBOUND:                -0.056
REMARK SMILES COc1cc2ccc(=O)oc2cc1O
REMARK SMILES IDX 3 1 13 2 12 3 11 4 5 5 4 6 6 7 7 8 8 9 9 10 10 11 2 12 1 13
REMARK SMILES IDX 14 14
REMARK H PARENT 14 15
REMARK Flexibility Score: inf
ROOT
ATOM      1  C   UNL     1     -31.277  -2.123 -19.934  1.00  0.00     0.161 A 
ATOM      2  C   UNL     1     -32.624  -2.185 -20.328  1.00  0.00     0.161 A 
ATOM      3  C   UNL     1     -33.558  -2.878 -19.545  1.00  0.00     0.098 A 
ATOM      4  C   UNL     1     -33.158  -3.513 -18.366  1.00  0.00     0.142 A 
ATOM      5  C   UNL     1     -31.807  -3.455 -17.964  1.00  0.00     0.022 A 
ATOM      6  C   UNL     1     -30.872  -2.763 -18.745  1.00  0.00     0.062 A 
ATOM      7  C   UNL     1     -31.437  -4.101 -16.779  1.00  0.00     0.019 A 
ATOM      8  C   UNL     1     -32.404  -4.776 -16.036  1.00  0.00     0.094 A 
ATOM      9  C   UNL     1     -33.725  -4.792 -16.498  1.00  0.00     0.336 A 
ATOM     10  O   UNL     1     -34.613  -5.396 -15.842  1.00  0.00    -0.246 OA
ATOM     11  O   UNL     1     -34.050  -4.169 -17.628  1.00  0.00    -0.423 OA
ENDROOT
BRANCH   1  12
ATOM     12  O   UNL     1     -30.376  -1.418 -20.748  1.00  0.00    -0.493 OA
ATOM     13  C   UNL     1     -29.147  -1.946 -21.234  1.00  0.00     0.278 C 
ENDBRANCH   1  12
BRANCH   2  14
ATOM     14  O   UNL     1     -33.026  -1.553 -21.503  1.00  0.00    -0.504 OA
ATOM     15  H   UNL     1     -33.824  -0.929 -21.523  1.00  0.00     0.293 HD
ENDBRANCH   2  14
TORSDOF 2
ENDMDL
MODEL 2
REMARK VINA RESULT:    -6.075      1.607      5.384
REMARK INTER + INTRA:          -6.664
REMARK INTER:                  -6.605
REMARK INTRA:                  -0.060
REMARK UNBOUND:                -0.056
REMARK SMILES COc1cc2ccc(=O)oc2cc1O
REMARK SMILES IDX 3 1 13 2 12 3 11 4 5 5 4 6 6 7 7 8 8 9 9 10 10 11 2 12 1 13
REMARK SMILES IDX 14 14
REMARK H PARENT 14 15
REMARK Flexibility Score: inf
ROOT
ATOM      1  C   UNL     1     -33.089  -3.372 -17.978  1.00  0.00     0.161 A 
ATOM      2  C   UNL     1     -31.904  -3.646 -17.275  1.00  0.00     0.161 A 
ATOM      3  C   UNL     1     -30.658  -3.358 -17.851  1.00  0.00     0.098 A 
ATOM      4  C   UNL     1     -30.585  -2.796 -19.129  1.00  0.00     0.142 A 
ATOM      5  C   UNL     1     -31.771  -2.519 -19.841  1.00  0.00     0.022 A 
ATOM      6  C   UNL     1     -33.017  -2.806 -19.266  1.00  0.00     0.062 A 
ATOM      7  C   UNL     1     -31.665  -1.957 -21.118  1.00  0.00     0.019 A 
ATOM      8  C   UNL     1     -30.403  -1.689 -21.646  1.00  0.00     0.094 A 
ATOM      9  C   UNL     1     -29.271  -1.992 -20.882  1.00  0.00     0.336 A 
ATOM     10  O   UNL     1     -28.122  -1.758 -21.340  1.00  0.00    -0.246 OA
ATOM     11  O   UNL     1     -29.400  -2.526 -19.670  1.00  0.00    -0.423 OA
ENDROOT
BRANCH   1  12
ATOM     12  O   UNL     1     -34.314  -3.676 -17.362  1.00  0.00    -0.493 OA
ATOM     13  C   UNL     1     -35.051  -4.874 -17.582  1.00  0.00     0.278 C 
ENDBRANCH   1  12
BRANCH   2  14
ATOM     14  O   UNL     1     -31.974  -4.205 -16.001  1.00  0.00    -0.504 OA
ATOM     15  H   UNL     1     -32.243  -5.172 -15.861  1.00  0.00     0.293 HD
ENDBRANCH   2  14
TORSDOF 2
ENDMDL
MODEL 3
REMARK VINA RESULT:    -5.980      1.711      2.810
REMARK INTER + INTRA:          -6.560
REMARK INTER:                  -6.496
REMARK INTRA:                  -0.064
REMARK UNBOUND:                -0.056
REMARK SMILES COc1cc2ccc(=O)oc2cc1O
REMARK SMILES IDX 3 1 13 2 12 3 11 4 5 5 4 6 6 7 7 8 8 9 9 10 10 11 2 12 1 13
REMARK SMILES IDX 14 14
REMARK H PARENT 14 15
REMARK Flexibility Score: inf
ROOT
ATOM      1  C   UNL     1     -31.918  -2.666 -18.931  1.00  0.00     0.161 A 
ATOM      2  C   UNL     1     -31.294  -3.344 -17.870  1.00  0.00     0.161 A 
ATOM      3  C   UNL     1     -32.007  -4.290 -17.120  1.00  0.00     0.098 A 
ATOM      4  C   UNL     1     -33.344  -4.566 -17.420  1.00  0.00     0.142 A 
ATOM      5  C   UNL     1     -33.977  -3.889 -18.483  1.00  0.00     0.022 A 
ATOM      6  C   UNL     1     -33.266  -2.944 -19.234  1.00  0.00     0.062 A 
ATOM      7  C   UNL     1     -35.316  -4.187 -18.759  1.00  0.00     0.019 A 
ATOM      8  C   UNL     1     -35.980  -5.136 -17.983  1.00  0.00     0.094 A 
ATOM      9  C   UNL     1     -35.288  -5.766 -16.944  1.00  0.00     0.336 A 
ATOM     10  O   UNL     1     -35.870  -6.625 -16.232  1.00  0.00    -0.246 OA
ATOM     11  O   UNL     1     -34.015  -5.464 -16.703  1.00  0.00    -0.423 OA
ENDROOT
BRANCH   1  12
ATOM     12  O   UNL     1     -31.166  -1.728 -19.656  1.00  0.00    -0.493 OA
ATOM     13  C   UNL     1     -30.557  -1.984 -20.917  1.00  0.00     0.278 C 
ENDBRANCH   1  12
BRANCH   2  14
ATOM     14  O   UNL     1     -29.962  -3.071 -17.569  1.00  0.00    -0.504 OA
ATOM     15  H   UNL     1     -29.268  -3.807 -17.519  1.00  0.00     0.293 HD
ENDBRANCH   2  14
TORSDOF 2
ENDMDL
MODEL 4
REMARK VINA RESULT:    -5.850      4.652      8.448
REMARK INTER + INTRA:          -6.419
REMARK INTER:                  -6.366
REMARK INTRA:                  -0.054
REMARK UNBOUND:                -0.056
REMARK SMILES COc1cc2ccc(=O)oc2cc1O
REMARK SMILES IDX 3 1 13 2 12 3 11 4 5 5 4 6 6 7 7 8 8 9 9 10 10 11 2 12 1 13
REMARK SMILES IDX 14 14
REMARK H PARENT 14 15
REMARK Flexibility Score: inf
ROOT
ATOM      1  C   UNL     1     -38.714  -6.967 -13.901  1.00  0.00     0.161 A 
ATOM      2  C   UNL     1     -38.676  -7.783 -15.043  1.00  0.00     0.161 A 
ATOM      3  C   UNL     1     -37.643  -7.639 -15.981  1.00  0.00     0.098 A 
ATOM      4  C   UNL     1     -36.643  -6.683 -15.786  1.00  0.00     0.142 A 
ATOM      5  C   UNL     1     -36.675  -5.859 -14.641  1.00  0.00     0.022 A 
ATOM      6  C   UNL     1     -37.706  -6.002 -13.704  1.00  0.00     0.062 A 
ATOM      7  C   UNL     1     -35.659  -4.911 -14.474  1.00  0.00     0.019 A 
ATOM      8  C   UNL     1     -34.654  -4.808 -15.435  1.00  0.00     0.094 A 
ATOM      9  C   UNL     1     -34.688  -5.657 -16.546  1.00  0.00     0.336 A 
ATOM     10  O   UNL     1     -33.791  -5.580 -17.424  1.00  0.00    -0.246 OA
ATOM     11  O   UNL     1     -35.666  -6.551 -16.680  1.00  0.00    -0.423 OA
ENDROOT
BRANCH   1  12
ATOM     12  O   UNL     1     -39.767  -7.147 -12.989  1.00  0.00    -0.493 OA
ATOM     13  C   UNL     1     -40.543  -6.089 -12.436  1.00  0.00     0.278 C 
ENDBRANCH   1  12
BRANCH   2  14
ATOM     14  O   UNL     1     -39.672  -8.737 -15.240  1.00  0.00    -0.504 OA
ATOM     15  H   UNL     1     -40.424  -8.590 -15.903  1.00  0.00     0.293 HD
ENDBRANCH   2  14
TORSDOF 2
ENDMDL
MODEL 5
REMARK VINA RESULT:    -5.752      5.267      7.921
REMARK INTER + INTRA:          -6.313
REMARK INTER:                  -6.250
REMARK INTRA:                  -0.063
REMARK UNBOUND:                -0.056
REMARK SMILES COc1cc2ccc(=O)oc2cc1O
REMARK SMILES IDX 3 1 13 2 12 3 11 4 5 5 4 6 6 7 7 8 8 9 9 10 10 11 2 12 1 13
REMARK SMILES IDX 14 14
REMARK H PARENT 14 15
REMARK Flexibility Score: inf
ROOT
ATOM      1  C   UNL     1     -36.117  -5.009 -14.204  1.00  0.00     0.161 A 
ATOM      2  C   UNL     1     -37.317  -4.295 -14.048  1.00  0.00     0.161 A 
ATOM      3  C   UNL     1     -38.522  -4.978 -13.827  1.00  0.00     0.098 A 
ATOM      4  C   UNL     1     -38.540  -6.374 -13.762  1.00  0.00     0.142 A 
ATOM      5  C   UNL     1     -37.339  -7.097 -13.919  1.00  0.00     0.022 A 
ATOM      6  C   UNL     1     -36.134  -6.417 -14.138  1.00  0.00     0.062 A 
ATOM      7  C   UNL     1     -37.389  -8.494 -13.848  1.00  0.00     0.019 A 
ATOM      8  C   UNL     1     -38.613  -9.125 -13.627  1.00  0.00     0.094 A 
ATOM      9  C   UNL     1     -39.763  -8.342 -13.482  1.00  0.00     0.336 A 
ATOM     10  O   UNL     1     -40.877  -8.892 -13.282  1.00  0.00    -0.246 OA
ATOM     11  O   UNL     1     -39.687  -7.015 -13.553  1.00  0.00    -0.423 OA
ENDROOT
BRANCH   1  12
ATOM     12  O   UNL     1     -34.935  -4.284 -14.422  1.00  0.00    -0.493 OA
ATOM     13  C   UNL     1     -34.193  -4.299 -15.637  1.00  0.00     0.278 C 
ENDBRANCH   1  12
BRANCH   2  14
ATOM     14  O   UNL     1     -37.302  -2.904 -14.112  1.00  0.00    -0.504 OA
ATOM     15  H   UNL     1     -38.031  -2.387 -14.590  1.00  0.00     0.293 HD
ENDBRANCH   2  14
TORSDOF 2
ENDMDL
MODEL 6
REMARK VINA RESULT:    -5.738      1.261      4.871
REMARK INTER + INTRA:          -6.297
REMARK INTER:                  -6.232
REMARK INTRA:                  -0.065
REMARK UNBOUND:                -0.056
REMARK SMILES COc1cc2ccc(=O)oc2cc1O
REMARK SMILES IDX 3 1 13 2 12 3 11 4 5 5 4 6 6 7 7 8 8 9 9 10 10 11 2 12 1 13
REMARK SMILES IDX 14 14
REMARK H PARENT 14 15
REMARK Flexibility Score: inf
ROOT
ATOM      1  C   UNL     1     -34.026  -4.175 -16.992  1.00  0.00     0.161 A 
ATOM      2  C   UNL     1     -34.778  -3.642 -18.051  1.00  0.00     0.161 A 
ATOM      3  C   UNL     1     -34.135  -3.021 -19.133  1.00  0.00     0.098 A 
ATOM      4  C   UNL     1     -32.741  -2.928 -19.164  1.00  0.00     0.142 A 
ATOM      5  C   UNL     1     -31.979  -3.461 -18.103  1.00  0.00     0.022 A 
ATOM      6  C   UNL     1     -32.620  -4.081 -17.023  1.00  0.00     0.062 A 
ATOM      7  C   UNL     1     -30.585  -3.352 -18.164  1.00  0.00     0.019 A 
ATOM      8  C   UNL     1     -29.995  -2.725 -19.260  1.00  0.00     0.094 A 
ATOM      9  C   UNL     1     -30.814  -2.219 -20.275  1.00  0.00     0.336 A 
ATOM     10  O   UNL     1     -30.300  -1.650 -21.273  1.00  0.00    -0.246 OA
ATOM     11  O   UNL     1     -32.137  -2.337 -20.193  1.00  0.00    -0.423 OA
ENDROOT
BRANCH   1  12
ATOM     12  O   UNL     1     -34.712  -4.788 -15.931  1.00  0.00    -0.493 OA
ATOM     13  C   UNL     1     -34.898  -4.203 -14.647  1.00  0.00     0.278 C 
ENDBRANCH   1  12
BRANCH   2  14
ATOM     14  O   UNL     1     -36.168  -3.734 -18.022  1.00  0.00    -0.504 OA
ATOM     15  H   UNL     1     -36.750  -3.147 -18.608  1.00  0.00     0.293 HD
ENDBRANCH   2  14
TORSDOF 2
ENDMDL
MODEL 7
REMARK VINA RESULT:    -5.668      1.793      2.413
REMARK INTER + INTRA:          -6.221
REMARK INTER:                  -6.156
REMARK INTRA:                  -0.065
REMARK UNBOUND:                -0.056
REMARK SMILES COc1cc2ccc(=O)oc2cc1O
REMARK SMILES IDX 3 1 13 2 12 3 11 4 5 5 4 6 6 7 7 8 8 9 9 10 10 11 2 12 1 13
REMARK SMILES IDX 14 14
REMARK H PARENT 14 15
REMARK Flexibility Score: inf
ROOT
ATOM      1  C   UNL     1     -32.388  -2.992 -18.412  1.00  0.00     0.161 A 
ATOM      2  C   UNL     1     -33.389  -2.750 -19.367  1.00  0.00     0.161 A 
ATOM      3  C   UNL     1     -34.656  -3.335 -19.227  1.00  0.00     0.098 A 
ATOM      4  C   UNL     1     -34.933  -4.165 -18.137  1.00  0.00     0.142 A 
ATOM      5  C   UNL     1     -33.932  -4.413 -17.175  1.00  0.00     0.022 A 
ATOM      6  C   UNL     1     -32.666  -3.828 -17.313  1.00  0.00     0.062 A 
ATOM      7  C   UNL     1     -34.239  -5.248 -16.095  1.00  0.00     0.019 A 
ATOM      8  C   UNL     1     -35.513  -5.806 -16.001  1.00  0.00     0.094 A 
ATOM      9  C   UNL     1     -36.455  -5.516 -16.995  1.00  0.00     0.336 A 
ATOM     10  O   UNL     1     -37.611  -6.010 -16.928  1.00  0.00    -0.246 OA
ATOM     11  O   UNL     1     -36.136  -4.718 -18.011  1.00  0.00    -0.423 OA
ENDROOT
BRANCH   1  12
ATOM     12  O   UNL     1     -31.135  -2.384 -18.592  1.00  0.00    -0.493 OA
ATOM     13  C   UNL     1     -29.983  -3.048 -19.100  1.00  0.00     0.278 C 
ENDBRANCH   1  12
BRANCH   2  14
ATOM     14  O   UNL     1     -33.117  -1.923 -20.455  1.00  0.00    -0.504 OA
ATOM     15  H   UNL     1     -32.264  -1.377 -20.505  1.00  0.00     0.293 HD
ENDBRANCH   2  14
TORSDOF 2
ENDMDL
MODEL 8
REMARK VINA RESULT:    -5.618      1.578      5.062
REMARK INTER + INTRA:          -6.167
REMARK INTER:                  -6.115
REMARK INTRA:                  -0.052
REMARK UNBOUND:                -0.056
REMARK SMILES COc1cc2ccc(=O)oc2cc1O
REMARK SMILES IDX 3 1 13 2 12 3 11 4 5 5 4 6 6 7 7 8 8 9 9 10 10 11 2 12 1 13
REMARK SMILES IDX 14 14
REMARK H PARENT 14 15
REMARK Flexibility Score: inf
ROOT
ATOM      1  C   UNL     1     -34.802  -5.037 -16.882  1.00  0.00     0.161 A 
ATOM      2  C   UNL     1     -35.379  -4.651 -18.103  1.00  0.00     0.161 A 
ATOM      3  C   UNL     1     -34.644  -3.889 -19.023  1.00  0.00     0.098 A 
ATOM      4  C   UNL     1     -33.332  -3.506 -18.733  1.00  0.00     0.142 A 
ATOM      5  C   UNL     1     -32.746  -3.889 -17.508  1.00  0.00     0.022 A 
ATOM      6  C   UNL     1     -33.479  -4.651 -16.588  1.00  0.00     0.062 A 
ATOM      7  C   UNL     1     -31.430  -3.491 -17.246  1.00  0.00     0.019 A 
ATOM      8  C   UNL     1     -30.743  -2.733 -18.193  1.00  0.00     0.094 A 
ATOM      9  C   UNL     1     -31.389  -2.389 -19.386  1.00  0.00     0.336 A 
ATOM     10  O   UNL     1     -30.786  -1.707 -20.253  1.00  0.00    -0.246 OA
ATOM     11  O   UNL     1     -32.641  -2.782 -19.610  1.00  0.00    -0.423 OA
ENDROOT
BRANCH   1  12
ATOM     12  O   UNL     1     -35.574  -5.800 -15.992  1.00  0.00    -0.493 OA
ATOM     13  C   UNL     1     -35.659  -5.562 -14.591  1.00  0.00     0.278 C 
ENDBRANCH   1  12
BRANCH   2  14
ATOM     14  O   UNL     1     -36.687  -5.031 -18.395  1.00  0.00    -0.504 OA
ATOM     15  H   UNL     1     -37.450  -4.845 -17.754  1.00  0.00     0.293 HD
ENDBRANCH   2  14
TORSDOF 2
ENDMDL
MODEL 9
REMARK VINA RESULT:    -5.610      8.006      9.935
REMARK INTER + INTRA:          -6.158
REMARK INTER:                  -6.093
REMARK INTRA:                  -0.065
REMARK UNBOUND:                -0.056
REMARK SMILES COc1cc2ccc(=O)oc2cc1O
REMARK SMILES IDX 3 1 13 2 12 3 11 4 5 5 4 6 6 7 7 8 8 9 9 10 10 11 2 12 1 13
REMARK SMILES IDX 14 14
REMARK H PARENT 14 15
REMARK Flexibility Score: inf
ROOT
ATOM      1  C   UNL     1     -38.732  -7.148 -14.678  1.00  0.00     0.161 A 
ATOM      2  C   UNL     1     -39.800  -7.818 -14.060  1.00  0.00     0.161 A 
ATOM      3  C   UNL     1     -40.470  -7.233 -12.975  1.00  0.00     0.098 A 
ATOM      4  C   UNL     1     -40.080  -5.979 -12.500  1.00  0.00     0.142 A 
ATOM      5  C   UNL     1     -39.007  -5.300 -13.115  1.00  0.00     0.022 A 
ATOM      6  C   UNL     1     -38.338  -5.883 -14.199  1.00  0.00     0.062 A 
ATOM      7  C   UNL     1     -38.640  -4.045 -12.616  1.00  0.00     0.019 A 
ATOM      8  C   UNL     1     -39.337  -3.506 -11.536  1.00  0.00     0.094 A 
ATOM      9  C   UNL     1     -40.390  -4.238 -10.976  1.00  0.00     0.336 A 
ATOM     10  O   UNL     1     -41.032  -3.770 -10.000  1.00  0.00    -0.246 OA
ATOM     11  O   UNL     1     -40.719  -5.429 -11.470  1.00  0.00    -0.423 OA
ENDROOT
BRANCH   1  12
ATOM     12  O   UNL     1     -38.091  -7.771 -15.760  1.00  0.00    -0.493 OA
ATOM     13  C   UNL     1     -36.791  -8.349 -15.703  1.00  0.00     0.278 C 
ENDBRANCH   1  12
BRANCH   2  14
ATOM     14  O   UNL     1     -40.192  -9.069 -14.532  1.00  0.00    -0.504 OA
ATOM     15  H   UNL     1     -40.574  -9.189 -15.463  1.00  0.00     0.293 HD
ENDBRANCH   2  14
TORSDOF 2
ENDMDL
