MODEL 1
REMARK VINA RESULT:    -6.077      0.000      0.000
REMARK INTER + INTRA:         -12.682
REMARK INTER:                 -11.761
REMARK INTRA:                  -0.921
REMARK UNBOUND:                -0.921
REMARK SMILES CCCCCCCCCCCCCCCCCC(=O)[O-]
REMARK SMILES IDX 10 1 11 2 12 3 13 4 14 5 15 6 16 7 17 8 18 9 19 10 20 11
REMARK SMILES IDX 9 12 8 13 7 14 6 15 5 16 4 17 3 18 2 19 1 20
REMARK H PARENT
REMARK Flexibility Score: inf
ROOT
ATOM      1  C   UNL     1     103.899 313.137 197.237  1.00  0.00     0.000 C 
ENDROOT
BRANCH   1   2
ATOM      2  C   UNL     1     103.772 311.809 198.006  1.00  0.00     0.000 C 
BRANCH   2   3
ATOM      3  C   UNL     1     103.780 312.000 199.532  1.00  0.00     0.000 C 
BRANCH   3   4
ATOM      4  C   UNL     1     102.417 311.689 200.170  1.00  0.00     0.000 C 
BRANCH   4   5
ATOM      5  C   UNL     1     102.542 311.199 201.621  1.00  0.00     0.000 C 
BRANCH   5   6
ATOM      6  C   UNL     1     103.907 311.572 202.210  1.00  0.00     0.000 C 
BRANCH   6   7
ATOM      7  C   UNL     1     104.337 310.569 203.287  1.00  0.00     0.006 C 
BRANCH   7   8
ATOM      8  C   UNL     1     104.628 311.279 204.613  1.00  0.00     0.053 C 
BRANCH   8   9
ATOM      9  C   UNL     1     103.511 311.061 205.585  1.00  0.00     0.041 C 
ATOM     10  O   UNL     1     102.531 310.336 205.269  1.00  0.00    -0.550 OA
ATOM     11  O   UNL     1     103.571 311.624 206.853  1.00  0.00    -0.550 OA
ENDBRANCH   8   9
ENDBRANCH   7   8
ENDBRANCH   6   7
ENDBRANCH   5   6
ENDBRANCH   4   5
ENDBRANCH   3   4
ENDBRANCH   2   3
ENDBRANCH   1   2
BRANCH   1  12
ATOM     12  C   UNL     1     103.857 313.009 195.701  1.00  0.00     0.000 C 
BRANCH  12  13
ATOM     13  C   UNL     1     103.587 311.587 195.170  1.00  0.00    -0.000 C 
BRANCH  13  14
ATOM     14  C   UNL     1     104.064 311.328 193.730  1.00  0.00    -0.000 C 
BRANCH  14  15
ATOM     15  C   UNL     1     105.502 311.811 193.482  1.00  0.00    -0.000 C 
BRANCH  15  16
ATOM     16  C   UNL     1     105.529 312.946 192.447  1.00  0.00    -0.000 C 
BRANCH  16  17
ATOM     17  C   UNL     1     104.184 313.117 191.723  1.00  0.00    -0.000 C 
BRANCH  17  18
ATOM     18  C   UNL     1     104.053 314.482 191.031  1.00  0.00    -0.000 C 
BRANCH  18  19
ATOM     19  C   UNL     1     103.611 314.317 189.572  1.00  0.00    -0.003 C 
ATOM     20  C   UNL     1     103.576 315.662 188.851  1.00  0.00     0.004 C 
ENDBRANCH  18  19
ENDBRANCH  17  18
ENDBRANCH  16  17
ENDBRANCH  15  16
ENDBRANCH  14  15
ENDBRANCH  13  14
ENDBRANCH  12  13
ENDBRANCH   1  12
TORSDOF 16
ENDMDL
MODEL 2
REMARK VINA RESULT:    -5.984     19.317     20.312
REMARK INTER + INTRA:         -12.502
REMARK INTER:                 -11.541
REMARK INTRA:                  -0.960
REMARK UNBOUND:                -0.921
REMARK SMILES CCCCCCCCCCCCCCCCCC(=O)[O-]
REMARK SMILES IDX 10 1 11 2 12 3 13 4 14 5 15 6 16 7 17 8 18 9 19 10 20 11
REMARK SMILES IDX 9 12 8 13 7 14 6 15 5 16 4 17 3 18 2 19 1 20
REMARK H PARENT
REMARK Flexibility Score: inf
ROOT
ATOM      1  C   UNL     1      88.935 325.038 196.799  1.00  0.00     0.000 C 
ENDROOT
BRANCH   1   2
ATOM      2  C   UNL     1      88.985 324.971 198.336  1.00  0.00     0.000 C 
BRANCH   2   3
ATOM      3  C   UNL     1      88.962 326.362 198.994  1.00  0.00     0.000 C 
BRANCH   3   4
ATOM      4  C   UNL     1      89.878 326.444 200.226  1.00  0.00     0.000 C 
BRANCH   4   5
ATOM      5  C   UNL     1      89.098 326.379 201.548  1.00  0.00     0.000 C 
BRANCH   5   6
ATOM      6  C   UNL     1      90.008 326.708 202.738  1.00  0.00     0.000 C 
BRANCH   6   7
ATOM      7  C   UNL     1      89.260 327.533 203.792  1.00  0.00     0.006 C 
BRANCH   7   8
ATOM      8  C   UNL     1      89.710 327.153 205.206  1.00  0.00     0.053 C 
BRANCH   8   9
ATOM      9  C   UNL     1      89.147 325.823 205.598  1.00  0.00     0.041 C 
ATOM     10  O   UNL     1      87.952 325.731 205.984  1.00  0.00    -0.550 OA
ATOM     11  O   UNL     1      89.929 324.679 205.499  1.00  0.00    -0.550 OA
ENDBRANCH   8   9
ENDBRANCH   7   8
ENDBRANCH   6   7
ENDBRANCH   5   6
ENDBRANCH   4   5
ENDBRANCH   3   4
ENDBRANCH   2   3
ENDBRANCH   1   2
BRANCH   1  12
ATOM     12  C   UNL     1      88.879 326.462 196.209  1.00  0.00     0.000 C 
BRANCH  12  13
ATOM     13  C   UNL     1      88.318 326.557 194.777  1.00  0.00    -0.000 C 
BRANCH  13  14
ATOM     14  C   UNL     1      86.822 326.223 194.639  1.00  0.00    -0.000 C 
BRANCH  14  15
ATOM     15  C   UNL     1      86.551 325.113 193.612  1.00  0.00    -0.000 C 
BRANCH  15  16
ATOM     16  C   UNL     1      87.820 324.787 192.808  1.00  0.00    -0.000 C 
BRANCH  16  17
ATOM     17  C   UNL     1      88.181 323.294 192.856  1.00  0.00    -0.000 C 
BRANCH  17  18
ATOM     18  C   UNL     1      88.518 322.722 191.471  1.00  0.00    -0.000 C 
BRANCH  18  19
ATOM     19  C   UNL     1      88.306 323.775 190.377  1.00  0.00    -0.003 C 
ATOM     20  C   UNL     1      89.190 323.495 189.164  1.00  0.00     0.004 C 
ENDBRANCH  18  19
ENDBRANCH  17  18
ENDBRANCH  16  17
ENDBRANCH  15  16
ENDBRANCH  14  15
ENDBRANCH  13  14
ENDBRANCH  12  13
ENDBRANCH   1  12
TORSDOF 16
ENDMDL
MODEL 3
REMARK VINA RESULT:    -5.978     19.604     20.573
REMARK INTER + INTRA:         -12.491
REMARK INTER:                 -11.200
REMARK INTRA:                  -1.291
REMARK UNBOUND:                -0.921
REMARK SMILES CCCCCCCCCCCCCCCCCC(=O)[O-]
REMARK SMILES IDX 10 1 11 2 12 3 13 4 14 5 15 6 16 7 17 8 18 9 19 10 20 11
REMARK SMILES IDX 9 12 8 13 7 14 6 15 5 16 4 17 3 18 2 19 1 20
REMARK H PARENT
REMARK Flexibility Score: inf
ROOT
ATOM      1  C   UNL     1      89.030 325.107 197.803  1.00  0.00     0.000 C 
ENDROOT
BRANCH   1   2
ATOM      2  C   UNL     1      88.862 326.463 198.514  1.00  0.00     0.000 C 
BRANCH   2   3
ATOM      3  C   UNL     1      88.911 326.342 200.047  1.00  0.00     0.000 C 
BRANCH   3   4
ATOM      4  C   UNL     1      90.341 326.458 200.600  1.00  0.00     0.000 C 
BRANCH   4   5
ATOM      5  C   UNL     1      90.509 325.752 201.954  1.00  0.00     0.000 C 
BRANCH   5   6
ATOM      6  C   UNL     1      89.275 325.963 202.839  1.00  0.00     0.000 C 
BRANCH   6   7
ATOM      7  C   UNL     1      89.362 327.292 203.600  1.00  0.00     0.006 C 
BRANCH   7   8
ATOM      8  C   UNL     1      89.084 327.089 205.092  1.00  0.00     0.053 C 
BRANCH   8   9
ATOM      9  C   UNL     1      90.357 327.141 205.878  1.00  0.00     0.041 C 
ATOM     10  O   UNL     1      91.323 327.839 205.471  1.00  0.00    -0.550 OA
ATOM     11  O   UNL     1      90.462 326.453 207.080  1.00  0.00    -0.550 OA
ENDBRANCH   8   9
ENDBRANCH   7   8
ENDBRANCH   6   7
ENDBRANCH   5   6
ENDBRANCH   4   5
ENDBRANCH   3   4
ENDBRANCH   2   3
ENDBRANCH   1   2
BRANCH   1  12
ATOM     12  C   UNL     1      88.707 325.117 196.295  1.00  0.00     0.000 C 
BRANCH  12  13
ATOM     13  C   UNL     1      88.828 326.492 195.608  1.00  0.00    -0.000 C 
BRANCH  13  14
ATOM     14  C   UNL     1      87.684 326.840 194.640  1.00  0.00    -0.000 C 
BRANCH  14  15
ATOM     15  C   UNL     1      86.423 325.996 194.880  1.00  0.00    -0.000 C 
BRANCH  15  16
ATOM     16  C   UNL     1      86.097 325.134 193.649  1.00  0.00    -0.000 C 
BRANCH  16  17
ATOM     17  C   UNL     1      86.627 323.697 193.778  1.00  0.00    -0.000 C 
BRANCH  17  18
ATOM     18  C   UNL     1      87.920 323.470 192.980  1.00  0.00    -0.000 C 
BRANCH  18  19
ATOM     19  C   UNL     1      87.990 324.410 191.771  1.00  0.00    -0.003 C 
ATOM     20  C   UNL     1      88.250 323.632 190.483  1.00  0.00     0.004 C 
ENDBRANCH  18  19
ENDBRANCH  17  18
ENDBRANCH  16  17
ENDBRANCH  15  16
ENDBRANCH  14  15
ENDBRANCH  13  14
ENDBRANCH  12  13
ENDBRANCH   1  12
TORSDOF 16
ENDMDL
MODEL 4
REMARK VINA RESULT:    -5.974      5.831     11.930
REMARK INTER + INTRA:         -12.483
REMARK INTER:                 -11.834
REMARK INTRA:                  -0.649
REMARK UNBOUND:                -0.921
REMARK SMILES CCCCCCCCCCCCCCCCCC(=O)[O-]
REMARK SMILES IDX 10 1 11 2 12 3 13 4 14 5 15 6 16 7 17 8 18 9 19 10 20 11
REMARK SMILES IDX 9 12 8 13 7 14 6 15 5 16 4 17 3 18 2 19 1 20
REMARK H PARENT
REMARK Flexibility Score: inf
ROOT
ATOM      1  C   UNL     1     104.577 311.903 195.943  1.00  0.00     0.000 C 
ENDROOT
BRANCH   1   2
ATOM      2  C   UNL     1     103.600 311.498 194.824  1.00  0.00     0.000 C 
BRANCH   2   3
ATOM      3  C   UNL     1     104.297 311.299 193.467  1.00  0.00     0.000 C 
BRANCH   3   4
ATOM      4  C   UNL     1     105.669 311.990 193.404  1.00  0.00     0.000 C 
BRANCH   4   5
ATOM      5  C   UNL     1     105.757 313.026 192.273  1.00  0.00     0.000 C 
BRANCH   5   6
ATOM      6  C   UNL     1     104.405 313.714 192.054  1.00  0.00     0.000 C 
BRANCH   6   7
ATOM      7  C   UNL     1     103.987 313.655 190.580  1.00  0.00     0.006 C 
BRANCH   7   8
ATOM      8  C   UNL     1     103.684 315.055 190.039  1.00  0.00     0.053 C 
BRANCH   8   9
ATOM      9  C   UNL     1     103.370 314.998 188.576  1.00  0.00     0.041 C 
ATOM     10  O   UNL     1     104.188 315.455 187.736  1.00  0.00    -0.550 OA
ATOM     11  O   UNL     1     102.192 314.404 188.140  1.00  0.00    -0.550 OA
ENDBRANCH   8   9
ENDBRANCH   7   8
ENDBRANCH   6   7
ENDBRANCH   5   6
ENDBRANCH   4   5
ENDBRANCH   3   4
ENDBRANCH   2   3
ENDBRANCH   1   2
BRANCH   1  12
ATOM     12  C   UNL     1     103.913 312.469 197.215  1.00  0.00     0.000 C 
BRANCH  12  13
ATOM     13  C   UNL     1     103.844 311.495 198.407  1.00  0.00    -0.000 C 
BRANCH  13  14
ATOM     14  C   UNL     1     103.284 312.095 199.709  1.00  0.00    -0.000 C 
BRANCH  14  15
ATOM     15  C   UNL     1     104.120 311.727 200.944  1.00  0.00    -0.000 C 
BRANCH  15  16
ATOM     16  C   UNL     1     103.217 311.287 202.107  1.00  0.00    -0.000 C 
BRANCH  16  17
ATOM     17  C   UNL     1     103.967 310.442 203.149  1.00  0.00    -0.000 C 
BRANCH  17  18
ATOM     18  C   UNL     1     103.628 310.845 204.592  1.00  0.00    -0.000 C 
BRANCH  18  19
ATOM     19  C   UNL     1     104.744 311.703 205.198  1.00  0.00    -0.003 C 
ATOM     20  C   UNL     1     104.531 311.907 206.696  1.00  0.00     0.004 C 
ENDBRANCH  18  19
ENDBRANCH  17  18
ENDBRANCH  16  17
ENDBRANCH  15  16
ENDBRANCH  14  15
ENDBRANCH  13  14
ENDBRANCH  12  13
ENDBRANCH   1  12
TORSDOF 16
ENDMDL
MODEL 5
REMARK VINA RESULT:    -5.873     19.906     20.733
REMARK INTER + INTRA:         -12.288
REMARK INTER:                 -11.453
REMARK INTRA:                  -0.836
REMARK UNBOUND:                -0.921
REMARK SMILES CCCCCCCCCCCCCCCCCC(=O)[O-]
REMARK SMILES IDX 10 1 11 2 12 3 13 4 14 5 15 6 16 7 17 8 18 9 19 10 20 11
REMARK SMILES IDX 9 12 8 13 7 14 6 15 5 16 4 17 3 18 2 19 1 20
REMARK H PARENT
REMARK Flexibility Score: inf
ROOT
ATOM      1  C   UNL     1      89.248 326.505 199.296  1.00  0.00     0.000 C 
ENDROOT
BRANCH   1   2
ATOM      2  C   UNL     1      89.287 325.758 200.642  1.00  0.00     0.000 C 
BRANCH   2   3
ATOM      3  C   UNL     1      90.115 326.495 201.709  1.00  0.00     0.000 C 
BRANCH   3   4
ATOM      4  C   UNL     1      89.274 326.900 202.930  1.00  0.00     0.000 C 
BRANCH   4   5
ATOM      5  C   UNL     1      90.133 327.192 204.169  1.00  0.00     0.000 C 
BRANCH   5   6
ATOM      6  C   UNL     1      89.264 327.299 205.427  1.00  0.00     0.000 C 
BRANCH   6   7
ATOM      7  C   UNL     1      89.161 325.947 206.143  1.00  0.00     0.006 C 
BRANCH   7   8
ATOM      8  C   UNL     1      87.748 325.367 206.020  1.00  0.00     0.053 C 
BRANCH   8   9
ATOM      9  C   UNL     1      87.782 324.038 205.333  1.00  0.00     0.041 C 
ATOM     10  O   UNL     1      87.919 323.976 204.083  1.00  0.00    -0.550 OA
ATOM     11  O   UNL     1      87.703 322.868 206.078  1.00  0.00    -0.550 OA
ENDBRANCH   8   9
ENDBRANCH   7   8
ENDBRANCH   6   7
ENDBRANCH   5   6
ENDBRANCH   4   5
ENDBRANCH   3   4
ENDBRANCH   2   3
ENDBRANCH   1   2
BRANCH   1  12
ATOM     12  C   UNL     1      88.769 325.663 198.097  1.00  0.00     0.000 C 
BRANCH  12  13
ATOM     13  C   UNL     1      88.451 326.463 196.818  1.00  0.00    -0.000 C 
BRANCH  13  14
ATOM     14  C   UNL     1      87.027 326.273 196.267  1.00  0.00    -0.000 C 
BRANCH  14  15
ATOM     15  C   UNL     1      86.860 326.826 194.843  1.00  0.00    -0.000 C 
BRANCH  15  16
ATOM     16  C   UNL     1      88.088 326.497 193.979  1.00  0.00    -0.000 C 
BRANCH  16  17
ATOM     17  C   UNL     1      88.072 325.052 193.457  1.00  0.00    -0.000 C 
BRANCH  17  18
ATOM     18  C   UNL     1      86.694 324.628 192.928  1.00  0.00    -0.000 C 
BRANCH  18  19
ATOM     19  C   UNL     1      86.832 323.593 191.806  1.00  0.00    -0.003 C 
ATOM     20  C   UNL     1      88.049 323.887 190.932  1.00  0.00     0.004 C 
ENDBRANCH  18  19
ENDBRANCH  17  18
ENDBRANCH  16  17
ENDBRANCH  15  16
ENDBRANCH  14  15
ENDBRANCH  13  14
ENDBRANCH  12  13
ENDBRANCH   1  12
TORSDOF 16
ENDMDL
MODEL 6
REMARK VINA RESULT:    -5.813      1.460      2.369
REMARK INTER + INTRA:         -12.171
REMARK INTER:                 -10.639
REMARK INTRA:                  -1.532
REMARK UNBOUND:                -0.921
REMARK SMILES CCCCCCCCCCCCCCCCCC(=O)[O-]
REMARK SMILES IDX 10 1 11 2 12 3 13 4 14 5 15 6 16 7 17 8 18 9 19 10 20 11
REMARK SMILES IDX 9 12 8 13 7 14 6 15 5 16 4 17 3 18 2 19 1 20
REMARK H PARENT
REMARK Flexibility Score: inf
ROOT
ATOM      1  C   UNL     1     103.898 312.062 197.193  1.00  0.00     0.000 C 
ENDROOT
BRANCH   1   2
ATOM      2  C   UNL     1     103.889 313.442 197.876  1.00  0.00     0.000 C 
BRANCH   2   3
ATOM      3  C   UNL     1     103.825 313.348 199.410  1.00  0.00     0.000 C 
BRANCH   3   4
ATOM      4  C   UNL     1     103.543 311.918 199.900  1.00  0.00     0.000 C 
BRANCH   4   5
ATOM      5  C   UNL     1     104.356 311.551 201.151  1.00  0.00     0.000 C 
BRANCH   5   6
ATOM      6  C   UNL     1     103.432 311.127 202.299  1.00  0.00     0.000 C 
BRANCH   6   7
ATOM      7  C   UNL     1     104.220 310.424 203.411  1.00  0.00     0.006 C 
BRANCH   7   8
ATOM      8  C   UNL     1     103.643 310.760 204.789  1.00  0.00     0.053 C 
BRANCH   8   9
ATOM      9  C   UNL     1     104.585 311.632 205.558  1.00  0.00     0.041 C 
ATOM     10  O   UNL     1     104.463 311.748 206.806  1.00  0.00    -0.550 OA
ATOM     11  O   UNL     1     105.623 312.282 204.903  1.00  0.00    -0.550 OA
ENDBRANCH   8   9
ENDBRANCH   7   8
ENDBRANCH   6   7
ENDBRANCH   5   6
ENDBRANCH   4   5
ENDBRANCH   3   4
ENDBRANCH   2   3
ENDBRANCH   1   2
BRANCH   1  12
ATOM     12  C   UNL     1     104.485 312.044 195.767  1.00  0.00     0.000 C 
BRANCH  12  13
ATOM     13  C   UNL     1     103.548 311.481 194.680  1.00  0.00    -0.000 C 
BRANCH  13  14
ATOM     14  C   UNL     1     104.223 311.180 193.330  1.00  0.00    -0.000 C 
BRANCH  14  15
ATOM     15  C   UNL     1     105.034 312.368 192.790  1.00  0.00    -0.000 C 
BRANCH  15  16
ATOM     16  C   UNL     1     104.163 313.267 191.898  1.00  0.00    -0.000 C 
BRANCH  16  17
ATOM     17  C   UNL     1     104.060 314.704 192.430  1.00  0.00    -0.000 C 
BRANCH  17  18
ATOM     18  C   UNL     1     105.167 315.043 193.441  1.00  0.00    -0.000 C 
BRANCH  18  19
ATOM     19  C   UNL     1     104.603 315.838 194.624  1.00  0.00    -0.003 C 
ATOM     20  C   UNL     1     103.178 315.401 194.952  1.00  0.00     0.004 C 
ENDBRANCH  18  19
ENDBRANCH  17  18
ENDBRANCH  16  17
ENDBRANCH  15  16
ENDBRANCH  14  15
ENDBRANCH  13  14
ENDBRANCH  12  13
ENDBRANCH   1  12
TORSDOF 16
ENDMDL
MODEL 7
REMARK VINA RESULT:    -5.809      1.134      1.670
REMARK INTER + INTRA:         -12.165
REMARK INTER:                 -10.939
REMARK INTRA:                  -1.225
REMARK UNBOUND:                -0.921
REMARK SMILES CCCCCCCCCCCCCCCCCC(=O)[O-]
REMARK SMILES IDX 10 1 11 2 12 3 13 4 14 5 15 6 16 7 17 8 18 9 19 10 20 11
REMARK SMILES IDX 9 12 8 13 7 14 6 15 5 16 4 17 3 18 2 19 1 20
REMARK H PARENT
REMARK Flexibility Score: inf
ROOT
ATOM      1  C   UNL     1     104.250 314.348 197.386  1.00  0.00     0.000 C 
ENDROOT
BRANCH   1   2
ATOM      2  C   UNL     1     103.643 314.438 198.798  1.00  0.00     0.000 C 
BRANCH   2   3
ATOM      3  C   UNL     1     102.268 313.754 198.900  1.00  0.00     0.000 C 
BRANCH   3   4
ATOM      4  C   UNL     1     102.270 312.576 199.887  1.00  0.00     0.000 C 
BRANCH   4   5
ATOM      5  C   UNL     1     103.417 311.587 199.624  1.00  0.00     0.000 C 
BRANCH   5   6
ATOM      6  C   UNL     1     104.530 311.750 200.665  1.00  0.00     0.000 C 
BRANCH   6   7
ATOM      7  C   UNL     1     103.949 312.012 202.059  1.00  0.00     0.006 C 
BRANCH   7   8
ATOM      8  C   UNL     1     103.849 310.713 202.865  1.00  0.00     0.053 C 
BRANCH   8   9
ATOM      9  C   UNL     1     104.044 310.981 204.324  1.00  0.00     0.041 C 
ATOM     10  O   UNL     1     103.255 310.482 205.169  1.00  0.00    -0.550 OA
ATOM     11  O   UNL     1     105.121 311.746 204.753  1.00  0.00    -0.550 OA
ENDBRANCH   8   9
ENDBRANCH   7   8
ENDBRANCH   6   7
ENDBRANCH   5   6
ENDBRANCH   4   5
ENDBRANCH   3   4
ENDBRANCH   2   3
ENDBRANCH   1   2
BRANCH   1  12
ATOM     12  C   UNL     1     103.481 313.444 196.401  1.00  0.00     0.000 C 
BRANCH  12  13
ATOM     13  C   UNL     1     104.318 312.327 195.747  1.00  0.00    -0.000 C 
BRANCH  13  14
ATOM     14  C   UNL     1     103.565 311.468 194.715  1.00  0.00    -0.000 C 
BRANCH  14  15
ATOM     15  C   UNL     1     104.378 311.230 193.433  1.00  0.00    -0.000 C 
BRANCH  15  16
ATOM     16  C   UNL     1     105.650 312.092 193.420  1.00  0.00    -0.000 C 
BRANCH  16  17
ATOM     17  C   UNL     1     105.653 313.122 192.280  1.00  0.00    -0.000 C 
BRANCH  17  18
ATOM     18  C   UNL     1     104.242 313.424 191.750  1.00  0.00    -0.000 C 
BRANCH  18  19
ATOM     19  C   UNL     1     104.283 314.518 190.677  1.00  0.00    -0.003 C 
ATOM     20  C   UNL     1     103.322 314.203 189.533  1.00  0.00     0.004 C 
ENDBRANCH  18  19
ENDBRANCH  17  18
ENDBRANCH  16  17
ENDBRANCH  15  16
ENDBRANCH  14  15
ENDBRANCH  13  14
ENDBRANCH  12  13
ENDBRANCH   1  12
TORSDOF 16
ENDMDL
MODEL 8
REMARK VINA RESULT:    -5.798     20.141     23.027
REMARK INTER + INTRA:         -12.143
REMARK INTER:                 -11.089
REMARK INTRA:                  -1.054
REMARK UNBOUND:                -0.921
REMARK SMILES CCCCCCCCCCCCCCCCCC(=O)[O-]
REMARK SMILES IDX 10 1 11 2 12 3 13 4 14 5 15 6 16 7 17 8 18 9 19 10 20 11
REMARK SMILES IDX 9 12 8 13 7 14 6 15 5 16 4 17 3 18 2 19 1 20
REMARK H PARENT
REMARK Flexibility Score: inf
ROOT
ATOM      1  C   UNL     1      88.893 324.882 197.806  1.00  0.00     0.000 C 
ENDROOT
BRANCH   1   2
ATOM      2  C   UNL     1      88.869 325.028 196.273  1.00  0.00     0.000 C 
BRANCH   2   3
ATOM      3  C   UNL     1      88.759 326.493 195.816  1.00  0.00     0.000 C 
BRANCH   3   4
ATOM      4  C   UNL     1      88.178 326.623 194.399  1.00  0.00     0.000 C 
BRANCH   4   5
ATOM      5  C   UNL     1      86.707 326.188 194.321  1.00  0.00     0.000 C 
BRANCH   5   6
ATOM      6  C   UNL     1      86.541 324.979 193.393  1.00  0.00     0.000 C 
BRANCH   6   7
ATOM      7  C   UNL     1      87.812 324.736 192.570  1.00  0.00     0.006 C 
BRANCH   7   8
ATOM      8  C   UNL     1      88.201 323.255 192.586  1.00  0.00     0.053 C 
BRANCH   8   9
ATOM      9  C   UNL     1      88.094 322.667 191.214  1.00  0.00     0.041 C 
ATOM     10  O   UNL     1      89.013 321.932 190.768  1.00  0.00    -0.550 OA
ATOM     11  O   UNL     1      86.960 322.896 190.445  1.00  0.00    -0.550 OA
ENDBRANCH   8   9
ENDBRANCH   7   8
ENDBRANCH   6   7
ENDBRANCH   5   6
ENDBRANCH   4   5
ENDBRANCH   3   4
ENDBRANCH   2   3
ENDBRANCH   1   2
BRANCH   1  12
ATOM     12  C   UNL     1      88.886 326.211 198.588  1.00  0.00     0.000 C 
BRANCH  12  13
ATOM     13  C   UNL     1      89.611 326.176 199.948  1.00  0.00    -0.000 C 
BRANCH  13  14
ATOM     14  C   UNL     1      88.845 325.464 201.077  1.00  0.00    -0.000 C 
BRANCH  14  15
ATOM     15  C   UNL     1      88.425 326.419 202.206  1.00  0.00    -0.000 C 
BRANCH  15  16
ATOM     16  C   UNL     1      89.645 326.880 203.017  1.00  0.00    -0.000 C 
BRANCH  16  17
ATOM     17  C   UNL     1      89.260 327.441 204.395  1.00  0.00    -0.000 C 
BRANCH  17  18
ATOM     18  C   UNL     1      89.734 326.548 205.551  1.00  0.00    -0.000 C 
BRANCH  18  19
ATOM     19  C   UNL     1      88.633 326.385 206.605  1.00  0.00    -0.003 C 
ATOM     20  C   UNL     1      87.642 325.296 206.201  1.00  0.00     0.004 C 
ENDBRANCH  18  19
ENDBRANCH  17  18
ENDBRANCH  16  17
ENDBRANCH  15  16
ENDBRANCH  14  15
ENDBRANCH  13  14
ENDBRANCH  12  13
ENDBRANCH   1  12
TORSDOF 16
ENDMDL
MODEL 9
REMARK VINA RESULT:    -5.776     19.112     21.569
REMARK INTER + INTRA:         -12.100
REMARK INTER:                  -9.497
REMARK INTRA:                  -2.603
REMARK UNBOUND:                -0.921
REMARK SMILES CCCCCCCCCCCCCCCCCC(=O)[O-]
REMARK SMILES IDX 10 1 11 2 12 3 13 4 14 5 15 6 16 7 17 8 18 9 19 10 20 11
REMARK SMILES IDX 9 12 8 13 7 14 6 15 5 16 4 17 3 18 2 19 1 20
REMARK H PARENT
REMARK Flexibility Score: inf
ROOT
ATOM      1  C   UNL     1      86.972 326.445 196.294  1.00  0.00     0.000 C 
ENDROOT
BRANCH   1   2
ATOM      2  C   UNL     1      86.769 326.152 194.796  1.00  0.00     0.000 C 
BRANCH   2   3
ATOM      3  C   UNL     1      88.086 326.173 194.001  1.00  0.00     0.000 C 
BRANCH   3   4
ATOM      4  C   UNL     1      88.084 325.169 192.836  1.00  0.00     0.000 C 
BRANCH   4   5
ATOM      5  C   UNL     1      86.742 324.437 192.689  1.00  0.00     0.000 C 
BRANCH   5   6
ATOM      6  C   UNL     1      86.776 323.461 191.508  1.00  0.00     0.000 C 
BRANCH   6   7
ATOM      7  C   UNL     1      88.190 323.348 190.926  1.00  0.00     0.006 C 
BRANCH   7   8
ATOM      8  C   UNL     1      88.145 323.149 189.408  1.00  0.00     0.053 C 
BRANCH   8   9
ATOM      9  C   UNL     1      88.583 321.765 189.044  1.00  0.00     0.041 C 
ATOM     10  O   UNL     1      89.463 321.593 188.160  1.00  0.00    -0.550 OA
ATOM     11  O   UNL     1      88.049 320.669 189.709  1.00  0.00    -0.550 OA
ENDBRANCH   8   9
ENDBRANCH   7   8
ENDBRANCH   6   7
ENDBRANCH   5   6
ENDBRANCH   4   5
ENDBRANCH   3   4
ENDBRANCH   2   3
ENDBRANCH   1   2
BRANCH   1  12
ATOM     12  C   UNL     1      88.443 326.584 196.738  1.00  0.00     0.000 C 
BRANCH  12  13
ATOM     13  C   UNL     1      88.733 326.154 198.189  1.00  0.00    -0.000 C 
BRANCH  13  14
ATOM     14  C   UNL     1      89.018 324.654 198.380  1.00  0.00    -0.000 C 
BRANCH  14  15
ATOM     15  C   UNL     1      89.699 324.016 197.160  1.00  0.00    -0.000 C 
BRANCH  15  16
ATOM     16  C   UNL     1      89.064 322.658 196.824  1.00  0.00    -0.000 C 
BRANCH  16  17
ATOM     17  C   UNL     1      87.873 322.785 195.861  1.00  0.00    -0.000 C 
BRANCH  17  18
ATOM     18  C   UNL     1      87.832 321.657 194.819  1.00  0.00    -0.000 C 
BRANCH  18  19
ATOM     19  C   UNL     1      89.132 321.613 194.008  1.00  0.00    -0.003 C 
ATOM     20  C   UNL     1      89.156 320.409 193.070  1.00  0.00     0.004 C 
ENDBRANCH  18  19
ENDBRANCH  17  18
ENDBRANCH  16  17
ENDBRANCH  15  16
ENDBRANCH  14  15
ENDBRANCH  13  14
ENDBRANCH  12  13
ENDBRANCH   1  12
TORSDOF 16
ENDMDL
