MODEL 1
REMARK VINA RESULT:    10.436      0.000      0.000
REMARK INTER + INTRA:          19.285
REMARK INTER:                  20.197
REMARK INTRA:                  -0.912
REMARK UNBOUND:                -0.912
REMARK SMILES CCCCCCCCCCCCCCCCCC(=O)[O-]
REMARK SMILES IDX 10 1 11 2 12 3 13 4 14 5 15 6 16 7 17 8 18 9 19 10 20 11
REMARK SMILES IDX 9 12 8 13 7 14 6 15 5 16 4 17 3 18 2 19 1 20
REMARK H PARENT
REMARK Flexibility Score: inf
ROOT
ATOM      1  C   UNL     1      -3.931 -16.861   7.018  1.00  0.00     0.000 C 
ENDROOT
BRANCH   1   2
ATOM      2  C   UNL     1      -5.126 -16.207   6.306  1.00  0.00     0.000 C 
BRANCH   2   3
ATOM      3  C   UNL     1      -6.407 -16.226   7.159  1.00  0.00     0.000 C 
BRANCH   3   4
ATOM      4  C   UNL     1      -7.016 -14.823   7.337  1.00  0.00     0.000 C 
BRANCH   4   5
ATOM      5  C   UNL     1      -7.043 -14.023   6.023  1.00  0.00     0.000 C 
BRANCH   5   6
ATOM      6  C   UNL     1      -6.461 -12.607   6.178  1.00  0.00     0.000 C 
BRANCH   6   7
ATOM      7  C   UNL     1      -4.931 -12.599   6.335  1.00  0.00     0.006 C 
BRANCH   7   8
ATOM      8  C   UNL     1      -4.452 -12.393   7.783  1.00  0.00     0.053 C 
BRANCH   8   9
ATOM      9  C   UNL     1      -3.662 -11.132   7.954  1.00  0.00     0.041 C 
ATOM     10  O   UNL     1      -3.340 -10.445   6.949  1.00  0.00    -0.550 OA
ATOM     11  O   UNL     1      -3.309 -10.695   9.226  1.00  0.00    -0.550 OA
ENDBRANCH   8   9
ENDBRANCH   7   8
ENDBRANCH   6   7
ENDBRANCH   5   6
ENDBRANCH   4   5
ENDBRANCH   3   4
ENDBRANCH   2   3
ENDBRANCH   1   2
BRANCH   1  12
ATOM     12  C   UNL     1      -2.813 -15.840   7.259  1.00  0.00     0.000 C 
BRANCH  12  13
ATOM     13  C   UNL     1      -2.754 -14.808   6.123  1.00  0.00    -0.000 C 
BRANCH  13  14
ATOM     14  C   UNL     1      -1.763 -13.669   6.407  1.00  0.00    -0.000 C 
BRANCH  14  15
ATOM     15  C   UNL     1      -1.105 -13.785   7.794  1.00  0.00    -0.000 C 
BRANCH  15  16
ATOM     16  C   UNL     1       0.392 -14.153   7.700  1.00  0.00    -0.000 C 
BRANCH  16  17
ATOM     17  C   UNL     1       1.183 -13.836   8.981  1.00  0.00    -0.000 C 
BRANCH  17  18
ATOM     18  C   UNL     1       1.900 -15.066   9.560  1.00  0.00    -0.000 C 
BRANCH  18  19
ATOM     19  C   UNL     1       2.034 -15.005  11.088  1.00  0.00    -0.003 C 
ATOM     20  C   UNL     1       0.744 -15.389  11.810  1.00  0.00     0.004 C 
ENDBRANCH  18  19
ENDBRANCH  17  18
ENDBRANCH  16  17
ENDBRANCH  15  16
ENDBRANCH  14  15
ENDBRANCH  13  14
ENDBRANCH  12  13
ENDBRANCH   1  12
TORSDOF 16
ENDMDL
MODEL 2
REMARK VINA RESULT:    10.594      2.019      2.602
REMARK INTER + INTRA:          19.592
REMARK INTER:                  20.260
REMARK INTRA:                  -0.668
REMARK UNBOUND:                -0.912
REMARK SMILES CCCCCCCCCCCCCCCCCC(=O)[O-]
REMARK SMILES IDX 10 1 11 2 12 3 13 4 14 5 15 6 16 7 17 8 18 9 19 10 20 11
REMARK SMILES IDX 9 12 8 13 7 14 6 15 5 16 4 17 3 18 2 19 1 20
REMARK H PARENT
REMARK Flexibility Score: inf
ROOT
ATOM      1  C   UNL     1      -3.031 -16.230   7.285  1.00  0.00     0.000 C 
ENDROOT
BRANCH   1   2
ATOM      2  C   UNL     1      -3.980 -17.266   6.664  1.00  0.00     0.000 C 
BRANCH   2   3
ATOM      3  C   UNL     1      -5.457 -16.844   6.749  1.00  0.00     0.000 C 
BRANCH   3   4
ATOM      4  C   UNL     1      -5.634 -15.434   7.340  1.00  0.00     0.000 C 
BRANCH   4   5
ATOM      5  C   UNL     1      -6.880 -14.719   6.792  1.00  0.00     0.000 C 
BRANCH   5   6
ATOM      6  C   UNL     1      -6.532 -13.466   5.969  1.00  0.00     0.000 C 
BRANCH   6   7
ATOM      7  C   UNL     1      -5.069 -13.021   6.137  1.00  0.00     0.006 C 
BRANCH   7   8
ATOM      8  C   UNL     1      -4.898 -11.745   6.980  1.00  0.00     0.053 C 
BRANCH   8   9
ATOM      9  C   UNL     1      -3.789 -11.861   7.980  1.00  0.00     0.041 C 
ATOM     10  O   UNL     1      -3.159 -10.835   8.350  1.00  0.00    -0.550 OA
ATOM     11  O   UNL     1      -3.472 -13.097   8.532  1.00  0.00    -0.550 OA
ENDBRANCH   8   9
ENDBRANCH   7   8
ENDBRANCH   6   7
ENDBRANCH   5   6
ENDBRANCH   4   5
ENDBRANCH   3   4
ENDBRANCH   2   3
ENDBRANCH   1   2
BRANCH   1  12
ATOM     12  C   UNL     1      -2.301 -15.433   6.197  1.00  0.00     0.000 C 
BRANCH  12  13
ATOM     13  C   UNL     1      -1.590 -14.210   6.795  1.00  0.00    -0.000 C 
BRANCH  13  14
ATOM     14  C   UNL     1      -0.929 -14.512   8.149  1.00  0.00    -0.000 C 
BRANCH  14  15
ATOM     15  C   UNL     1       0.453 -13.850   8.297  1.00  0.00    -0.000 C 
BRANCH  15  16
ATOM     16  C   UNL     1       1.601 -14.882   8.243  1.00  0.00    -0.000 C 
BRANCH  16  17
ATOM     17  C   UNL     1       1.139 -16.295   7.851  1.00  0.00    -0.000 C 
BRANCH  17  18
ATOM     18  C   UNL     1       2.249 -17.123   7.184  1.00  0.00    -0.000 C 
BRANCH  18  19
ATOM     19  C   UNL     1       1.729 -17.974   6.016  1.00  0.00    -0.003 C 
ATOM     20  C   UNL     1       2.103 -19.449   6.148  1.00  0.00     0.004 C 
ENDBRANCH  18  19
ENDBRANCH  17  18
ENDBRANCH  16  17
ENDBRANCH  15  16
ENDBRANCH  14  15
ENDBRANCH  13  14
ENDBRANCH  12  13
ENDBRANCH   1  12
TORSDOF 16
ENDMDL
MODEL 3
REMARK VINA RESULT:    10.665     13.672     16.458
REMARK INTER + INTRA:          19.729
REMARK INTER:                  20.444
REMARK INTRA:                  -0.715
REMARK UNBOUND:                -0.912
REMARK SMILES CCCCCCCCCCCCCCCCCC(=O)[O-]
REMARK SMILES IDX 10 1 11 2 12 3 13 4 14 5 15 6 16 7 17 8 18 9 19 10 20 11
REMARK SMILES IDX 9 12 8 13 7 14 6 15 5 16 4 17 3 18 2 19 1 20
REMARK H PARENT
REMARK Flexibility Score: inf
ROOT
ATOM      1  C   UNL     1      -1.122  -8.761  20.368  1.00  0.00     0.000 C 
ENDROOT
BRANCH   1   2
ATOM      2  C   UNL     1      -0.665  -7.931  21.577  1.00  0.00     0.000 C 
BRANCH   2   3
ATOM      3  C   UNL     1      -1.681  -6.845  21.969  1.00  0.00     0.000 C 
BRANCH   3   4
ATOM      4  C   UNL     1      -1.475  -6.338  23.408  1.00  0.00     0.000 C 
BRANCH   4   5
ATOM      5  C   UNL     1      -1.470  -4.802  23.495  1.00  0.00     0.000 C 
BRANCH   5   6
ATOM      6  C   UNL     1      -2.302  -4.271  24.676  1.00  0.00     0.000 C 
BRANCH   6   7
ATOM      7  C   UNL     1      -3.305  -5.303  25.219  1.00  0.00     0.006 C 
BRANCH   7   8
ATOM      8  C   UNL     1      -4.512  -4.679  25.942  1.00  0.00     0.053 C 
BRANCH   8   9
ATOM      9  C   UNL     1      -5.820  -5.219  25.449  1.00  0.00     0.041 C 
ATOM     10  O   UNL     1      -6.871  -5.050  26.123  1.00  0.00    -0.550 OA
ATOM     11  O   UNL     1      -5.888  -5.879  24.227  1.00  0.00    -0.550 OA
ENDBRANCH   8   9
ENDBRANCH   7   8
ENDBRANCH   6   7
ENDBRANCH   5   6
ENDBRANCH   4   5
ENDBRANCH   3   4
ENDBRANCH   2   3
ENDBRANCH   1   2
BRANCH   1  12
ATOM     12  C   UNL     1      -2.153  -7.992  19.532  1.00  0.00     0.000 C 
BRANCH  12  13
ATOM     13  C   UNL     1      -3.558  -8.588  19.706  1.00  0.00    -0.000 C 
BRANCH  13  14
ATOM     14  C   UNL     1      -3.594 -10.103  19.456  1.00  0.00    -0.000 C 
BRANCH  14  15
ATOM     15  C   UNL     1      -3.717 -10.918  20.756  1.00  0.00    -0.000 C 
BRANCH  15  16
ATOM     16  C   UNL     1      -4.835 -11.980  20.675  1.00  0.00    -0.000 C 
BRANCH  16  17
ATOM     17  C   UNL     1      -4.665 -12.962  19.503  1.00  0.00    -0.000 C 
BRANCH  17  18
ATOM     18  C   UNL     1      -3.538 -13.980  19.736  1.00  0.00    -0.000 C 
BRANCH  18  19
ATOM     19  C   UNL     1      -4.037 -15.271  20.401  1.00  0.00    -0.003 C 
ATOM     20  C   UNL     1      -3.785 -16.512  19.545  1.00  0.00     0.004 C 
ENDBRANCH  18  19
ENDBRANCH  17  18
ENDBRANCH  16  17
ENDBRANCH  15  16
ENDBRANCH  14  15
ENDBRANCH  13  14
ENDBRANCH  12  13
ENDBRANCH   1  12
TORSDOF 16
ENDMDL
MODEL 4
REMARK VINA RESULT:    10.685      2.434      6.218
REMARK INTER + INTRA:          19.767
REMARK INTER:                  20.377
REMARK INTRA:                  -0.609
REMARK UNBOUND:                -0.912
REMARK SMILES CCCCCCCCCCCCCCCCCC(=O)[O-]
REMARK SMILES IDX 10 1 11 2 12 3 13 4 14 5 15 6 16 7 17 8 18 9 19 10 20 11
REMARK SMILES IDX 9 12 8 13 7 14 6 15 5 16 4 17 3 18 2 19 1 20
REMARK H PARENT
REMARK Flexibility Score: inf
ROOT
ATOM      1  C   UNL     1      -3.445 -16.820   7.285  1.00  0.00     0.000 C 
ENDROOT
BRANCH   1   2
ATOM      2  C   UNL     1      -2.943 -15.368   7.318  1.00  0.00     0.000 C 
BRANCH   2   3
ATOM      3  C   UNL     1      -2.460 -14.876   5.943  1.00  0.00     0.000 C 
BRANCH   3   4
ATOM      4  C   UNL     1      -1.598 -13.605   6.043  1.00  0.00     0.000 C 
BRANCH   4   5
ATOM      5  C   UNL     1      -1.241 -13.249   7.496  1.00  0.00     0.000 C 
BRANCH   5   6
ATOM      6  C   UNL     1      -0.393 -14.333   8.183  1.00  0.00     0.000 C 
BRANCH   6   7
ATOM      7  C   UNL     1       0.888 -13.777   8.829  1.00  0.00     0.006 C 
BRANCH   7   8
ATOM      8  C   UNL     1       1.949 -14.850   9.135  1.00  0.00     0.053 C 
BRANCH   8   9
ATOM      9  C   UNL     1       2.224 -14.984  10.602  1.00  0.00     0.041 C 
ATOM     10  O   UNL     1       3.410 -15.042  11.021  1.00  0.00    -0.550 OA
ATOM     11  O   UNL     1       1.173 -15.009  11.511  1.00  0.00    -0.550 OA
ENDBRANCH   8   9
ENDBRANCH   7   8
ENDBRANCH   6   7
ENDBRANCH   5   6
ENDBRANCH   4   5
ENDBRANCH   3   4
ENDBRANCH   2   3
ENDBRANCH   1   2
BRANCH   1  12
ATOM     12  C   UNL     1      -4.740 -16.935   6.473  1.00  0.00     0.000 C 
BRANCH  12  13
ATOM     13  C   UNL     1      -5.958 -17.081   7.397  1.00  0.00    -0.000 C 
BRANCH  13  14
ATOM     14  C   UNL     1      -7.110 -16.140   7.012  1.00  0.00    -0.000 C 
BRANCH  14  15
ATOM     15  C   UNL     1      -6.801 -14.665   7.321  1.00  0.00    -0.000 C 
BRANCH  15  16
ATOM     16  C   UNL     1      -6.696 -13.811   6.038  1.00  0.00    -0.000 C 
BRANCH  16  17
ATOM     17  C   UNL     1      -5.409 -12.971   5.964  1.00  0.00    -0.000 C 
BRANCH  17  18
ATOM     18  C   UNL     1      -4.791 -12.703   7.345  1.00  0.00    -0.000 C 
BRANCH  18  19
ATOM     19  C   UNL     1      -4.137 -11.316   7.439  1.00  0.00    -0.003 C 
ATOM     20  C   UNL     1      -3.165 -11.200   8.612  1.00  0.00     0.004 C 
ENDBRANCH  18  19
ENDBRANCH  17  18
ENDBRANCH  16  17
ENDBRANCH  15  16
ENDBRANCH  14  15
ENDBRANCH  13  14
ENDBRANCH  12  13
ENDBRANCH   1  12
TORSDOF 16
ENDMDL
MODEL 5
REMARK VINA RESULT:    10.850      2.588      6.537
REMARK INTER + INTRA:          20.087
REMARK INTER:                  21.376
REMARK INTRA:                  -1.289
REMARK UNBOUND:                -0.912
REMARK SMILES CCCCCCCCCCCCCCCCCC(=O)[O-]
REMARK SMILES IDX 10 1 11 2 12 3 13 4 14 5 15 6 16 7 17 8 18 9 19 10 20 11
REMARK SMILES IDX 9 12 8 13 7 14 6 15 5 16 4 17 3 18 2 19 1 20
REMARK H PARENT
REMARK Flexibility Score: inf
ROOT
ATOM      1  C   UNL     1      -3.390 -11.883   8.043  1.00  0.00     0.000 C 
ENDROOT
BRANCH   1   2
ATOM      2  C   UNL     1      -3.493 -13.413   8.138  1.00  0.00     0.000 C 
BRANCH   2   3
ATOM      3  C   UNL     1      -2.991 -14.122   6.869  1.00  0.00     0.000 C 
BRANCH   3   4
ATOM      4  C   UNL     1      -1.458 -14.091   6.744  1.00  0.00     0.000 C 
BRANCH   4   5
ATOM      5  C   UNL     1      -0.757 -14.047   8.112  1.00  0.00     0.000 C 
BRANCH   5   6
ATOM      6  C   UNL     1       0.694 -13.543   8.022  1.00  0.00     0.000 C 
BRANCH   6   7
ATOM      7  C   UNL     1       1.709 -14.512   8.653  1.00  0.00     0.006 C 
BRANCH   7   8
ATOM      8  C   UNL     1       1.134 -15.355   9.805  1.00  0.00     0.053 C 
BRANCH   8   9
ATOM      9  C   UNL     1       1.875 -15.152  11.091  1.00  0.00     0.041 C 
ATOM     10  O   UNL     1       3.120 -14.965  11.082  1.00  0.00    -0.550 OA
ATOM     11  O   UNL     1       1.187 -15.135  12.299  1.00  0.00    -0.550 OA
ENDBRANCH   8   9
ENDBRANCH   7   8
ENDBRANCH   6   7
ENDBRANCH   5   6
ENDBRANCH   4   5
ENDBRANCH   3   4
ENDBRANCH   2   3
ENDBRANCH   1   2
BRANCH   1  12
ATOM     12  C   UNL     1      -4.480 -11.316   7.126  1.00  0.00     0.000 C 
BRANCH  12  13
ATOM     13  C   UNL     1      -5.778 -12.127   7.247  1.00  0.00    -0.000 C 
BRANCH  13  14
ATOM     14  C   UNL     1      -6.351 -12.537   5.882  1.00  0.00    -0.000 C 
BRANCH  14  15
ATOM     15  C   UNL     1      -6.902 -13.974   5.875  1.00  0.00    -0.000 C 
BRANCH  15  16
ATOM     16  C   UNL     1      -6.678 -14.690   7.225  1.00  0.00    -0.000 C 
BRANCH  16  17
ATOM     17  C   UNL     1      -6.496 -16.211   7.090  1.00  0.00    -0.000 C 
BRANCH  17  18
ATOM     18  C   UNL     1      -5.195 -16.595   6.366  1.00  0.00    -0.000 C 
BRANCH  18  19
ATOM     19  C   UNL     1      -4.099 -17.067   7.333  1.00  0.00    -0.003 C 
ATOM     20  C   UNL     1      -2.975 -17.823   6.627  1.00  0.00     0.004 C 
ENDBRANCH  18  19
ENDBRANCH  17  18
ENDBRANCH  16  17
ENDBRANCH  15  16
ENDBRANCH  14  15
ENDBRANCH  13  14
ENDBRANCH  12  13
ENDBRANCH   1  12
TORSDOF 16
ENDMDL
MODEL 6
REMARK VINA RESULT:    10.880      3.827      7.271
REMARK INTER + INTRA:          20.145
REMARK INTER:                  21.239
REMARK INTRA:                  -1.094
REMARK UNBOUND:                -0.912
REMARK SMILES CCCCCCCCCCCCCCCCCC(=O)[O-]
REMARK SMILES IDX 10 1 11 2 12 3 13 4 14 5 15 6 16 7 17 8 18 9 19 10 20 11
REMARK SMILES IDX 9 12 8 13 7 14 6 15 5 16 4 17 3 18 2 19 1 20
REMARK H PARENT
REMARK Flexibility Score: inf
ROOT
ATOM      1  C   UNL     1      -2.919 -15.132   6.281  1.00  0.00     0.000 C 
ENDROOT
BRANCH   1   2
ATOM      2  C   UNL     1      -1.565 -14.484   6.607  1.00  0.00     0.000 C 
BRANCH   2   3
ATOM      3  C   UNL     1      -1.341 -14.303   8.118  1.00  0.00     0.000 C 
BRANCH   3   4
ATOM      4  C   UNL     1       0.033 -13.689   8.440  1.00  0.00     0.000 C 
BRANCH   4   5
ATOM      5  C   UNL     1       1.193 -14.483   7.817  1.00  0.00     0.000 C 
BRANCH   5   6
ATOM      6  C   UNL     1       1.289 -15.919   8.359  1.00  0.00     0.000 C 
BRANCH   6   7
ATOM      7  C   UNL     1       2.276 -16.796   7.570  1.00  0.00     0.006 C 
BRANCH   7   8
ATOM      8  C   UNL     1       1.615 -17.648   6.471  1.00  0.00     0.053 C 
BRANCH   8   9
ATOM      9  C   UNL     1       2.106 -19.063   6.467  1.00  0.00     0.041 C 
ATOM     10  O   UNL     1       3.177 -19.361   5.875  1.00  0.00    -0.550 OA
ATOM     11  O   UNL     1       1.400 -20.050   7.146  1.00  0.00    -0.550 OA
ENDBRANCH   8   9
ENDBRANCH   7   8
ENDBRANCH   6   7
ENDBRANCH   5   6
ENDBRANCH   4   5
ENDBRANCH   3   4
ENDBRANCH   2   3
ENDBRANCH   1   2
BRANCH   1  12
ATOM     12  C   UNL     1      -3.038 -16.514   6.935  1.00  0.00     0.000 C 
BRANCH  12  13
ATOM     13  C   UNL     1      -4.499 -16.835   7.282  1.00  0.00    -0.000 C 
BRANCH  13  14
ATOM     14  C   UNL     1      -5.498 -16.136   6.347  1.00  0.00    -0.000 C 
BRANCH  14  15
ATOM     15  C   UNL     1      -6.347 -15.075   7.070  1.00  0.00    -0.000 C 
BRANCH  15  16
ATOM     16  C   UNL     1      -6.799 -13.944   6.120  1.00  0.00    -0.000 C 
BRANCH  16  17
ATOM     17  C   UNL     1      -6.168 -12.580   6.446  1.00  0.00    -0.000 C 
BRANCH  17  18
ATOM     18  C   UNL     1      -4.638 -12.647   6.581  1.00  0.00    -0.000 C 
BRANCH  18  19
ATOM     19  C   UNL     1      -4.163 -12.420   8.023  1.00  0.00    -0.003 C 
ATOM     20  C   UNL     1      -3.340 -11.142   8.181  1.00  0.00     0.004 C 
ENDBRANCH  18  19
ENDBRANCH  17  18
ENDBRANCH  16  17
ENDBRANCH  15  16
ENDBRANCH  14  15
ENDBRANCH  13  14
ENDBRANCH  12  13
ENDBRANCH   1  12
TORSDOF 16
ENDMDL
MODEL 7
REMARK VINA RESULT:    10.929      2.581      3.755
REMARK INTER + INTRA:          20.240
REMARK INTER:                  20.018
REMARK INTRA:                   0.222
REMARK UNBOUND:                -0.912
REMARK SMILES CCCCCCCCCCCCCCCCCC(=O)[O-]
REMARK SMILES IDX 10 1 11 2 12 3 13 4 14 5 15 6 16 7 17 8 18 9 19 10 20 11
REMARK SMILES IDX 9 12 8 13 7 14 6 15 5 16 4 17 3 18 2 19 1 20
REMARK H PARENT
REMARK Flexibility Score: inf
ROOT
ATOM      1  C   UNL     1      -4.190 -12.154   7.589  1.00  0.00     0.000 C 
ENDROOT
BRANCH   1   2
ATOM      2  C   UNL     1      -4.603 -13.154   6.498  1.00  0.00     0.000 C 
BRANCH   2   3
ATOM      3  C   UNL     1      -5.993 -12.854   5.912  1.00  0.00     0.000 C 
BRANCH   3   4
ATOM      4  C   UNL     1      -6.965 -14.038   6.067  1.00  0.00     0.000 C 
BRANCH   4   5
ATOM      5  C   UNL     1      -6.840 -14.726   7.436  1.00  0.00     0.000 C 
BRANCH   5   6
ATOM      6  C   UNL     1      -6.571 -16.237   7.320  1.00  0.00     0.000 C 
BRANCH   6   7
ATOM      7  C   UNL     1      -5.483 -16.577   6.287  1.00  0.00     0.006 C 
BRANCH   7   8
ATOM      8  C   UNL     1      -4.047 -16.392   6.809  1.00  0.00     0.053 C 
BRANCH   8   9
ATOM      9  C   UNL     1      -3.375 -17.694   7.120  1.00  0.00     0.041 C 
ATOM     10  O   UNL     1      -2.658 -18.260   6.252  1.00  0.00    -0.550 OA
ATOM     11  O   UNL     1      -3.511 -18.269   8.378  1.00  0.00    -0.550 OA
ENDBRANCH   8   9
ENDBRANCH   7   8
ENDBRANCH   6   7
ENDBRANCH   5   6
ENDBRANCH   4   5
ENDBRANCH   3   4
ENDBRANCH   2   3
ENDBRANCH   1   2
BRANCH   1  12
ATOM     12  C   UNL     1      -3.078 -12.733   8.471  1.00  0.00     0.000 C 
BRANCH  12  13
ATOM     13  C   UNL     1      -2.832 -14.214   8.146  1.00  0.00    -0.000 C 
BRANCH  13  14
ATOM     14  C   UNL     1      -1.871 -14.409   6.963  1.00  0.00    -0.000 C 
BRANCH  14  15
ATOM     15  C   UNL     1      -0.613 -13.529   7.067  1.00  0.00    -0.000 C 
BRANCH  15  16
ATOM     16  C   UNL     1       0.178 -13.793   8.366  1.00  0.00    -0.000 C 
BRANCH  16  17
ATOM     17  C   UNL     1       1.450 -14.630   8.151  1.00  0.00    -0.000 C 
BRANCH  17  18
ATOM     18  C   UNL     1       2.024 -15.192   9.461  1.00  0.00    -0.000 C 
BRANCH  18  19
ATOM     19  C   UNL     1       1.512 -14.442  10.699  1.00  0.00    -0.003 C 
ATOM     20  C   UNL     1       1.147 -15.379  11.850  1.00  0.00     0.004 C 
ENDBRANCH  18  19
ENDBRANCH  17  18
ENDBRANCH  16  17
ENDBRANCH  15  16
ENDBRANCH  14  15
ENDBRANCH  13  14
ENDBRANCH  12  13
ENDBRANCH   1  12
TORSDOF 16
ENDMDL
MODEL 8
REMARK VINA RESULT:    11.547      4.082      7.468
REMARK INTER + INTRA:          21.436
REMARK INTER:                  22.276
REMARK INTRA:                  -0.840
REMARK UNBOUND:                -0.912
REMARK SMILES CCCCCCCCCCCCCCCCCC(=O)[O-]
REMARK SMILES IDX 10 1 11 2 12 3 13 4 14 5 15 6 16 7 17 8 18 9 19 10 20 11
REMARK SMILES IDX 9 12 8 13 7 14 6 15 5 16 4 17 3 18 2 19 1 20
REMARK H PARENT
REMARK Flexibility Score: inf
ROOT
ATOM      1  C   UNL     1      -2.109 -14.369   6.251  1.00  0.00     0.000 C 
ENDROOT
BRANCH   1   2
ATOM      2  C   UNL     1      -1.264 -13.724   7.359  1.00  0.00     0.000 C 
BRANCH   2   3
ATOM      3  C   UNL     1      -0.826 -14.732   8.435  1.00  0.00     0.000 C 
BRANCH   3   4
ATOM      4  C   UNL     1       0.542 -14.382   9.049  1.00  0.00     0.000 C 
BRANCH   4   5
ATOM      5  C   UNL     1       1.641 -15.378   8.642  1.00  0.00     0.000 C 
BRANCH   5   6
ATOM      6  C   UNL     1       1.371 -16.037   7.279  1.00  0.00     0.000 C 
BRANCH   6   7
ATOM      7  C   UNL     1       2.387 -17.139   6.930  1.00  0.00     0.006 C 
BRANCH   7   8
ATOM      8  C   UNL     1       1.806 -18.274   6.068  1.00  0.00     0.053 C 
BRANCH   8   9
ATOM      9  C   UNL     1       2.111 -19.631   6.624  1.00  0.00     0.041 C 
ATOM     10  O   UNL     1       2.084 -20.644   5.875  1.00  0.00    -0.550 OA
ATOM     11  O   UNL     1       2.460 -19.777   7.962  1.00  0.00    -0.550 OA
ENDBRANCH   8   9
ENDBRANCH   7   8
ENDBRANCH   6   7
ENDBRANCH   5   6
ENDBRANCH   4   5
ENDBRANCH   3   4
ENDBRANCH   2   3
ENDBRANCH   1   2
BRANCH   1  12
ATOM     12  C   UNL     1      -3.304 -13.481   5.886  1.00  0.00     0.000 C 
BRANCH  12  13
ATOM     13  C   UNL     1      -3.883 -12.796   7.133  1.00  0.00    -0.000 C 
BRANCH  13  14
ATOM     14  C   UNL     1      -5.409 -12.630   7.064  1.00  0.00    -0.000 C 
BRANCH  14  15
ATOM     15  C   UNL     1      -6.063 -13.569   6.035  1.00  0.00    -0.000 C 
BRANCH  15  16
ATOM     16  C   UNL     1      -6.576 -14.874   6.681  1.00  0.00    -0.000 C 
BRANCH  16  17
ATOM     17  C   UNL     1      -5.773 -16.120   6.270  1.00  0.00    -0.000 C 
BRANCH  17  18
ATOM     18  C   UNL     1      -4.872 -16.648   7.397  1.00  0.00    -0.000 C 
BRANCH  18  19
ATOM     19  C   UNL     1      -3.395 -16.725   6.985  1.00  0.00    -0.003 C 
ATOM     20  C   UNL     1      -2.977 -18.126   6.540  1.00  0.00     0.004 C 
ENDBRANCH  18  19
ENDBRANCH  17  18
ENDBRANCH  16  17
ENDBRANCH  15  16
ENDBRANCH  14  15
ENDBRANCH  13  14
ENDBRANCH  12  13
ENDBRANCH   1  12
TORSDOF 16
ENDMDL
