MODEL 1
REMARK VINA RESULT:    -4.962      0.000      0.000
REMARK INTER + INTRA:          -6.079
REMARK INTER:                  -5.833
REMARK INTRA:                  -0.246
REMARK UNBOUND:                -0.246
REMARK SMILES O=c1c(O)c(-c2ccc(O)cc2)oc2cc(O)cc(O)c12
REMARK SMILES IDX 5 1 3 2 2 3 1 4 21 5 19 6 18 7 16 8 15 9 14 10 13 11 6 12
REMARK SMILES IDX 7 13 8 14 9 15 12 16 11 17 10 18 4 20 20 22 17 24
REMARK H PARENT 10 19 4 21 20 23 17 25
REMARK Flexibility Score: inf
ROOT
ATOM      1  C   UNL     1       7.541  10.640   7.847  1.00  0.00     0.180 A 
ATOM      2  C   UNL     1       7.822   9.851   8.978  1.00  0.00     0.208 A 
ATOM      3  C   UNL     1       8.858   8.907   8.906  1.00  0.00     0.238 A 
ATOM      4  O   UNL     1       9.112   8.187   9.911  1.00  0.00    -0.285 OA
ATOM      5  C   UNL     1       9.606   8.782   7.718  1.00  0.00     0.111 A 
ATOM      6  C   UNL     1      10.669   7.859   7.564  1.00  0.00     0.134 A 
ATOM      7  C   UNL     1      11.370   7.802   6.351  1.00  0.00     0.093 A 
ATOM      8  C   UNL     1      11.032   8.651   5.290  1.00  0.00     0.123 A 
ATOM      9  C   UNL     1       9.985   9.561   5.437  1.00  0.00     0.094 A 
ATOM     10  C   UNL     1       9.271   9.633   6.637  1.00  0.00     0.146 A 
ATOM     11  O   UNL     1       8.276  10.506   6.748  1.00  0.00    -0.452 OA
ENDROOT
BRANCH   1  12
ATOM     12  C   UNL     1       6.451  11.643   7.839  1.00  0.00     0.021 A 
ATOM     13  C   UNL     1       5.102  11.260   7.744  1.00  0.00     0.016 A 
ATOM     14  C   UNL     1       4.092  12.227   7.714  1.00  0.00     0.047 A 
ATOM     15  C   UNL     1       4.419  13.589   7.764  1.00  0.00     0.115 A 
ATOM     16  C   UNL     1       6.771  13.012   7.866  1.00  0.00     0.016 A 
ATOM     17  C   UNL     1       5.760  13.977   7.838  1.00  0.00     0.047 A 
BRANCH  15  18
ATOM     18  O   UNL     1       3.422  14.561   7.736  1.00  0.00    -0.508 OA
ATOM     19  H   UNL     1       2.502  14.365   7.358  1.00  0.00     0.293 HD
ENDBRANCH  15  18
ENDBRANCH   1  12
BRANCH   2  20
ATOM     20  O   UNL     1       7.099  10.029  10.161  1.00  0.00    -0.502 OA
ATOM     21  H   UNL     1       7.221  10.841  10.755  1.00  0.00     0.293 HD
ENDBRANCH   2  20
BRANCH   6  22
ATOM     22  O   UNL     1      11.030   7.001   8.603  1.00  0.00    -0.507 OA
ATOM     23  H   UNL     1      11.729   7.260   9.289  1.00  0.00     0.293 HD
ENDBRANCH   6  22
BRANCH   8  24
ATOM     24  O   UNL     1      11.729   8.595   4.087  1.00  0.00    -0.508 OA
ATOM     25  H   UNL     1      11.717   9.367   3.431  1.00  0.00     0.293 HD
ENDBRANCH   8  24
TORSDOF 5
ENDMDL
MODEL 2
REMARK VINA RESULT:    -4.938      1.725      6.906
REMARK INTER + INTRA:          -6.050
REMARK INTER:                  -5.782
REMARK INTRA:                  -0.268
REMARK UNBOUND:                -0.246
REMARK SMILES O=c1c(O)c(-c2ccc(O)cc2)oc2cc(O)cc(O)c12
REMARK SMILES IDX 5 1 3 2 2 3 1 4 21 5 19 6 18 7 16 8 15 9 14 10 13 11 6 12
REMARK SMILES IDX 7 13 8 14 9 15 12 16 11 17 10 18 4 20 20 22 17 24
REMARK H PARENT 10 19 4 21 20 23 17 25
REMARK Flexibility Score: inf
ROOT
ATOM      1  C   UNL     1       7.949  10.579   7.258  1.00  0.00     0.180 A 
ATOM      2  C   UNL     1       8.168  11.947   7.511  1.00  0.00     0.208 A 
ATOM      3  C   UNL     1       7.066  12.769   7.795  1.00  0.00     0.238 A 
ATOM      4  O   UNL     1       7.249  13.998   8.013  1.00  0.00    -0.285 OA
ATOM      5  C   UNL     1       5.773  12.210   7.840  1.00  0.00     0.111 A 
ATOM      6  C   UNL     1       4.610  12.968   8.122  1.00  0.00     0.134 A 
ATOM      7  C   UNL     1       3.359  12.335   8.157  1.00  0.00     0.093 A 
ATOM      8  C   UNL     1       3.248  10.961   7.917  1.00  0.00     0.123 A 
ATOM      9  C   UNL     1       4.391  10.210   7.637  1.00  0.00     0.094 A 
ATOM     10  C   UNL     1       5.647  10.822   7.596  1.00  0.00     0.146 A 
ATOM     11  O   UNL     1       6.718  10.084   7.323  1.00  0.00    -0.452 OA
ENDROOT
BRANCH   1  12
ATOM     12  C   UNL     1       9.058   9.653   6.933  1.00  0.00     0.021 A 
ATOM     13  C   UNL     1       9.629   9.615   5.648  1.00  0.00     0.016 A 
ATOM     14  C   UNL     1      10.658   8.713   5.359  1.00  0.00     0.047 A 
ATOM     15  C   UNL     1      11.120   7.831   6.344  1.00  0.00     0.115 A 
ATOM     16  C   UNL     1       9.511   8.749   7.908  1.00  0.00     0.016 A 
ATOM     17  C   UNL     1      10.542   7.850   7.617  1.00  0.00     0.047 A 
BRANCH  15  18
ATOM     18  O   UNL     1      12.146   6.929   6.067  1.00  0.00    -0.508 OA
ATOM     19  H   UNL     1      12.807   7.094   5.318  1.00  0.00     0.293 HD
ENDBRANCH  15  18
ENDBRANCH   1  12
BRANCH   2  20
ATOM     20  O   UNL     1       9.465  12.466   7.510  1.00  0.00    -0.502 OA
ATOM     21  H   UNL     1       9.844  12.979   6.722  1.00  0.00     0.293 HD
ENDBRANCH   2  20
BRANCH   6  22
ATOM     22  O   UNL     1       4.690  14.339   8.367  1.00  0.00    -0.507 OA
ATOM     23  H   UNL     1       4.060  14.997   7.922  1.00  0.00     0.293 HD
ENDBRANCH   6  22
BRANCH   8  24
ATOM     24  O   UNL     1       2.005  10.332   7.952  1.00  0.00    -0.508 OA
ATOM     25  H   UNL     1       1.193  10.788   8.349  1.00  0.00     0.293 HD
ENDBRANCH   8  24
TORSDOF 5
ENDMDL
MODEL 3
REMARK VINA RESULT:    -4.716      2.097      6.732
REMARK INTER + INTRA:          -5.789
REMARK INTER:                  -5.497
REMARK INTRA:                  -0.293
REMARK UNBOUND:                -0.246
REMARK SMILES O=c1c(O)c(-c2ccc(O)cc2)oc2cc(O)cc(O)c12
REMARK SMILES IDX 5 1 3 2 2 3 1 4 21 5 19 6 18 7 16 8 15 9 14 10 13 11 6 12
REMARK SMILES IDX 7 13 8 14 9 15 12 16 11 17 10 18 4 20 20 22 17 24
REMARK H PARENT 10 19 4 21 20 23 17 25
REMARK Flexibility Score: inf
ROOT
ATOM      1  C   UNL     1       7.704  11.497   8.018  1.00  0.00     0.180 A 
ATOM      2  C   UNL     1       8.167  11.740   9.325  1.00  0.00     0.208 A 
ATOM      3  C   UNL     1       7.634  12.823  10.042  1.00  0.00     0.238 A 
ATOM      4  O   UNL     1       8.049  13.057  11.211  1.00  0.00    -0.285 OA
ATOM      5  C   UNL     1       6.640  13.629   9.452  1.00  0.00     0.111 A 
ATOM      6  C   UNL     1       6.049  14.736  10.108  1.00  0.00     0.134 A 
ATOM      7  C   UNL     1       5.059  15.484   9.455  1.00  0.00     0.093 A 
ATOM      8  C   UNL     1       4.646  15.146   8.161  1.00  0.00     0.123 A 
ATOM      9  C   UNL     1       5.226  14.056   7.510  1.00  0.00     0.094 A 
ATOM     10  C   UNL     1       6.217  13.299   8.143  1.00  0.00     0.146 A 
ATOM     11  O   UNL     1       6.755  12.270   7.498  1.00  0.00    -0.452 OA
ENDROOT
BRANCH   1  12
ATOM     12  C   UNL     1       8.230  10.387   7.191  1.00  0.00     0.021 A 
ATOM     13  C   UNL     1       9.411  10.527   6.440  1.00  0.00     0.016 A 
ATOM     14  C   UNL     1       9.875   9.473   5.647  1.00  0.00     0.047 A 
ATOM     15  C   UNL     1       9.157   8.270   5.585  1.00  0.00     0.115 A 
ATOM     16  C   UNL     1       7.506   9.186   7.105  1.00  0.00     0.016 A 
ATOM     17  C   UNL     1       7.972   8.132   6.313  1.00  0.00     0.047 A 
BRANCH  15  18
ATOM     18  O   UNL     1       9.610   7.212   4.800  1.00  0.00    -0.508 OA
ATOM     19  H   UNL     1       9.306   7.096   3.840  1.00  0.00     0.293 HD
ENDBRANCH  15  18
ENDBRANCH   1  12
BRANCH   2  20
ATOM     20  O   UNL     1       9.117  10.897   9.906  1.00  0.00    -0.502 OA
ATOM     21  H   UNL     1       8.903  10.302  10.698  1.00  0.00     0.293 HD
ENDBRANCH   2  20
BRANCH   6  22
ATOM     22  O   UNL     1       6.439  15.098  11.398  1.00  0.00    -0.507 OA
ATOM     23  H   UNL     1       6.012  14.685  12.219  1.00  0.00     0.293 HD
ENDBRANCH   6  22
BRANCH   8  24
ATOM     24  O   UNL     1       3.662  15.888   7.513  1.00  0.00    -0.508 OA
ATOM     25  H   UNL     1       3.897  16.674   6.918  1.00  0.00     0.293 HD
ENDBRANCH   8  24
TORSDOF 5
ENDMDL
MODEL 4
REMARK VINA RESULT:    -4.524      2.042      2.238
REMARK INTER + INTRA:          -5.564
REMARK INTER:                  -5.266
REMARK INTRA:                  -0.298
REMARK UNBOUND:                -0.246
REMARK SMILES O=c1c(O)c(-c2ccc(O)cc2)oc2cc(O)cc(O)c12
REMARK SMILES IDX 5 1 3 2 2 3 1 4 21 5 19 6 18 7 16 8 15 9 14 10 13 11 6 12
REMARK SMILES IDX 7 13 8 14 9 15 12 16 11 17 10 18 4 20 20 22 17 24
REMARK H PARENT 10 19 4 21 20 23 17 25
REMARK Flexibility Score: inf
ROOT
ATOM      1  C   UNL     1       7.245  10.996   7.694  1.00  0.00     0.180 A 
ATOM      2  C   UNL     1       6.496   9.805   7.724  1.00  0.00     0.208 A 
ATOM      3  C   UNL     1       7.008   8.665   7.085  1.00  0.00     0.238 A 
ATOM      4  O   UNL     1       6.340   7.594   7.096  1.00  0.00    -0.285 OA
ATOM      5  C   UNL     1       8.263   8.729   6.447  1.00  0.00     0.111 A 
ATOM      6  C   UNL     1       8.852   7.625   5.783  1.00  0.00     0.134 A 
ATOM      7  C   UNL     1      10.110   7.767   5.179  1.00  0.00     0.093 A 
ATOM      8  C   UNL     1      10.790   8.989   5.226  1.00  0.00     0.123 A 
ATOM      9  C   UNL     1      10.213  10.079   5.879  1.00  0.00     0.094 A 
ATOM     10  C   UNL     1       8.959   9.960   6.485  1.00  0.00     0.146 A 
ATOM     11  O   UNL     1       8.432  11.015   7.095  1.00  0.00    -0.452 OA
ENDROOT
BRANCH   1  12
ATOM     12  C   UNL     1       6.764  12.244   8.328  1.00  0.00     0.021 A 
ATOM     13  C   UNL     1       5.968  13.166   7.624  1.00  0.00     0.016 A 
ATOM     14  C   UNL     1       5.546  14.349   8.237  1.00  0.00     0.047 A 
ATOM     15  C   UNL     1       5.925  14.633   9.556  1.00  0.00     0.115 A 
ATOM     16  C   UNL     1       7.157  12.548   9.643  1.00  0.00     0.016 A 
ATOM     17  C   UNL     1       6.732  13.731  10.255  1.00  0.00     0.047 A 
BRANCH  15  18
ATOM     18  O   UNL     1       5.509  15.809  10.178  1.00  0.00    -0.508 OA
ATOM     19  H   UNL     1       5.749  16.720   9.804  1.00  0.00     0.293 HD
ENDBRANCH  15  18
ENDBRANCH   1  12
BRANCH   2  20
ATOM     20  O   UNL     1       5.277   9.754   8.406  1.00  0.00    -0.502 OA
ATOM     21  H   UNL     1       5.148   9.202   9.246  1.00  0.00     0.293 HD
ENDBRANCH   2  20
BRANCH   6  22
ATOM     22  O   UNL     1       8.199   6.393   5.720  1.00  0.00    -0.507 OA
ATOM     23  H   UNL     1       7.521   6.186   4.996  1.00  0.00     0.293 HD
ENDBRANCH   6  22
BRANCH   8  24
ATOM     24  O   UNL     1      12.039   9.129   4.627  1.00  0.00    -0.508 OA
ATOM     25  H   UNL     1      12.652   9.903   4.856  1.00  0.00     0.293 HD
ENDBRANCH   8  24
TORSDOF 5
ENDMDL
MODEL 5
REMARK VINA RESULT:    -4.492      3.338      6.634
REMARK INTER + INTRA:          -5.525
REMARK INTER:                  -5.229
REMARK INTRA:                  -0.296
REMARK UNBOUND:                -0.246
REMARK SMILES O=c1c(O)c(-c2ccc(O)cc2)oc2cc(O)cc(O)c12
REMARK SMILES IDX 5 1 3 2 2 3 1 4 21 5 19 6 18 7 16 8 15 9 14 10 13 11 6 12
REMARK SMILES IDX 7 13 8 14 9 15 12 16 11 17 10 18 4 20 20 22 17 24
REMARK H PARENT 10 19 4 21 20 23 17 25
REMARK Flexibility Score: inf
ROOT
ATOM      1  C   UNL     1      11.680   8.530   4.536  1.00  0.00     0.180 A 
ATOM      2  C   UNL     1      11.333   7.681   3.468  1.00  0.00     0.208 A 
ATOM      3  C   UNL     1      12.246   7.506   2.417  1.00  0.00     0.238 A 
ATOM      4  O   UNL     1      11.941   6.756   1.449  1.00  0.00    -0.285 OA
ATOM      5  C   UNL     1      13.492   8.162   2.460  1.00  0.00     0.111 A 
ATOM      6  C   UNL     1      14.471   8.036   1.443  1.00  0.00     0.134 A 
ATOM      7  C   UNL     1      15.691   8.716   1.564  1.00  0.00     0.093 A 
ATOM      8  C   UNL     1      15.954   9.517   2.682  1.00  0.00     0.123 A 
ATOM      9  C   UNL     1      14.993   9.645   3.685  1.00  0.00     0.094 A 
ATOM     10  C   UNL     1      13.769   8.978   3.583  1.00  0.00     0.146 A 
ATOM     11  O   UNL     1      12.870   9.121   4.551  1.00  0.00    -0.452 OA
ENDROOT
BRANCH   1  12
ATOM     12  C   UNL     1      10.763   8.780   5.672  1.00  0.00     0.021 A 
ATOM     13  C   UNL     1       9.862   9.860   5.663  1.00  0.00     0.016 A 
ATOM     14  C   UNL     1       9.024  10.091   6.758  1.00  0.00     0.047 A 
ATOM     15  C   UNL     1       9.084   9.253   7.880  1.00  0.00     0.115 A 
ATOM     16  C   UNL     1      10.832   7.959   6.810  1.00  0.00     0.016 A 
ATOM     17  C   UNL     1       9.990   8.190   7.903  1.00  0.00     0.047 A 
BRANCH  15  18
ATOM     18  O   UNL     1       8.251   9.472   8.976  1.00  0.00    -0.508 OA
ATOM     19  H   UNL     1       8.195  10.378   9.425  1.00  0.00     0.293 HD
ENDBRANCH  15  18
ENDBRANCH   1  12
BRANCH   2  20
ATOM     20  O   UNL     1      10.111   7.003   3.473  1.00  0.00    -0.502 OA
ATOM     21  H   UNL     1       9.867   6.329   4.190  1.00  0.00     0.293 HD
ENDBRANCH   2  20
BRANCH   6  22
ATOM     22  O   UNL     1      14.238   7.244   0.318  1.00  0.00    -0.507 OA
ATOM     23  H   UNL     1      14.475   6.259   0.302  1.00  0.00     0.293 HD
ENDBRANCH   6  22
BRANCH   8  24
ATOM     24  O   UNL     1      17.167  10.191   2.802  1.00  0.00    -0.508 OA
ATOM     25  H   UNL     1      17.215  11.203   2.781  1.00  0.00     0.293 HD
ENDBRANCH   8  24
TORSDOF 5
ENDMDL
MODEL 6
REMARK VINA RESULT:    -4.416      3.372      7.086
REMARK INTER + INTRA:          -5.436
REMARK INTER:                  -5.151
REMARK INTRA:                  -0.285
REMARK UNBOUND:                -0.246
REMARK SMILES O=c1c(O)c(-c2ccc(O)cc2)oc2cc(O)cc(O)c12
REMARK SMILES IDX 5 1 3 2 2 3 1 4 21 5 19 6 18 7 16 8 15 9 14 10 13 11 6 12
REMARK SMILES IDX 7 13 8 14 9 15 12 16 11 17 10 18 4 20 20 22 17 24
REMARK H PARENT 10 19 4 21 20 23 17 25
REMARK Flexibility Score: inf
ROOT
ATOM      1  C   UNL     1       7.669  12.431   8.919  1.00  0.00     0.180 A 
ATOM      2  C   UNL     1       6.689  13.404   8.648  1.00  0.00     0.208 A 
ATOM      3  C   UNL     1       6.329  14.306   9.661  1.00  0.00     0.238 A 
ATOM      4  O   UNL     1       5.444  15.176   9.432  1.00  0.00    -0.285 OA
ATOM      5  C   UNL     1       6.967  14.235  10.916  1.00  0.00     0.111 A 
ATOM      6  C   UNL     1       6.666  15.109  11.989  1.00  0.00     0.134 A 
ATOM      7  C   UNL     1       7.352  14.978  13.206  1.00  0.00     0.093 A 
ATOM      8  C   UNL     1       8.333  13.994  13.370  1.00  0.00     0.123 A 
ATOM      9  C   UNL     1       8.632  13.129  12.315  1.00  0.00     0.094 A 
ATOM     10  C   UNL     1       7.958  13.241  11.095  1.00  0.00     0.146 A 
ATOM     11  O   UNL     1       8.260  12.403  10.110  1.00  0.00    -0.452 OA
ENDROOT
BRANCH   1  12
ATOM     12  C   UNL     1       8.088  11.433   7.909  1.00  0.00     0.021 A 
ATOM     13  C   UNL     1       7.344  10.261   7.683  1.00  0.00     0.016 A 
ATOM     14  C   UNL     1       7.773   9.321   6.741  1.00  0.00     0.047 A 
ATOM     15  C   UNL     1       8.957   9.534   6.023  1.00  0.00     0.115 A 
ATOM     16  C   UNL     1       9.286  11.627   7.200  1.00  0.00     0.016 A 
ATOM     17  C   UNL     1       9.711  10.687   6.257  1.00  0.00     0.047 A 
BRANCH  15  18
ATOM     18  O   UNL     1       9.394   8.605   5.080  1.00  0.00    -0.508 OA
ATOM     19  H   UNL     1      10.339   8.625   4.715  1.00  0.00     0.293 HD
ENDBRANCH  15  18
ENDBRANCH   1  12
BRANCH   2  20
ATOM     20  O   UNL     1       6.107  13.486   7.380  1.00  0.00    -0.502 OA
ATOM     21  H   UNL     1       5.302  12.931   7.115  1.00  0.00     0.293 HD
ENDBRANCH   2  20
BRANCH   6  22
ATOM     22  O   UNL     1       5.694  16.101  11.856  1.00  0.00    -0.507 OA
ATOM     23  H   UNL     1       4.732  15.944  12.129  1.00  0.00     0.293 HD
ENDBRANCH   6  22
BRANCH   8  24
ATOM     24  O   UNL     1       9.014  13.865  14.577  1.00  0.00    -0.508 OA
ATOM     25  H   UNL     1       8.533  13.615  15.433  1.00  0.00     0.293 HD
ENDBRANCH   8  24
TORSDOF 5
ENDMDL
MODEL 7
REMARK VINA RESULT:    -4.409      2.464      3.504
REMARK INTER + INTRA:          -5.428
REMARK INTER:                  -5.136
REMARK INTRA:                  -0.293
REMARK UNBOUND:                -0.246
REMARK SMILES O=c1c(O)c(-c2ccc(O)cc2)oc2cc(O)cc(O)c12
REMARK SMILES IDX 5 1 3 2 2 3 1 4 21 5 19 6 18 7 16 8 15 9 14 10 13 11 6 12
REMARK SMILES IDX 7 13 8 14 9 15 12 16 11 17 10 18 4 20 20 22 17 24
REMARK H PARENT 10 19 4 21 20 23 17 25
REMARK Flexibility Score: inf
ROOT
ATOM      1  C   UNL     1       7.707  11.360   7.716  1.00  0.00     0.180 A 
ATOM      2  C   UNL     1       8.910  11.419   6.987  1.00  0.00     0.208 A 
ATOM      3  C   UNL     1       9.319  10.288   6.261  1.00  0.00     0.238 A 
ATOM      4  O   UNL     1      10.401  10.326   5.614  1.00  0.00    -0.285 OA
ATOM      5  C   UNL     1       8.513   9.133   6.260  1.00  0.00     0.111 A 
ATOM      6  C   UNL     1       8.851   7.954   5.551  1.00  0.00     0.134 A 
ATOM      7  C   UNL     1       7.990   6.847   5.592  1.00  0.00     0.093 A 
ATOM      8  C   UNL     1       6.799   6.896   6.326  1.00  0.00     0.123 A 
ATOM      9  C   UNL     1       6.463   8.056   7.026  1.00  0.00     0.094 A 
ATOM     10  C   UNL     1       7.308   9.169   7.000  1.00  0.00     0.146 A 
ATOM     11  O   UNL     1       6.965  10.258   7.679  1.00  0.00    -0.452 OA
ENDROOT
BRANCH   1  12
ATOM     12  C   UNL     1       7.219  12.503   8.520  1.00  0.00     0.021 A 
ATOM     13  C   UNL     1       7.511  12.613   9.892  1.00  0.00     0.016 A 
ATOM     14  C   UNL     1       7.018  13.689  10.636  1.00  0.00     0.047 A 
ATOM     15  C   UNL     1       6.216  14.661  10.023  1.00  0.00     0.115 A 
ATOM     16  C   UNL     1       6.396  13.471   7.919  1.00  0.00     0.016 A 
ATOM     17  C   UNL     1       5.906  14.547   8.665  1.00  0.00     0.047 A 
BRANCH  15  18
ATOM     18  O   UNL     1       5.721  15.739  10.754  1.00  0.00    -0.508 OA
ATOM     19  H   UNL     1       5.928  15.850  11.740  1.00  0.00     0.293 HD
ENDBRANCH  15  18
ENDBRANCH   1  12
BRANCH   2  20
ATOM     20  O   UNL     1       9.666  12.593   6.965  1.00  0.00    -0.502 OA
ATOM     21  H   UNL     1       9.520  13.320   6.274  1.00  0.00     0.293 HD
ENDBRANCH   2  20
BRANCH   6  22
ATOM     22  O   UNL     1      10.030   7.874   4.811  1.00  0.00    -0.507 OA
ATOM     23  H   UNL     1      10.422   6.984   4.526  1.00  0.00     0.293 HD
ENDBRANCH   6  22
BRANCH   8  24
ATOM     24  O   UNL     1       5.944   5.798   6.366  1.00  0.00    -0.508 OA
ATOM     25  H   UNL     1       6.297   4.856   6.489  1.00  0.00     0.293 HD
ENDBRANCH   8  24
TORSDOF 5
ENDMDL
MODEL 8
REMARK VINA RESULT:    -4.402      1.823      3.778
REMARK INTER + INTRA:          -5.420
REMARK INTER:                  -5.154
REMARK INTRA:                  -0.266
REMARK UNBOUND:                -0.246
REMARK SMILES O=c1c(O)c(-c2ccc(O)cc2)oc2cc(O)cc(O)c12
REMARK SMILES IDX 5 1 3 2 2 3 1 4 21 5 19 6 18 7 16 8 15 9 14 10 13 11 6 12
REMARK SMILES IDX 7 13 8 14 9 15 12 16 11 17 10 18 4 20 20 22 17 24
REMARK H PARENT 10 19 4 21 20 23 17 25
REMARK Flexibility Score: inf
ROOT
ATOM      1  C   UNL     1       9.124   9.427   7.581  1.00  0.00     0.180 A 
ATOM      2  C   UNL     1       9.857   9.139   6.414  1.00  0.00     0.208 A 
ATOM      3  C   UNL     1      10.800   8.099   6.444  1.00  0.00     0.238 A 
ATOM      4  O   UNL     1      11.470   7.839   5.407  1.00  0.00    -0.285 OA
ATOM      5  C   UNL     1      10.978   7.355   7.628  1.00  0.00     0.111 A 
ATOM      6  C   UNL     1      11.904   6.289   7.740  1.00  0.00     0.134 A 
ATOM      7  C   UNL     1      12.017   5.590   8.951  1.00  0.00     0.093 A 
ATOM      8  C   UNL     1      11.222   5.935  10.050  1.00  0.00     0.123 A 
ATOM      9  C   UNL     1      10.309   6.986   9.944  1.00  0.00     0.094 A 
ATOM     10  C   UNL     1      10.183   7.696   8.747  1.00  0.00     0.146 A 
ATOM     11  O   UNL     1       9.309   8.694   8.675  1.00  0.00    -0.452 OA
ENDROOT
BRANCH   1  12
ATOM     12  C   UNL     1       8.127  10.520   7.634  1.00  0.00     0.021 A 
ATOM     13  C   UNL     1       8.518  11.864   7.764  1.00  0.00     0.016 A 
ATOM     14  C   UNL     1       7.557  12.877   7.837  1.00  0.00     0.047 A 
ATOM     15  C   UNL     1       6.193  12.558   7.793  1.00  0.00     0.115 A 
ATOM     16  C   UNL     1       6.757  10.207   7.613  1.00  0.00     0.016 A 
ATOM     17  C   UNL     1       5.797  11.222   7.684  1.00  0.00     0.047 A 
BRANCH  15  18
ATOM     18  O   UNL     1       5.226  13.559   7.863  1.00  0.00    -0.508 OA
ATOM     19  H   UNL     1       4.572  13.610   8.635  1.00  0.00     0.293 HD
ENDBRANCH  15  18
ENDBRANCH   1  12
BRANCH   2  20
ATOM     20  O   UNL     1       9.626   9.859   5.239  1.00  0.00    -0.502 OA
ATOM     21  H   UNL     1       8.779   9.749   4.693  1.00  0.00     0.293 HD
ENDBRANCH   2  20
BRANCH   6  22
ATOM     22  O   UNL     1      12.710   5.921   6.662  1.00  0.00    -0.507 OA
ATOM     23  H   UNL     1      13.720   5.961   6.713  1.00  0.00     0.293 HD
ENDBRANCH   6  22
BRANCH   8  24
ATOM     24  O   UNL     1      11.333   5.242  11.253  1.00  0.00    -0.508 OA
ATOM     25  H   UNL     1      11.324   4.229  11.282  1.00  0.00     0.293 HD
ENDBRANCH   8  24
TORSDOF 5
ENDMDL
MODEL 9
REMARK VINA RESULT:    -4.323      3.209      7.946
REMARK INTER + INTRA:          -5.327
REMARK INTER:                  -5.034
REMARK INTRA:                  -0.293
REMARK UNBOUND:                -0.246
REMARK SMILES O=c1c(O)c(-c2ccc(O)cc2)oc2cc(O)cc(O)c12
REMARK SMILES IDX 5 1 3 2 2 3 1 4 21 5 19 6 18 7 16 8 15 9 14 10 13 11 6 12
REMARK SMILES IDX 7 13 8 14 9 15 12 16 11 17 10 18 4 20 20 22 17 24
REMARK H PARENT 10 19 4 21 20 23 17 25
REMARK Flexibility Score: inf
ROOT
ATOM      1  C   UNL     1      12.717   8.506   4.489  1.00  0.00     0.180 A 
ATOM      2  C   UNL     1      12.610   7.176   4.939  1.00  0.00     0.208 A 
ATOM      3  C   UNL     1      11.551   6.832   5.794  1.00  0.00     0.238 A 
ATOM      4  O   UNL     1      11.452   5.645   6.212  1.00  0.00    -0.285 OA
ATOM      5  C   UNL     1      10.610   7.813   6.167  1.00  0.00     0.111 A 
ATOM      6  C   UNL     1       9.512   7.548   7.021  1.00  0.00     0.134 A 
ATOM      7  C   UNL     1       8.613   8.577   7.338  1.00  0.00     0.093 A 
ATOM      8  C   UNL     1       8.790   9.864   6.818  1.00  0.00     0.123 A 
ATOM      9  C   UNL     1       9.871  10.130   5.976  1.00  0.00     0.094 A 
ATOM     10  C   UNL     1      10.780   9.119   5.649  1.00  0.00     0.146 A 
ATOM     11  O   UNL     1      11.802   9.401   4.850  1.00  0.00    -0.452 OA
ENDROOT
BRANCH   1  12
ATOM     12  C   UNL     1      13.815   8.950   3.601  1.00  0.00     0.021 A 
ATOM     13  C   UNL     1      15.068   9.329   4.117  1.00  0.00     0.016 A 
ATOM     14  C   UNL     1      16.082   9.768   3.261  1.00  0.00     0.047 A 
ATOM     15  C   UNL     1      15.853   9.847   1.881  1.00  0.00     0.115 A 
ATOM     16  C   UNL     1      13.588   9.054   2.218  1.00  0.00     0.016 A 
ATOM     17  C   UNL     1      14.605   9.491   1.364  1.00  0.00     0.047 A 
BRANCH  15  18
ATOM     18  O   UNL     1      16.857  10.283   1.018  1.00  0.00    -0.508 OA
ATOM     19  H   UNL     1      16.657  10.535   0.057  1.00  0.00     0.293 HD
ENDBRANCH  15  18
ENDBRANCH   1  12
BRANCH   2  20
ATOM     20  O   UNL     1      13.527   6.211   4.514  1.00  0.00    -0.502 OA
ATOM     21  H   UNL     1      14.520   6.285   4.704  1.00  0.00     0.293 HD
ENDBRANCH   2  20
BRANCH   6  22
ATOM     22  O   UNL     1       9.308   6.274   7.554  1.00  0.00    -0.507 OA
ATOM     23  H   UNL     1       8.384   5.867   7.624  1.00  0.00     0.293 HD
ENDBRANCH   6  22
BRANCH   8  24
ATOM     24  O   UNL     1       7.898  10.886   7.132  1.00  0.00    -0.508 OA
ATOM     25  H   UNL     1       8.210  11.841   7.258  1.00  0.00     0.293 HD
ENDBRANCH   8  24
TORSDOF 5
ENDMDL
