MODEL 1
REMARK VINA RESULT:    -3.905      0.000      0.000
REMARK INTER + INTRA:         -12.227
REMARK INTER:                  -8.471
REMARK INTRA:                  -3.756
REMARK UNBOUND:                -3.756
REMARK SMILES CCCCCCCCCCCCCCCCCCCCCC(=O)[O-]
REMARK SMILES IDX 12 1 11 2 10 3 9 4 8 5 7 6 6 7 5 8 4 9 3 10 2 11 1 12 13 13
REMARK SMILES IDX 14 14 15 15 16 16 17 17 18 18 19 19 20 20 21 21 22 22 23 23
REMARK SMILES IDX 24 24
REMARK H PARENT
REMARK Flexibility Score: inf
ROOT
ATOM      1  C   UNL     1      24.814  -2.903  -7.930  1.00  0.00     0.000 C 
ENDROOT
BRANCH   1   2
ATOM      2  C   UNL     1      24.506  -1.683  -8.812  1.00  0.00     0.000 C 
BRANCH   2   3
ATOM      3  C   UNL     1      25.604  -0.611  -8.747  1.00  0.00     0.000 C 
BRANCH   3   4
ATOM      4  C   UNL     1      26.984  -1.252  -8.536  1.00  0.00    -0.000 C 
BRANCH   4   5
ATOM      5  C   UNL     1      27.790  -0.580  -7.411  1.00  0.00    -0.000 C 
BRANCH   5   6
ATOM      6  C   UNL     1      29.198  -1.165  -7.175  1.00  0.00    -0.000 C 
BRANCH   6   7
ATOM      7  C   UNL     1      29.319  -2.682  -7.403  1.00  0.00    -0.000 C 
BRANCH   7   8
ATOM      8  C   UNL     1      28.677  -3.506  -6.274  1.00  0.00    -0.000 C 
BRANCH   8   9
ATOM      9  C   UNL     1      27.790  -4.644  -6.803  1.00  0.00    -0.000 C 
BRANCH   9  10
ATOM     10  C   UNL     1      28.112  -5.011  -8.262  1.00  0.00    -0.000 C 
BRANCH  10  11
ATOM     11  C   UNL     1      27.566  -6.393  -8.655  1.00  0.00    -0.003 C 
ATOM     12  C   UNL     1      26.651  -6.995  -7.589  1.00  0.00     0.004 C 
ENDBRANCH  10  11
ENDBRANCH   9  10
ENDBRANCH   8   9
ENDBRANCH   7   8
ENDBRANCH   6   7
ENDBRANCH   5   6
ENDBRANCH   4   5
ENDBRANCH   3   4
ENDBRANCH   2   3
ENDBRANCH   1   2
BRANCH   1  13
ATOM     13  C   UNL     1      24.434  -4.230  -8.603  1.00  0.00     0.000 C 
BRANCH  13  14
ATOM     14  C   UNL     1      24.220  -4.040 -10.110  1.00  0.00     0.000 C 
BRANCH  14  15
ATOM     15  C   UNL     1      25.142  -4.966 -10.918  1.00  0.00     0.000 C 
BRANCH  15  16
ATOM     16  C   UNL     1      26.004  -4.203 -11.935  1.00  0.00     0.000 C 
BRANCH  16  17
ATOM     17  C   UNL     1      27.027  -3.271 -11.267  1.00  0.00     0.000 C 
BRANCH  17  18
ATOM     18  C   UNL     1      27.372  -2.089 -12.184  1.00  0.00     0.000 C 
BRANCH  18  19
ATOM     19  C   UNL     1      26.182  -1.624 -13.039  1.00  0.00     0.000 C 
BRANCH  19  20
ATOM     20  C   UNL     1      25.105  -0.820 -12.283  1.00  0.00     0.006 C 
BRANCH  20  21
ATOM     21  C   UNL     1      24.217   0.048 -13.193  1.00  0.00     0.053 C 
BRANCH  21  22
ATOM     22  C   UNL     1      25.018   0.943 -14.091  1.00  0.00     0.041 C 
ATOM     23  O   UNL     1      25.584   1.967 -13.626  1.00  0.00    -0.550 OA
ATOM     24  O   UNL     1      25.107   0.668 -15.450  1.00  0.00    -0.550 OA
ENDBRANCH  21  22
ENDBRANCH  20  21
ENDBRANCH  19  20
ENDBRANCH  18  19
ENDBRANCH  17  18
ENDBRANCH  16  17
ENDBRANCH  15  16
ENDBRANCH  14  15
ENDBRANCH  13  14
ENDBRANCH   1  13
TORSDOF 20
ENDMDL
MODEL 2
REMARK VINA RESULT:    -3.880      3.012      6.653
REMARK INTER + INTRA:         -12.173
REMARK INTER:                  -9.016
REMARK INTRA:                  -3.156
REMARK UNBOUND:                -3.756
REMARK SMILES CCCCCCCCCCCCCCCCCCCCCC(=O)[O-]
REMARK SMILES IDX 12 1 11 2 10 3 9 4 8 5 7 6 6 7 5 8 4 9 3 10 2 11 1 12 13 13
REMARK SMILES IDX 14 14 15 15 16 16 17 17 18 18 19 19 20 20 21 21 22 22 23 23
REMARK SMILES IDX 24 24
REMARK H PARENT
REMARK Flexibility Score: inf
ROOT
ATOM      1  C   UNL     1      28.441  -1.640  -6.515  1.00  0.00     0.000 C 
ENDROOT
BRANCH   1   2
ATOM      2  C   UNL     1      28.086  -1.034  -7.883  1.00  0.00     0.000 C 
BRANCH   2   3
ATOM      3  C   UNL     1      26.819  -0.167  -7.837  1.00  0.00     0.000 C 
BRANCH   3   4
ATOM      4  C   UNL     1      25.900  -0.477  -9.028  1.00  0.00    -0.000 C 
BRANCH   4   5
ATOM      5  C   UNL     1      26.566  -1.385 -10.077  1.00  0.00    -0.000 C 
BRANCH   5   6
ATOM      6  C   UNL     1      25.837  -1.461 -11.434  1.00  0.00    -0.000 C 
BRANCH   6   7
ATOM      7  C   UNL     1      24.339  -1.108 -11.389  1.00  0.00    -0.000 C 
BRANCH   7   8
ATOM      8  C   UNL     1      23.879  -0.311 -12.622  1.00  0.00    -0.000 C 
BRANCH   8   9
ATOM      9  C   UNL     1      24.809   0.870 -12.943  1.00  0.00    -0.000 C 
BRANCH   9  10
ATOM     10  C   UNL     1      25.132   0.973 -14.445  1.00  0.00    -0.000 C 
BRANCH  10  11
ATOM     11  C   UNL     1      25.740  -0.322 -15.006  1.00  0.00    -0.003 C 
ATOM     12  C   UNL     1      24.833  -1.013 -16.023  1.00  0.00     0.004 C 
ENDBRANCH  10  11
ENDBRANCH   9  10
ENDBRANCH   8   9
ENDBRANCH   7   8
ENDBRANCH   6   7
ENDBRANCH   5   6
ENDBRANCH   4   5
ENDBRANCH   3   4
ENDBRANCH   2   3
ENDBRANCH   1   2
BRANCH   1  13
ATOM     13  C   UNL     1      28.432  -3.175  -6.528  1.00  0.00     0.000 C 
BRANCH  13  14
ATOM     14  C   UNL     1      28.383  -3.712  -7.964  1.00  0.00     0.000 C 
BRANCH  14  15
ATOM     15  C   UNL     1      27.159  -4.618  -8.172  1.00  0.00     0.000 C 
BRANCH  15  16
ATOM     16  C   UNL     1      26.046  -4.354  -7.148  1.00  0.00     0.000 C 
BRANCH  16  17
ATOM     17  C   UNL     1      24.847  -3.607  -7.752  1.00  0.00     0.000 C 
BRANCH  17  18
ATOM     18  C   UNL     1      24.450  -4.212  -9.107  1.00  0.00     0.000 C 
BRANCH  18  19
ATOM     19  C   UNL     1      23.295  -5.221  -8.999  1.00  0.00     0.000 C 
BRANCH  19  20
ATOM     20  C   UNL     1      23.512  -6.551  -9.748  1.00  0.00     0.006 C 
BRANCH  20  21
ATOM     21  C   UNL     1      24.828  -7.263  -9.391  1.00  0.00     0.053 C 
BRANCH  21  22
ATOM     22  C   UNL     1      25.809  -7.256 -10.525  1.00  0.00     0.041 C 
ATOM     23  O   UNL     1      26.952  -7.765 -10.380  1.00  0.00    -0.550 OA
ATOM     24  O   UNL     1      25.477  -6.652 -11.732  1.00  0.00    -0.550 OA
ENDBRANCH  21  22
ENDBRANCH  20  21
ENDBRANCH  19  20
ENDBRANCH  18  19
ENDBRANCH  17  18
ENDBRANCH  16  17
ENDBRANCH  15  16
ENDBRANCH  14  15
ENDBRANCH  13  14
ENDBRANCH   1  13
TORSDOF 20
ENDMDL
MODEL 3
REMARK VINA RESULT:    -3.798      3.078      6.056
REMARK INTER + INTRA:         -11.995
REMARK INTER:                  -8.764
REMARK INTRA:                  -3.230
REMARK UNBOUND:                -3.756
REMARK SMILES CCCCCCCCCCCCCCCCCCCCCC(=O)[O-]
REMARK SMILES IDX 12 1 11 2 10 3 9 4 8 5 7 6 6 7 5 8 4 9 3 10 2 11 1 12 13 13
REMARK SMILES IDX 14 14 15 15 16 16 17 17 18 18 19 19 20 20 21 21 22 22 23 23
REMARK SMILES IDX 24 24
REMARK H PARENT
REMARK Flexibility Score: inf
ROOT
ATOM      1  C   UNL     1      24.930   0.881 -14.157  1.00  0.00     0.000 C 
ENDROOT
BRANCH   1   2
ATOM      2  C   UNL     1      24.969  -0.458 -14.910  1.00  0.00     0.000 C 
BRANCH   2   3
ATOM      3  C   UNL     1      26.304  -0.695 -15.631  1.00  0.00     0.000 C 
BRANCH   3   4
ATOM      4  C   UNL     1      27.374  -1.197 -14.652  1.00  0.00    -0.000 C 
BRANCH   4   5
ATOM      5  C   UNL     1      26.898  -2.389 -13.803  1.00  0.00    -0.000 C 
BRANCH   5   6
ATOM      6  C   UNL     1      27.578  -2.526 -12.426  1.00  0.00    -0.000 C 
BRANCH   6   7
ATOM      7  C   UNL     1      27.506  -3.931 -11.801  1.00  0.00    -0.000 C 
BRANCH   7   8
ATOM      8  C   UNL     1      26.068  -4.353 -11.452  1.00  0.00    -0.000 C 
BRANCH   8   9
ATOM      9  C   UNL     1      25.943  -4.896 -10.020  1.00  0.00    -0.000 C 
BRANCH   9  10
ATOM     10  C   UNL     1      24.829  -5.950  -9.886  1.00  0.00    -0.000 C 
BRANCH  10  11
ATOM     11  C   UNL     1      23.506  -5.347  -9.387  1.00  0.00    -0.003 C 
ATOM     12  C   UNL     1      22.300  -6.237  -9.680  1.00  0.00     0.004 C 
ENDBRANCH  10  11
ENDBRANCH   9  10
ENDBRANCH   8   9
ENDBRANCH   7   8
ENDBRANCH   6   7
ENDBRANCH   5   6
ENDBRANCH   4   5
ENDBRANCH   3   4
ENDBRANCH   2   3
ENDBRANCH   1   2
BRANCH   1  13
ATOM     13  C   UNL     1      24.888   0.702 -12.633  1.00  0.00     0.000 C 
BRANCH  13  14
ATOM     14  C   UNL     1      23.760  -0.254 -12.224  1.00  0.00     0.000 C 
BRANCH  14  15
ATOM     15  C   UNL     1      24.313  -1.455 -11.440  1.00  0.00     0.000 C 
BRANCH  15  16
ATOM     16  C   UNL     1      23.590  -1.674 -10.103  1.00  0.00     0.000 C 
BRANCH  16  17
ATOM     17  C   UNL     1      24.537  -1.596  -8.895  1.00  0.00     0.000 C 
BRANCH  17  18
ATOM     18  C   UNL     1      25.928  -1.103  -9.320  1.00  0.00     0.000 C 
BRANCH  18  19
ATOM     19  C   UNL     1      26.658  -0.332  -8.207  1.00  0.00     0.000 C 
BRANCH  19  20
ATOM     20  C   UNL     1      27.787  -1.110  -7.502  1.00  0.00     0.006 C 
BRANCH  20  21
ATOM     21  C   UNL     1      28.012  -2.528  -8.055  1.00  0.00     0.053 C 
BRANCH  21  22
ATOM     22  C   UNL     1      27.725  -3.592  -7.038  1.00  0.00     0.041 C 
ATOM     23  O   UNL     1      26.536  -3.899  -6.759  1.00  0.00    -0.550 OA
ATOM     24  O   UNL     1      28.769  -4.218  -6.368  1.00  0.00    -0.550 OA
ENDBRANCH  21  22
ENDBRANCH  20  21
ENDBRANCH  19  20
ENDBRANCH  18  19
ENDBRANCH  17  18
ENDBRANCH  16  17
ENDBRANCH  15  16
ENDBRANCH  14  15
ENDBRANCH  13  14
ENDBRANCH   1  13
TORSDOF 20
ENDMDL
MODEL 4
REMARK VINA RESULT:    -3.788      1.797      3.797
REMARK INTER + INTRA:         -11.974
REMARK INTER:                  -9.661
REMARK INTRA:                  -2.313
REMARK UNBOUND:                -3.756
REMARK SMILES CCCCCCCCCCCCCCCCCCCCCC(=O)[O-]
REMARK SMILES IDX 12 1 11 2 10 3 9 4 8 5 7 6 6 7 5 8 4 9 3 10 2 11 1 12 13 13
REMARK SMILES IDX 14 14 15 15 16 16 17 17 18 18 19 19 20 20 21 21 22 22 23 23
REMARK SMILES IDX 24 24
REMARK H PARENT
REMARK Flexibility Score: inf
ROOT
ATOM      1  C   UNL     1      26.761  -0.430  -7.949  1.00  0.00     0.000 C 
ENDROOT
BRANCH   1   2
ATOM      2  C   UNL     1      28.194  -0.756  -7.497  1.00  0.00     0.000 C 
BRANCH   2   3
ATOM      3  C   UNL     1      28.282  -2.068  -6.705  1.00  0.00     0.000 C 
BRANCH   3   4
ATOM      4  C   UNL     1      29.151  -3.096  -7.443  1.00  0.00    -0.000 C 
BRANCH   4   5
ATOM      5  C   UNL     1      28.455  -4.459  -7.608  1.00  0.00    -0.000 C 
BRANCH   5   6
ATOM      6  C   UNL     1      27.151  -4.630  -6.802  1.00  0.00    -0.000 C 
BRANCH   6   7
ATOM      7  C   UNL     1      26.157  -5.652  -7.382  1.00  0.00    -0.000 C 
BRANCH   7   8
ATOM      8  C   UNL     1      25.477  -5.155  -8.670  1.00  0.00    -0.000 C 
BRANCH   8   9
ATOM      9  C   UNL     1      23.949  -5.066  -8.535  1.00  0.00    -0.000 C 
BRANCH   9  10
ATOM     10  C   UNL     1      23.224  -5.338  -9.865  1.00  0.00    -0.000 C 
BRANCH  10  11
ATOM     11  C   UNL     1      22.297  -6.562  -9.789  1.00  0.00    -0.003 C 
ATOM     12  C   UNL     1      22.993  -7.861 -10.194  1.00  0.00     0.004 C 
ENDBRANCH  10  11
ENDBRANCH   9  10
ENDBRANCH   8   9
ENDBRANCH   7   8
ENDBRANCH   6   7
ENDBRANCH   5   6
ENDBRANCH   4   5
ENDBRANCH   3   4
ENDBRANCH   2   3
ENDBRANCH   1   2
BRANCH   1  13
ATOM     13  C   UNL     1      26.069  -1.621  -8.627  1.00  0.00     0.000 C 
BRANCH  13  14
ATOM     14  C   UNL     1      24.563  -1.371  -8.770  1.00  0.00     0.000 C 
BRANCH  14  15
ATOM     15  C   UNL     1      24.061  -1.810 -10.155  1.00  0.00     0.000 C 
BRANCH  15  16
ATOM     16  C   UNL     1      25.102  -1.584 -11.261  1.00  0.00     0.000 C 
BRANCH  16  17
ATOM     17  C   UNL     1      25.226  -0.108 -11.667  1.00  0.00     0.000 C 
BRANCH  17  18
ATOM     18  C   UNL     1      24.240   0.236 -12.794  1.00  0.00     0.000 C 
BRANCH  18  19
ATOM     19  C   UNL     1      24.711   1.412 -13.666  1.00  0.00     0.000 C 
BRANCH  19  20
ATOM     20  C   UNL     1      25.490   1.018 -14.936  1.00  0.00     0.006 C 
BRANCH  20  21
ATOM     21  C   UNL     1      25.398  -0.477 -15.289  1.00  0.00     0.053 C 
BRANCH  21  22
ATOM     22  C   UNL     1      26.695  -1.197 -15.074  1.00  0.00     0.041 C 
ATOM     23  O   UNL     1      26.729  -2.253 -14.389  1.00  0.00    -0.550 OA
ATOM     24  O   UNL     1      27.874  -0.682 -15.598  1.00  0.00    -0.550 OA
ENDBRANCH  21  22
ENDBRANCH  20  21
ENDBRANCH  19  20
ENDBRANCH  18  19
ENDBRANCH  17  18
ENDBRANCH  16  17
ENDBRANCH  15  16
ENDBRANCH  14  15
ENDBRANCH  13  14
ENDBRANCH   1  13
TORSDOF 20
ENDMDL
MODEL 5
REMARK VINA RESULT:    -3.731      3.167      6.457
REMARK INTER + INTRA:         -11.848
REMARK INTER:                  -8.525
REMARK INTRA:                  -3.323
REMARK UNBOUND:                -3.756
REMARK SMILES CCCCCCCCCCCCCCCCCCCCCC(=O)[O-]
REMARK SMILES IDX 12 1 11 2 10 3 9 4 8 5 7 6 6 7 5 8 4 9 3 10 2 11 1 12 13 13
REMARK SMILES IDX 14 14 15 15 16 16 17 17 18 18 19 19 20 20 21 21 22 22 23 23
REMARK SMILES IDX 24 24
REMARK H PARENT
REMARK Flexibility Score: inf
ROOT
ATOM      1  C   UNL     1      25.257  -0.259 -11.044  1.00  0.00     0.000 C 
ENDROOT
BRANCH   1   2
ATOM      2  C   UNL     1      24.068  -0.761 -11.879  1.00  0.00     0.000 C 
BRANCH   2   3
ATOM      3  C   UNL     1      24.138  -0.306 -13.344  1.00  0.00     0.000 C 
BRANCH   3   4
ATOM      4  C   UNL     1      24.851   1.048 -13.464  1.00  0.00    -0.000 C 
BRANCH   4   5
ATOM      5  C   UNL     1      25.642   1.194 -14.776  1.00  0.00    -0.000 C 
BRANCH   5   6
ATOM      6  C   UNL     1      26.134  -0.131 -15.394  1.00  0.00    -0.000 C 
BRANCH   6   7
ATOM      7  C   UNL     1      27.661  -0.325 -15.385  1.00  0.00    -0.000 C 
BRANCH   7   8
ATOM      8  C   UNL     1      28.080  -1.717 -14.880  1.00  0.00    -0.000 C 
BRANCH   8   9
ATOM      9  C   UNL     1      27.028  -2.353 -13.958  1.00  0.00    -0.000 C 
BRANCH   9  10
ATOM     10  C   UNL     1      27.557  -2.582 -12.532  1.00  0.00    -0.000 C 
BRANCH  10  11
ATOM     11  C   UNL     1      26.782  -3.681 -11.787  1.00  0.00    -0.003 C 
ATOM     12  C   UNL     1      27.697  -4.735 -11.165  1.00  0.00     0.004 C 
ENDBRANCH  10  11
ENDBRANCH   9  10
ENDBRANCH   8   9
ENDBRANCH   7   8
ENDBRANCH   6   7
ENDBRANCH   5   6
ENDBRANCH   4   5
ENDBRANCH   3   4
ENDBRANCH   2   3
ENDBRANCH   1   2
BRANCH   1  13
ATOM     13  C   UNL     1      25.354  -0.951  -9.677  1.00  0.00     0.000 C 
BRANCH  13  14
ATOM     14  C   UNL     1      26.037  -0.041  -8.648  1.00  0.00     0.000 C 
BRANCH  14  15
ATOM     15  C   UNL     1      27.131  -0.801  -7.881  1.00  0.00     0.000 C 
BRANCH  15  16
ATOM     16  C   UNL     1      27.282  -2.256  -8.350  1.00  0.00     0.000 C 
BRANCH  16  17
ATOM     17  C   UNL     1      26.859  -3.272  -7.278  1.00  0.00     0.000 C 
BRANCH  17  18
ATOM     18  C   UNL     1      26.020  -4.402  -7.894  1.00  0.00     0.000 C 
BRANCH  18  19
ATOM     19  C   UNL     1      24.539  -4.025  -8.066  1.00  0.00     0.000 C 
BRANCH  19  20
ATOM     20  C   UNL     1      23.906  -4.442  -9.408  1.00  0.00     0.006 C 
BRANCH  20  21
ATOM     21  C   UNL     1      23.014  -5.693  -9.318  1.00  0.00     0.053 C 
BRANCH  21  22
ATOM     22  C   UNL     1      23.622  -6.882 -10.000  1.00  0.00     0.041 C 
ATOM     23  O   UNL     1      23.007  -7.980 -10.030  1.00  0.00    -0.550 OA
ATOM     24  O   UNL     1      24.887  -6.789 -10.568  1.00  0.00    -0.550 OA
ENDBRANCH  21  22
ENDBRANCH  20  21
ENDBRANCH  19  20
ENDBRANCH  18  19
ENDBRANCH  17  18
ENDBRANCH  16  17
ENDBRANCH  15  16
ENDBRANCH  14  15
ENDBRANCH  13  14
ENDBRANCH   1  13
TORSDOF 20
ENDMDL
MODEL 6
REMARK VINA RESULT:    -3.713      1.953      4.312
REMARK INTER + INTRA:         -11.809
REMARK INTER:                  -8.916
REMARK INTRA:                  -2.893
REMARK UNBOUND:                -3.756
REMARK SMILES CCCCCCCCCCCCCCCCCCCCCC(=O)[O-]
REMARK SMILES IDX 12 1 11 2 10 3 9 4 8 5 7 6 6 7 5 8 4 9 3 10 2 11 1 12 13 13
REMARK SMILES IDX 14 14 15 15 16 16 17 17 18 18 19 19 20 20 21 21 22 22 23 23
REMARK SMILES IDX 24 24
REMARK H PARENT
REMARK Flexibility Score: inf
ROOT
ATOM      1  C   UNL     1      24.218  -1.438  -9.179  1.00  0.00     0.000 C 
ENDROOT
BRANCH   1   2
ATOM      2  C   UNL     1      24.601  -2.831  -8.653  1.00  0.00     0.000 C 
BRANCH   2   3
ATOM      3  C   UNL     1      24.291  -3.950  -9.657  1.00  0.00     0.000 C 
BRANCH   3   4
ATOM      4  C   UNL     1      23.747  -5.194  -8.939  1.00  0.00    -0.000 C 
BRANCH   4   5
ATOM      5  C   UNL     1      24.676  -6.414  -9.069  1.00  0.00    -0.000 C 
BRANCH   5   6
ATOM      6  C   UNL     1      26.135  -6.176  -8.627  1.00  0.00    -0.000 C 
BRANCH   6   7
ATOM      7  C   UNL     1      26.319  -5.866  -7.131  1.00  0.00    -0.000 C 
BRANCH   7   8
ATOM      8  C   UNL     1      27.156  -4.598  -6.886  1.00  0.00    -0.000 C 
BRANCH   8   9
ATOM      9  C   UNL     1      28.115  -4.288  -8.046  1.00  0.00    -0.000 C 
BRANCH   9  10
ATOM     10  C   UNL     1      28.304  -2.777  -8.266  1.00  0.00    -0.000 C 
BRANCH  10  11
ATOM     11  C   UNL     1      27.847  -1.945  -7.058  1.00  0.00    -0.003 C 
ATOM     12  C   UNL     1      29.008  -1.282  -6.319  1.00  0.00     0.004 C 
ENDBRANCH  10  11
ENDBRANCH   9  10
ENDBRANCH   8   9
ENDBRANCH   7   8
ENDBRANCH   6   7
ENDBRANCH   5   6
ENDBRANCH   4   5
ENDBRANCH   3   4
ENDBRANCH   2   3
ENDBRANCH   1   2
BRANCH   1  13
ATOM     13  C   UNL     1      25.440  -0.598  -9.574  1.00  0.00     0.000 C 
BRANCH  13  14
ATOM     14  C   UNL     1      25.583  -0.519 -11.099  1.00  0.00     0.000 C 
BRANCH  14  15
ATOM     15  C   UNL     1      24.243  -0.808 -11.793  1.00  0.00     0.000 C 
BRANCH  15  16
ATOM     16  C   UNL     1      24.207  -0.310 -13.246  1.00  0.00     0.000 C 
BRANCH  16  17
ATOM     17  C   UNL     1      24.684   1.143 -13.387  1.00  0.00     0.000 C 
BRANCH  17  18
ATOM     18  C   UNL     1      25.629   1.296 -14.588  1.00  0.00     0.000 C 
BRANCH  18  19
ATOM     19  C   UNL     1      25.794  -0.005 -15.392  1.00  0.00     0.000 C 
BRANCH  19  20
ATOM     20  C   UNL     1      27.164  -0.696 -15.248  1.00  0.00     0.006 C 
BRANCH  20  21
ATOM     21  C   UNL     1      27.078  -2.206 -14.962  1.00  0.00     0.053 C 
BRANCH  21  22
ATOM     22  C   UNL     1      27.421  -2.541 -13.542  1.00  0.00     0.041 C 
ATOM     23  O   UNL     1      28.445  -2.045 -13.001  1.00  0.00    -0.550 OA
ATOM     24  O   UNL     1      26.633  -3.434 -12.826  1.00  0.00    -0.550 OA
ENDBRANCH  21  22
ENDBRANCH  20  21
ENDBRANCH  19  20
ENDBRANCH  18  19
ENDBRANCH  17  18
ENDBRANCH  16  17
ENDBRANCH  15  16
ENDBRANCH  14  15
ENDBRANCH  13  14
ENDBRANCH   1  13
TORSDOF 20
ENDMDL
MODEL 7
REMARK VINA RESULT:    -3.709      1.758      3.827
REMARK INTER + INTRA:         -11.801
REMARK INTER:                  -8.173
REMARK INTRA:                  -3.628
REMARK UNBOUND:                -3.756
REMARK SMILES CCCCCCCCCCCCCCCCCCCCCC(=O)[O-]
REMARK SMILES IDX 12 1 11 2 10 3 9 4 8 5 7 6 6 7 5 8 4 9 3 10 2 11 1 12 13 13
REMARK SMILES IDX 14 14 15 15 16 16 17 17 18 18 19 19 20 20 21 21 22 22 23 23
REMARK SMILES IDX 24 24
REMARK H PARENT
REMARK Flexibility Score: inf
ROOT
ATOM      1  C   UNL     1      24.006  -4.287  -9.395  1.00  0.00     0.000 C 
ENDROOT
BRANCH   1   2
ATOM      2  C   UNL     1      23.359  -5.679  -9.483  1.00  0.00     0.000 C 
BRANCH   2   3
ATOM      3  C   UNL     1      24.288  -6.726 -10.115  1.00  0.00     0.000 C 
BRANCH   3   4
ATOM      4  C   UNL     1      24.864  -7.665  -9.045  1.00  0.00    -0.000 C 
BRANCH   4   5
ATOM      5  C   UNL     1      26.310  -7.311  -8.655  1.00  0.00    -0.000 C 
BRANCH   5   6
ATOM      6  C   UNL     1      26.479  -6.712  -7.244  1.00  0.00    -0.000 C 
BRANCH   6   7
ATOM      7  C   UNL     1      27.650  -5.724  -7.092  1.00  0.00    -0.000 C 
BRANCH   7   8
ATOM      8  C   UNL     1      28.627  -5.775  -8.280  1.00  0.00    -0.000 C 
BRANCH   8   9
ATOM      9  C   UNL     1      28.804  -4.408  -8.959  1.00  0.00    -0.000 C 
BRANCH   9  10
ATOM     10  C   UNL     1      27.636  -4.063  -9.900  1.00  0.00    -0.000 C 
BRANCH  10  11
ATOM     11  C   UNL     1      27.546  -5.020 -11.100  1.00  0.00    -0.003 C 
ATOM     12  C   UNL     1      26.536  -4.561 -12.151  1.00  0.00     0.004 C 
ENDBRANCH  10  11
ENDBRANCH   9  10
ENDBRANCH   8   9
ENDBRANCH   7   8
ENDBRANCH   6   7
ENDBRANCH   5   6
ENDBRANCH   4   5
ENDBRANCH   3   4
ENDBRANCH   2   3
ENDBRANCH   1   2
BRANCH   1  13
ATOM     13  C   UNL     1      24.498  -3.951  -7.980  1.00  0.00     0.000 C 
BRANCH  13  14
ATOM     14  C   UNL     1      24.994  -2.502  -7.901  1.00  0.00     0.000 C 
BRANCH  14  15
ATOM     15  C   UNL     1      24.473  -1.676  -9.088  1.00  0.00     0.000 C 
BRANCH  15  16
ATOM     16  C   UNL     1      25.508  -0.668  -9.609  1.00  0.00     0.000 C 
BRANCH  16  17
ATOM     17  C   UNL     1      25.965  -0.974 -11.044  1.00  0.00     0.000 C 
BRANCH  17  18
ATOM     18  C   UNL     1      24.776  -1.392 -11.921  1.00  0.00     0.000 C 
BRANCH  18  19
ATOM     19  C   UNL     1      23.986  -0.194 -12.473  1.00  0.00     0.000 C 
BRANCH  19  20
ATOM     20  C   UNL     1      24.841   0.912 -13.124  1.00  0.00     0.006 C 
BRANCH  20  21
ATOM     21  C   UNL     1      24.909   0.830 -14.660  1.00  0.00     0.053 C 
BRANCH  21  22
ATOM     22  C   UNL     1      26.119   0.088 -15.141  1.00  0.00     0.041 C 
ATOM     23  O   UNL     1      26.100  -1.167 -15.233  1.00  0.00    -0.550 OA
ATOM     24  O   UNL     1      27.284   0.780 -15.451  1.00  0.00    -0.550 OA
ENDBRANCH  21  22
ENDBRANCH  20  21
ENDBRANCH  19  20
ENDBRANCH  18  19
ENDBRANCH  17  18
ENDBRANCH  16  17
ENDBRANCH  15  16
ENDBRANCH  14  15
ENDBRANCH  13  14
ENDBRANCH   1  13
TORSDOF 20
ENDMDL
MODEL 8
REMARK VINA RESULT:    -3.689      1.505      2.464
REMARK INTER + INTRA:         -11.759
REMARK INTER:                  -7.670
REMARK INTRA:                  -4.089
REMARK UNBOUND:                -3.756
REMARK SMILES CCCCCCCCCCCCCCCCCCCCCC(=O)[O-]
REMARK SMILES IDX 12 1 11 2 10 3 9 4 8 5 7 6 6 7 5 8 4 9 3 10 2 11 1 12 13 13
REMARK SMILES IDX 14 14 15 15 16 16 17 17 18 18 19 19 20 20 21 21 22 22 23 23
REMARK SMILES IDX 24 24
REMARK H PARENT
REMARK Flexibility Score: inf
ROOT
ATOM      1  C   UNL     1      23.761  -4.035  -9.794  1.00  0.00     0.000 C 
ENDROOT
BRANCH   1   2
ATOM      2  C   UNL     1      24.546  -2.968  -9.015  1.00  0.00     0.000 C 
BRANCH   2   3
ATOM      3  C   UNL     1      24.196  -1.537  -9.449  1.00  0.00     0.000 C 
BRANCH   3   4
ATOM      4  C   UNL     1      25.406  -0.605  -9.294  1.00  0.00    -0.000 C 
BRANCH   4   5
ATOM      5  C   UNL     1      26.664  -1.337  -8.794  1.00  0.00    -0.000 C 
BRANCH   5   6
ATOM      6  C   UNL     1      27.420  -0.632  -7.648  1.00  0.00    -0.000 C 
BRANCH   6   7
ATOM      7  C   UNL     1      28.396  -1.528  -6.864  1.00  0.00    -0.000 C 
BRANCH   7   8
ATOM      8  C   UNL     1      29.065  -2.594  -7.749  1.00  0.00    -0.000 C 
BRANCH   8   9
ATOM      9  C   UNL     1      28.767  -4.026  -7.277  1.00  0.00    -0.000 C 
BRANCH   9  10
ATOM     10  C   UNL     1      27.396  -4.145  -6.589  1.00  0.00    -0.000 C 
BRANCH  10  11
ATOM     11  C   UNL     1      26.586  -5.350  -7.095  1.00  0.00    -0.003 C 
ATOM     12  C   UNL     1      27.408  -6.637  -7.151  1.00  0.00     0.004 C 
ENDBRANCH  10  11
ENDBRANCH   9  10
ENDBRANCH   8   9
ENDBRANCH   7   8
ENDBRANCH   6   7
ENDBRANCH   5   6
ENDBRANCH   4   5
ENDBRANCH   3   4
ENDBRANCH   2   3
ENDBRANCH   1   2
BRANCH   1  13
ATOM     13  C   UNL     1      23.375  -5.239  -8.923  1.00  0.00     0.000 C 
BRANCH  13  14
ATOM     14  C   UNL     1      23.362  -6.531  -9.750  1.00  0.00     0.000 C 
BRANCH  14  15
ATOM     15  C   UNL     1      24.746  -7.198  -9.753  1.00  0.00     0.000 C 
BRANCH  15  16
ATOM     16  C   UNL     1      25.284  -7.440 -11.171  1.00  0.00     0.000 C 
BRANCH  16  17
ATOM     17  C   UNL     1      25.995  -6.209 -11.755  1.00  0.00     0.000 C 
BRANCH  17  18
ATOM     18  C   UNL     1      27.046  -5.667 -10.777  1.00  0.00     0.000 C 
BRANCH  18  19
ATOM     19  C   UNL     1      27.414  -4.198 -11.044  1.00  0.00     0.000 C 
BRANCH  19  20
ATOM     20  C   UNL     1      26.546  -3.484 -12.099  1.00  0.00     0.006 C 
BRANCH  20  21
ATOM     21  C   UNL     1      26.951  -2.022 -12.360  1.00  0.00     0.053 C 
BRANCH  21  22
ATOM     22  C   UNL     1      26.029  -1.335 -13.323  1.00  0.00     0.041 C 
ATOM     23  O   UNL     1      24.982  -0.772 -12.908  1.00  0.00    -0.550 OA
ATOM     24  O   UNL     1      26.306  -1.350 -14.684  1.00  0.00    -0.550 OA
ENDBRANCH  21  22
ENDBRANCH  20  21
ENDBRANCH  19  20
ENDBRANCH  18  19
ENDBRANCH  17  18
ENDBRANCH  16  17
ENDBRANCH  15  16
ENDBRANCH  14  15
ENDBRANCH  13  14
ENDBRANCH   1  13
TORSDOF 20
ENDMDL
MODEL 9
REMARK VINA RESULT:    -3.686      3.144      5.365
REMARK INTER + INTRA:         -11.752
REMARK INTER:                  -8.401
REMARK INTRA:                  -3.351
REMARK UNBOUND:                -3.756
REMARK SMILES CCCCCCCCCCCCCCCCCCCCCC(=O)[O-]
REMARK SMILES IDX 12 1 11 2 10 3 9 4 8 5 7 6 6 7 5 8 4 9 3 10 2 11 1 12 13 13
REMARK SMILES IDX 14 14 15 15 16 16 17 17 18 18 19 19 20 20 21 21 22 22 23 23
REMARK SMILES IDX 24 24
REMARK H PARENT
REMARK Flexibility Score: inf
ROOT
ATOM      1  C   UNL     1      25.247   1.184 -14.113  1.00  0.00     0.000 C 
ENDROOT
BRANCH   1   2
ATOM      2  C   UNL     1      24.358   0.199 -13.337  1.00  0.00     0.000 C 
BRANCH   2   3
ATOM      3  C   UNL     1      24.744   0.093 -11.854  1.00  0.00     0.000 C 
BRANCH   3   4
ATOM      4  C   UNL     1      23.998  -1.065 -11.176  1.00  0.00    -0.000 C 
BRANCH   4   5
ATOM      5  C   UNL     1      24.316  -1.183  -9.674  1.00  0.00    -0.000 C 
BRANCH   5   6
ATOM      6  C   UNL     1      25.654  -0.552  -9.237  1.00  0.00    -0.000 C 
BRANCH   6   7
ATOM      7  C   UNL     1      26.394  -1.308  -8.119  1.00  0.00    -0.000 C 
BRANCH   7   8
ATOM      8  C   UNL     1      27.534  -0.482  -7.498  1.00  0.00    -0.000 C 
BRANCH   8   9
ATOM      9  C   UNL     1      28.570  -1.355  -6.771  1.00  0.00    -0.000 C 
BRANCH   9  10
ATOM     10  C   UNL     1      29.521  -2.072  -7.745  1.00  0.00    -0.000 C 
BRANCH  10  11
ATOM     11  C   UNL     1      29.337  -3.598  -7.730  1.00  0.00    -0.003 C 
ATOM     12  C   UNL     1      28.369  -4.069  -6.646  1.00  0.00     0.004 C 
ENDBRANCH  10  11
ENDBRANCH   9  10
ENDBRANCH   8   9
ENDBRANCH   7   8
ENDBRANCH   6   7
ENDBRANCH   5   6
ENDBRANCH   4   5
ENDBRANCH   3   4
ENDBRANCH   2   3
ENDBRANCH   1   2
BRANCH   1  13
ATOM     13  C   UNL     1      26.282   0.476 -14.998  1.00  0.00     0.000 C 
BRANCH  13  14
ATOM     14  C   UNL     1      26.099  -1.046 -14.948  1.00  0.00     0.000 C 
BRANCH  14  15
ATOM     15  C   UNL     1      27.257  -1.716 -14.194  1.00  0.00     0.000 C 
BRANCH  15  16
ATOM     16  C   UNL     1      26.774  -2.679 -13.100  1.00  0.00     0.000 C 
BRANCH  16  17
ATOM     17  C   UNL     1      27.469  -2.442 -11.750  1.00  0.00     0.000 C 
BRANCH  17  18
ATOM     18  C   UNL     1      27.302  -3.657 -10.826  1.00  0.00     0.000 C 
BRANCH  18  19
ATOM     19  C   UNL     1      25.905  -4.295 -10.919  1.00  0.00     0.000 C 
BRANCH  19  20
ATOM     20  C   UNL     1      25.277  -4.700  -9.571  1.00  0.00     0.006 C 
BRANCH  20  21
ATOM     21  C   UNL     1      23.748  -4.866  -9.616  1.00  0.00     0.053 C 
BRANCH  21  22
ATOM     22  C   UNL     1      23.329  -6.303  -9.701  1.00  0.00     0.041 C 
ATOM     23  O   UNL     1      24.195  -7.212  -9.802  1.00  0.00    -0.550 OA
ATOM     24  O   UNL     1      21.980  -6.638  -9.709  1.00  0.00    -0.550 OA
ENDBRANCH  21  22
ENDBRANCH  20  21
ENDBRANCH  19  20
ENDBRANCH  18  19
ENDBRANCH  17  18
ENDBRANCH  16  17
ENDBRANCH  15  16
ENDBRANCH  14  15
ENDBRANCH  13  14
ENDBRANCH   1  13
TORSDOF 20
ENDMDL
