MODEL 1
REMARK VINA RESULT:   152.508      0.000      0.000
REMARK INTER + INTRA:         166.184
REMARK INTER:                 165.881
REMARK INTRA:                   0.303
REMARK UNBOUND:                 0.303
REMARK SMILES C[C@H]1[C@H]2C3=CC[C@@H]4[C@]5(C)CC[C@H](O)C(C)(C)[C@@H]5CC[C@]4(C)[C@@]3(C)CC[C@]2(C(=O)[O-])CC[C@@H]1C
REMARK SMILES IDX 26 1 30 2 25 3 3 4 31 5 24 6 4 7 2 8 32 9 22 10 5 11 1 12
REMARK SMILES IDX 33 13 23 14 20 15 6 16 7 17 19 18 21 19 8 20 18 21 17 22
REMARK SMILES IDX 10 23 9 24 14 25 11 26 12 27 15 28 16 29 27 30 28 31 29 32
REMARK SMILES IDX 13 33
REMARK H PARENT 13 34
REMARK Flexibility Score: inf
ROOT
ATOM      1  C   UNL     1     -43.141  31.677 -20.618  1.00  0.00     0.017 C 
ATOM      2  C   UNL     1     -44.167  31.776 -19.450  1.00  0.00     0.014 C 
ATOM      3  C   UNL     1     -41.792  32.399 -20.252  1.00  0.00     0.014 C 
ATOM      4  C   UNL     1     -42.867  30.156 -20.833  1.00  0.00     0.030 C 
ATOM      5  C   UNL     1     -45.456  30.965 -19.738  1.00  0.00     0.004 C 
ATOM      6  C   UNL     1     -40.680  31.489 -19.662  1.00  0.00     0.013 C 
ATOM      7  C   UNL     1     -41.494  29.937 -21.467  1.00  0.00    -0.063 C 
ATOM      8  C   UNL     1     -44.102  29.251 -21.153  1.00  0.00    -0.003 C 
ATOM      9  C   UNL     1     -45.208  29.467 -20.058  1.00  0.00    -0.011 C 
ATOM     10  C   UNL     1     -40.302  30.181 -20.514  1.00  0.00    -0.006 C 
ATOM     11  C   UNL     1     -41.368  30.042 -22.796  1.00  0.00    -0.027 C 
ATOM     12  C   UNL     1     -44.711  29.377 -22.564  1.00  0.00     0.008 C 
ATOM     13  C   UNL     1     -44.925  28.666 -18.773  1.00  0.00     0.008 C 
ATOM     14  C   UNL     1     -40.251  28.965 -19.518  1.00  0.00     0.017 C 
ATOM     15  C   UNL     1     -38.871  30.274 -21.280  1.00  0.00    -0.020 C 
ATOM     16  C   UNL     1     -40.107  30.405 -23.501  1.00  0.00     0.032 C 
ATOM     17  C   UNL     1     -39.012  31.080 -22.618  1.00  0.00     0.006 C 
ATOM     18  C   UNL     1     -38.327  28.854 -21.679  1.00  0.00     0.008 C 
ATOM     19  C   UNL     1     -37.838  30.934 -20.298  1.00  0.00     0.012 C 
ATOM     20  C   UNL     1     -37.618  31.319 -23.415  1.00  0.00    -0.025 C 
ATOM     21  C   UNL     1     -37.326  28.793 -22.868  1.00  0.00     0.005 C 
ATOM     22  C   UNL     1     -36.584  30.122 -23.179  1.00  0.00     0.003 C 
ATOM     23  C   UNL     1     -37.895  31.516 -24.952  1.00  0.00     0.010 C 
ATOM     24  C   UNL     1     -37.001  32.663 -22.895  1.00  0.00     0.012 C 
ATOM     25  C   UNL     1     -35.398  29.982 -24.247  1.00  0.00    -0.006 C 
ATOM     26  C   UNL     1     -36.657  31.523 -25.847  1.00  0.00     0.033 C 
ATOM     27  C   UNL     1     -35.885  30.208 -25.705  1.00  0.00     0.120 C 
ATOM     28  C   UNL     1     -34.709  28.589 -24.183  1.00  0.00     0.014 C 
ATOM     29  C   UNL     1     -34.260  30.993 -23.920  1.00  0.00     0.014 C 
ENDROOT
BRANCH   1  30
ATOM     30  C   UNL     1     -43.693  32.395 -21.853  1.00  0.00     0.048 C 
ATOM     31  O   UNL     1     -44.909  32.718 -21.926  1.00  0.00    -0.550 OA
ATOM     32  O   UNL     1     -42.842  32.833 -22.859  1.00  0.00    -0.550 OA
ENDBRANCH   1  30
BRANCH  27  33
ATOM     33  O   UNL     1     -36.693  29.135 -26.124  1.00  0.00    -0.393 OA
ATOM     34  H   UNL     1     -37.608  29.305 -25.777  1.00  0.00     0.210 HD
ENDBRANCH  27  33
TORSDOF 2
ENDMDL
MODEL 2
REMARK VINA RESULT:   153.772      4.644      6.778
REMARK INTER + INTRA:         167.559
REMARK INTER:                 166.284
REMARK INTRA:                   1.275
REMARK UNBOUND:                 0.303
REMARK SMILES C[C@H]1[C@H]2C3=CC[C@@H]4[C@]5(C)CC[C@H](O)C(C)(C)[C@@H]5CC[C@]4(C)[C@@]3(C)CC[C@]2(C(=O)[O-])CC[C@@H]1C
REMARK SMILES IDX 26 1 30 2 25 3 3 4 31 5 24 6 4 7 2 8 32 9 22 10 5 11 1 12
REMARK SMILES IDX 33 13 23 14 20 15 6 16 7 17 19 18 21 19 8 20 18 21 17 22
REMARK SMILES IDX 10 23 9 24 14 25 11 26 12 27 15 28 16 29 27 30 28 31 29 32
REMARK SMILES IDX 13 33
REMARK H PARENT 13 34
REMARK Flexibility Score: inf
ROOT
ATOM      1  C   UNL     1     -38.070  30.207 -21.956  1.00  0.00     0.017 C 
ATOM      2  C   UNL     1     -39.478  30.627 -22.475  1.00  0.00     0.014 C 
ATOM      3  C   UNL     1     -37.316  31.428 -21.310  1.00  0.00     0.014 C 
ATOM      4  C   UNL     1     -38.312  29.117 -20.867  1.00  0.00     0.030 C 
ATOM      5  C   UNL     1     -40.289  29.416 -23.001  1.00  0.00     0.004 C 
ATOM      6  C   UNL     1     -37.457  31.566 -19.769  1.00  0.00     0.013 C 
ATOM      7  C   UNL     1     -37.147  29.071 -19.878  1.00  0.00    -0.063 C 
ATOM      8  C   UNL     1     -39.102  27.840 -21.304  1.00  0.00    -0.003 C 
ATOM      9  C   UNL     1     -40.458  28.267 -21.973  1.00  0.00    -0.011 C 
ATOM     10  C   UNL     1     -37.090  30.266 -18.900  1.00  0.00    -0.006 C 
ATOM     11  C   UNL     1     -36.053  28.366 -20.195  1.00  0.00    -0.027 C 
ATOM     12  C   UNL     1     -38.355  26.831 -22.199  1.00  0.00     0.008 C 
ATOM     13  C   UNL     1     -41.542  28.610 -20.933  1.00  0.00     0.008 C 
ATOM     14  C   UNL     1     -38.242  30.057 -17.850  1.00  0.00     0.017 C 
ATOM     15  C   UNL     1     -35.681  30.376 -18.096  1.00  0.00    -0.020 C 
ATOM     16  C   UNL     1     -34.687  28.640 -19.669  1.00  0.00     0.032 C 
ATOM     17  C   UNL     1     -34.476  30.055 -19.047  1.00  0.00     0.006 C 
ATOM     18  C   UNL     1     -35.597  29.341 -16.916  1.00  0.00     0.008 C 
ATOM     19  C   UNL     1     -35.585  31.820 -17.485  1.00  0.00     0.012 C 
ATOM     20  C   UNL     1     -33.012  30.235 -18.370  1.00  0.00    -0.025 C 
ATOM     21  C   UNL     1     -34.174  28.925 -16.446  1.00  0.00     0.005 C 
ATOM     22  C   UNL     1     -33.039  29.926 -16.800  1.00  0.00     0.003 C 
ATOM     23  C   UNL     1     -31.959  29.318 -19.095  1.00  0.00     0.010 C 
ATOM     24  C   UNL     1     -32.558  31.716 -18.610  1.00  0.00     0.012 C 
ATOM     25  C   UNL     1     -31.631  29.598 -16.112  1.00  0.00    -0.006 C 
ATOM     26  C   UNL     1     -30.594  29.218 -18.415  1.00  0.00     0.033 C 
ATOM     27  C   UNL     1     -30.744  28.674 -16.992  1.00  0.00     0.120 C 
ATOM     28  C   UNL     1     -31.797  28.921 -14.722  1.00  0.00     0.014 C 
ATOM     29  C   UNL     1     -30.861  30.918 -15.811  1.00  0.00     0.014 C 
ENDROOT
BRANCH   1  30
ATOM     30  C   UNL     1     -37.205  29.739 -23.131  1.00  0.00     0.048 C 
ATOM     31  O   UNL     1     -37.036  28.512 -23.363  1.00  0.00    -0.550 OA
ATOM     32  O   UNL     1     -36.703  30.650 -24.049  1.00  0.00    -0.550 OA
ENDBRANCH   1  30
BRANCH  27  33
ATOM     33  O   UNL     1     -31.281  27.374 -17.034  1.00  0.00    -0.393 OA
ATOM     34  H   UNL     1     -30.532  26.744 -16.867  1.00  0.00     0.210 HD
ENDBRANCH  27  33
TORSDOF 2
ENDMDL
