MODEL 1
REMARK VINA RESULT:    -6.552      0.000      0.000
REMARK INTER + INTRA:          -8.180
REMARK INTER:                  -7.892
REMARK INTRA:                  -0.287
REMARK UNBOUND:                -0.287
REMARK SMILES O=c1c(O)c(-c2ccc(O)cc2O)oc2cc(O)cc(O)c12
REMARK SMILES IDX 5 1 3 2 2 3 1 4 22 5 20 6 19 7 17 8 16 9 15 10 14 11 6 12
REMARK SMILES IDX 8 13 7 14 9 15 11 16 12 17 10 18 13 20 4 22 21 24 18 26
REMARK H PARENT 10 19 13 21 4 23 21 25 18 27
REMARK Flexibility Score: inf
ROOT
ATOM      1  C   UNL     1      16.228  -7.319 -31.696  1.00  0.00     0.184 A 
ATOM      2  C   UNL     1      15.762  -7.151 -33.008  1.00  0.00     0.208 A 
ATOM      3  C   UNL     1      16.647  -6.679 -33.990  1.00  0.00     0.238 A 
ATOM      4  O   UNL     1      16.241  -6.588 -35.177  1.00  0.00    -0.285 OA
ATOM      5  C   UNL     1      17.981  -6.356 -33.638  1.00  0.00     0.111 A 
ATOM      6  C   UNL     1      18.954  -5.833 -34.542  1.00  0.00     0.134 A 
ATOM      7  C   UNL     1      20.277  -5.665 -34.112  1.00  0.00     0.093 A 
ATOM      8  C   UNL     1      20.646  -5.941 -32.793  1.00  0.00     0.123 A 
ATOM      9  C   UNL     1      19.691  -6.396 -31.888  1.00  0.00     0.094 A 
ATOM     10  C   UNL     1      18.371  -6.608 -32.296  1.00  0.00     0.146 A 
ATOM     11  O   UNL     1      17.496  -7.058 -31.405  1.00  0.00    -0.451 OA
ENDROOT
BRANCH   1  12
ATOM     12  C   UNL     1      15.334  -7.790 -30.616  1.00  0.00     0.063 A 
ATOM     13  C   UNL     1      14.644  -9.576 -29.113  1.00  0.00     0.047 A 
ATOM     14  C   UNL     1      15.508  -9.084 -30.094  1.00  0.00     0.020 A 
ATOM     15  C   UNL     1      13.588  -8.785 -28.646  1.00  0.00     0.119 A 
ATOM     16  C   UNL     1      13.405  -7.499 -29.160  1.00  0.00     0.093 A 
ATOM     17  C   UNL     1      14.271  -6.990 -30.136  1.00  0.00     0.130 A 
BRANCH  15  18
ATOM     18  O   UNL     1      12.718  -9.268 -27.671  1.00  0.00    -0.508 OA
ATOM     19  H   UNL     1      12.093 -10.044 -27.856  1.00  0.00     0.293 HD
ENDBRANCH  15  18
BRANCH  17  20
ATOM     20  O   UNL     1      14.063  -5.685 -30.587  1.00  0.00    -0.507 OA
ATOM     21  H   UNL     1      14.690  -4.920 -30.373  1.00  0.00     0.293 HD
ENDBRANCH  17  20
ENDBRANCH   1  12
BRANCH   2  22
ATOM     22  O   UNL     1      14.440  -7.474 -33.325  1.00  0.00    -0.502 OA
ATOM     23  H   UNL     1      13.794  -6.797 -33.714  1.00  0.00     0.293 HD
ENDBRANCH   2  22
BRANCH   6  24
ATOM     24  O   UNL     1      18.671  -5.441 -35.854  1.00  0.00    -0.507 OA
ATOM     25  H   UNL     1      18.066  -4.675 -36.108  1.00  0.00     0.293 HD
ENDBRANCH   6  24
BRANCH   8  26
ATOM     26  O   UNL     1      21.960  -5.755 -32.370  1.00  0.00    -0.508 OA
ATOM     27  H   UNL     1      22.656  -5.330 -32.971  1.00  0.00     0.293 HD
ENDBRANCH   8  26
TORSDOF 6
ENDMDL
MODEL 2
REMARK VINA RESULT:    -5.825      1.663      6.753
REMARK INTER + INTRA:          -7.304
REMARK INTER:                  -6.889
REMARK INTRA:                  -0.415
REMARK UNBOUND:                -0.287
REMARK SMILES O=c1c(O)c(-c2ccc(O)cc2O)oc2cc(O)cc(O)c12
REMARK SMILES IDX 5 1 3 2 2 3 1 4 22 5 20 6 19 7 17 8 16 9 15 10 14 11 6 12
REMARK SMILES IDX 8 13 7 14 9 15 11 16 12 17 10 18 13 20 4 22 21 24 18 26
REMARK H PARENT 10 19 13 21 4 23 21 25 18 27
REMARK Flexibility Score: inf
ROOT
ATOM      1  C   UNL     1      17.100  -6.151 -31.987  1.00  0.00     0.184 A 
ATOM      2  C   UNL     1      16.507  -4.947 -31.582  1.00  0.00     0.208 A 
ATOM      3  C   UNL     1      15.355  -4.989 -30.783  1.00  0.00     0.238 A 
ATOM      4  O   UNL     1      14.863  -3.906 -30.372  1.00  0.00    -0.285 OA
ATOM      5  C   UNL     1      14.794  -6.239 -30.422  1.00  0.00     0.111 A 
ATOM      6  C   UNL     1      13.605  -6.402 -29.649  1.00  0.00     0.134 A 
ATOM      7  C   UNL     1      13.212  -7.686 -29.249  1.00  0.00     0.093 A 
ATOM      8  C   UNL     1      13.928  -8.816 -29.650  1.00  0.00     0.123 A 
ATOM      9  C   UNL     1      15.056  -8.672 -30.454  1.00  0.00     0.094 A 
ATOM     10  C   UNL     1      15.495  -7.402 -30.838  1.00  0.00     0.146 A 
ATOM     11  O   UNL     1      16.584  -7.308 -31.592  1.00  0.00    -0.451 OA
ENDROOT
BRANCH   1  12
ATOM     12  C   UNL     1      18.302  -6.167 -32.848  1.00  0.00     0.063 A 
ATOM     13  C   UNL     1      19.266  -6.341 -35.076  1.00  0.00     0.047 A 
ATOM     14  C   UNL     1      18.148  -6.268 -34.242  1.00  0.00     0.020 A 
ATOM     15  C   UNL     1      20.555  -6.323 -34.528  1.00  0.00     0.119 A 
ATOM     16  C   UNL     1      20.717  -6.226 -33.144  1.00  0.00     0.093 A 
ATOM     17  C   UNL     1      19.605  -6.141 -32.298  1.00  0.00     0.130 A 
BRANCH  15  18
ATOM     18  O   UNL     1      21.676  -6.401 -35.350  1.00  0.00    -0.508 OA
ATOM     19  H   UNL     1      21.599  -6.647 -36.330  1.00  0.00     0.293 HD
ENDBRANCH  15  18
BRANCH  17  20
ATOM     20  O   UNL     1      19.828  -6.008 -30.925  1.00  0.00    -0.507 OA
ATOM     21  H   UNL     1      19.083  -5.862 -30.256  1.00  0.00     0.293 HD
ENDBRANCH  17  20
ENDBRANCH   1  12
BRANCH   2  22
ATOM     22  O   UNL     1      17.080  -3.727 -31.956  1.00  0.00    -0.502 OA
ATOM     23  H   UNL     1      16.788  -2.845 -31.553  1.00  0.00     0.293 HD
ENDBRANCH   2  22
BRANCH   6  24
ATOM     24  O   UNL     1      12.768  -5.348 -29.271  1.00  0.00    -0.507 OA
ATOM     25  H   UNL     1      12.060  -5.404 -28.555  1.00  0.00     0.293 HD
ENDBRANCH   6  24
BRANCH   8  26
ATOM     26  O   UNL     1      13.520 -10.090 -29.263  1.00  0.00    -0.508 OA
ATOM     27  H   UNL     1      13.229 -10.784 -29.941  1.00  0.00     0.293 HD
ENDBRANCH   8  26
TORSDOF 6
ENDMDL
MODEL 3
REMARK VINA RESULT:    -5.748      1.625      3.146
REMARK INTER + INTRA:          -7.211
REMARK INTER:                  -6.810
REMARK INTRA:                  -0.402
REMARK UNBOUND:                -0.287
REMARK SMILES O=c1c(O)c(-c2ccc(O)cc2O)oc2cc(O)cc(O)c12
REMARK SMILES IDX 5 1 3 2 2 3 1 4 22 5 20 6 19 7 17 8 16 9 15 10 14 11 6 12
REMARK SMILES IDX 8 13 7 14 9 15 11 16 12 17 10 18 13 20 4 22 21 24 18 26
REMARK H PARENT 10 19 13 21 4 23 21 25 18 27
REMARK Flexibility Score: inf
ROOT
ATOM      1  C   UNL     1      16.774  -6.948 -32.293  1.00  0.00     0.184 A 
ATOM      2  C   UNL     1      18.128  -6.947 -31.930  1.00  0.00     0.208 A 
ATOM      3  C   UNL     1      19.102  -6.830 -32.934  1.00  0.00     0.238 A 
ATOM      4  O   UNL     1      20.313  -6.769 -32.598  1.00  0.00    -0.285 OA
ATOM      5  C   UNL     1      18.706  -6.743 -34.292  1.00  0.00     0.111 A 
ATOM      6  C   UNL     1      19.608  -6.661 -35.396  1.00  0.00     0.134 A 
ATOM      7  C   UNL     1      19.103  -6.456 -36.686  1.00  0.00     0.093 A 
ATOM      8  C   UNL     1      17.727  -6.394 -36.920  1.00  0.00     0.123 A 
ATOM      9  C   UNL     1      16.837  -6.532 -35.857  1.00  0.00     0.094 A 
ATOM     10  C   UNL     1      17.311  -6.701 -34.553  1.00  0.00     0.146 A 
ATOM     11  O   UNL     1      16.429  -6.813 -33.567  1.00  0.00    -0.451 OA
ENDROOT
BRANCH   1  12
ATOM     12  C   UNL     1      15.705  -7.091 -31.280  1.00  0.00     0.063 A 
ATOM     13  C   UNL     1      14.259  -8.544 -29.969  1.00  0.00     0.047 A 
ATOM     14  C   UNL     1      15.303  -8.378 -30.882  1.00  0.00     0.020 A 
ATOM     15  C   UNL     1      13.596  -7.427 -29.448  1.00  0.00     0.119 A 
ATOM     16  C   UNL     1      13.987  -6.144 -29.839  1.00  0.00     0.093 A 
ATOM     17  C   UNL     1      15.039  -5.964 -30.745  1.00  0.00     0.130 A 
BRANCH  15  18
ATOM     18  O   UNL     1      12.550  -7.582 -28.541  1.00  0.00    -0.508 OA
ATOM     19  H   UNL     1      12.506  -7.041 -27.685  1.00  0.00     0.293 HD
ENDBRANCH  15  18
BRANCH  17  20
ATOM     20  O   UNL     1      15.412  -4.658 -31.072  1.00  0.00    -0.507 OA
ATOM     21  H   UNL     1      16.312  -4.423 -31.471  1.00  0.00     0.293 HD
ENDBRANCH  17  20
ENDBRANCH   1  12
BRANCH   2  22
ATOM     22  O   UNL     1      18.489  -7.038 -30.583  1.00  0.00    -0.502 OA
ATOM     23  H   UNL     1      18.092  -7.733 -29.961  1.00  0.00     0.293 HD
ENDBRANCH   2  22
BRANCH   6  24
ATOM     24  O   UNL     1      20.994  -6.800 -35.284  1.00  0.00    -0.507 OA
ATOM     25  H   UNL     1      21.649  -6.669 -36.040  1.00  0.00     0.293 HD
ENDBRANCH   6  24
BRANCH   8  26
ATOM     26  O   UNL     1      17.233  -6.206 -38.208  1.00  0.00    -0.508 OA
ATOM     27  H   UNL     1      17.508  -6.809 -38.975  1.00  0.00     0.293 HD
ENDBRANCH   8  26
TORSDOF 6
ENDMDL
MODEL 4
REMARK VINA RESULT:    -5.608      0.877      1.492
REMARK INTER + INTRA:          -7.043
REMARK INTER:                  -6.637
REMARK INTRA:                  -0.406
REMARK UNBOUND:                -0.287
REMARK SMILES O=c1c(O)c(-c2ccc(O)cc2O)oc2cc(O)cc(O)c12
REMARK SMILES IDX 5 1 3 2 2 3 1 4 22 5 20 6 19 7 17 8 16 9 15 10 14 11 6 12
REMARK SMILES IDX 8 13 7 14 9 15 11 16 12 17 10 18 13 20 4 22 21 24 18 26
REMARK H PARENT 10 19 13 21 4 23 21 25 18 27
REMARK Flexibility Score: inf
ROOT
ATOM      1  C   UNL     1      15.892  -7.160 -31.634  1.00  0.00     0.184 A 
ATOM      2  C   UNL     1      15.531  -7.100 -32.987  1.00  0.00     0.208 A 
ATOM      3  C   UNL     1      16.504  -6.754 -33.937  1.00  0.00     0.238 A 
ATOM      4  O   UNL     1      16.189  -6.761 -35.156  1.00  0.00    -0.285 OA
ATOM      5  C   UNL     1      17.821  -6.445 -33.516  1.00  0.00     0.111 A 
ATOM      6  C   UNL     1      18.878  -6.043 -34.387  1.00  0.00     0.134 A 
ATOM      7  C   UNL     1      20.171  -5.881 -33.874  1.00  0.00     0.093 A 
ATOM      8  C   UNL     1      20.431  -6.043 -32.511  1.00  0.00     0.123 A 
ATOM      9  C   UNL     1      19.395  -6.378 -31.643  1.00  0.00     0.094 A 
ATOM     10  C   UNL     1      18.101  -6.583 -32.130  1.00  0.00     0.146 A 
ATOM     11  O   UNL     1      17.145  -6.916 -31.271  1.00  0.00    -0.451 OA
ENDROOT
BRANCH   1  12
ATOM     12  C   UNL     1      14.904  -7.497 -30.587  1.00  0.00     0.063 A 
ATOM     13  C   UNL     1      13.064  -6.797 -29.156  1.00  0.00     0.047 A 
ATOM     14  C   UNL     1      13.972  -6.525 -30.181  1.00  0.00     0.020 A 
ATOM     15  C   UNL     1      13.078  -8.041 -28.515  1.00  0.00     0.119 A 
ATOM     16  C   UNL     1      14.001  -9.013 -28.909  1.00  0.00     0.093 A 
ATOM     17  C   UNL     1      14.910  -8.757 -29.943  1.00  0.00     0.130 A 
BRANCH  15  18
ATOM     18  O   UNL     1      12.179  -8.321 -27.488  1.00  0.00    -0.508 OA
ATOM     19  H   UNL     1      12.293  -9.130 -26.890  1.00  0.00     0.293 HD
ENDBRANCH  15  18
BRANCH  17  20
ATOM     20  O   UNL     1      15.785  -9.778 -30.320  1.00  0.00    -0.507 OA
ATOM     21  H   UNL     1      16.312  -9.763 -31.184  1.00  0.00     0.293 HD
ENDBRANCH  17  20
ENDBRANCH   1  12
BRANCH   2  22
ATOM     22  O   UNL     1      14.223  -7.407 -33.374  1.00  0.00    -0.502 OA
ATOM     23  H   UNL     1      13.446  -7.384 -32.724  1.00  0.00     0.293 HD
ENDBRANCH   2  22
BRANCH   6  24
ATOM     24  O   UNL     1      18.707  -5.766 -35.747  1.00  0.00    -0.507 OA
ATOM     25  H   UNL     1      17.928  -6.081 -36.305  1.00  0.00     0.293 HD
ENDBRANCH   6  24
BRANCH   8  26
ATOM     26  O   UNL     1      21.717  -5.864 -32.008  1.00  0.00    -0.508 OA
ATOM     27  H   UNL     1      22.044  -6.371 -31.193  1.00  0.00     0.293 HD
ENDBRANCH   8  26
TORSDOF 6
ENDMDL
MODEL 5
REMARK VINA RESULT:    -5.526      3.935      6.859
REMARK INTER + INTRA:          -6.943
REMARK INTER:                  -6.573
REMARK INTRA:                  -0.371
REMARK UNBOUND:                -0.287
REMARK SMILES O=c1c(O)c(-c2ccc(O)cc2O)oc2cc(O)cc(O)c12
REMARK SMILES IDX 5 1 3 2 2 3 1 4 22 5 20 6 19 7 17 8 16 9 15 10 14 11 6 12
REMARK SMILES IDX 8 13 7 14 9 15 11 16 12 17 10 18 13 20 4 22 21 24 18 26
REMARK H PARENT 10 19 13 21 4 23 21 25 18 27
REMARK Flexibility Score: inf
ROOT
ATOM      1  C   UNL     1      21.370  -5.187 -35.208  1.00  0.00     0.184 A 
ATOM      2  C   UNL     1      21.419  -6.071 -36.296  1.00  0.00     0.208 A 
ATOM      3  C   UNL     1      22.486  -5.978 -37.202  1.00  0.00     0.238 A 
ATOM      4  O   UNL     1      22.557  -6.812 -38.141  1.00  0.00    -0.285 OA
ATOM      5  C   UNL     1      23.477  -4.981 -37.022  1.00  0.00     0.111 A 
ATOM      6  C   UNL     1      24.583  -4.768 -37.900  1.00  0.00     0.134 A 
ATOM      7  C   UNL     1      25.567  -3.834 -37.557  1.00  0.00     0.093 A 
ATOM      8  C   UNL     1      25.453  -3.058 -36.400  1.00  0.00     0.123 A 
ATOM      9  C   UNL     1      24.348  -3.217 -35.567  1.00  0.00     0.094 A 
ATOM     10  C   UNL     1      23.367  -4.167 -35.863  1.00  0.00     0.146 A 
ATOM     11  O   UNL     1      22.339  -4.297 -35.034  1.00  0.00    -0.451 OA
ENDROOT
BRANCH   1  12
ATOM     12  C   UNL     1      20.257  -5.224 -34.235  1.00  0.00     0.063 A 
ATOM     13  C   UNL     1      17.902  -4.853 -33.748  1.00  0.00     0.047 A 
ATOM     14  C   UNL     1      18.961  -4.880 -34.658  1.00  0.00     0.020 A 
ATOM     15  C   UNL     1      18.123  -5.160 -32.401  1.00  0.00     0.119 A 
ATOM     16  C   UNL     1      19.408  -5.501 -31.970  1.00  0.00     0.093 A 
ATOM     17  C   UNL     1      20.477  -5.543 -32.874  1.00  0.00     0.130 A 
BRANCH  15  18
ATOM     18  O   UNL     1      17.075  -5.131 -31.484  1.00  0.00    -0.508 OA
ATOM     19  H   UNL     1      16.180  -5.559 -31.689  1.00  0.00     0.293 HD
ENDBRANCH  15  18
BRANCH  17  20
ATOM     20  O   UNL     1      21.732  -5.925 -32.395  1.00  0.00    -0.507 OA
ATOM     21  H   UNL     1      21.858  -6.617 -31.667  1.00  0.00     0.293 HD
ENDBRANCH  17  20
ENDBRANCH   1  12
BRANCH   2  22
ATOM     22  O   UNL     1      20.425  -7.042 -36.450  1.00  0.00    -0.502 OA
ATOM     23  H   UNL     1      19.644  -7.125 -35.809  1.00  0.00     0.293 HD
ENDBRANCH   2  22
BRANCH   6  24
ATOM     24  O   UNL     1      24.746  -5.425 -39.123  1.00  0.00    -0.507 OA
ATOM     25  H   UNL     1      24.870  -6.420 -39.230  1.00  0.00     0.293 HD
ENDBRANCH   6  24
BRANCH   8  26
ATOM     26  O   UNL     1      26.428  -2.119 -36.075  1.00  0.00    -0.508 OA
ATOM     27  H   UNL     1      26.940  -1.617 -36.790  1.00  0.00     0.293 HD
ENDBRANCH   8  26
TORSDOF 6
ENDMDL
MODEL 6
REMARK VINA RESULT:    -5.432      1.945      2.648
REMARK INTER + INTRA:          -6.830
REMARK INTER:                  -6.415
REMARK INTRA:                  -0.415
REMARK UNBOUND:                -0.287
REMARK SMILES O=c1c(O)c(-c2ccc(O)cc2O)oc2cc(O)cc(O)c12
REMARK SMILES IDX 5 1 3 2 2 3 1 4 22 5 20 6 19 7 17 8 16 9 15 10 14 11 6 12
REMARK SMILES IDX 8 13 7 14 9 15 11 16 12 17 10 18 13 20 4 22 21 24 18 26
REMARK H PARENT 10 19 13 21 4 23 21 25 18 27
REMARK Flexibility Score: inf
ROOT
ATOM      1  C   UNL     1      16.762  -6.496 -32.320  1.00  0.00     0.184 A 
ATOM      2  C   UNL     1      16.865  -5.145 -31.956  1.00  0.00     0.208 A 
ATOM      3  C   UNL     1      17.837  -4.345 -32.576  1.00  0.00     0.238 A 
ATOM      4  O   UNL     1      17.885  -3.120 -32.289  1.00  0.00    -0.285 OA
ATOM      5  C   UNL     1      18.712  -4.915 -33.534  1.00  0.00     0.111 A 
ATOM      6  C   UNL     1      19.760  -4.208 -34.196  1.00  0.00     0.134 A 
ATOM      7  C   UNL     1      20.484  -4.841 -35.214  1.00  0.00     0.093 A 
ATOM      8  C   UNL     1      20.240  -6.176 -35.548  1.00  0.00     0.123 A 
ATOM      9  C   UNL     1      19.259  -6.893 -34.866  1.00  0.00     0.094 A 
ATOM     10  C   UNL     1      18.495  -6.277 -33.871  1.00  0.00     0.146 A 
ATOM     11  O   UNL     1      17.560  -6.991 -33.257  1.00  0.00    -0.451 OA
ENDROOT
BRANCH   1  12
ATOM     12  C   UNL     1      15.772  -7.391 -31.683  1.00  0.00     0.063 A 
ATOM     13  C   UNL     1      15.236  -8.992 -29.931  1.00  0.00     0.047 A 
ATOM     14  C   UNL     1      16.131  -8.098 -30.521  1.00  0.00     0.020 A 
ATOM     15  C   UNL     1      13.973  -9.202 -30.498  1.00  0.00     0.119 A 
ATOM     16  C   UNL     1      13.609  -8.507 -31.654  1.00  0.00     0.093 A 
ATOM     17  C   UNL     1      14.493  -7.598 -32.249  1.00  0.00     0.130 A 
BRANCH  15  18
ATOM     18  O   UNL     1      13.075 -10.096 -29.920  1.00  0.00    -0.508 OA
ATOM     19  H   UNL     1      12.225 -10.375 -30.396  1.00  0.00     0.293 HD
ENDBRANCH  15  18
BRANCH  17  20
ATOM     20  O   UNL     1      14.062  -6.905 -33.382  1.00  0.00    -0.507 OA
ATOM     21  H   UNL     1      14.695  -6.437 -34.018  1.00  0.00     0.293 HD
ENDBRANCH  17  20
ENDBRANCH   1  12
BRANCH   2  22
ATOM     22  O   UNL     1      15.991  -4.611 -31.005  1.00  0.00    -0.502 OA
ATOM     23  H   UNL     1      14.992  -4.547 -31.162  1.00  0.00     0.293 HD
ENDBRANCH   2  22
BRANCH   6  24
ATOM     24  O   UNL     1      20.145  -2.902 -33.879  1.00  0.00    -0.507 OA
ATOM     25  H   UNL     1      20.561  -2.622 -33.003  1.00  0.00     0.293 HD
ENDBRANCH   6  24
BRANCH   8  26
ATOM     26  O   UNL     1      20.976  -6.803 -36.550  1.00  0.00    -0.508 OA
ATOM     27  H   UNL     1      21.097  -7.809 -36.570  1.00  0.00     0.293 HD
ENDBRANCH   8  26
TORSDOF 6
ENDMDL
MODEL 7
REMARK VINA RESULT:    -5.358      4.594      9.577
REMARK INTER + INTRA:          -6.742
REMARK INTER:                  -6.598
REMARK INTRA:                  -0.144
REMARK UNBOUND:                -0.287
REMARK SMILES O=c1c(O)c(-c2ccc(O)cc2O)oc2cc(O)cc(O)c12
REMARK SMILES IDX 5 1 3 2 2 3 1 4 22 5 20 6 19 7 17 8 16 9 15 10 14 11 6 12
REMARK SMILES IDX 8 13 7 14 9 15 11 16 12 17 10 18 13 20 4 22 21 24 18 26
REMARK H PARENT 10 19 13 21 4 23 21 25 18 27
REMARK Flexibility Score: inf
ROOT
ATOM      1  C   UNL     1      22.616  -5.057 -36.606  1.00  0.00     0.184 A 
ATOM      2  C   UNL     1      21.822  -5.460 -37.688  1.00  0.00     0.208 A 
ATOM      3  C   UNL     1      20.647  -6.186 -37.438  1.00  0.00     0.238 A 
ATOM      4  O   UNL     1      19.907  -6.493 -38.408  1.00  0.00    -0.285 OA
ATOM      5  C   UNL     1      20.299  -6.524 -36.106  1.00  0.00     0.111 A 
ATOM      6  C   UNL     1      19.153  -7.291 -35.738  1.00  0.00     0.134 A 
ATOM      7  C   UNL     1      18.842  -7.459 -34.383  1.00  0.00     0.093 A 
ATOM      8  C   UNL     1      19.671  -6.943 -33.383  1.00  0.00     0.123 A 
ATOM      9  C   UNL     1      20.823  -6.243 -33.733  1.00  0.00     0.094 A 
ATOM     10  C   UNL     1      21.141  -6.027 -35.076  1.00  0.00     0.146 A 
ATOM     11  O   UNL     1      22.240  -5.341 -35.366  1.00  0.00    -0.451 OA
ENDROOT
BRANCH   1  12
ATOM     12  C   UNL     1      23.876  -4.309 -36.812  1.00  0.00     0.063 A 
ATOM     13  C   UNL     1      26.015  -4.106 -37.954  1.00  0.00     0.047 A 
ATOM     14  C   UNL     1      24.794  -4.760 -37.777  1.00  0.00     0.020 A 
ATOM     15  C   UNL     1      26.341  -2.997 -37.163  1.00  0.00     0.119 A 
ATOM     16  C   UNL     1      25.436  -2.544 -36.200  1.00  0.00     0.093 A 
ATOM     17  C   UNL     1      24.204  -3.183 -36.020  1.00  0.00     0.130 A 
BRANCH  15  18
ATOM     18  O   UNL     1      27.559  -2.341 -37.328  1.00  0.00    -0.508 OA
ATOM     19  H   UNL     1      28.240  -2.293 -36.580  1.00  0.00     0.293 HD
ENDBRANCH  15  18
BRANCH  17  20
ATOM     20  O   UNL     1      23.323  -2.664 -35.068  1.00  0.00    -0.507 OA
ATOM     21  H   UNL     1      22.582  -3.208 -34.646  1.00  0.00     0.293 HD
ENDBRANCH  17  20
ENDBRANCH   1  12
BRANCH   2  22
ATOM     22  O   UNL     1      22.192  -5.116 -38.992  1.00  0.00    -0.502 OA
ATOM     23  H   UNL     1      21.548  -5.175 -39.772  1.00  0.00     0.293 HD
ENDBRANCH   2  22
BRANCH   6  24
ATOM     24  O   UNL     1      18.310  -7.926 -36.654  1.00  0.00    -0.507 OA
ATOM     25  H   UNL     1      18.574  -8.709 -37.233  1.00  0.00     0.293 HD
ENDBRANCH   6  24
BRANCH   8  26
ATOM     26  O   UNL     1      19.363  -7.129 -32.038  1.00  0.00    -0.508 OA
ATOM     27  H   UNL     1      19.895  -7.763 -31.454  1.00  0.00     0.293 HD
ENDBRANCH   8  26
TORSDOF 6
ENDMDL
MODEL 8
REMARK VINA RESULT:    -5.313      2.547      6.969
REMARK INTER + INTRA:          -6.687
REMARK INTER:                  -6.293
REMARK INTRA:                  -0.394
REMARK UNBOUND:                -0.287
REMARK SMILES O=c1c(O)c(-c2ccc(O)cc2O)oc2cc(O)cc(O)c12
REMARK SMILES IDX 5 1 3 2 2 3 1 4 22 5 20 6 19 7 17 8 16 9 15 10 14 11 6 12
REMARK SMILES IDX 8 13 7 14 9 15 11 16 12 17 10 18 13 20 4 22 21 24 18 26
REMARK H PARENT 10 19 13 21 4 23 21 25 18 27
REMARK Flexibility Score: inf
ROOT
ATOM      1  C   UNL     1      16.881  -5.475 -31.672  1.00  0.00     0.184 A 
ATOM      2  C   UNL     1      17.046  -4.646 -30.553  1.00  0.00     0.208 A 
ATOM      3  C   UNL     1      15.931  -4.352 -29.753  1.00  0.00     0.238 A 
ATOM      4  O   UNL     1      16.095  -3.658 -28.717  1.00  0.00    -0.285 OA
ATOM      5  C   UNL     1      14.659  -4.871 -30.101  1.00  0.00     0.111 A 
ATOM      6  C   UNL     1      13.452  -4.607 -29.386  1.00  0.00     0.134 A 
ATOM      7  C   UNL     1      12.274  -5.273 -29.749  1.00  0.00     0.093 A 
ATOM      8  C   UNL     1      12.246  -6.143 -30.842  1.00  0.00     0.123 A 
ATOM      9  C   UNL     1      13.405  -6.362 -31.583  1.00  0.00     0.094 A 
ATOM     10  C   UNL     1      14.605  -5.742 -31.223  1.00  0.00     0.146 A 
ATOM     11  O   UNL     1      15.689  -5.990 -31.946  1.00  0.00    -0.451 OA
ENDROOT
BRANCH   1  12
ATOM     12  C   UNL     1      18.016  -5.799 -32.563  1.00  0.00     0.063 A 
ATOM     13  C   UNL     1      19.857  -7.284 -33.136  1.00  0.00     0.047 A 
ATOM     14  C   UNL     1      18.747  -6.980 -32.345  1.00  0.00     0.020 A 
ATOM     15  C   UNL     1      20.259  -6.407 -34.151  1.00  0.00     0.119 A 
ATOM     16  C   UNL     1      19.541  -5.230 -34.374  1.00  0.00     0.093 A 
ATOM     17  C   UNL     1      18.419  -4.920 -33.595  1.00  0.00     0.130 A 
BRANCH  15  18
ATOM     18  O   UNL     1      21.368  -6.698 -34.942  1.00  0.00    -0.508 OA
ATOM     19  H   UNL     1      21.269  -6.975 -35.912  1.00  0.00     0.293 HD
ENDBRANCH  15  18
BRANCH  17  20
ATOM     20  O   UNL     1      17.717  -3.748 -33.887  1.00  0.00    -0.507 OA
ATOM     21  H   UNL     1      16.829  -3.742 -34.372  1.00  0.00     0.293 HD
ENDBRANCH  17  20
ENDBRANCH   1  12
BRANCH   2  22
ATOM     22  O   UNL     1      18.312  -4.145 -30.236  1.00  0.00    -0.502 OA
ATOM     23  H   UNL     1      19.079  -4.746 -29.958  1.00  0.00     0.293 HD
ENDBRANCH   2  22
BRANCH   6  24
ATOM     24  O   UNL     1      13.350  -3.689 -28.337  1.00  0.00    -0.507 OA
ATOM     25  H   UNL     1      14.115  -3.138 -27.978  1.00  0.00     0.293 HD
ENDBRANCH   6  24
BRANCH   8  26
ATOM     26  O   UNL     1      11.067  -6.788 -31.207  1.00  0.00    -0.508 OA
ATOM     27  H   UNL     1      10.957  -7.219 -32.117  1.00  0.00     0.293 HD
ENDBRANCH   8  26
TORSDOF 6
ENDMDL
MODEL 9
REMARK VINA RESULT:    -5.148      2.437      6.795
REMARK INTER + INTRA:          -6.489
REMARK INTER:                  -6.213
REMARK INTRA:                  -0.276
REMARK UNBOUND:                -0.287
REMARK SMILES O=c1c(O)c(-c2ccc(O)cc2O)oc2cc(O)cc(O)c12
REMARK SMILES IDX 5 1 3 2 2 3 1 4 22 5 20 6 19 7 17 8 16 9 15 10 14 11 6 12
REMARK SMILES IDX 8 13 7 14 9 15 11 16 12 17 10 18 13 20 4 22 21 24 18 26
REMARK H PARENT 10 19 13 21 4 23 21 25 18 27
REMARK Flexibility Score: inf
ROOT
ATOM      1  C   UNL     1      15.994  -5.905 -31.167  1.00  0.00     0.184 A 
ATOM      2  C   UNL     1      15.398  -7.037 -30.592  1.00  0.00     0.208 A 
ATOM      3  C   UNL     1      14.083  -6.945 -30.113  1.00  0.00     0.238 A 
ATOM      4  O   UNL     1      13.532  -7.979 -29.654  1.00  0.00    -0.285 OA
ATOM      5  C   UNL     1      13.390  -5.711 -30.192  1.00  0.00     0.111 A 
ATOM      6  C   UNL     1      12.067  -5.492 -29.702  1.00  0.00     0.134 A 
ATOM      7  C   UNL     1      11.436  -4.265 -29.944  1.00  0.00     0.093 A 
ATOM      8  C   UNL     1      12.104  -3.228 -30.601  1.00  0.00     0.123 A 
ATOM      9  C   UNL     1      13.416  -3.413 -31.030  1.00  0.00     0.094 A 
ATOM     10  C   UNL     1      14.060  -4.638 -30.837  1.00  0.00     0.146 A 
ATOM     11  O   UNL     1      15.305  -4.777 -31.275  1.00  0.00    -0.451 OA
ENDROOT
BRANCH   1  12
ATOM     12  C   UNL     1      17.385  -5.938 -31.668  1.00  0.00     0.063 A 
ATOM     13  C   UNL     1      19.052  -6.947 -33.126  1.00  0.00     0.047 A 
ATOM     14  C   UNL     1      17.734  -6.856 -32.674  1.00  0.00     0.020 A 
ATOM     15  C   UNL     1      20.044  -6.129 -32.573  1.00  0.00     0.119 A 
ATOM     16  C   UNL     1      19.708  -5.215 -31.571  1.00  0.00     0.093 A 
ATOM     17  C   UNL     1      18.388  -5.106 -31.117  1.00  0.00     0.130 A 
BRANCH  15  18
ATOM     18  O   UNL     1      21.362  -6.215 -33.013  1.00  0.00    -0.508 OA
ATOM     19  H   UNL     1      21.612  -6.747 -33.838  1.00  0.00     0.293 HD
ENDBRANCH  15  18
BRANCH  17  20
ATOM     20  O   UNL     1      18.103  -4.150 -30.139  1.00  0.00    -0.507 OA
ATOM     21  H   UNL     1      17.168  -3.810 -29.954  1.00  0.00     0.293 HD
ENDBRANCH  17  20
ENDBRANCH   1  12
BRANCH   2  22
ATOM     22  O   UNL     1      16.107  -8.240 -30.525  1.00  0.00    -0.502 OA
ATOM     23  H   UNL     1      16.207  -8.856 -31.323  1.00  0.00     0.293 HD
ENDBRANCH   2  22
BRANCH   6  24
ATOM     24  O   UNL     1      11.344  -6.428 -28.957  1.00  0.00    -0.507 OA
ATOM     25  H   UNL     1      11.754  -7.112 -28.340  1.00  0.00     0.293 HD
ENDBRANCH   6  24
BRANCH   8  26
ATOM     26  O   UNL     1      11.475  -2.006 -30.822  1.00  0.00    -0.508 OA
ATOM     27  H   UNL     1      11.751  -1.169 -30.322  1.00  0.00     0.293 HD
ENDBRANCH   8  26
TORSDOF 6
ENDMDL
