MODEL 1
REMARK VINA RESULT:    -6.920      0.000      0.000
REMARK INTER + INTRA:          -8.922
REMARK INTER:                  -8.538
REMARK INTRA:                  -0.384
REMARK UNBOUND:                -0.384
REMARK SMILES Oc1cc(O)c2cc(O)c(-c3cc(O)c(O)c(O)c3)[o+]c2c1
REMARK SMILES IDX 10 1 20 2 21 3 22 4 2 5 3 6 4 7 6 8 7 9 8 10 11 11 12 12
REMARK SMILES IDX 13 13 19 14 15 15 17 16 14 17 16 19 18 21 9 23 1 25 5 27
REMARK H PARENT 14 18 16 20 18 22 9 24 1 26 5 28
REMARK Flexibility Score: inf
ROOT
ATOM      1  C   UNL     1     -36.675 -13.117 -10.588  1.00  0.00     0.402 A 
ATOM      2  O   UNL     1     -35.710 -14.021 -10.734  1.00  0.00    -0.202 OA
ATOM      3  C   UNL     1     -35.601 -14.806 -11.802  1.00  0.00     0.368 A 
ATOM      4  C   UNL     1     -34.555 -15.730 -11.862  1.00  0.00     0.162 A 
ATOM      5  C   UNL     1     -34.416 -16.568 -12.969  1.00  0.00     0.128 A 
ATOM      6  C   UNL     1     -35.332 -16.486 -14.024  1.00  0.00     0.093 A 
ATOM      7  C   UNL     1     -36.391 -15.569 -13.987  1.00  0.00     0.136 A 
ATOM      8  C   UNL     1     -36.532 -14.713 -12.864  1.00  0.00     0.125 A 
ATOM      9  C   UNL     1     -37.553 -13.755 -12.747  1.00  0.00     0.078 A 
ATOM     10  C   UNL     1     -37.625 -12.943 -11.611  1.00  0.00     0.223 A 
ENDROOT
BRANCH   1  11
ATOM     11  C   UNL     1     -36.694 -12.309  -9.347  1.00  0.00     0.091 A 
ATOM     12  C   UNL     1     -35.869 -11.181  -9.245  1.00  0.00     0.068 A 
ATOM     13  C   UNL     1     -35.847 -10.406  -8.079  1.00  0.00     0.162 A 
ATOM     14  C   UNL     1     -37.482 -12.681  -8.247  1.00  0.00     0.068 A 
ATOM     15  C   UNL     1     -36.661 -10.774  -6.981  1.00  0.00     0.200 A 
ATOM     16  C   UNL     1     -37.470 -11.915  -7.074  1.00  0.00     0.162 A 
BRANCH  13  17
ATOM     17  O   UNL     1     -35.008  -9.290  -8.056  1.00  0.00    -0.504 OA
ATOM     18  H   UNL     1     -34.000  -9.338  -8.086  1.00  0.00     0.293 HD
ENDBRANCH  13  17
BRANCH  15  19
ATOM     19  O   UNL     1     -36.692 -10.042  -5.792  1.00  0.00    -0.502 OA
ATOM     20  H   UNL     1     -36.272 -10.348  -4.927  1.00  0.00     0.293 HD
ENDBRANCH  15  19
BRANCH  16  21
ATOM     21  O   UNL     1     -38.260 -12.287  -5.987  1.00  0.00    -0.504 OA
ATOM     22  H   UNL     1     -37.869 -12.400  -5.060  1.00  0.00     0.293 HD
ENDBRANCH  16  21
ENDBRANCH   1  11
BRANCH  10  23
ATOM     23  O   UNL     1     -38.609 -11.958 -11.517  1.00  0.00    -0.500 OA
ATOM     24  H   UNL     1     -39.116 -11.632 -12.331  1.00  0.00     0.294 HD
ENDBRANCH  10  23
BRANCH   5  25
ATOM     25  O   UNL     1     -33.366 -17.482 -13.012  1.00  0.00    -0.507 OA
ATOM     26  H   UNL     1     -33.520 -18.474 -12.876  1.00  0.00     0.293 HD
ENDBRANCH   5  25
BRANCH   7  27
ATOM     27  O   UNL     1     -37.265 -15.550 -15.078  1.00  0.00    -0.507 OA
ATOM     28  H   UNL     1     -36.972 -15.489 -16.042  1.00  0.00     0.293 HD
ENDBRANCH   7  27
TORSDOF 7
ENDMDL
MODEL 2
REMARK VINA RESULT:    -6.863      1.252      2.571
REMARK INTER + INTRA:          -8.852
REMARK INTER:                  -8.618
REMARK INTRA:                  -0.234
REMARK UNBOUND:                -0.384
REMARK SMILES Oc1cc(O)c2cc(O)c(-c3cc(O)c(O)c(O)c3)[o+]c2c1
REMARK SMILES IDX 10 1 20 2 21 3 22 4 2 5 3 6 4 7 6 8 7 9 8 10 11 11 12 12
REMARK SMILES IDX 13 13 19 14 15 15 17 16 14 17 16 19 18 21 9 23 1 25 5 27
REMARK H PARENT 14 18 16 20 18 22 9 24 1 26 5 28
REMARK Flexibility Score: inf
ROOT
ATOM      1  C   UNL     1     -36.548 -13.548 -10.319  1.00  0.00     0.402 A 
ATOM      2  O   UNL     1     -37.012 -13.147 -11.500  1.00  0.00    -0.202 OA
ATOM      3  C   UNL     1     -37.011 -13.917 -12.584  1.00  0.00     0.368 A 
ATOM      4  C   UNL     1     -37.516 -13.406 -13.782  1.00  0.00     0.162 A 
ATOM      5  C   UNL     1     -37.525 -14.190 -14.936  1.00  0.00     0.128 A 
ATOM      6  C   UNL     1     -37.022 -15.495 -14.895  1.00  0.00     0.093 A 
ATOM      7  C   UNL     1     -36.508 -16.031 -13.707  1.00  0.00     0.136 A 
ATOM      8  C   UNL     1     -36.501 -15.237 -12.531  1.00  0.00     0.125 A 
ATOM      9  C   UNL     1     -36.019 -15.695 -11.293  1.00  0.00     0.078 A 
ATOM     10  C   UNL     1     -36.049 -14.855 -10.176  1.00  0.00     0.223 A 
ENDROOT
BRANCH   1  11
ATOM     11  C   UNL     1     -36.596 -12.593  -9.189  1.00  0.00     0.091 A 
ATOM     12  C   UNL     1     -35.762 -11.467  -9.200  1.00  0.00     0.068 A 
ATOM     13  C   UNL     1     -35.766 -10.554  -8.138  1.00  0.00     0.162 A 
ATOM     14  C   UNL     1     -37.421 -12.820  -8.076  1.00  0.00     0.068 A 
ATOM     15  C   UNL     1     -36.617 -10.778  -7.029  1.00  0.00     0.200 A 
ATOM     16  C   UNL     1     -37.436 -11.916  -7.006  1.00  0.00     0.162 A 
BRANCH  13  17
ATOM     17  O   UNL     1     -34.916  -9.451  -8.226  1.00  0.00    -0.504 OA
ATOM     18  H   UNL     1     -35.149  -8.593  -8.705  1.00  0.00     0.293 HD
ENDBRANCH  13  17
BRANCH  15  19
ATOM     19  O   UNL     1     -36.676  -9.904  -5.941  1.00  0.00    -0.502 OA
ATOM     20  H   UNL     1     -37.532  -9.621  -5.487  1.00  0.00     0.293 HD
ENDBRANCH  15  19
BRANCH  16  21
ATOM     21  O   UNL     1     -38.263 -12.145  -5.908  1.00  0.00    -0.504 OA
ATOM     22  H   UNL     1     -38.712 -13.041  -5.759  1.00  0.00     0.293 HD
ENDBRANCH  16  21
ENDBRANCH   1  11
BRANCH  10  23
ATOM     23  O   UNL     1     -35.616 -15.326  -8.936  1.00  0.00    -0.500 OA
ATOM     24  H   UNL     1     -36.213 -15.300  -8.118  1.00  0.00     0.294 HD
ENDBRANCH  10  23
BRANCH   5  25
ATOM     25  O   UNL     1     -38.035 -13.663 -16.121  1.00  0.00    -0.507 OA
ATOM     26  H   UNL     1     -38.978 -13.868 -16.430  1.00  0.00     0.293 HD
ENDBRANCH   5  25
BRANCH   7  27
ATOM     27  O   UNL     1     -36.022 -17.341 -13.749  1.00  0.00    -0.507 OA
ATOM     28  H   UNL     1     -36.598 -18.166 -13.669  1.00  0.00     0.293 HD
ENDBRANCH   7  27
TORSDOF 7
ENDMDL
MODEL 3
REMARK VINA RESULT:    -6.777      1.503      3.324
REMARK INTER + INTRA:          -8.746
REMARK INTER:                  -8.364
REMARK INTRA:                  -0.383
REMARK UNBOUND:                -0.384
REMARK SMILES Oc1cc(O)c2cc(O)c(-c3cc(O)c(O)c(O)c3)[o+]c2c1
REMARK SMILES IDX 10 1 20 2 21 3 22 4 2 5 3 6 4 7 6 8 7 9 8 10 11 11 12 12
REMARK SMILES IDX 13 13 19 14 15 15 17 16 14 17 16 19 18 21 9 23 1 25 5 27
REMARK H PARENT 14 18 16 20 18 22 9 24 1 26 5 28
REMARK Flexibility Score: inf
ROOT
ATOM      1  C   UNL     1     -36.057 -14.512 -10.569  1.00  0.00     0.402 A 
ATOM      2  O   UNL     1     -36.919 -14.738 -11.557  1.00  0.00    -0.202 OA
ATOM      3  C   UNL     1     -36.610 -15.422 -12.654  1.00  0.00     0.368 A 
ATOM      4  C   UNL     1     -37.583 -15.604 -13.639  1.00  0.00     0.162 A 
ATOM      5  C   UNL     1     -37.287 -16.316 -14.802  1.00  0.00     0.128 A 
ATOM      6  C   UNL     1     -36.006 -16.849 -14.984  1.00  0.00     0.093 A 
ATOM      7  C   UNL     1     -35.012 -16.680 -14.012  1.00  0.00     0.136 A 
ATOM      8  C   UNL     1     -35.312 -15.960 -12.827  1.00  0.00     0.125 A 
ATOM      9  C   UNL     1     -34.383 -15.752 -11.793  1.00  0.00     0.078 A 
ATOM     10  C   UNL     1     -34.754 -15.035 -10.651  1.00  0.00     0.223 A 
ENDROOT
BRANCH   1  11
ATOM     11  C   UNL     1     -36.520 -13.726  -9.402  1.00  0.00     0.091 A 
ATOM     12  C   UNL     1     -37.224 -14.368  -8.374  1.00  0.00     0.068 A 
ATOM     13  C   UNL     1     -37.694 -13.653  -7.266  1.00  0.00     0.162 A 
ATOM     14  C   UNL     1     -36.318 -12.339  -9.330  1.00  0.00     0.068 A 
ATOM     15  C   UNL     1     -37.466 -12.257  -7.188  1.00  0.00     0.200 A 
ATOM     16  C   UNL     1     -36.783 -11.611  -8.227  1.00  0.00     0.162 A 
BRANCH  13  17
ATOM     17  O   UNL     1     -38.376 -14.361  -6.276  1.00  0.00    -0.504 OA
ATOM     18  H   UNL     1     -38.929 -13.930  -5.550  1.00  0.00     0.293 HD
ENDBRANCH  13  17
BRANCH  15  19
ATOM     19  O   UNL     1     -37.902 -11.485  -6.109  1.00  0.00    -0.502 OA
ATOM     20  H   UNL     1     -38.023 -10.484  -6.140  1.00  0.00     0.293 HD
ENDBRANCH  15  19
BRANCH  16  21
ATOM     21  O   UNL     1     -36.572 -10.234  -8.159  1.00  0.00    -0.504 OA
ATOM     22  H   UNL     1     -35.868  -9.776  -8.725  1.00  0.00     0.293 HD
ENDBRANCH  16  21
ENDBRANCH   1  11
BRANCH  10  23
ATOM     23  O   UNL     1     -33.847 -14.872  -9.603  1.00  0.00    -0.500 OA
ATOM     24  H   UNL     1     -33.979 -14.165  -8.890  1.00  0.00     0.294 HD
ENDBRANCH  10  23
BRANCH   5  25
ATOM     25  O   UNL     1     -38.271 -16.487 -15.772  1.00  0.00    -0.507 OA
ATOM     26  H   UNL     1     -38.038 -16.739 -16.726  1.00  0.00     0.293 HD
ENDBRANCH   5  25
BRANCH   7  27
ATOM     27  O   UNL     1     -33.757 -17.241 -14.269  1.00  0.00    -0.507 OA
ATOM     28  H   UNL     1     -32.991 -17.251 -13.611  1.00  0.00     0.293 HD
ENDBRANCH   7  27
TORSDOF 7
ENDMDL
MODEL 4
REMARK VINA RESULT:    -6.705      1.226      2.170
REMARK INTER + INTRA:          -8.657
REMARK INTER:                  -8.288
REMARK INTRA:                  -0.369
REMARK UNBOUND:                -0.384
REMARK SMILES Oc1cc(O)c2cc(O)c(-c3cc(O)c(O)c(O)c3)[o+]c2c1
REMARK SMILES IDX 10 1 20 2 21 3 22 4 2 5 3 6 4 7 6 8 7 9 8 10 11 11 12 12
REMARK SMILES IDX 13 13 19 14 15 15 17 16 14 17 16 19 18 21 9 23 1 25 5 27
REMARK H PARENT 14 18 16 20 18 22 9 24 1 26 5 28
REMARK Flexibility Score: inf
ROOT
ATOM      1  C   UNL     1     -36.371 -13.295 -10.849  1.00  0.00     0.402 A 
ATOM      2  O   UNL     1     -35.234 -13.966 -11.013  1.00  0.00    -0.202 OA
ATOM      3  C   UNL     1     -34.824 -14.429 -12.190  1.00  0.00     0.368 A 
ATOM      4  C   UNL     1     -33.616 -15.126 -12.262  1.00  0.00     0.162 A 
ATOM      5  C   UNL     1     -33.160 -15.626 -13.482  1.00  0.00     0.128 A 
ATOM      6  C   UNL     1     -33.919 -15.429 -14.642  1.00  0.00     0.093 A 
ATOM      7  C   UNL     1     -35.135 -14.734 -14.596  1.00  0.00     0.136 A 
ATOM      8  C   UNL     1     -35.598 -14.222 -13.357  1.00  0.00     0.125 A 
ATOM      9  C   UNL     1     -36.797 -13.502 -13.218  1.00  0.00     0.078 A 
ATOM     10  C   UNL     1     -37.186 -13.025 -11.963  1.00  0.00     0.223 A 
ENDROOT
BRANCH   1  11
ATOM     11  C   UNL     1     -36.724 -12.839  -9.485  1.00  0.00     0.091 A 
ATOM     12  C   UNL     1     -37.428 -13.699  -8.630  1.00  0.00     0.068 A 
ATOM     13  C   UNL     1     -37.796 -13.295  -7.341  1.00  0.00     0.162 A 
ATOM     14  C   UNL     1     -36.417 -11.542  -9.046  1.00  0.00     0.068 A 
ATOM     15  C   UNL     1     -37.462 -11.992  -6.897  1.00  0.00     0.200 A 
ATOM     16  C   UNL     1     -36.779 -11.123  -7.759  1.00  0.00     0.162 A 
BRANCH  13  17
ATOM     17  O   UNL     1     -38.484 -14.210  -6.544  1.00  0.00    -0.504 OA
ATOM     18  H   UNL     1     -38.906 -13.982  -5.655  1.00  0.00     0.293 HD
ENDBRANCH  13  17
BRANCH  15  19
ATOM     19  O   UNL     1     -37.793 -11.527  -5.622  1.00  0.00    -0.502 OA
ATOM     20  H   UNL     1     -37.329 -11.819  -4.775  1.00  0.00     0.293 HD
ENDBRANCH  15  19
BRANCH  16  21
ATOM     21  O   UNL     1     -36.464  -9.835  -7.329  1.00  0.00    -0.504 OA
ATOM     22  H   UNL     1     -35.504  -9.525  -7.238  1.00  0.00     0.293 HD
ENDBRANCH  16  21
ENDBRANCH   1  11
BRANCH  10  23
ATOM     23  O   UNL     1     -38.351 -12.267 -11.834  1.00  0.00    -0.500 OA
ATOM     24  H   UNL     1     -39.145 -12.597 -11.300  1.00  0.00     0.294 HD
ENDBRANCH  10  23
BRANCH   5  25
ATOM     25  O   UNL     1     -31.952 -16.318 -13.534  1.00  0.00    -0.507 OA
ATOM     26  H   UNL     1     -31.898 -17.264 -13.893  1.00  0.00     0.293 HD
ENDBRANCH   5  25
BRANCH   7  27
ATOM     27  O   UNL     1     -35.835 -14.582 -15.796  1.00  0.00    -0.507 OA
ATOM     28  H   UNL     1     -35.897 -15.290 -16.514  1.00  0.00     0.293 HD
ENDBRANCH   7  27
TORSDOF 7
ENDMDL
MODEL 5
REMARK VINA RESULT:    -6.602      1.196      2.254
REMARK INTER + INTRA:          -8.530
REMARK INTER:                  -8.174
REMARK INTRA:                  -0.356
REMARK UNBOUND:                -0.384
REMARK SMILES Oc1cc(O)c2cc(O)c(-c3cc(O)c(O)c(O)c3)[o+]c2c1
REMARK SMILES IDX 10 1 20 2 21 3 22 4 2 5 3 6 4 7 6 8 7 9 8 10 11 11 12 12
REMARK SMILES IDX 13 13 19 14 15 15 17 16 14 17 16 19 18 21 9 23 1 25 5 27
REMARK H PARENT 14 18 16 20 18 22 9 24 1 26 5 28
REMARK Flexibility Score: inf
ROOT
ATOM      1  C   UNL     1     -36.011 -13.437 -10.042  1.00  0.00     0.402 A 
ATOM      2  O   UNL     1     -35.176 -14.444  -9.799  1.00  0.00    -0.202 OA
ATOM      3  C   UNL     1     -35.014 -15.473 -10.625  1.00  0.00     0.368 A 
ATOM      4  C   UNL     1     -34.116 -16.486 -10.281  1.00  0.00     0.162 A 
ATOM      5  C   UNL     1     -33.927 -17.579 -11.127  1.00  0.00     0.128 A 
ATOM      6  C   UNL     1     -34.644 -17.664 -12.326  1.00  0.00     0.093 A 
ATOM      7  C   UNL     1     -35.551 -16.662 -12.693  1.00  0.00     0.136 A 
ATOM      8  C   UNL     1     -35.743 -15.548 -11.837  1.00  0.00     0.125 A 
ATOM      9  C   UNL     1     -36.621 -14.490 -12.129  1.00  0.00     0.078 A 
ATOM     10  C   UNL     1     -36.753 -13.422 -11.237  1.00  0.00     0.223 A 
ENDROOT
BRANCH   1  11
ATOM     11  C   UNL     1     -36.110 -12.352  -9.039  1.00  0.00     0.091 A 
ATOM     12  C   UNL     1     -36.962 -12.507  -7.937  1.00  0.00     0.068 A 
ATOM     13  C   UNL     1     -37.096 -11.494  -6.980  1.00  0.00     0.162 A 
ATOM     14  C   UNL     1     -35.409 -11.146  -9.196  1.00  0.00     0.068 A 
ATOM     15  C   UNL     1     -36.368 -10.288  -7.133  1.00  0.00     0.200 A 
ATOM     16  C   UNL     1     -35.533 -10.124  -8.247  1.00  0.00     0.162 A 
BRANCH  13  17
ATOM     17  O   UNL     1     -37.954 -11.725  -5.904  1.00  0.00    -0.504 OA
ATOM     18  H   UNL     1     -37.684 -11.635  -4.935  1.00  0.00     0.293 HD
ENDBRANCH  13  17
BRANCH  15  19
ATOM     19  O   UNL     1     -36.449  -9.242  -6.212  1.00  0.00    -0.502 OA
ATOM     20  H   UNL     1     -37.316  -8.837  -5.890  1.00  0.00     0.293 HD
ENDBRANCH  15  19
BRANCH  16  21
ATOM     21  O   UNL     1     -34.828  -8.932  -8.407  1.00  0.00    -0.504 OA
ATOM     22  H   UNL     1     -34.667  -8.529  -9.322  1.00  0.00     0.293 HD
ENDBRANCH  16  21
ENDBRANCH   1  11
BRANCH  10  23
ATOM     23  O   UNL     1     -37.586 -12.348 -11.552  1.00  0.00    -0.500 OA
ATOM     24  H   UNL     1     -38.018 -11.780 -10.832  1.00  0.00     0.294 HD
ENDBRANCH  10  23
BRANCH   5  25
ATOM     25  O   UNL     1     -33.026 -18.579 -10.767  1.00  0.00    -0.507 OA
ATOM     26  H   UNL     1     -32.077 -18.591 -11.123  1.00  0.00     0.293 HD
ENDBRANCH   5  25
BRANCH   7  27
ATOM     27  O   UNL     1     -36.230 -16.821 -13.905  1.00  0.00    -0.507 OA
ATOM     28  H   UNL     1     -35.817 -16.672 -14.814  1.00  0.00     0.293 HD
ENDBRANCH   7  27
TORSDOF 7
ENDMDL
MODEL 6
REMARK VINA RESULT:    -6.412      3.601      6.493
REMARK INTER + INTRA:          -8.296
REMARK INTER:                  -8.655
REMARK INTRA:                   0.359
REMARK UNBOUND:                -0.384
REMARK SMILES Oc1cc(O)c2cc(O)c(-c3cc(O)c(O)c(O)c3)[o+]c2c1
REMARK SMILES IDX 10 1 20 2 21 3 22 4 2 5 3 6 4 7 6 8 7 9 8 10 11 11 12 12
REMARK SMILES IDX 13 13 19 14 15 15 17 16 14 17 16 19 18 21 9 23 1 25 5 27
REMARK H PARENT 14 18 16 20 18 22 9 24 1 26 5 28
REMARK Flexibility Score: inf
ROOT
ATOM      1  C   UNL     1     -36.618 -12.520  -7.893  1.00  0.00     0.402 A 
ATOM      2  O   UNL     1     -35.739 -12.234  -8.850  1.00  0.00    -0.202 OA
ATOM      3  C   UNL     1     -35.186 -11.035  -8.999  1.00  0.00     0.368 A 
ATOM      4  C   UNL     1     -34.276 -10.830 -10.039  1.00  0.00     0.162 A 
ATOM      5  C   UNL     1     -33.681  -9.581 -10.221  1.00  0.00     0.128 A 
ATOM      6  C   UNL     1     -34.001  -8.525  -9.359  1.00  0.00     0.093 A 
ATOM      7  C   UNL     1     -34.912  -8.704  -8.310  1.00  0.00     0.136 A 
ATOM      8  C   UNL     1     -35.515  -9.975  -8.120  1.00  0.00     0.125 A 
ATOM      9  C   UNL     1     -36.428 -10.250  -7.088  1.00  0.00     0.078 A 
ATOM     10  C   UNL     1     -36.978 -11.529  -6.962  1.00  0.00     0.223 A 
ENDROOT
BRANCH   1  11
ATOM     11  C   UNL     1     -37.170 -13.893  -7.838  1.00  0.00     0.091 A 
ATOM     12  C   UNL     1     -38.342 -14.136  -7.108  1.00  0.00     0.068 A 
ATOM     13  C   UNL     1     -38.881 -15.425  -7.017  1.00  0.00     0.162 A 
ATOM     14  C   UNL     1     -36.515 -14.969  -8.455  1.00  0.00     0.068 A 
ATOM     15  C   UNL     1     -38.226 -16.503  -7.662  1.00  0.00     0.200 A 
ATOM     16  C   UNL     1     -37.042 -16.264  -8.373  1.00  0.00     0.162 A 
BRANCH  13  17
ATOM     17  O   UNL     1     -40.056 -15.588  -6.282  1.00  0.00    -0.504 OA
ATOM     18  H   UNL     1     -40.983 -15.438  -6.655  1.00  0.00     0.293 HD
ENDBRANCH  13  17
BRANCH  15  19
ATOM     19  O   UNL     1     -38.714 -17.811  -7.617  1.00  0.00    -0.502 OA
ATOM     20  H   UNL     1     -38.150 -18.619  -7.397  1.00  0.00     0.293 HD
ENDBRANCH  15  19
BRANCH  16  21
ATOM     21  O   UNL     1     -36.389 -17.327  -8.995  1.00  0.00    -0.504 OA
ATOM     22  H   UNL     1     -36.131 -17.292  -9.974  1.00  0.00     0.293 HD
ENDBRANCH  16  21
ENDBRANCH   1  11
BRANCH  10  23
ATOM     23  O   UNL     1     -37.846 -11.816  -5.908  1.00  0.00    -0.500 OA
ATOM     24  H   UNL     1     -37.555 -11.734  -4.941  1.00  0.00     0.294 HD
ENDBRANCH  10  23
BRANCH   5  25
ATOM     25  O   UNL     1     -32.775  -9.396 -11.262  1.00  0.00    -0.507 OA
ATOM     26  H   UNL     1     -32.810  -9.963 -12.102  1.00  0.00     0.293 HD
ENDBRANCH   5  25
BRANCH   7  27
ATOM     27  O   UNL     1     -35.181  -7.601  -7.495  1.00  0.00    -0.507 OA
ATOM     28  H   UNL     1     -36.106  -7.248  -7.299  1.00  0.00     0.293 HD
ENDBRANCH   7  27
TORSDOF 7
ENDMDL
MODEL 7
REMARK VINA RESULT:    -6.388      3.383      7.057
REMARK INTER + INTRA:          -8.266
REMARK INTER:                  -8.523
REMARK INTRA:                   0.257
REMARK UNBOUND:                -0.384
REMARK SMILES Oc1cc(O)c2cc(O)c(-c3cc(O)c(O)c(O)c3)[o+]c2c1
REMARK SMILES IDX 10 1 20 2 21 3 22 4 2 5 3 6 4 7 6 8 7 9 8 10 11 11 12 12
REMARK SMILES IDX 13 13 19 14 15 15 17 16 14 17 16 19 18 21 9 23 1 25 5 27
REMARK H PARENT 14 18 16 20 18 22 9 24 1 26 5 28
REMARK Flexibility Score: inf
ROOT
ATOM      1  C   UNL     1     -36.300 -12.457  -8.257  1.00  0.00     0.402 A 
ATOM      2  O   UNL     1     -36.531 -11.530  -7.331  1.00  0.00    -0.202 OA
ATOM      3  C   UNL     1     -36.026 -10.301  -7.387  1.00  0.00     0.368 A 
ATOM      4  C   UNL     1     -36.322  -9.398  -6.363  1.00  0.00     0.162 A 
ATOM      5  C   UNL     1     -35.805  -8.102  -6.394  1.00  0.00     0.128 A 
ATOM      6  C   UNL     1     -34.982  -7.706  -7.454  1.00  0.00     0.093 A 
ATOM      7  C   UNL     1     -34.670  -8.593  -8.493  1.00  0.00     0.136 A 
ATOM      8  C   UNL     1     -35.197  -9.910  -8.466  1.00  0.00     0.125 A 
ATOM      9  C   UNL     1     -34.949 -10.862  -9.469  1.00  0.00     0.078 A 
ATOM     10  C   UNL     1     -35.508 -12.140  -9.376  1.00  0.00     0.223 A 
ENDROOT
BRANCH   1  11
ATOM     11  C   UNL     1     -36.912 -13.793  -8.077  1.00  0.00     0.091 A 
ATOM     12  C   UNL     1     -38.001 -13.942  -7.207  1.00  0.00     0.068 A 
ATOM     13  C   UNL     1     -38.591 -15.194  -6.997  1.00  0.00     0.162 A 
ATOM     14  C   UNL     1     -36.390 -14.928  -8.717  1.00  0.00     0.068 A 
ATOM     15  C   UNL     1     -38.073 -16.331  -7.664  1.00  0.00     0.200 A 
ATOM     16  C   UNL     1     -36.970 -16.187  -8.517  1.00  0.00     0.162 A 
BRANCH  13  17
ATOM     17  O   UNL     1     -39.679 -15.262  -6.125  1.00  0.00    -0.504 OA
ATOM     18  H   UNL     1     -39.621 -15.589  -5.172  1.00  0.00     0.293 HD
ENDBRANCH  13  17
BRANCH  15  19
ATOM     19  O   UNL     1     -38.619 -17.606  -7.505  1.00  0.00    -0.502 OA
ATOM     20  H   UNL     1     -39.306 -17.846  -6.805  1.00  0.00     0.293 HD
ENDBRANCH  15  19
BRANCH  16  21
ATOM     21  O   UNL     1     -36.450 -17.308  -9.162  1.00  0.00    -0.504 OA
ATOM     22  H   UNL     1     -35.457 -17.407  -9.336  1.00  0.00     0.293 HD
ENDBRANCH  16  21
ENDBRANCH   1  11
BRANCH  10  23
ATOM     23  O   UNL     1     -35.303 -13.069 -10.397  1.00  0.00    -0.500 OA
ATOM     24  H   UNL     1     -36.016 -13.737 -10.661  1.00  0.00     0.294 HD
ENDBRANCH  10  23
BRANCH   5  25
ATOM     25  O   UNL     1     -36.112  -7.216  -5.364  1.00  0.00    -0.507 OA
ATOM     26  H   UNL     1     -35.405  -6.893  -4.714  1.00  0.00     0.293 HD
ENDBRANCH   5  25
BRANCH   7  27
ATOM     27  O   UNL     1     -33.840  -8.122  -9.514  1.00  0.00    -0.507 OA
ATOM     28  H   UNL     1     -32.840  -8.010  -9.431  1.00  0.00     0.293 HD
ENDBRANCH   7  27
TORSDOF 7
ENDMDL
MODEL 8
REMARK VINA RESULT:    -6.367      2.621      4.503
REMARK INTER + INTRA:          -8.240
REMARK INTER:                  -7.869
REMARK INTRA:                  -0.371
REMARK UNBOUND:                -0.384
REMARK SMILES Oc1cc(O)c2cc(O)c(-c3cc(O)c(O)c(O)c3)[o+]c2c1
REMARK SMILES IDX 10 1 20 2 21 3 22 4 2 5 3 6 4 7 6 8 7 9 8 10 11 11 12 12
REMARK SMILES IDX 13 13 19 14 15 15 17 16 14 17 16 19 18 21 9 23 1 25 5 27
REMARK H PARENT 14 18 16 20 18 22 9 24 1 26 5 28
REMARK Flexibility Score: inf
ROOT
ATOM      1  C   UNL     1     -36.238 -15.962  -9.652  1.00  0.00     0.402 A 
ATOM      2  O   UNL     1     -36.748 -15.701 -10.853  1.00  0.00    -0.202 OA
ATOM      3  C   UNL     1     -36.073 -15.871 -11.985  1.00  0.00     0.368 A 
ATOM      4  C   UNL     1     -36.694 -15.565 -13.199  1.00  0.00     0.162 A 
ATOM      5  C   UNL     1     -36.010 -15.730 -14.403  1.00  0.00     0.128 A 
ATOM      6  C   UNL     1     -34.692 -16.203 -14.397  1.00  0.00     0.093 A 
ATOM      7  C   UNL     1     -34.047 -16.515 -13.193  1.00  0.00     0.136 A 
ATOM      8  C   UNL     1     -34.742 -16.351 -11.967  1.00  0.00     0.125 A 
ATOM      9  C   UNL     1     -34.180 -16.652 -10.715  1.00  0.00     0.078 A 
ATOM     10  C   UNL     1     -34.929 -16.469  -9.549  1.00  0.00     0.223 A 
ENDROOT
BRANCH   1  11
ATOM     11  C   UNL     1     -37.087 -15.723  -8.463  1.00  0.00     0.091 A 
ATOM     12  C   UNL     1     -37.854 -16.774  -7.941  1.00  0.00     0.068 A 
ATOM     13  C   UNL     1     -38.685 -16.579  -6.831  1.00  0.00     0.162 A 
ATOM     14  C   UNL     1     -37.186 -14.451  -7.880  1.00  0.00     0.068 A 
ATOM     15  C   UNL     1     -38.761 -15.297  -6.233  1.00  0.00     0.200 A 
ATOM     16  C   UNL     1     -38.012 -14.240  -6.769  1.00  0.00     0.162 A 
BRANCH  13  17
ATOM     17  O   UNL     1     -39.409 -17.675  -6.360  1.00  0.00    -0.504 OA
ATOM     18  H   UNL     1     -39.358 -18.023  -5.413  1.00  0.00     0.293 HD
ENDBRANCH  13  17
BRANCH  15  19
ATOM     19  O   UNL     1     -39.563 -15.036  -5.120  1.00  0.00    -0.502 OA
ATOM     20  H   UNL     1     -40.012 -14.149  -4.940  1.00  0.00     0.293 HD
ENDBRANCH  15  19
BRANCH  16  21
ATOM     21  O   UNL     1     -38.099 -12.975  -6.191  1.00  0.00    -0.504 OA
ATOM     22  H   UNL     1     -38.921 -12.394  -6.304  1.00  0.00     0.293 HD
ENDBRANCH  16  21
ENDBRANCH   1  11
BRANCH  10  23
ATOM     23  O   UNL     1     -34.389 -16.814  -8.309  1.00  0.00    -0.500 OA
ATOM     24  H   UNL     1     -34.752 -17.589  -7.767  1.00  0.00     0.294 HD
ENDBRANCH  10  23
BRANCH   5  25
ATOM     25  O   UNL     1     -36.646 -15.421 -15.603  1.00  0.00    -0.507 OA
ATOM     26  H   UNL     1     -36.497 -14.534 -16.069  1.00  0.00     0.293 HD
ENDBRANCH   5  25
BRANCH   7  27
ATOM     27  O   UNL     1     -32.730 -16.979 -13.270  1.00  0.00    -0.507 OA
ATOM     28  H   UNL     1     -32.406 -17.670 -13.931  1.00  0.00     0.293 HD
ENDBRANCH   7  27
TORSDOF 7
ENDMDL
MODEL 9
REMARK VINA RESULT:    -6.207      3.853      6.771
REMARK INTER + INTRA:          -8.043
REMARK INTER:                  -8.154
REMARK INTRA:                   0.111
REMARK UNBOUND:                -0.384
REMARK SMILES Oc1cc(O)c2cc(O)c(-c3cc(O)c(O)c(O)c3)[o+]c2c1
REMARK SMILES IDX 10 1 20 2 21 3 22 4 2 5 3 6 4 7 6 8 7 9 8 10 11 11 12 12
REMARK SMILES IDX 13 13 19 14 15 15 17 16 14 17 16 19 18 21 9 23 1 25 5 27
REMARK H PARENT 14 18 16 20 18 22 9 24 1 26 5 28
REMARK Flexibility Score: inf
ROOT
ATOM      1  C   UNL     1     -36.982 -14.783  -7.746  1.00  0.00     0.402 A 
ATOM      2  O   UNL     1     -35.959 -14.232  -8.394  1.00  0.00    -0.202 OA
ATOM      3  C   UNL     1     -35.754 -12.920  -8.452  1.00  0.00     0.368 A 
ATOM      4  C   UNL     1     -34.653 -12.435  -9.161  1.00  0.00     0.162 A 
ATOM      5  C   UNL     1     -34.413 -11.062  -9.241  1.00  0.00     0.128 A 
ATOM      6  C   UNL     1     -35.282 -10.166  -8.610  1.00  0.00     0.093 A 
ATOM      7  C   UNL     1     -36.394 -10.627  -7.893  1.00  0.00     0.136 A 
ATOM      8  C   UNL     1     -36.638 -12.022  -7.807  1.00  0.00     0.125 A 
ATOM      9  C   UNL     1     -37.719 -12.575  -7.100  1.00  0.00     0.078 A 
ATOM     10  C   UNL     1     -37.892 -13.961  -7.056  1.00  0.00     0.223 A 
ENDROOT
BRANCH   1  11
ATOM     11  C   UNL     1     -37.108 -16.259  -7.763  1.00  0.00     0.091 A 
ATOM     12  C   UNL     1     -35.952 -17.049  -7.835  1.00  0.00     0.068 A 
ATOM     13  C   UNL     1     -36.034 -18.446  -7.874  1.00  0.00     0.162 A 
ATOM     14  C   UNL     1     -38.364 -16.884  -7.766  1.00  0.00     0.068 A 
ATOM     15  C   UNL     1     -37.305 -19.071  -7.853  1.00  0.00     0.200 A 
ATOM     16  C   UNL     1     -38.461 -18.281  -7.804  1.00  0.00     0.162 A 
BRANCH  13  17
ATOM     17  O   UNL     1     -34.840 -19.166  -7.934  1.00  0.00    -0.504 OA
ATOM     18  H   UNL     1     -33.926 -18.743  -8.003  1.00  0.00     0.293 HD
ENDBRANCH  13  17
BRANCH  15  19
ATOM     19  O   UNL     1     -37.457 -20.459  -7.882  1.00  0.00    -0.502 OA
ATOM     20  H   UNL     1     -36.751 -21.114  -7.580  1.00  0.00     0.293 HD
ENDBRANCH  15  19
BRANCH  16  21
ATOM     21  O   UNL     1     -39.713 -18.896  -7.799  1.00  0.00    -0.504 OA
ATOM     22  H   UNL     1     -40.519 -18.463  -8.235  1.00  0.00     0.293 HD
ENDBRANCH  16  21
ENDBRANCH   1  11
BRANCH  10  23
ATOM     23  O   UNL     1     -38.936 -14.513  -6.313  1.00  0.00    -0.500 OA
ATOM     24  H   UNL     1     -39.766 -14.888  -6.757  1.00  0.00     0.294 HD
ENDBRANCH  10  23
BRANCH   5  25
ATOM     25  O   UNL     1     -33.309 -10.598  -9.952  1.00  0.00    -0.507 OA
ATOM     26  H   UNL     1     -32.630  -9.975  -9.531  1.00  0.00     0.293 HD
ENDBRANCH   5  25
BRANCH   7  27
ATOM     27  O   UNL     1     -37.216  -9.668  -7.292  1.00  0.00    -0.507 OA
ATOM     28  H   UNL     1     -37.642  -8.895  -7.782  1.00  0.00     0.293 HD
ENDBRANCH   7  27
TORSDOF 7
ENDMDL
