MODEL 1
REMARK VINA RESULT:    -5.359      0.000      0.000
REMARK INTER + INTRA:          -6.571
REMARK INTER:                  -6.299
REMARK INTRA:                  -0.271
REMARK UNBOUND:                -0.271
REMARK SMILES O=c1c(O)c(-c2ccc(O)cc2)oc2cc(O)cc(O)c12
REMARK SMILES IDX 5 1 3 2 2 3 1 4 21 5 19 6 18 7 16 8 15 9 14 10 13 11 6 12
REMARK SMILES IDX 7 13 8 14 9 15 12 16 11 17 10 18 4 20 20 22 17 24
REMARK H PARENT 10 19 4 21 20 23 17 25
REMARK Flexibility Score: inf
ROOT
ATOM      1  C   UNL     1      43.120  18.525  -2.883  1.00  0.00     0.180 A 
ATOM      2  C   UNL     1      43.617  19.002  -4.112  1.00  0.00     0.208 A 
ATOM      3  C   UNL     1      44.575  18.239  -4.797  1.00  0.00     0.238 A 
ATOM      4  O   UNL     1      45.019  18.650  -5.904  1.00  0.00    -0.285 OA
ATOM      5  C   UNL     1      45.034  17.029  -4.237  1.00  0.00     0.111 A 
ATOM      6  C   UNL     1      46.000  16.204  -4.863  1.00  0.00     0.134 A 
ATOM      7  C   UNL     1      46.412  15.019  -4.236  1.00  0.00     0.093 A 
ATOM      8  C   UNL     1      45.878  14.644  -2.998  1.00  0.00     0.123 A 
ATOM      9  C   UNL     1      44.925  15.454  -2.379  1.00  0.00     0.094 A 
ATOM     10  C   UNL     1      44.500  16.638  -2.988  1.00  0.00     0.146 A 
ATOM     11  O   UNL     1      43.588  17.387  -2.379  1.00  0.00    -0.452 OA
ENDROOT
BRANCH   1  12
ATOM     12  C   UNL     1      42.095  19.262  -2.110  1.00  0.00     0.021 A 
ATOM     13  C   UNL     1      40.736  18.901  -2.165  1.00  0.00     0.016 A 
ATOM     14  C   UNL     1      39.788  19.596  -1.406  1.00  0.00     0.047 A 
ATOM     15  C   UNL     1      40.189  20.651  -0.574  1.00  0.00     0.115 A 
ATOM     16  C   UNL     1      42.489  20.306  -1.256  1.00  0.00     0.016 A 
ATOM     17  C   UNL     1      41.540  21.000  -0.500  1.00  0.00     0.047 A 
BRANCH  15  18
ATOM     18  O   UNL     1      39.254  21.351   0.185  1.00  0.00    -0.508 OA
ATOM     19  H   UNL     1      38.694  20.889   0.893  1.00  0.00     0.293 HD
ENDBRANCH  15  18
ENDBRANCH   1  12
BRANCH   2  20
ATOM     20  O   UNL     1      43.182  20.228  -4.621  1.00  0.00    -0.502 OA
ATOM     21  H   UNL     1      42.200  20.472  -4.680  1.00  0.00     0.293 HD
ENDBRANCH   2  20
BRANCH   6  22
ATOM     22  O   UNL     1      46.552  16.553  -6.096  1.00  0.00    -0.507 OA
ATOM     23  H   UNL     1      46.572  15.902  -6.874  1.00  0.00     0.293 HD
ENDBRANCH   6  22
BRANCH   8  24
ATOM     24  O   UNL     1      46.288  13.467  -2.375  1.00  0.00    -0.508 OA
ATOM     25  H   UNL     1      47.160  13.014  -2.620  1.00  0.00     0.293 HD
ENDBRANCH   8  24
TORSDOF 5
ENDMDL
MODEL 2
REMARK VINA RESULT:    -5.121      2.505      4.885
REMARK INTER + INTRA:          -6.290
REMARK INTER:                  -6.272
REMARK INTRA:                  -0.018
REMARK UNBOUND:                -0.271
REMARK SMILES O=c1c(O)c(-c2ccc(O)cc2)oc2cc(O)cc(O)c12
REMARK SMILES IDX 5 1 3 2 2 3 1 4 21 5 19 6 18 7 16 8 15 9 14 10 13 11 6 12
REMARK SMILES IDX 7 13 8 14 9 15 12 16 11 17 10 18 4 20 20 22 17 24
REMARK H PARENT 10 19 4 21 20 23 17 25
REMARK Flexibility Score: inf
ROOT
ATOM      1  C   UNL     1      45.555  15.758  -3.472  1.00  0.00     0.180 A 
ATOM      2  C   UNL     1      44.938  14.577  -3.013  1.00  0.00     0.208 A 
ATOM      3  C   UNL     1      45.721  13.425  -2.843  1.00  0.00     0.238 A 
ATOM      4  O   UNL     1      45.182  12.365  -2.422  1.00  0.00    -0.285 OA
ATOM      5  C   UNL     1      47.097  13.465  -3.150  1.00  0.00     0.111 A 
ATOM      6  C   UNL     1      47.955  12.348  -3.009  1.00  0.00     0.134 A 
ATOM      7  C   UNL     1      49.311  12.466  -3.346  1.00  0.00     0.093 A 
ATOM      8  C   UNL     1      49.825  13.678  -3.821  1.00  0.00     0.123 A 
ATOM      9  C   UNL     1      48.984  14.782  -3.960  1.00  0.00     0.094 A 
ATOM     10  C   UNL     1      47.629  14.685  -3.629  1.00  0.00     0.146 A 
ATOM     11  O   UNL     1      46.852  15.754  -3.766  1.00  0.00    -0.452 OA
ENDROOT
BRANCH   1  12
ATOM     12  C   UNL     1      44.802  17.018  -3.659  1.00  0.00     0.021 A 
ATOM     13  C   UNL     1      44.006  17.557  -2.630  1.00  0.00     0.016 A 
ATOM     14  C   UNL     1      43.322  18.761  -2.822  1.00  0.00     0.047 A 
ATOM     15  C   UNL     1      43.436  19.450  -4.038  1.00  0.00     0.115 A 
ATOM     16  C   UNL     1      44.925  17.726  -4.866  1.00  0.00     0.016 A 
ATOM     17  C   UNL     1      44.240  18.930  -5.055  1.00  0.00     0.047 A 
BRANCH  15  18
ATOM     18  O   UNL     1      42.759  20.650  -4.240  1.00  0.00    -0.508 OA
ATOM     19  H   UNL     1      42.479  21.238  -3.463  1.00  0.00     0.293 HD
ENDBRANCH  15  18
ENDBRANCH   1  12
BRANCH   2  20
ATOM     20  O   UNL     1      43.565  14.551  -2.762  1.00  0.00    -0.502 OA
ATOM     21  H   UNL     1      43.115  13.780  -2.283  1.00  0.00     0.293 HD
ENDBRANCH   2  20
BRANCH   6  22
ATOM     22  O   UNL     1      47.471  11.125  -2.541  1.00  0.00    -0.507 OA
ATOM     23  H   UNL     1      46.479  10.914  -2.529  1.00  0.00     0.293 HD
ENDBRANCH   6  22
BRANCH   8  24
ATOM     24  O   UNL     1      51.173  13.795  -4.156  1.00  0.00    -0.508 OA
ATOM     25  H   UNL     1      51.467  14.017  -5.099  1.00  0.00     0.293 HD
ENDBRANCH   8  24
TORSDOF 5
ENDMDL
MODEL 3
REMARK VINA RESULT:    -5.116      2.555      5.146
REMARK INTER + INTRA:          -6.284
REMARK INTER:                  -6.276
REMARK INTRA:                  -0.008
REMARK UNBOUND:                -0.271
REMARK SMILES O=c1c(O)c(-c2ccc(O)cc2)oc2cc(O)cc(O)c12
REMARK SMILES IDX 5 1 3 2 2 3 1 4 21 5 19 6 18 7 16 8 15 9 14 10 13 11 6 12
REMARK SMILES IDX 7 13 8 14 9 15 12 16 11 17 10 18 4 20 20 22 17 24
REMARK H PARENT 10 19 4 21 20 23 17 25
REMARK Flexibility Score: inf
ROOT
ATOM      1  C   UNL     1      46.217  15.972  -3.745  1.00  0.00     0.180 A 
ATOM      2  C   UNL     1      46.018  14.659  -3.274  1.00  0.00     0.208 A 
ATOM      3  C   UNL     1      47.109  13.778  -3.241  1.00  0.00     0.238 A 
ATOM      4  O   UNL     1      46.946  12.603  -2.811  1.00  0.00    -0.285 OA
ATOM      5  C   UNL     1      48.371  14.214  -3.696  1.00  0.00     0.111 A 
ATOM      6  C   UNL     1      49.520  13.386  -3.699  1.00  0.00     0.134 A 
ATOM      7  C   UNL     1      50.739  13.892  -4.177  1.00  0.00     0.093 A 
ATOM      8  C   UNL     1      50.829  15.205  -4.651  1.00  0.00     0.123 A 
ATOM      9  C   UNL     1      49.699  16.023  -4.648  1.00  0.00     0.094 A 
ATOM     10  C   UNL     1      48.476  15.540  -4.175  1.00  0.00     0.146 A 
ATOM     11  O   UNL     1      47.418  16.342  -4.180  1.00  0.00    -0.452 OA
ENDROOT
BRANCH   1  12
ATOM     12  C   UNL     1      45.121  16.966  -3.793  1.00  0.00     0.021 A 
ATOM     13  C   UNL     1      44.322  17.232  -2.665  1.00  0.00     0.016 A 
ATOM     14  C   UNL     1      43.308  18.193  -2.727  1.00  0.00     0.047 A 
ATOM     15  C   UNL     1      43.088  18.909  -3.912  1.00  0.00     0.115 A 
ATOM     16  C   UNL     1      44.906  17.703  -4.969  1.00  0.00     0.016 A 
ATOM     17  C   UNL     1      43.890  18.662  -5.029  1.00  0.00     0.047 A 
BRANCH  15  18
ATOM     18  O   UNL     1      42.080  19.867  -3.986  1.00  0.00    -0.508 OA
ATOM     19  H   UNL     1      42.082  20.584  -4.702  1.00  0.00     0.293 HD
ENDBRANCH  15  18
ENDBRANCH   1  12
BRANCH   2  20
ATOM     20  O   UNL     1      44.747  14.238  -2.876  1.00  0.00    -0.502 OA
ATOM     21  H   UNL     1      43.903  14.723  -3.156  1.00  0.00     0.293 HD
ENDBRANCH   2  20
BRANCH   6  22
ATOM     22  O   UNL     1      49.461  12.072  -3.234  1.00  0.00    -0.507 OA
ATOM     23  H   UNL     1      49.751  11.826  -2.294  1.00  0.00     0.293 HD
ENDBRANCH   6  22
BRANCH   8  24
ATOM     24  O   UNL     1      52.039  15.707  -5.126  1.00  0.00    -0.508 OA
ATOM     25  H   UNL     1      52.914  15.221  -4.964  1.00  0.00     0.293 HD
ENDBRANCH   8  24
TORSDOF 5
ENDMDL
MODEL 4
REMARK VINA RESULT:    -4.959      1.953      6.793
REMARK INTER + INTRA:          -6.101
REMARK INTER:                  -5.832
REMARK INTRA:                  -0.268
REMARK UNBOUND:                -0.271
REMARK SMILES O=c1c(O)c(-c2ccc(O)cc2)oc2cc(O)cc(O)c12
REMARK SMILES IDX 5 1 3 2 2 3 1 4 21 5 19 6 18 7 16 8 15 9 14 10 13 11 6 12
REMARK SMILES IDX 7 13 8 14 9 15 12 16 11 17 10 18 4 20 20 22 17 24
REMARK H PARENT 10 19 4 21 20 23 17 25
REMARK Flexibility Score: inf
ROOT
ATOM      1  C   UNL     1      43.807  17.502  -3.782  1.00  0.00     0.180 A 
ATOM      2  C   UNL     1      42.731  16.609  -3.948  1.00  0.00     0.208 A 
ATOM      3  C   UNL     1      41.493  16.923  -3.368  1.00  0.00     0.238 A 
ATOM      4  O   UNL     1      40.519  16.137  -3.520  1.00  0.00    -0.285 OA
ATOM      5  C   UNL     1      41.356  18.110  -2.618  1.00  0.00     0.111 A 
ATOM      6  C   UNL     1      40.143  18.497  -1.998  1.00  0.00     0.134 A 
ATOM      7  C   UNL     1      40.090  19.689  -1.260  1.00  0.00     0.093 A 
ATOM      8  C   UNL     1      41.225  20.498  -1.129  1.00  0.00     0.123 A 
ATOM      9  C   UNL     1      42.421  20.119  -1.740  1.00  0.00     0.094 A 
ATOM     10  C   UNL     1      42.495  18.937  -2.481  1.00  0.00     0.146 A 
ATOM     11  O   UNL     1      43.645  18.603  -3.055  1.00  0.00    -0.452 OA
ENDROOT
BRANCH   1  12
ATOM     12  C   UNL     1      45.139  17.250  -4.379  1.00  0.00     0.021 A 
ATOM     13  C   UNL     1      45.540  17.883  -5.570  1.00  0.00     0.016 A 
ATOM     14  C   UNL     1      46.812  17.649  -6.102  1.00  0.00     0.047 A 
ATOM     15  C   UNL     1      47.703  16.790  -5.444  1.00  0.00     0.115 A 
ATOM     16  C   UNL     1      46.047  16.408  -3.716  1.00  0.00     0.016 A 
ATOM     17  C   UNL     1      47.317  16.174  -4.250  1.00  0.00     0.047 A 
BRANCH  15  18
ATOM     18  O   UNL     1      48.972  16.548  -5.965  1.00  0.00    -0.508 OA
ATOM     19  H   UNL     1      49.563  15.811  -5.598  1.00  0.00     0.293 HD
ENDBRANCH  15  18
ENDBRANCH   1  12
BRANCH   2  20
ATOM     20  O   UNL     1      42.907  15.417  -4.655  1.00  0.00    -0.502 OA
ATOM     21  H   UNL     1      42.187  15.030  -5.254  1.00  0.00     0.293 HD
ENDBRANCH   2  20
BRANCH   6  22
ATOM     22  O   UNL     1      38.996  17.711  -2.109  1.00  0.00    -0.507 OA
ATOM     23  H   UNL     1      38.775  16.992  -1.429  1.00  0.00     0.293 HD
ENDBRANCH   6  22
BRANCH   8  24
ATOM     24  O   UNL     1      41.173  21.681  -0.395  1.00  0.00    -0.508 OA
ATOM     25  H   UNL     1      41.848  22.423  -0.538  1.00  0.00     0.293 HD
ENDBRANCH   8  24
TORSDOF 5
ENDMDL
MODEL 5
REMARK VINA RESULT:    -4.904      2.924      4.787
REMARK INTER + INTRA:          -6.036
REMARK INTER:                  -6.147
REMARK INTRA:                   0.111
REMARK UNBOUND:                -0.271
REMARK SMILES O=c1c(O)c(-c2ccc(O)cc2)oc2cc(O)cc(O)c12
REMARK SMILES IDX 5 1 3 2 2 3 1 4 21 5 19 6 18 7 16 8 15 9 14 10 13 11 6 12
REMARK SMILES IDX 7 13 8 14 9 15 12 16 11 17 10 18 4 20 20 22 17 24
REMARK H PARENT 10 19 4 21 20 23 17 25
REMARK Flexibility Score: inf
ROOT
ATOM      1  C   UNL     1      46.177  16.213  -4.065  1.00  0.00     0.180 A 
ATOM      2  C   UNL     1      47.567  16.225  -4.293  1.00  0.00     0.208 A 
ATOM      3  C   UNL     1      48.328  15.112  -3.904  1.00  0.00     0.238 A 
ATOM      4  O   UNL     1      49.572  15.107  -4.113  1.00  0.00    -0.285 OA
ATOM      5  C   UNL     1      47.694  14.018  -3.279  1.00  0.00     0.111 A 
ATOM      6  C   UNL     1      48.390  12.860  -2.854  1.00  0.00     0.134 A 
ATOM      7  C   UNL     1      47.689  11.818  -2.230  1.00  0.00     0.093 A 
ATOM      8  C   UNL     1      46.308  11.912  -2.023  1.00  0.00     0.123 A 
ATOM      9  C   UNL     1      45.619  13.050  -2.442  1.00  0.00     0.094 A 
ATOM     10  C   UNL     1      46.299  14.100  -3.066  1.00  0.00     0.146 A 
ATOM     11  O   UNL     1      45.617  15.170  -3.459  1.00  0.00    -0.452 OA
ENDROOT
BRANCH   1  12
ATOM     12  C   UNL     1      45.303  17.339  -4.463  1.00  0.00     0.021 A 
ATOM     13  C   UNL     1      45.459  17.985  -5.704  1.00  0.00     0.016 A 
ATOM     14  C   UNL     1      44.607  19.032  -6.068  1.00  0.00     0.047 A 
ATOM     15  C   UNL     1      43.579  19.437  -5.204  1.00  0.00     0.115 A 
ATOM     16  C   UNL     1      44.258  17.739  -3.613  1.00  0.00     0.016 A 
ATOM     17  C   UNL     1      43.408  18.786  -3.980  1.00  0.00     0.047 A 
BRANCH  15  18
ATOM     18  O   UNL     1      42.725  20.479  -5.557  1.00  0.00    -0.508 OA
ATOM     19  H   UNL     1      43.046  21.440  -5.587  1.00  0.00     0.293 HD
ENDBRANCH  15  18
ENDBRANCH   1  12
BRANCH   2  20
ATOM     20  O   UNL     1      48.176  17.342  -4.869  1.00  0.00    -0.502 OA
ATOM     21  H   UNL     1      48.947  17.262  -5.521  1.00  0.00     0.293 HD
ENDBRANCH   2  20
BRANCH   6  22
ATOM     22  O   UNL     1      49.767  12.739  -3.045  1.00  0.00    -0.507 OA
ATOM     23  H   UNL     1      50.158  12.057  -3.686  1.00  0.00     0.293 HD
ENDBRANCH   6  22
BRANCH   8  24
ATOM     24  O   UNL     1      45.611  10.876  -1.404  1.00  0.00    -0.508 OA
ATOM     25  H   UNL     1      45.696   9.917  -1.719  1.00  0.00     0.293 HD
ENDBRANCH   8  24
TORSDOF 5
ENDMDL
MODEL 6
REMARK VINA RESULT:    -4.863      2.466      6.947
REMARK INTER + INTRA:          -5.987
REMARK INTER:                  -6.295
REMARK INTRA:                   0.308
REMARK UNBOUND:                -0.271
REMARK SMILES O=c1c(O)c(-c2ccc(O)cc2)oc2cc(O)cc(O)c12
REMARK SMILES IDX 5 1 3 2 2 3 1 4 21 5 19 6 18 7 16 8 15 9 14 10 13 11 6 12
REMARK SMILES IDX 7 13 8 14 9 15 12 16 11 17 10 18 4 20 20 22 17 24
REMARK H PARENT 10 19 4 21 20 23 17 25
REMARK Flexibility Score: inf
ROOT
ATOM      1  C   UNL     1      46.396  16.453  -4.281  1.00  0.00     0.180 A 
ATOM      2  C   UNL     1      46.092  17.510  -5.160  1.00  0.00     0.208 A 
ATOM      3  C   UNL     1      44.835  18.128  -5.068  1.00  0.00     0.238 A 
ATOM      4  O   UNL     1      44.555  19.083  -5.843  1.00  0.00    -0.285 OA
ATOM      5  C   UNL     1      43.900  17.668  -4.118  1.00  0.00     0.111 A 
ATOM      6  C   UNL     1      42.611  18.234  -3.964  1.00  0.00     0.134 A 
ATOM      7  C   UNL     1      41.734  17.713  -3.001  1.00  0.00     0.093 A 
ATOM      8  C   UNL     1      42.121  16.639  -2.191  1.00  0.00     0.123 A 
ATOM      9  C   UNL     1      43.390  16.080  -2.339  1.00  0.00     0.094 A 
ATOM     10  C   UNL     1      44.280  16.585  -3.292  1.00  0.00     0.146 A 
ATOM     11  O   UNL     1      45.484  16.037  -3.408  1.00  0.00    -0.452 OA
ENDROOT
BRANCH   1  12
ATOM     12  C   UNL     1      47.706  15.764  -4.302  1.00  0.00     0.021 A 
ATOM     13  C   UNL     1      48.872  16.417  -4.744  1.00  0.00     0.016 A 
ATOM     14  C   UNL     1      50.102  15.753  -4.732  1.00  0.00     0.047 A 
ATOM     15  C   UNL     1      50.186  14.433  -4.268  1.00  0.00     0.115 A 
ATOM     16  C   UNL     1      47.804  14.448  -3.819  1.00  0.00     0.016 A 
ATOM     17  C   UNL     1      49.036  13.786  -3.810  1.00  0.00     0.047 A 
BRANCH  15  18
ATOM     18  O   UNL     1      51.407  13.762  -4.253  1.00  0.00    -0.508 OA
ATOM     19  H   UNL     1      52.260  14.209  -4.567  1.00  0.00     0.293 HD
ENDBRANCH  15  18
ENDBRANCH   1  12
BRANCH   2  20
ATOM     20  O   UNL     1      47.017  17.914  -6.125  1.00  0.00    -0.502 OA
ATOM     21  H   UNL     1      48.016  17.905  -5.955  1.00  0.00     0.293 HD
ENDBRANCH   2  20
BRANCH   6  22
ATOM     22  O   UNL     1      42.197  19.304  -4.758  1.00  0.00    -0.507 OA
ATOM     23  H   UNL     1      41.997  20.216  -4.361  1.00  0.00     0.293 HD
ENDBRANCH   6  22
BRANCH   8  24
ATOM     24  O   UNL     1      41.250  16.122  -1.234  1.00  0.00    -0.508 OA
ATOM     25  H   UNL     1      40.936  16.678  -0.447  1.00  0.00     0.293 HD
ENDBRANCH   8  24
TORSDOF 5
ENDMDL
MODEL 7
REMARK VINA RESULT:    -4.742      2.079      7.094
REMARK INTER + INTRA:          -5.845
REMARK INTER:                  -5.910
REMARK INTRA:                   0.065
REMARK UNBOUND:                -0.271
REMARK SMILES O=c1c(O)c(-c2ccc(O)cc2)oc2cc(O)cc(O)c12
REMARK SMILES IDX 5 1 3 2 2 3 1 4 21 5 19 6 18 7 16 8 15 9 14 10 13 11 6 12
REMARK SMILES IDX 7 13 8 14 9 15 12 16 11 17 10 18 4 20 20 22 17 24
REMARK H PARENT 10 19 4 21 20 23 17 25
REMARK Flexibility Score: inf
ROOT
ATOM      1  C   UNL     1      44.584  15.882  -2.882  1.00  0.00     0.180 A 
ATOM      2  C   UNL     1      43.424  15.086  -2.815  1.00  0.00     0.208 A 
ATOM      3  C   UNL     1      42.181  15.713  -2.639  1.00  0.00     0.238 A 
ATOM      4  O   UNL     1      41.134  15.012  -2.589  1.00  0.00    -0.285 OA
ATOM      5  C   UNL     1      42.119  17.116  -2.514  1.00  0.00     0.111 A 
ATOM      6  C   UNL     1      40.907  17.825  -2.331  1.00  0.00     0.134 A 
ATOM      7  C   UNL     1      40.930  19.221  -2.205  1.00  0.00     0.093 A 
ATOM      8  C   UNL     1      42.141  19.922  -2.258  1.00  0.00     0.123 A 
ATOM      9  C   UNL     1      43.337  19.228  -2.439  1.00  0.00     0.094 A 
ATOM     10  C   UNL     1      43.336  17.836  -2.568  1.00  0.00     0.146 A 
ATOM     11  O   UNL     1      44.489  17.201  -2.745  1.00  0.00    -0.452 OA
ENDROOT
BRANCH   1  12
ATOM     12  C   UNL     1      45.929  15.297  -3.085  1.00  0.00     0.021 A 
ATOM     13  C   UNL     1      46.816  15.814  -4.047  1.00  0.00     0.016 A 
ATOM     14  C   UNL     1      48.091  15.261  -4.204  1.00  0.00     0.047 A 
ATOM     15  C   UNL     1      48.500  14.194  -3.393  1.00  0.00     0.115 A 
ATOM     16  C   UNL     1      46.356  14.241  -2.262  1.00  0.00     0.016 A 
ATOM     17  C   UNL     1      47.631  13.689  -2.422  1.00  0.00     0.047 A 
BRANCH  15  18
ATOM     18  O   UNL     1      49.767  13.634  -3.541  1.00  0.00    -0.508 OA
ATOM     19  H   UNL     1      50.016  13.097  -4.364  1.00  0.00     0.293 HD
ENDBRANCH  15  18
ENDBRANCH   1  12
BRANCH   2  20
ATOM     20  O   UNL     1      43.518  13.695  -2.893  1.00  0.00    -0.502 OA
ATOM     21  H   UNL     1      44.408  13.213  -2.941  1.00  0.00     0.293 HD
ENDBRANCH   2  20
BRANCH   6  22
ATOM     22  O   UNL     1      39.685  17.154  -2.273  1.00  0.00    -0.507 OA
ATOM     23  H   UNL     1      39.632  16.157  -2.097  1.00  0.00     0.293 HD
ENDBRANCH   6  22
BRANCH   8  24
ATOM     24  O   UNL     1      42.164  21.309  -2.132  1.00  0.00    -0.508 OA
ATOM     25  H   UNL     1      42.581  21.762  -1.327  1.00  0.00     0.293 HD
ENDBRANCH   8  24
TORSDOF 5
ENDMDL
MODEL 8
REMARK VINA RESULT:    -4.731      2.199      3.615
REMARK INTER + INTRA:          -5.832
REMARK INTER:                  -5.984
REMARK INTRA:                   0.151
REMARK UNBOUND:                -0.271
REMARK SMILES O=c1c(O)c(-c2ccc(O)cc2)oc2cc(O)cc(O)c12
REMARK SMILES IDX 5 1 3 2 2 3 1 4 21 5 19 6 18 7 16 8 15 9 14 10 13 11 6 12
REMARK SMILES IDX 7 13 8 14 9 15 12 16 11 17 10 18 4 20 20 22 17 24
REMARK H PARENT 10 19 4 21 20 23 17 25
REMARK Flexibility Score: inf
ROOT
ATOM      1  C   UNL     1      45.314  16.051  -3.260  1.00  0.00     0.180 A 
ATOM      2  C   UNL     1      46.030  16.583  -4.350  1.00  0.00     0.208 A 
ATOM      3  C   UNL     1      47.245  15.986  -4.720  1.00  0.00     0.238 A 
ATOM      4  O   UNL     1      47.890  16.447  -5.701  1.00  0.00    -0.285 OA
ATOM      5  C   UNL     1      47.732  14.884  -3.986  1.00  0.00     0.111 A 
ATOM      6  C   UNL     1      48.949  14.228  -4.292  1.00  0.00     0.134 A 
ATOM      7  C   UNL     1      49.370  13.144  -3.507  1.00  0.00     0.093 A 
ATOM      8  C   UNL     1      48.599  12.706  -2.424  1.00  0.00     0.123 A 
ATOM      9  C   UNL     1      47.399  13.349  -2.121  1.00  0.00     0.094 A 
ATOM     10  C   UNL     1      46.961  14.430  -2.891  1.00  0.00     0.146 A 
ATOM     11  O   UNL     1      45.812  15.021  -2.583  1.00  0.00    -0.452 OA
ENDROOT
BRANCH   1  12
ATOM     12  C   UNL     1      44.017  16.613  -2.821  1.00  0.00     0.021 A 
ATOM     13  C   UNL     1      43.804  18.002  -2.755  1.00  0.00     0.016 A 
ATOM     14  C   UNL     1      42.562  18.510  -2.360  1.00  0.00     0.047 A 
ATOM     15  C   UNL     1      41.514  17.636  -2.039  1.00  0.00     0.115 A 
ATOM     16  C   UNL     1      42.954  15.745  -2.517  1.00  0.00     0.016 A 
ATOM     17  C   UNL     1      41.714  16.255  -2.121  1.00  0.00     0.047 A 
BRANCH  15  18
ATOM     18  O   UNL     1      40.273  18.130  -1.643  1.00  0.00    -0.508 OA
ATOM     19  H   UNL     1      40.195  18.928  -1.024  1.00  0.00     0.293 HD
ENDBRANCH  15  18
ENDBRANCH   1  12
BRANCH   2  20
ATOM     20  O   UNL     1      45.550  17.705  -5.029  1.00  0.00    -0.502 OA
ATOM     21  H   UNL     1      44.678  18.157  -4.781  1.00  0.00     0.293 HD
ENDBRANCH   2  20
BRANCH   6  22
ATOM     22  O   UNL     1      49.740  14.643  -5.364  1.00  0.00    -0.507 OA
ATOM     23  H   UNL     1      50.243  13.981  -5.943  1.00  0.00     0.293 HD
ENDBRANCH   6  22
BRANCH   8  24
ATOM     24  O   UNL     1      49.018  11.629  -1.645  1.00  0.00    -0.508 OA
ATOM     25  H   UNL     1      49.794  11.042  -1.926  1.00  0.00     0.293 HD
ENDBRANCH   8  24
TORSDOF 5
ENDMDL
MODEL 9
REMARK VINA RESULT:    -4.658      2.379      7.112
REMARK INTER + INTRA:          -5.746
REMARK INTER:                  -5.743
REMARK INTRA:                  -0.003
REMARK UNBOUND:                -0.271
REMARK SMILES O=c1c(O)c(-c2ccc(O)cc2)oc2cc(O)cc(O)c12
REMARK SMILES IDX 5 1 3 2 2 3 1 4 21 5 19 6 18 7 16 8 15 9 14 10 13 11 6 12
REMARK SMILES IDX 7 13 8 14 9 15 12 16 11 17 10 18 4 20 20 22 17 24
REMARK H PARENT 10 19 4 21 20 23 17 25
REMARK Flexibility Score: inf
ROOT
ATOM      1  C   UNL     1      45.796  16.227  -3.918  1.00  0.00     0.180 A 
ATOM      2  C   UNL     1      45.170  14.982  -3.708  1.00  0.00     0.208 A 
ATOM      3  C   UNL     1      43.873  14.957  -3.175  1.00  0.00     0.238 A 
ATOM      4  O   UNL     1      43.298  13.849  -2.993  1.00  0.00    -0.285 OA
ATOM      5  C   UNL     1      43.232  16.168  -2.842  1.00  0.00     0.111 A 
ATOM      6  C   UNL     1      41.927  16.229  -2.297  1.00  0.00     0.134 A 
ATOM      7  C   UNL     1      41.362  17.474  -1.983  1.00  0.00     0.093 A 
ATOM      8  C   UNL     1      42.077  18.657  -2.203  1.00  0.00     0.123 A 
ATOM      9  C   UNL     1      43.362  18.601  -2.741  1.00  0.00     0.094 A 
ATOM     10  C   UNL     1      43.943  17.371  -3.062  1.00  0.00     0.146 A 
ATOM     11  O   UNL     1      45.167  17.348  -3.578  1.00  0.00    -0.452 OA
ENDROOT
BRANCH   1  12
ATOM     12  C   UNL     1      47.155  16.338  -4.494  1.00  0.00     0.021 A 
ATOM     13  C   UNL     1      47.413  17.151  -5.613  1.00  0.00     0.016 A 
ATOM     14  C   UNL     1      48.710  17.259  -6.125  1.00  0.00     0.047 A 
ATOM     15  C   UNL     1      49.767  16.566  -5.518  1.00  0.00     0.115 A 
ATOM     16  C   UNL     1      48.225  15.664  -3.880  1.00  0.00     0.016 A 
ATOM     17  C   UNL     1      49.520  15.773  -4.395  1.00  0.00     0.047 A 
BRANCH  15  18
ATOM     18  O   UNL     1      51.062  16.666  -6.020  1.00  0.00    -0.508 OA
ATOM     19  H   UNL     1      51.836  16.170  -5.591  1.00  0.00     0.293 HD
ENDBRANCH  15  18
ENDBRANCH   1  12
BRANCH   2  20
ATOM     20  O   UNL     1      45.846  13.795  -4.001  1.00  0.00    -0.502 OA
ATOM     21  H   UNL     1      45.534  12.895  -3.657  1.00  0.00     0.293 HD
ENDBRANCH   2  20
BRANCH   6  22
ATOM     22  O   UNL     1      41.190  15.067  -2.065  1.00  0.00    -0.507 OA
ATOM     23  H   UNL     1      41.584  14.146  -2.223  1.00  0.00     0.293 HD
ENDBRANCH   6  22
BRANCH   8  24
ATOM     24  O   UNL     1      41.515  19.894  -1.891  1.00  0.00    -0.508 OA
ATOM     25  H   UNL     1      41.369  20.182  -0.931  1.00  0.00     0.293 HD
ENDBRANCH   8  24
TORSDOF 5
ENDMDL
