MODEL 1
REMARK VINA RESULT:    -0.970      0.000      0.000
REMARK INTER + INTRA:          -4.934
REMARK INTER:                  -1.877
REMARK INTRA:                  -3.057
REMARK UNBOUND:                -3.057
REMARK SMILES CCCCCCCCCCCCCCCCCC(=O)[O-]
REMARK SMILES IDX 10 1 11 2 12 3 13 4 14 5 15 6 16 7 17 8 18 9 19 10 20 11
REMARK SMILES IDX 9 12 8 13 7 14 6 15 5 16 4 17 3 18 2 19 1 20
REMARK H PARENT
REMARK Flexibility Score: inf
ROOT
ATOM      1  C   UNL     1      26.148  -6.395  17.420  1.00  0.00     0.000 C 
ENDROOT
BRANCH   1   2
ATOM      2  C   UNL     1      26.237  -7.132  16.074  1.00  0.00     0.000 C 
BRANCH   2   3
ATOM      3  C   UNL     1      26.926  -8.503  16.198  1.00  0.00     0.000 C 
BRANCH   3   4
ATOM      4  C   UNL     1      27.017  -8.989  17.654  1.00  0.00     0.000 C 
BRANCH   4   5
ATOM      5  C   UNL     1      27.405 -10.474  17.756  1.00  0.00     0.000 C 
BRANCH   5   6
ATOM      6  C   UNL     1      28.372 -10.762  18.919  1.00  0.00     0.000 C 
BRANCH   6   7
ATOM      7  C   UNL     1      28.419  -9.681  20.013  1.00  0.00     0.006 C 
BRANCH   7   8
ATOM      8  C   UNL     1      29.833  -9.439  20.556  1.00  0.00     0.053 C 
BRANCH   8   9
ATOM      9  C   UNL     1      29.936  -9.907  21.974  1.00  0.00     0.041 C 
ATOM     10  O   UNL     1      29.778 -11.125  22.252  1.00  0.00    -0.550 OA
ATOM     11  O   UNL     1      30.157  -8.989  22.995  1.00  0.00    -0.550 OA
ENDBRANCH   8   9
ENDBRANCH   7   8
ENDBRANCH   6   7
ENDBRANCH   5   6
ENDBRANCH   4   5
ENDBRANCH   3   4
ENDBRANCH   2   3
ENDBRANCH   1   2
BRANCH   1  12
ATOM     12  C   UNL     1      27.152  -5.234  17.523  1.00  0.00     0.000 C 
BRANCH  12  13
ATOM     13  C   UNL     1      28.174  -5.438  18.653  1.00  0.00    -0.000 C 
BRANCH  13  14
ATOM     14  C   UNL     1      29.331  -6.366  18.240  1.00  0.00    -0.000 C 
BRANCH  14  15
ATOM     15  C   UNL     1      29.780  -6.133  16.789  1.00  0.00    -0.000 C 
BRANCH  15  16
ATOM     16  C   UNL     1      30.602  -7.311  16.232  1.00  0.00    -0.000 C 
BRANCH  16  17
ATOM     17  C   UNL     1      30.806  -8.431  17.265  1.00  0.00    -0.000 C 
BRANCH  17  18
ATOM     18  C   UNL     1      31.124  -9.786  16.609  1.00  0.00    -0.000 C 
BRANCH  18  19
ATOM     19  C   UNL     1      30.266 -10.051  15.362  1.00  0.00    -0.003 C 
ATOM     20  C   UNL     1      31.105 -10.377  14.125  1.00  0.00     0.004 C 
ENDBRANCH  18  19
ENDBRANCH  17  18
ENDBRANCH  16  17
ENDBRANCH  15  16
ENDBRANCH  14  15
ENDBRANCH  13  14
ENDBRANCH  12  13
ENDBRANCH   1  12
TORSDOF 16
ENDMDL
MODEL 2
REMARK VINA RESULT:    -0.920      2.489      4.045
REMARK INTER + INTRA:          -4.837
REMARK INTER:                  -1.735
REMARK INTRA:                  -3.103
REMARK UNBOUND:                -3.057
REMARK SMILES CCCCCCCCCCCCCCCCCC(=O)[O-]
REMARK SMILES IDX 10 1 11 2 12 3 13 4 14 5 15 6 16 7 17 8 18 9 19 10 20 11
REMARK SMILES IDX 9 12 8 13 7 14 6 15 5 16 4 17 3 18 2 19 1 20
REMARK H PARENT
REMARK Flexibility Score: inf
ROOT
ATOM      1  C   UNL     1      27.343  -8.124  16.033  1.00  0.00     0.000 C 
ENDROOT
BRANCH   1   2
ATOM      2  C   UNL     1      26.236  -9.115  15.642  1.00  0.00     0.000 C 
BRANCH   2   3
ATOM      3  C   UNL     1      26.158 -10.317  16.600  1.00  0.00     0.000 C 
BRANCH   3   4
ATOM      4  C   UNL     1      27.349 -10.379  17.570  1.00  0.00     0.000 C 
BRANCH   4   5
ATOM      5  C   UNL     1      26.940 -10.851  18.976  1.00  0.00     0.000 C 
BRANCH   5   6
ATOM      6  C   UNL     1      27.196  -9.791  20.063  1.00  0.00     0.000 C 
BRANCH   6   7
ATOM      7  C   UNL     1      26.795  -8.355  19.682  1.00  0.00     0.006 C 
BRANCH   7   8
ATOM      8  C   UNL     1      25.279  -8.128  19.709  1.00  0.00     0.053 C 
BRANCH   8   9
ATOM      9  C   UNL     1      24.736  -8.384  21.080  1.00  0.00     0.041 C 
ATOM     10  O   UNL     1      25.100  -7.668  22.050  1.00  0.00    -0.550 OA
ATOM     11  O   UNL     1      23.867  -9.448  21.296  1.00  0.00    -0.550 OA
ENDBRANCH   8   9
ENDBRANCH   7   8
ENDBRANCH   6   7
ENDBRANCH   5   6
ENDBRANCH   4   5
ENDBRANCH   3   4
ENDBRANCH   2   3
ENDBRANCH   1   2
BRANCH   1  12
ATOM     12  C   UNL     1      28.313  -7.834  14.874  1.00  0.00     0.000 C 
BRANCH  12  13
ATOM     13  C   UNL     1      28.306  -8.944  13.810  1.00  0.00    -0.000 C 
BRANCH  13  14
ATOM     14  C   UNL     1      29.648  -9.694  13.734  1.00  0.00    -0.000 C 
BRANCH  14  15
ATOM     15  C   UNL     1      29.722 -10.869  14.721  1.00  0.00    -0.000 C 
BRANCH  15  16
ATOM     16  C   UNL     1      31.062 -10.919  15.478  1.00  0.00    -0.000 C 
BRANCH  16  17
ATOM     17  C   UNL     1      30.935 -10.454  16.938  1.00  0.00    -0.000 C 
BRANCH  17  18
ATOM     18  C   UNL     1      30.963  -8.922  17.072  1.00  0.00    -0.000 C 
BRANCH  18  19
ATOM     19  C   UNL     1      30.338  -8.434  18.388  1.00  0.00    -0.003 C 
ATOM     20  C   UNL     1      29.994  -6.944  18.364  1.00  0.00     0.004 C 
ENDBRANCH  18  19
ENDBRANCH  17  18
ENDBRANCH  16  17
ENDBRANCH  15  16
ENDBRANCH  14  15
ENDBRANCH  13  14
ENDBRANCH  12  13
ENDBRANCH   1  12
TORSDOF 16
ENDMDL
MODEL 3
REMARK VINA RESULT:    -0.910      3.163      5.221
REMARK INTER + INTRA:          -4.818
REMARK INTER:                  -1.606
REMARK INTRA:                  -3.211
REMARK UNBOUND:                -3.057
REMARK SMILES CCCCCCCCCCCCCCCCCC(=O)[O-]
REMARK SMILES IDX 10 1 11 2 12 3 13 4 14 5 15 6 16 7 17 8 18 9 19 10 20 11
REMARK SMILES IDX 9 12 8 13 7 14 6 15 5 16 4 17 3 18 2 19 1 20
REMARK H PARENT
REMARK Flexibility Score: inf
ROOT
ATOM      1  C   UNL     1      27.942  -8.364  13.383  1.00  0.00     0.000 C 
ENDROOT
BRANCH   1   2
ATOM      2  C   UNL     1      26.707  -8.473  14.293  1.00  0.00     0.000 C 
BRANCH   2   3
ATOM      3  C   UNL     1      26.868  -9.555  15.376  1.00  0.00     0.000 C 
BRANCH   3   4
ATOM      4  C   UNL     1      26.400  -9.080  16.761  1.00  0.00     0.000 C 
BRANCH   4   5
ATOM      5  C   UNL     1      26.490  -7.552  16.921  1.00  0.00     0.000 C 
BRANCH   5   6
ATOM      6  C   UNL     1      27.548  -7.119  17.952  1.00  0.00     0.000 C 
BRANCH   6   7
ATOM      7  C   UNL     1      28.837  -6.527  17.355  1.00  0.00     0.006 C 
BRANCH   7   8
ATOM      8  C   UNL     1      28.598  -5.769  16.043  1.00  0.00     0.053 C 
BRANCH   8   9
ATOM      9  C   UNL     1      29.872  -5.157  15.552  1.00  0.00     0.041 C 
ATOM     10  O   UNL     1      29.886  -4.493  14.482  1.00  0.00    -0.550 OA
ATOM     11  O   UNL     1      31.056  -5.364  16.251  1.00  0.00    -0.550 OA
ENDBRANCH   8   9
ENDBRANCH   7   8
ENDBRANCH   6   7
ENDBRANCH   5   6
ENDBRANCH   4   5
ENDBRANCH   3   4
ENDBRANCH   2   3
ENDBRANCH   1   2
BRANCH   1  12
ATOM     12  C   UNL     1      28.576  -9.734  13.084  1.00  0.00     0.000 C 
BRANCH  12  13
ATOM     13  C   UNL     1      30.067  -9.786  13.454  1.00  0.00    -0.000 C 
BRANCH  13  14
ATOM     14  C   UNL     1      30.459  -8.697  14.469  1.00  0.00    -0.000 C 
BRANCH  14  15
ATOM     15  C   UNL     1      30.737  -9.270  15.868  1.00  0.00    -0.000 C 
BRANCH  15  16
ATOM     16  C   UNL     1      30.266 -10.729  16.010  1.00  0.00    -0.000 C 
BRANCH  16  17
ATOM     17  C   UNL     1      29.988 -11.121  17.470  1.00  0.00    -0.000 C 
BRANCH  17  18
ATOM     18  C   UNL     1      29.938  -9.902  18.407  1.00  0.00    -0.000 C 
BRANCH  18  19
ATOM     19  C   UNL     1      29.200 -10.200  19.722  1.00  0.00    -0.003 C 
ATOM     20  C   UNL     1      27.847 -10.879  19.501  1.00  0.00     0.004 C 
ENDBRANCH  18  19
ENDBRANCH  17  18
ENDBRANCH  16  17
ENDBRANCH  15  16
ENDBRANCH  14  15
ENDBRANCH  13  14
ENDBRANCH  12  13
ENDBRANCH   1  12
TORSDOF 16
ENDMDL
MODEL 4
REMARK VINA RESULT:    -0.892      1.947      2.903
REMARK INTER + INTRA:          -4.783
REMARK INTER:                  -1.930
REMARK INTRA:                  -2.853
REMARK UNBOUND:                -3.057
REMARK SMILES CCCCCCCCCCCCCCCCCC(=O)[O-]
REMARK SMILES IDX 10 1 11 2 12 3 13 4 14 5 15 6 16 7 17 8 18 9 19 10 20 11
REMARK SMILES IDX 9 12 8 13 7 14 6 15 5 16 4 17 3 18 2 19 1 20
REMARK H PARENT
REMARK Flexibility Score: inf
ROOT
ATOM      1  C   UNL     1      26.737  -6.514  14.745  1.00  0.00     0.000 C 
ENDROOT
BRANCH   1   2
ATOM      2  C   UNL     1      26.547  -7.876  14.060  1.00  0.00     0.000 C 
BRANCH   2   3
ATOM      3  C   UNL     1      25.264  -8.592  14.518  1.00  0.00     0.000 C 
BRANCH   3   4
ATOM      4  C   UNL     1      25.553  -9.815  15.404  1.00  0.00     0.000 C 
BRANCH   4   5
ATOM      5  C   UNL     1      25.816  -9.431  16.871  1.00  0.00     0.000 C 
BRANCH   5   6
ATOM      6  C   UNL     1      26.186 -10.640  17.750  1.00  0.00     0.000 C 
BRANCH   6   7
ATOM      7  C   UNL     1      26.877 -10.292  19.081  1.00  0.00     0.006 C 
BRANCH   7   8
ATOM      8  C   UNL     1      28.146 -11.117  19.329  1.00  0.00     0.053 C 
BRANCH   8   9
ATOM      9  C   UNL     1      29.096 -10.362  20.206  1.00  0.00     0.041 C 
ATOM     10  O   UNL     1      28.839 -10.202  21.429  1.00  0.00    -0.550 OA
ATOM     11  O   UNL     1      30.241  -9.792  19.662  1.00  0.00    -0.550 OA
ENDBRANCH   8   9
ENDBRANCH   7   8
ENDBRANCH   6   7
ENDBRANCH   5   6
ENDBRANCH   4   5
ENDBRANCH   3   4
ENDBRANCH   2   3
ENDBRANCH   1   2
BRANCH   1  12
ATOM     12  C   UNL     1      28.197  -6.263  15.163  1.00  0.00     0.000 C 
BRANCH  12  13
ATOM     13  C   UNL     1      29.186  -7.181  14.426  1.00  0.00    -0.000 C 
BRANCH  13  14
ATOM     14  C   UNL     1      30.168  -7.878  15.385  1.00  0.00    -0.000 C 
BRANCH  14  15
ATOM     15  C   UNL     1      29.456  -8.801  16.387  1.00  0.00    -0.000 C 
BRANCH  15  16
ATOM     16  C   UNL     1      29.311 -10.241  15.859  1.00  0.00    -0.000 C 
BRANCH  16  17
ATOM     17  C   UNL     1      30.478 -10.658  14.949  1.00  0.00    -0.000 C 
BRANCH  17  18
ATOM     18  C   UNL     1      30.009 -11.065  13.541  1.00  0.00    -0.000 C 
BRANCH  18  19
ATOM     19  C   UNL     1      28.481 -11.007  13.390  1.00  0.00    -0.003 C 
ATOM     20  C   UNL     1      28.039 -10.570  11.993  1.00  0.00     0.004 C 
ENDBRANCH  18  19
ENDBRANCH  17  18
ENDBRANCH  16  17
ENDBRANCH  15  16
ENDBRANCH  14  15
ENDBRANCH  13  14
ENDBRANCH  12  13
ENDBRANCH   1  12
TORSDOF 16
ENDMDL
MODEL 5
REMARK VINA RESULT:    -0.889      3.179      4.963
REMARK INTER + INTRA:          -4.778
REMARK INTER:                  -1.654
REMARK INTRA:                  -3.123
REMARK UNBOUND:                -3.057
REMARK SMILES CCCCCCCCCCCCCCCCCC(=O)[O-]
REMARK SMILES IDX 10 1 11 2 12 3 13 4 14 5 15 6 16 7 17 8 18 9 19 10 20 11
REMARK SMILES IDX 9 12 8 13 7 14 6 15 5 16 4 17 3 18 2 19 1 20
REMARK H PARENT
REMARK Flexibility Score: inf
ROOT
ATOM      1  C   UNL     1      25.408  -8.029  18.954  1.00  0.00     0.000 C 
ENDROOT
BRANCH   1   2
ATOM      2  C   UNL     1      25.048  -9.521  19.021  1.00  0.00     0.000 C 
BRANCH   2   3
ATOM      3  C   UNL     1      25.980 -10.391  18.159  1.00  0.00     0.000 C 
BRANCH   3   4
ATOM      4  C   UNL     1      25.474 -10.550  16.716  1.00  0.00     0.000 C 
BRANCH   4   5
ATOM      5  C   UNL     1      26.498 -10.066  15.675  1.00  0.00     0.000 C 
BRANCH   5   6
ATOM      6  C   UNL     1      26.338  -8.575  15.324  1.00  0.00     0.000 C 
BRANCH   6   7
ATOM      7  C   UNL     1      27.580  -7.913  14.700  1.00  0.00     0.006 C 
BRANCH   7   8
ATOM      8  C   UNL     1      28.839  -8.072  15.561  1.00  0.00     0.053 C 
BRANCH   8   9
ATOM      9  C   UNL     1      29.999  -8.499  14.717  1.00  0.00     0.041 C 
ATOM     10  O   UNL     1      29.941  -8.399  13.463  1.00  0.00    -0.550 OA
ATOM     11  O   UNL     1      31.125  -9.056  15.313  1.00  0.00    -0.550 OA
ENDBRANCH   8   9
ENDBRANCH   7   8
ENDBRANCH   6   7
ENDBRANCH   5   6
ENDBRANCH   4   5
ENDBRANCH   3   4
ENDBRANCH   2   3
ENDBRANCH   1   2
BRANCH   1  12
ATOM     12  C   UNL     1      26.922  -7.794  18.813  1.00  0.00     0.000 C 
BRANCH  12  13
ATOM     13  C   UNL     1      27.509  -7.013  19.999  1.00  0.00    -0.000 C 
BRANCH  13  14
ATOM     14  C   UNL     1      27.118  -7.623  21.357  1.00  0.00    -0.000 C 
BRANCH  14  15
ATOM     15  C   UNL     1      28.165  -8.621  21.877  1.00  0.00    -0.000 C 
BRANCH  15  16
ATOM     16  C   UNL     1      27.784 -10.082  21.576  1.00  0.00    -0.000 C 
BRANCH  16  17
ATOM     17  C   UNL     1      28.724 -10.741  20.553  1.00  0.00    -0.000 C 
BRANCH  17  18
ATOM     18  C   UNL     1      29.914  -9.838  20.182  1.00  0.00    -0.000 C 
BRANCH  18  19
ATOM     19  C   UNL     1      30.138  -9.754  18.664  1.00  0.00    -0.003 C 
ATOM     20  C   UNL     1      29.504 -10.922  17.907  1.00  0.00     0.004 C 
ENDBRANCH  18  19
ENDBRANCH  17  18
ENDBRANCH  16  17
ENDBRANCH  15  16
ENDBRANCH  14  15
ENDBRANCH  13  14
ENDBRANCH  12  13
ENDBRANCH   1  12
TORSDOF 16
ENDMDL
MODEL 6
REMARK VINA RESULT:    -0.878      3.579      6.290
REMARK INTER + INTRA:          -4.757
REMARK INTER:                  -2.154
REMARK INTRA:                  -2.603
REMARK UNBOUND:                -3.057
REMARK SMILES CCCCCCCCCCCCCCCCCC(=O)[O-]
REMARK SMILES IDX 10 1 11 2 12 3 13 4 14 5 15 6 16 7 17 8 18 9 19 10 20 11
REMARK SMILES IDX 9 12 8 13 7 14 6 15 5 16 4 17 3 18 2 19 1 20
REMARK H PARENT
REMARK Flexibility Score: inf
ROOT
ATOM      1  C   UNL     1      27.389  -7.533  18.075  1.00  0.00     0.000 C 
ENDROOT
BRANCH   1   2
ATOM      2  C   UNL     1      28.512  -8.113  18.949  1.00  0.00     0.000 C 
BRANCH   2   3
ATOM      3  C   UNL     1      29.889  -7.513  18.612  1.00  0.00     0.000 C 
BRANCH   3   4
ATOM      4  C   UNL     1      30.904  -8.579  18.164  1.00  0.00     0.000 C 
BRANCH   4   5
ATOM      5  C   UNL     1      30.365 -10.011  18.326  1.00  0.00     0.000 C 
BRANCH   5   6
ATOM      6  C   UNL     1      30.384 -10.810  17.011  1.00  0.00     0.000 C 
BRANCH   6   7
ATOM      7  C   UNL     1      30.567  -9.967  15.736  1.00  0.00     0.006 C 
BRANCH   7   8
ATOM      8  C   UNL     1      31.084 -10.785  14.545  1.00  0.00     0.053 C 
BRANCH   8   9
ATOM      9  C   UNL     1      30.082 -10.782  13.434  1.00  0.00     0.041 C 
ATOM     10  O   UNL     1      28.890 -11.124  13.655  1.00  0.00    -0.550 OA
ATOM     11  O   UNL     1      30.476 -10.451  12.143  1.00  0.00    -0.550 OA
ENDBRANCH   8   9
ENDBRANCH   7   8
ENDBRANCH   6   7
ENDBRANCH   5   6
ENDBRANCH   4   5
ENDBRANCH   3   4
ENDBRANCH   2   3
ENDBRANCH   1   2
BRANCH   1  12
ATOM     12  C   UNL     1      27.715  -7.604  16.572  1.00  0.00     0.000 C 
BRANCH  12  13
ATOM     13  C   UNL     1      26.784  -8.563  15.813  1.00  0.00    -0.000 C 
BRANCH  13  14
ATOM     14  C   UNL     1      26.887 -10.011  16.325  1.00  0.00    -0.000 C 
BRANCH  14  15
ATOM     15  C   UNL     1      25.515 -10.609  16.673  1.00  0.00    -0.000 C 
BRANCH  15  16
ATOM     16  C   UNL     1      25.248 -10.626  18.190  1.00  0.00    -0.000 C 
BRANCH  16  17
ATOM     17  C   UNL     1      23.860 -10.074  18.553  1.00  0.00    -0.000 C 
BRANCH  17  18
ATOM     18  C   UNL     1      23.130  -9.472  17.339  1.00  0.00    -0.000 C 
BRANCH  18  19
ATOM     19  C   UNL     1      22.790  -7.986  17.534  1.00  0.00    -0.003 C 
ATOM     20  C   UNL     1      23.806  -7.256  18.413  1.00  0.00     0.004 C 
ENDBRANCH  18  19
ENDBRANCH  17  18
ENDBRANCH  16  17
ENDBRANCH  15  16
ENDBRANCH  14  15
ENDBRANCH  13  14
ENDBRANCH  12  13
ENDBRANCH   1  12
TORSDOF 16
ENDMDL
MODEL 7
REMARK VINA RESULT:    -0.854      3.168      5.565
REMARK INTER + INTRA:          -4.710
REMARK INTER:                  -1.512
REMARK INTRA:                  -3.198
REMARK UNBOUND:                -3.057
REMARK SMILES CCCCCCCCCCCCCCCCCC(=O)[O-]
REMARK SMILES IDX 10 1 11 2 12 3 13 4 14 5 15 6 16 7 17 8 18 9 19 10 20 11
REMARK SMILES IDX 9 12 8 13 7 14 6 15 5 16 4 17 3 18 2 19 1 20
REMARK H PARENT
REMARK Flexibility Score: inf
ROOT
ATOM      1  C   UNL     1      29.420  -6.695  17.625  1.00  0.00     0.000 C 
ENDROOT
BRANCH   1   2
ATOM      2  C   UNL     1      28.381  -6.314  18.690  1.00  0.00     0.000 C 
BRANCH   2   3
ATOM      3  C   UNL     1      26.944  -6.663  18.262  1.00  0.00     0.000 C 
BRANCH   3   4
ATOM      4  C   UNL     1      26.862  -7.138  16.802  1.00  0.00     0.000 C 
BRANCH   4   5
ATOM      5  C   UNL     1      26.097  -8.465  16.656  1.00  0.00     0.000 C 
BRANCH   5   6
ATOM      6  C   UNL     1      26.876  -9.521  15.851  1.00  0.00     0.000 C 
BRANCH   6   7
ATOM      7  C   UNL     1      28.267  -9.077  15.365  1.00  0.00     0.006 C 
BRANCH   7   8
ATOM      8  C   UNL     1      29.312 -10.198  15.433  1.00  0.00     0.053 C 
BRANCH   8   9
ATOM      9  C   UNL     1      29.802 -10.539  14.060  1.00  0.00     0.041 C 
ATOM     10  O   UNL     1      29.032 -11.094  13.232  1.00  0.00    -0.550 OA
ATOM     11  O   UNL     1      31.124 -10.290  13.713  1.00  0.00    -0.550 OA
ENDBRANCH   8   9
ENDBRANCH   7   8
ENDBRANCH   6   7
ENDBRANCH   5   6
ENDBRANCH   4   5
ENDBRANCH   3   4
ENDBRANCH   2   3
ENDBRANCH   1   2
BRANCH   1  12
ATOM     12  C   UNL     1      30.820  -6.924  18.222  1.00  0.00     0.000 C 
BRANCH  12  13
ATOM     13  C   UNL     1      30.771  -7.660  19.570  1.00  0.00    -0.000 C 
BRANCH  13  14
ATOM     14  C   UNL     1      31.082  -9.161  19.434  1.00  0.00    -0.000 C 
BRANCH  14  15
ATOM     15  C   UNL     1      29.966 -10.047  20.009  1.00  0.00    -0.000 C 
BRANCH  15  16
ATOM     16  C   UNL     1      28.723 -10.090  19.102  1.00  0.00    -0.000 C 
BRANCH  16  17
ATOM     17  C   UNL     1      27.424  -9.778  19.864  1.00  0.00    -0.000 C 
BRANCH  17  18
ATOM     18  C   UNL     1      27.672  -9.488  21.355  1.00  0.00    -0.000 C 
BRANCH  18  19
ATOM     19  C   UNL     1      27.199  -8.085  21.768  1.00  0.00    -0.003 C 
ATOM     20  C   UNL     1      28.314  -7.243  22.387  1.00  0.00     0.004 C 
ENDBRANCH  18  19
ENDBRANCH  17  18
ENDBRANCH  16  17
ENDBRANCH  15  16
ENDBRANCH  14  15
ENDBRANCH  13  14
ENDBRANCH  12  13
ENDBRANCH   1  12
TORSDOF 16
ENDMDL
