MODEL 1
REMARK VINA RESULT:    -2.439      0.000      0.000
REMARK INTER + INTRA:          -6.224
REMARK INTER:                  -4.720
REMARK INTRA:                  -1.503
REMARK UNBOUND:                -1.503
REMARK SMILES CCCCCCCCCCCCCCCCCC(=O)[O-]
REMARK SMILES IDX 10 1 11 2 12 3 13 4 14 5 15 6 16 7 17 8 18 9 19 10 20 11
REMARK SMILES IDX 9 12 8 13 7 14 6 15 5 16 4 17 3 18 2 19 1 20
REMARK H PARENT
REMARK Flexibility Score: inf
ROOT
ATOM      1  C   UNL     1     -10.180 -18.797  19.435  1.00  0.00     0.000 C 
ENDROOT
BRANCH   1   2
ATOM      2  C   UNL     1     -10.519 -17.890  20.627  1.00  0.00     0.000 C 
BRANCH   2   3
ATOM      3  C   UNL     1      -9.247 -17.446  21.358  1.00  0.00     0.000 C 
BRANCH   3   4
ATOM      4  C   UNL     1      -9.152 -18.098  22.745  1.00  0.00     0.000 C 
BRANCH   4   5
ATOM      5  C   UNL     1      -9.771 -19.506  22.787  1.00  0.00     0.000 C 
BRANCH   5   6
ATOM      6  C   UNL     1      -8.729 -20.634  22.944  1.00  0.00     0.000 C 
BRANCH   6   7
ATOM      7  C   UNL     1      -9.373 -21.959  23.392  1.00  0.00     0.006 C 
BRANCH   7   8
ATOM      8  C   UNL     1      -9.009 -23.125  22.463  1.00  0.00     0.053 C 
BRANCH   8   9
ATOM      9  C   UNL     1      -9.708 -23.020  21.142  1.00  0.00     0.041 C 
ATOM     10  O   UNL     1      -9.051 -23.084  20.069  1.00  0.00    -0.550 OA
ATOM     11  O   UNL     1     -11.090 -22.884  21.095  1.00  0.00    -0.550 OA
ENDBRANCH   8   9
ENDBRANCH   7   8
ENDBRANCH   6   7
ENDBRANCH   5   6
ENDBRANCH   4   5
ENDBRANCH   3   4
ENDBRANCH   2   3
ENDBRANCH   1   2
BRANCH   1  12
ATOM     12  C   UNL     1     -11.125 -20.004  19.318  1.00  0.00     0.000 C 
BRANCH  12  13
ATOM     13  C   UNL     1     -10.902 -20.806  18.023  1.00  0.00    -0.000 C 
BRANCH  13  14
ATOM     14  C   UNL     1     -10.768 -19.903  16.786  1.00  0.00    -0.000 C 
BRANCH  14  15
ATOM     15  C   UNL     1      -9.892 -20.530  15.687  1.00  0.00    -0.000 C 
BRANCH  15  16
ATOM     16  C   UNL     1      -8.878 -21.540  16.247  1.00  0.00    -0.000 C 
BRANCH  16  17
ATOM     17  C   UNL     1      -7.541 -21.522  15.489  1.00  0.00    -0.000 C 
BRANCH  17  18
ATOM     18  C   UNL     1      -6.394 -21.993  16.390  1.00  0.00    -0.000 C 
BRANCH  18  19
ATOM     19  C   UNL     1      -6.847 -22.091  17.852  1.00  0.00    -0.003 C 
ATOM     20  C   UNL     1      -5.908 -22.980  18.661  1.00  0.00     0.004 C 
ENDBRANCH  18  19
ENDBRANCH  17  18
ENDBRANCH  16  17
ENDBRANCH  15  16
ENDBRANCH  14  15
ENDBRANCH  13  14
ENDBRANCH  12  13
ENDBRANCH   1  12
TORSDOF 16
ENDMDL
MODEL 2
REMARK VINA RESULT:    -1.935      2.139      4.902
REMARK INTER + INTRA:          -5.248
REMARK INTER:                  -4.100
REMARK INTRA:                  -1.148
REMARK UNBOUND:                -1.503
REMARK SMILES CCCCCCCCCCCCCCCCCC(=O)[O-]
REMARK SMILES IDX 10 1 11 2 12 3 13 4 14 5 15 6 16 7 17 8 18 9 19 10 20 11
REMARK SMILES IDX 9 12 8 13 7 14 6 15 5 16 4 17 3 18 2 19 1 20
REMARK H PARENT
REMARK Flexibility Score: inf
ROOT
ATOM      1  C   UNL     1      -4.937 -22.783  19.258  1.00  0.00     0.000 C 
ENDROOT
BRANCH   1   2
ATOM      2  C   UNL     1      -5.698 -23.125  20.549  1.00  0.00     0.000 C 
BRANCH   2   3
ATOM      3  C   UNL     1      -7.195 -22.830  20.398  1.00  0.00     0.000 C 
BRANCH   3   4
ATOM      4  C   UNL     1      -7.888 -22.786  21.766  1.00  0.00     0.000 C 
BRANCH   4   5
ATOM      5  C   UNL     1      -9.423 -22.766  21.659  1.00  0.00     0.000 C 
BRANCH   5   6
ATOM      6  C   UNL     1     -10.033 -21.354  21.795  1.00  0.00     0.000 C 
BRANCH   6   7
ATOM      7  C   UNL     1     -10.257 -20.685  20.427  1.00  0.00     0.006 C 
BRANCH   7   8
ATOM      8  C   UNL     1     -11.042 -19.372  20.543  1.00  0.00     0.053 C 
BRANCH   8   9
ATOM      9  C   UNL     1     -10.164 -18.237  20.974  1.00  0.00     0.041 C 
ATOM     10  O   UNL     1     -10.240 -17.121  20.395  1.00  0.00    -0.550 OA
ATOM     11  O   UNL     1      -9.284 -18.403  22.036  1.00  0.00    -0.550 OA
ENDBRANCH   8   9
ENDBRANCH   7   8
ENDBRANCH   6   7
ENDBRANCH   5   6
ENDBRANCH   4   5
ENDBRANCH   3   4
ENDBRANCH   2   3
ENDBRANCH   1   2
BRANCH   1  12
ATOM     12  C   UNL     1      -5.738 -23.119  17.989  1.00  0.00     0.000 C 
BRANCH  12  13
ATOM     13  C   UNL     1      -6.232 -21.861  17.253  1.00  0.00    -0.000 C 
BRANCH  13  14
ATOM     14  C   UNL     1      -7.262 -22.185  16.158  1.00  0.00    -0.000 C 
BRANCH  14  15
ATOM     15  C   UNL     1      -8.577 -22.746  16.729  1.00  0.00    -0.000 C 
BRANCH  15  16
ATOM     16  C   UNL     1      -9.374 -21.693  17.516  1.00  0.00    -0.000 C 
BRANCH  16  17
ATOM     17  C   UNL     1     -10.736 -21.379  16.876  1.00  0.00    -0.000 C 
BRANCH  17  18
ATOM     18  C   UNL     1     -10.696 -20.039  16.133  1.00  0.00    -0.000 C 
BRANCH  18  19
ATOM     19  C   UNL     1     -10.744 -20.249  14.615  1.00  0.00    -0.003 C 
ATOM     20  C   UNL     1      -9.344 -20.437  14.040  1.00  0.00     0.004 C 
ENDBRANCH  18  19
ENDBRANCH  17  18
ENDBRANCH  16  17
ENDBRANCH  15  16
ENDBRANCH  14  15
ENDBRANCH  13  14
ENDBRANCH  12  13
ENDBRANCH   1  12
TORSDOF 16
ENDMDL
MODEL 3
REMARK VINA RESULT:    -1.870     10.776     14.042
REMARK INTER + INTRA:          -5.122
REMARK INTER:                  -4.195
REMARK INTRA:                  -0.927
REMARK UNBOUND:                -1.503
REMARK SMILES CCCCCCCCCCCCCCCCCC(=O)[O-]
REMARK SMILES IDX 10 1 11 2 12 3 13 4 14 5 15 6 16 7 17 8 18 9 19 10 20 11
REMARK SMILES IDX 9 12 8 13 7 14 6 15 5 16 4 17 3 18 2 19 1 20
REMARK H PARENT
REMARK Flexibility Score: inf
ROOT
ATOM      1  C   UNL     1       3.912 -22.950  13.905  1.00  0.00     0.000 C 
ENDROOT
BRANCH   1   2
ATOM      2  C   UNL     1       3.034 -22.819  15.159  1.00  0.00     0.000 C 
BRANCH   2   3
ATOM      3  C   UNL     1       1.555 -23.032  14.819  1.00  0.00     0.000 C 
BRANCH   3   4
ATOM      4  C   UNL     1       0.648 -22.302  15.820  1.00  0.00     0.000 C 
BRANCH   4   5
ATOM      5  C   UNL     1      -0.817 -22.766  15.748  1.00  0.00     0.000 C 
BRANCH   5   6
ATOM      6  C   UNL     1      -1.834 -21.652  16.077  1.00  0.00     0.000 C 
BRANCH   6   7
ATOM      7  C   UNL     1      -3.253 -22.001  15.593  1.00  0.00     0.006 C 
BRANCH   7   8
ATOM      8  C   UNL     1      -3.940 -23.030  16.502  1.00  0.00     0.053 C 
BRANCH   8   9
ATOM      9  C   UNL     1      -5.315 -22.589  16.898  1.00  0.00     0.041 C 
ATOM     10  O   UNL     1      -6.064 -22.016  16.062  1.00  0.00    -0.550 OA
ATOM     11  O   UNL     1      -5.783 -22.839  18.182  1.00  0.00    -0.550 OA
ENDBRANCH   8   9
ENDBRANCH   7   8
ENDBRANCH   6   7
ENDBRANCH   5   6
ENDBRANCH   4   5
ENDBRANCH   3   4
ENDBRANCH   2   3
ENDBRANCH   1   2
BRANCH   1  12
ATOM     12  C   UNL     1       5.408 -22.764  14.204  1.00  0.00     0.000 C 
BRANCH  12  13
ATOM     13  C   UNL     1       5.660 -22.130  15.584  1.00  0.00    -0.000 C 
BRANCH  13  14
ATOM     14  C   UNL     1       7.116 -21.672  15.766  1.00  0.00    -0.000 C 
BRANCH  14  15
ATOM     15  C   UNL     1       8.067 -22.291  14.726  1.00  0.00    -0.000 C 
BRANCH  15  16
ATOM     16  C   UNL     1       9.122 -21.293  14.224  1.00  0.00    -0.000 C 
BRANCH  16  17
ATOM     17  C   UNL     1       8.593 -19.851  14.160  1.00  0.00    -0.000 C 
BRANCH  17  18
ATOM     18  C   UNL     1       8.538 -19.352  12.711  1.00  0.00    -0.000 C 
BRANCH  18  19
ATOM     19  C   UNL     1       7.784 -20.342  11.816  1.00  0.00    -0.003 C 
ATOM     20  C   UNL     1       8.623 -20.741  10.606  1.00  0.00     0.004 C 
ENDBRANCH  18  19
ENDBRANCH  17  18
ENDBRANCH  16  17
ENDBRANCH  15  16
ENDBRANCH  14  15
ENDBRANCH  13  14
ENDBRANCH  12  13
ENDBRANCH   1  12
TORSDOF 16
ENDMDL
MODEL 4
REMARK VINA RESULT:    -1.543      8.055     10.700
REMARK INTER + INTRA:          -4.489
REMARK INTER:                  -4.041
REMARK INTRA:                  -0.448
REMARK UNBOUND:                -1.503
REMARK SMILES CCCCCCCCCCCCCCCCCC(=O)[O-]
REMARK SMILES IDX 10 1 11 2 12 3 13 4 14 5 15 6 16 7 17 8 18 9 19 10 20 11
REMARK SMILES IDX 9 12 8 13 7 14 6 15 5 16 4 17 3 18 2 19 1 20
REMARK H PARENT
REMARK Flexibility Score: inf
ROOT
ATOM      1  C   UNL     1      -1.037 -22.258  15.629  1.00  0.00     0.000 C 
ENDROOT
BRANCH   1   2
ATOM      2  C   UNL     1      -2.275 -23.087  16.003  1.00  0.00     0.000 C 
BRANCH   2   3
ATOM      3  C   UNL     1      -3.535 -22.214  16.022  1.00  0.00     0.000 C 
BRANCH   3   4
ATOM      4  C   UNL     1      -4.723 -22.973  16.629  1.00  0.00     0.000 C 
BRANCH   4   5
ATOM      5  C   UNL     1      -5.959 -22.081  16.840  1.00  0.00     0.000 C 
BRANCH   5   6
ATOM      6  C   UNL     1      -7.008 -22.694  17.792  1.00  0.00     0.000 C 
BRANCH   6   7
ATOM      7  C   UNL     1      -8.418 -22.128  17.542  1.00  0.00     0.006 C 
BRANCH   7   8
ATOM      8  C   UNL     1      -9.187 -21.888  18.848  1.00  0.00     0.053 C 
BRANCH   8   9
ATOM      9  C   UNL     1      -9.982 -20.619  18.798  1.00  0.00     0.041 C 
ATOM     10  O   UNL     1     -10.418 -20.187  17.699  1.00  0.00    -0.550 OA
ATOM     11  O   UNL     1     -10.267 -19.931  19.971  1.00  0.00    -0.550 OA
ENDBRANCH   8   9
ENDBRANCH   7   8
ENDBRANCH   6   7
ENDBRANCH   5   6
ENDBRANCH   4   5
ENDBRANCH   3   4
ENDBRANCH   2   3
ENDBRANCH   1   2
BRANCH   1  12
ATOM     12  C   UNL     1       0.214 -23.125  15.406  1.00  0.00     0.000 C 
BRANCH  12  13
ATOM     13  C   UNL     1       1.457 -22.288  15.056  1.00  0.00    -0.000 C 
BRANCH  13  14
ATOM     14  C   UNL     1       2.465 -23.062  14.192  1.00  0.00    -0.000 C 
BRANCH  14  15
ATOM     15  C   UNL     1       3.918 -22.872  14.663  1.00  0.00    -0.000 C 
BRANCH  15  16
ATOM     16  C   UNL     1       4.909 -22.768  13.493  1.00  0.00    -0.000 C 
BRANCH  16  17
ATOM     17  C   UNL     1       6.373 -22.724  13.956  1.00  0.00    -0.000 C 
BRANCH  17  18
ATOM     18  C   UNL     1       6.499 -22.014  15.309  1.00  0.00    -0.000 C 
BRANCH  18  19
ATOM     19  C   UNL     1       7.843 -21.288  15.427  1.00  0.00    -0.003 C 
ATOM     20  C   UNL     1       8.314 -20.775  14.069  1.00  0.00     0.004 C 
ENDBRANCH  18  19
ENDBRANCH  17  18
ENDBRANCH  16  17
ENDBRANCH  15  16
ENDBRANCH  14  15
ENDBRANCH  13  14
ENDBRANCH  12  13
ENDBRANCH   1  12
TORSDOF 16
ENDMDL
MODEL 5
REMARK VINA RESULT:    -1.323      1.323      2.099
REMARK INTER + INTRA:          -4.064
REMARK INTER:                  -2.998
REMARK INTRA:                  -1.066
REMARK UNBOUND:                -1.503
REMARK SMILES CCCCCCCCCCCCCCCCCC(=O)[O-]
REMARK SMILES IDX 10 1 11 2 12 3 13 4 14 5 15 6 16 7 17 8 18 9 19 10 20 11
REMARK SMILES IDX 9 12 8 13 7 14 6 15 5 16 4 17 3 18 2 19 1 20
REMARK H PARENT
REMARK Flexibility Score: inf
ROOT
ATOM      1  C   UNL     1     -11.087 -19.253  18.168  1.00  0.00     0.000 C 
ENDROOT
BRANCH   1   2
ATOM      2  C   UNL     1     -10.644 -18.137  19.127  1.00  0.00     0.000 C 
BRANCH   2   3
ATOM      3  C   UNL     1     -11.006 -18.484  20.576  1.00  0.00     0.000 C 
BRANCH   3   4
ATOM      4  C   UNL     1      -9.769 -18.947  21.357  1.00  0.00     0.000 C 
BRANCH   4   5
ATOM      5  C   UNL     1      -9.912 -18.750  22.877  1.00  0.00     0.000 C 
BRANCH   5   6
ATOM      6  C   UNL     1     -11.125 -19.488  23.483  1.00  0.00     0.000 C 
BRANCH   6   7
ATOM      7  C   UNL     1     -11.124 -20.987  23.135  1.00  0.00     0.006 C 
BRANCH   7   8
ATOM      8  C   UNL     1      -9.730 -21.615  23.270  1.00  0.00     0.053 C 
BRANCH   8   9
ATOM      9  C   UNL     1      -9.376 -22.442  22.073  1.00  0.00     0.041 C 
ATOM     10  O   UNL     1     -10.281 -22.884  21.317  1.00  0.00    -0.550 OA
ATOM     11  O   UNL     1      -8.044 -22.698  21.774  1.00  0.00    -0.550 OA
ENDBRANCH   8   9
ENDBRANCH   7   8
ENDBRANCH   6   7
ENDBRANCH   5   6
ENDBRANCH   4   5
ENDBRANCH   3   4
ENDBRANCH   2   3
ENDBRANCH   1   2
BRANCH   1  12
ATOM     12  C   UNL     1     -10.929 -18.863  16.689  1.00  0.00     0.000 C 
BRANCH  12  13
ATOM     13  C   UNL     1     -10.740 -20.085  15.773  1.00  0.00    -0.000 C 
BRANCH  13  14
ATOM     14  C   UNL     1     -10.795 -21.414  16.545  1.00  0.00    -0.000 C 
BRANCH  14  15
ATOM     15  C   UNL     1      -9.450 -22.163  16.530  1.00  0.00    -0.000 C 
BRANCH  15  16
ATOM     16  C   UNL     1      -8.973 -22.545  17.941  1.00  0.00    -0.000 C 
BRANCH  16  17
ATOM     17  C   UNL     1      -7.454 -22.397  18.115  1.00  0.00    -0.000 C 
BRANCH  17  18
ATOM     18  C   UNL     1      -6.725 -22.627  16.786  1.00  0.00    -0.000 C 
BRANCH  18  19
ATOM     19  C   UNL     1      -5.224 -22.843  17.011  1.00  0.00    -0.003 C 
ATOM     20  C   UNL     1      -4.396 -21.882  16.163  1.00  0.00     0.004 C 
ENDBRANCH  18  19
ENDBRANCH  17  18
ENDBRANCH  16  17
ENDBRANCH  15  16
ENDBRANCH  14  15
ENDBRANCH  13  14
ENDBRANCH  12  13
ENDBRANCH   1  12
TORSDOF 16
ENDMDL
MODEL 6
REMARK VINA RESULT:    -1.305      1.946      6.683
REMARK INTER + INTRA:          -4.028
REMARK INTER:                  -3.046
REMARK INTRA:                  -0.983
REMARK UNBOUND:                -1.503
REMARK SMILES CCCCCCCCCCCCCCCCCC(=O)[O-]
REMARK SMILES IDX 10 1 11 2 12 3 13 4 14 5 15 6 16 7 17 8 18 9 19 10 20 11
REMARK SMILES IDX 9 12 8 13 7 14 6 15 5 16 4 17 3 18 2 19 1 20
REMARK H PARENT
REMARK Flexibility Score: inf
ROOT
ATOM      1  C   UNL     1      -5.613 -22.063  18.355  1.00  0.00     0.000 C 
ENDROOT
BRANCH   1   2
ATOM      2  C   UNL     1      -5.225 -22.543  16.949  1.00  0.00     0.000 C 
BRANCH   2   3
ATOM      3  C   UNL     1      -5.948 -21.727  15.871  1.00  0.00     0.000 C 
BRANCH   3   4
ATOM      4  C   UNL     1      -7.464 -21.721  16.110  1.00  0.00     0.000 C 
BRANCH   4   5
ATOM      5  C   UNL     1      -8.273 -21.501  14.819  1.00  0.00     0.000 C 
BRANCH   5   6
ATOM      6  C   UNL     1      -8.709 -20.036  14.605  1.00  0.00     0.000 C 
BRANCH   6   7
ATOM      7  C   UNL     1     -10.178 -19.928  14.160  1.00  0.00     0.006 C 
BRANCH   7   8
ATOM      8  C   UNL     1     -11.114 -20.775  15.033  1.00  0.00     0.053 C 
BRANCH   8   9
ATOM      9  C   UNL     1     -11.112 -20.312  16.458  1.00  0.00     0.041 C 
ATOM     10  O   UNL     1     -11.125 -21.152  17.397  1.00  0.00    -0.550 OA
ATOM     11  O   UNL     1     -11.063 -18.955  16.749  1.00  0.00    -0.550 OA
ENDBRANCH   8   9
ENDBRANCH   7   8
ENDBRANCH   6   7
ENDBRANCH   5   6
ENDBRANCH   4   5
ENDBRANCH   3   4
ENDBRANCH   2   3
ENDBRANCH   1   2
BRANCH   1  12
ATOM     12  C   UNL     1      -6.385 -23.125  19.155  1.00  0.00     0.000 C 
BRANCH  12  13
ATOM     13  C   UNL     1      -7.910 -22.987  18.998  1.00  0.00    -0.000 C 
BRANCH  13  14
ATOM     14  C   UNL     1      -8.637 -22.903  20.351  1.00  0.00    -0.000 C 
BRANCH  14  15
ATOM     15  C   UNL     1     -10.168 -22.895  20.201  1.00  0.00    -0.000 C 
BRANCH  15  16
ATOM     16  C   UNL     1     -10.800 -21.577  20.678  1.00  0.00    -0.000 C 
BRANCH  16  17
ATOM     17  C   UNL     1     -10.227 -21.096  22.021  1.00  0.00    -0.000 C 
BRANCH  17  18
ATOM     18  C   UNL     1      -9.902 -19.598  21.972  1.00  0.00    -0.000 C 
BRANCH  18  19
ATOM     19  C   UNL     1     -10.013 -19.057  20.543  1.00  0.00    -0.003 C 
ATOM     20  C   UNL     1     -10.703 -17.697  20.520  1.00  0.00     0.004 C 
ENDBRANCH  18  19
ENDBRANCH  17  18
ENDBRANCH  16  17
ENDBRANCH  15  16
ENDBRANCH  14  15
ENDBRANCH  13  14
ENDBRANCH  12  13
ENDBRANCH   1  12
TORSDOF 16
ENDMDL
