MODEL 1
REMARK VINA RESULT:    -6.669      0.000      0.000
REMARK INTER + INTRA:         -10.030
REMARK INTER:                  -8.813
REMARK INTRA:                  -1.217
REMARK UNBOUND:                -1.217
REMARK SMILES CC[C@H](C=C[C@@H](C)[C@@H]1CC[C@@H]2[C@H]3CC=C4C[C@@H](O)CC[C@@]4(C)[C@@H]3CC[C@]21C)C(C)C
REMARK SMILES IDX 6 1 7 2 5 3 4 4 3 5 2 6 1 7 28 8 29 9 30 10 8 11 9 12 26 13
REMARK SMILES IDX 10 14 11 15 25 16 27 17 12 18 24 19 23 20 13 21 21 22 14 23
REMARK SMILES IDX 15 24 20 25 22 26 16 27 19 28 17 29 18 30
REMARK H PARENT 18 31
REMARK Flexibility Score: inf
ROOT
ATOM      1  C   UNL     1      68.186  47.395   9.344  1.00  0.00     0.012 C 
ATOM      2  C   UNL     1      66.973  48.306   9.604  1.00  0.00     0.012 C 
ENDROOT
BRANCH   1   3
ATOM      3  C   UNL     1      69.276  48.184   8.652  1.00  0.00    -0.028 C 
ATOM      4  C   UNL     1      69.110  48.738   7.438  1.00  0.00    -0.027 C 
BRANCH   4   5
ATOM      5  C   UNL     1      70.232  49.492   6.753  1.00  0.00     0.014 C 
BRANCH   5   6
ATOM      6  C   UNL     1      71.516  49.351   7.613  1.00  0.00     0.004 C 
ATOM      7  C   UNL     1      72.215  50.674   7.925  1.00  0.00     0.004 C 
ENDBRANCH   5   6
BRANCH   5   8
ATOM      8  C   UNL     1      70.347  49.020   5.264  1.00  0.00    -0.011 C 
ATOM      9  C   UNL     1      70.168  50.163   4.251  1.00  0.00     0.008 C 
ATOM     10  C   UNL     1      71.626  48.222   4.971  1.00  0.00     0.008 C 
ENDBRANCH   5   8
ENDBRANCH   4   5
ENDBRANCH   1   3
BRANCH   1  11
ATOM     11  C   UNL     1      67.785  46.116   8.544  1.00  0.00     0.002 C 
ATOM     12  C   UNL     1      66.615  45.343   9.207  1.00  0.00     0.005 C 
ATOM     13  C   UNL     1      68.879  45.025   8.340  1.00  0.00    -0.026 C 
ATOM     14  C   UNL     1      66.838  43.852   8.915  1.00  0.00     0.005 C 
ATOM     15  C   UNL     1      67.996  43.836   7.930  1.00  0.00    -0.001 C 
ATOM     16  C   UNL     1      69.866  45.280   7.175  1.00  0.00     0.007 C 
ATOM     17  C   UNL     1      69.664  44.784   9.669  1.00  0.00     0.012 C 
ATOM     18  C   UNL     1      68.781  42.520   7.737  1.00  0.00     0.000 C 
ATOM     19  C   UNL     1      70.711  44.024   6.863  1.00  0.00     0.005 C 
ATOM     20  C   UNL     1      69.856  42.736   6.630  1.00  0.00     0.003 C 
ATOM     21  C   UNL     1      67.831  41.392   7.308  1.00  0.00     0.031 C 
ATOM     22  C   UNL     1      70.714  41.433   6.396  1.00  0.00    -0.008 C 
ATOM     23  C   UNL     1      68.558  40.169   6.823  1.00  0.00    -0.027 C 
ATOM     24  C   UNL     1      69.801  40.198   6.292  1.00  0.00    -0.065 C 
ATOM     25  C   UNL     1      71.506  41.583   5.059  1.00  0.00     0.014 C 
ATOM     26  C   UNL     1      71.714  41.196   7.561  1.00  0.00     0.016 C 
ATOM     27  C   UNL     1      70.372  38.910   5.726  1.00  0.00     0.063 C 
ATOM     28  C   UNL     1      72.146  40.275   4.566  1.00  0.00     0.033 C 
ATOM     29  C   UNL     1      71.099  39.164   4.403  1.00  0.00     0.118 C 
BRANCH  29  30
ATOM     30  O   UNL     1      70.164  39.507   3.412  1.00  0.00    -0.393 OA
ATOM     31  H   UNL     1      69.630  38.692   3.225  1.00  0.00     0.210 HD
ENDBRANCH  29  30
ENDBRANCH   1  11
TORSDOF 6
ENDMDL
MODEL 2
REMARK VINA RESULT:    -6.493      3.576      5.855
REMARK INTER + INTRA:          -9.797
REMARK INTER:                  -8.787
REMARK INTRA:                  -1.010
REMARK UNBOUND:                -1.217
REMARK SMILES CC[C@H](C=C[C@@H](C)[C@@H]1CC[C@@H]2[C@H]3CC=C4C[C@@H](O)CC[C@@]4(C)[C@@H]3CC[C@]21C)C(C)C
REMARK SMILES IDX 6 1 7 2 5 3 4 4 3 5 2 6 1 7 28 8 29 9 30 10 8 11 9 12 26 13
REMARK SMILES IDX 10 14 11 15 25 16 27 17 12 18 24 19 23 20 13 21 21 22 14 23
REMARK SMILES IDX 15 24 20 25 22 26 16 27 19 28 17 29 18 30
REMARK H PARENT 18 31
REMARK Flexibility Score: inf
ROOT
ATOM      1  C   UNL     1      72.093  48.694   8.476  1.00  0.00     0.012 C 
ATOM      2  C   UNL     1      72.728  50.081   8.276  1.00  0.00     0.012 C 
ENDROOT
BRANCH   1   3
ATOM      3  C   UNL     1      72.814  47.675   7.620  1.00  0.00    -0.028 C 
ATOM      4  C   UNL     1      73.206  47.935   6.361  1.00  0.00    -0.027 C 
BRANCH   4   5
ATOM      5  C   UNL     1      73.894  46.883   5.515  1.00  0.00     0.014 C 
BRANCH   5   6
ATOM      6  C   UNL     1      73.952  45.561   6.325  1.00  0.00     0.004 C 
ATOM      7  C   UNL     1      75.122  44.648   5.960  1.00  0.00     0.004 C 
ENDBRANCH   5   6
BRANCH   5   8
ATOM      8  C   UNL     1      73.198  46.800   4.114  1.00  0.00    -0.011 C 
ATOM      9  C   UNL     1      72.701  45.387   3.768  1.00  0.00     0.008 C 
ATOM     10  C   UNL     1      72.081  47.836   3.922  1.00  0.00     0.008 C 
ENDBRANCH   5   8
ENDBRANCH   4   5
ENDBRANCH   1   3
BRANCH   1  11
ATOM     11  C   UNL     1      70.557  48.718   8.195  1.00  0.00     0.002 C 
ATOM     12  C   UNL     1      69.852  49.933   8.856  1.00  0.00     0.005 C 
ATOM     13  C   UNL     1      69.719  47.497   8.680  1.00  0.00    -0.026 C 
ATOM     14  C   UNL     1      68.437  49.476   9.243  1.00  0.00     0.005 C 
ATOM     15  C   UNL     1      68.307  48.098   8.611  1.00  0.00    -0.001 C 
ATOM     16  C   UNL     1      69.733  46.265   7.743  1.00  0.00     0.007 C 
ATOM     17  C   UNL     1      70.145  47.082  10.125  1.00  0.00     0.012 C 
ATOM     18  C   UNL     1      67.205  47.151   9.133  1.00  0.00     0.000 C 
ATOM     19  C   UNL     1      68.655  45.234   8.147  1.00  0.00     0.005 C 
ATOM     20  C   UNL     1      67.222  45.846   8.281  1.00  0.00     0.003 C 
ATOM     21  C   UNL     1      65.826  47.818   9.009  1.00  0.00     0.031 C 
ATOM     22  C   UNL     1      66.132  44.818   8.776  1.00  0.00    -0.008 C 
ATOM     23  C   UNL     1      64.691  46.856   9.220  1.00  0.00    -0.027 C 
ATOM     24  C   UNL     1      64.783  45.527   8.992  1.00  0.00    -0.065 C 
ATOM     25  C   UNL     1      65.949  43.714   7.688  1.00  0.00     0.014 C 
ATOM     26  C   UNL     1      66.547  44.153  10.117  1.00  0.00     0.016 C 
ATOM     27  C   UNL     1      63.527  44.685   9.125  1.00  0.00     0.063 C 
ATOM     28  C   UNL     1      64.714  42.824   7.908  1.00  0.00     0.033 C 
ATOM     29  C   UNL     1      63.428  43.658   7.994  1.00  0.00     0.118 C 
BRANCH  29  30
ATOM     30  O   UNL     1      63.186  44.321   6.779  1.00  0.00    -0.393 OA
ATOM     31  H   UNL     1      62.203  44.325   6.644  1.00  0.00     0.210 HD
ENDBRANCH  29  30
ENDBRANCH   1  11
TORSDOF 6
ENDMDL
MODEL 3
REMARK VINA RESULT:    -6.363      4.100      7.323
REMARK INTER + INTRA:          -9.626
REMARK INTER:                  -8.300
REMARK INTRA:                  -1.326
REMARK UNBOUND:                -1.217
REMARK SMILES CC[C@H](C=C[C@@H](C)[C@@H]1CC[C@@H]2[C@H]3CC=C4C[C@@H](O)CC[C@@]4(C)[C@@H]3CC[C@]21C)C(C)C
REMARK SMILES IDX 6 1 7 2 5 3 4 4 3 5 2 6 1 7 28 8 29 9 30 10 8 11 9 12 26 13
REMARK SMILES IDX 10 14 11 15 25 16 27 17 12 18 24 19 23 20 13 21 21 22 14 23
REMARK SMILES IDX 15 24 20 25 22 26 16 27 19 28 17 29 18 30
REMARK H PARENT 18 31
REMARK Flexibility Score: inf
ROOT
ATOM      1  C   UNL     1      65.002  47.455   9.543  1.00  0.00     0.012 C 
ATOM      2  C   UNL     1      63.867  48.316  10.123  1.00  0.00     0.012 C 
ENDROOT
BRANCH   1   3
ATOM      3  C   UNL     1      64.831  46.019   9.991  1.00  0.00    -0.028 C 
ATOM      4  C   UNL     1      64.254  45.083   9.217  1.00  0.00    -0.027 C 
BRANCH   4   5
ATOM      5  C   UNL     1      64.064  43.661   9.705  1.00  0.00     0.014 C 
BRANCH   5   6
ATOM      6  C   UNL     1      62.621  43.209   9.353  1.00  0.00     0.004 C 
ATOM      7  C   UNL     1      61.633  44.356   9.145  1.00  0.00     0.004 C 
ENDBRANCH   5   6
BRANCH   5   8
ATOM      8  C   UNL     1      65.220  42.760   9.155  1.00  0.00    -0.011 C 
ATOM      9  C   UNL     1      65.617  43.101   7.709  1.00  0.00     0.008 C 
ATOM     10  C   UNL     1      66.454  42.719  10.068  1.00  0.00     0.008 C 
ENDBRANCH   5   8
ENDBRANCH   4   5
ENDBRANCH   1   3
BRANCH   1  11
ATOM     11  C   UNL     1      66.407  48.025   9.916  1.00  0.00     0.002 C 
ATOM     12  C   UNL     1      66.463  49.573   9.823  1.00  0.00     0.005 C 
ATOM     13  C   UNL     1      67.621  47.560   9.057  1.00  0.00    -0.026 C 
ATOM     14  C   UNL     1      67.888  49.946   9.387  1.00  0.00     0.005 C 
ATOM     15  C   UNL     1      68.650  48.631   9.449  1.00  0.00    -0.001 C 
ATOM     16  C   UNL     1      68.225  46.188   9.445  1.00  0.00     0.007 C 
ATOM     17  C   UNL     1      67.255  47.578   7.538  1.00  0.00     0.012 C 
ATOM     18  C   UNL     1      69.984  48.518   8.679  1.00  0.00     0.000 C 
ATOM     19  C   UNL     1      69.585  45.952   8.750  1.00  0.00     0.005 C 
ATOM     20  C   UNL     1      70.607  47.117   8.960  1.00  0.00     0.003 C 
ATOM     21  C   UNL     1      70.962  49.608   9.144  1.00  0.00     0.031 C 
ATOM     22  C   UNL     1      71.966  46.923   8.184  1.00  0.00    -0.008 C 
ATOM     23  C   UNL     1      72.365  49.381   8.657  1.00  0.00    -0.027 C 
ATOM     24  C   UNL     1      72.863  48.163   8.350  1.00  0.00    -0.065 C 
ATOM     25  C   UNL     1      72.712  45.684   8.774  1.00  0.00     0.014 C 
ATOM     26  C   UNL     1      71.726  46.701   6.665  1.00  0.00     0.016 C 
ATOM     27  C   UNL     1      74.334  48.056   7.989  1.00  0.00     0.063 C 
ATOM     28  C   UNL     1      74.173  45.562   8.313  1.00  0.00     0.033 C 
ATOM     29  C   UNL     1      74.975  46.829   8.642  1.00  0.00     0.118 C 
BRANCH  29  30
ATOM     30  O   UNL     1      75.047  47.021  10.032  1.00  0.00    -0.393 OA
ATOM     31  H   UNL     1      75.186  46.126  10.440  1.00  0.00     0.210 HD
ENDBRANCH  29  30
ENDBRANCH   1  11
TORSDOF 6
ENDMDL
MODEL 4
REMARK VINA RESULT:    -6.328      2.348      4.224
REMARK INTER + INTRA:          -9.580
REMARK INTER:                  -8.389
REMARK INTRA:                  -1.191
REMARK UNBOUND:                -1.217
REMARK SMILES CC[C@H](C=C[C@@H](C)[C@@H]1CC[C@@H]2[C@H]3CC=C4C[C@@H](O)CC[C@@]4(C)[C@@H]3CC[C@]21C)C(C)C
REMARK SMILES IDX 6 1 7 2 5 3 4 4 3 5 2 6 1 7 28 8 29 9 30 10 8 11 9 12 26 13
REMARK SMILES IDX 10 14 11 15 25 16 27 17 12 18 24 19 23 20 13 21 21 22 14 23
REMARK SMILES IDX 15 24 20 25 22 26 16 27 19 28 17 29 18 30
REMARK H PARENT 18 31
REMARK Flexibility Score: inf
ROOT
ATOM      1  C   UNL     1      73.565  46.914   7.008  1.00  0.00     0.012 C 
ATOM      2  C   UNL     1      74.420  47.765   7.962  1.00  0.00     0.012 C 
ENDROOT
BRANCH   1   3
ATOM      3  C   UNL     1      72.383  47.725   6.522  1.00  0.00    -0.028 C 
ATOM      4  C   UNL     1      71.714  48.579   7.317  1.00  0.00    -0.027 C 
BRANCH   4   5
ATOM      5  C   UNL     1      70.512  49.351   6.813  1.00  0.00     0.014 C 
BRANCH   5   6
ATOM      6  C   UNL     1      70.231  48.923   5.348  1.00  0.00     0.004 C 
ATOM      7  C   UNL     1      70.163  50.081   4.354  1.00  0.00     0.004 C 
ENDBRANCH   5   6
BRANCH   5   8
ATOM      8  C   UNL     1      69.323  49.183   7.818  1.00  0.00    -0.011 C 
ATOM      9  C   UNL     1      68.347  48.064   7.419  1.00  0.00     0.008 C 
ATOM     10  C   UNL     1      69.772  49.026   9.278  1.00  0.00     0.008 C 
ENDBRANCH   5   8
ENDBRANCH   4   5
ENDBRANCH   1   3
BRANCH   1  11
ATOM     11  C   UNL     1      73.124  45.571   7.671  1.00  0.00     0.002 C 
ATOM     12  C   UNL     1      74.163  45.048   8.698  1.00  0.00     0.005 C 
ATOM     13  C   UNL     1      72.887  44.350   6.732  1.00  0.00    -0.026 C 
ATOM     14  C   UNL     1      74.109  43.513   8.650  1.00  0.00     0.005 C 
ATOM     15  C   UNL     1      72.911  43.212   7.763  1.00  0.00    -0.001 C 
ATOM     16  C   UNL     1      71.505  44.303   6.037  1.00  0.00     0.007 C 
ATOM     17  C   UNL     1      74.029  44.248   5.671  1.00  0.00     0.012 C 
ATOM     18  C   UNL     1      72.795  41.806   7.136  1.00  0.00     0.000 C 
ATOM     19  C   UNL     1      71.250  42.930   5.375  1.00  0.00     0.005 C 
ATOM     20  C   UNL     1      71.455  41.720   6.344  1.00  0.00     0.003 C 
ATOM     21  C   UNL     1      72.804  40.730   8.233  1.00  0.00     0.031 C 
ATOM     22  C   UNL     1      71.281  40.312   5.655  1.00  0.00    -0.008 C 
ATOM     23  C   UNL     1      72.404  39.374   7.725  1.00  0.00    -0.027 C 
ATOM     24  C   UNL     1      71.613  39.182   6.646  1.00  0.00    -0.065 C 
ATOM     25  C   UNL     1      69.797  40.154   5.196  1.00  0.00     0.014 C 
ATOM     26  C   UNL     1      72.217  40.164   4.423  1.00  0.00     0.016 C 
ATOM     27  C   UNL     1      71.182  37.765   6.312  1.00  0.00     0.063 C 
ATOM     28  C   UNL     1      69.424  38.722   4.780  1.00  0.00     0.033 C 
ATOM     29  C   UNL     1      69.707  37.718   5.906  1.00  0.00     0.118 C 
BRANCH  29  30
ATOM     30  O   UNL     1      68.903  37.992   7.026  1.00  0.00    -0.393 OA
ATOM     31  H   UNL     1      68.407  38.829   6.827  1.00  0.00     0.210 HD
ENDBRANCH  29  30
ENDBRANCH   1  11
TORSDOF 6
ENDMDL
MODEL 5
REMARK VINA RESULT:    -6.308      2.962      4.950
REMARK INTER + INTRA:          -9.553
REMARK INTER:                  -8.439
REMARK INTRA:                  -1.114
REMARK UNBOUND:                -1.217
REMARK SMILES CC[C@H](C=C[C@@H](C)[C@@H]1CC[C@@H]2[C@H]3CC=C4C[C@@H](O)CC[C@@]4(C)[C@@H]3CC[C@]21C)C(C)C
REMARK SMILES IDX 6 1 7 2 5 3 4 4 3 5 2 6 1 7 28 8 29 9 30 10 8 11 9 12 26 13
REMARK SMILES IDX 10 14 11 15 25 16 27 17 12 18 24 19 23 20 13 21 21 22 14 23
REMARK SMILES IDX 15 24 20 25 22 26 16 27 19 28 17 29 18 30
REMARK H PARENT 18 31
REMARK Flexibility Score: inf
ROOT
ATOM      1  C   UNL     1      72.874  46.495   5.540  1.00  0.00     0.012 C 
ATOM      2  C   UNL     1      74.028  46.956   4.634  1.00  0.00     0.012 C 
ENDROOT
BRANCH   1   3
ATOM      3  C   UNL     1      72.582  47.561   6.575  1.00  0.00    -0.028 C 
ATOM      4  C   UNL     1      73.527  48.049   7.398  1.00  0.00    -0.027 C 
BRANCH   4   5
ATOM      5  C   UNL     1      73.198  49.090   8.449  1.00  0.00     0.014 C 
BRANCH   5   6
ATOM      6  C   UNL     1      72.061  49.996   7.905  1.00  0.00     0.004 C 
ATOM      7  C   UNL     1      72.435  51.472   7.782  1.00  0.00     0.004 C 
ENDBRANCH   5   6
BRANCH   5   8
ATOM      8  C   UNL     1      72.917  48.382   9.817  1.00  0.00    -0.011 C 
ATOM      9  C   UNL     1      71.418  48.232  10.125  1.00  0.00     0.008 C 
ATOM     10  C   UNL     1      73.647  47.039   9.974  1.00  0.00     0.008 C 
ENDBRANCH   5   8
ENDBRANCH   4   5
ENDBRANCH   1   3
BRANCH   1  11
ATOM     11  C   UNL     1      73.170  45.107   6.191  1.00  0.00     0.002 C 
ATOM     12  C   UNL     1      74.672  44.725   6.115  1.00  0.00     0.005 C 
ATOM     13  C   UNL     1      72.443  43.865   5.596  1.00  0.00    -0.026 C 
ATOM     14  C   UNL     1      74.740  43.196   5.978  1.00  0.00     0.005 C 
ATOM     15  C   UNL     1      73.305  42.741   6.190  1.00  0.00    -0.001 C 
ATOM     16  C   UNL     1      70.995  43.638   6.096  1.00  0.00     0.007 C 
ATOM     17  C   UNL     1      72.473  43.910   4.035  1.00  0.00     0.012 C 
ATOM     18  C   UNL     1      72.901  41.331   5.708  1.00  0.00     0.000 C 
ATOM     19  C   UNL     1      70.469  42.242   5.692  1.00  0.00     0.005 C 
ATOM     20  C   UNL     1      71.417  41.070   6.107  1.00  0.00     0.003 C 
ATOM     21  C   UNL     1      73.795  40.267   6.363  1.00  0.00     0.031 C 
ATOM     22  C   UNL     1      70.929  39.651   5.622  1.00  0.00    -0.008 C 
ATOM     23  C   UNL     1      73.277  38.870   6.171  1.00  0.00    -0.027 C 
ATOM     24  C   UNL     1      71.974  38.575   5.969  1.00  0.00    -0.065 C 
ATOM     25  C   UNL     1      69.592  39.302   6.349  1.00  0.00     0.014 C 
ATOM     26  C   UNL     1      70.700  39.623   4.086  1.00  0.00     0.016 C 
ATOM     27  C   UNL     1      71.566  37.113   5.914  1.00  0.00     0.063 C 
ATOM     28  C   UNL     1      69.167  37.832   6.194  1.00  0.00     0.033 C 
ATOM     29  C   UNL     1      70.263  36.875   6.681  1.00  0.00     0.118 C 
BRANCH  29  30
ATOM     30  O   UNL     1      70.491  37.045   8.058  1.00  0.00    -0.393 OA
ATOM     31  H   UNL     1      70.537  38.022   8.224  1.00  0.00     0.210 HD
ENDBRANCH  29  30
ENDBRANCH   1  11
TORSDOF 6
ENDMDL
MODEL 6
REMARK VINA RESULT:    -6.271      1.645      3.042
REMARK INTER + INTRA:          -9.504
REMARK INTER:                  -8.320
REMARK INTRA:                  -1.184
REMARK UNBOUND:                -1.217
REMARK SMILES CC[C@H](C=C[C@@H](C)[C@@H]1CC[C@@H]2[C@H]3CC=C4C[C@@H](O)CC[C@@]4(C)[C@@H]3CC[C@]21C)C(C)C
REMARK SMILES IDX 6 1 7 2 5 3 4 4 3 5 2 6 1 7 28 8 29 9 30 10 8 11 9 12 26 13
REMARK SMILES IDX 10 14 11 15 25 16 27 17 12 18 24 19 23 20 13 21 21 22 14 23
REMARK SMILES IDX 15 24 20 25 22 26 16 27 19 28 17 29 18 30
REMARK H PARENT 18 31
REMARK Flexibility Score: inf
ROOT
ATOM      1  C   UNL     1      69.045  45.270   7.998  1.00  0.00     0.012 C 
ATOM      2  C   UNL     1      67.691  45.532   8.679  1.00  0.00     0.012 C 
ENDROOT
BRANCH   1   3
ATOM      3  C   UNL     1      69.482  46.504   7.239  1.00  0.00    -0.028 C 
ATOM      4  C   UNL     1      70.609  47.175   7.536  1.00  0.00    -0.027 C 
BRANCH   4   5
ATOM      5  C   UNL     1      71.003  48.429   6.783  1.00  0.00     0.014 C 
BRANCH   5   6
ATOM      6  C   UNL     1      69.796  48.886   5.921  1.00  0.00     0.004 C 
ATOM      7  C   UNL     1      70.161  49.816   4.766  1.00  0.00     0.004 C 
ENDBRANCH   5   6
BRANCH   5   8
ATOM      8  C   UNL     1      71.569  49.487   7.789  1.00  0.00    -0.011 C 
ATOM      9  C   UNL     1      70.713  49.635   9.057  1.00  0.00     0.008 C 
ATOM     10  C   UNL     1      73.046  49.266   8.147  1.00  0.00     0.008 C 
ENDBRANCH   5   8
ENDBRANCH   4   5
ENDBRANCH   1   3
BRANCH   1  11
ATOM     11  C   UNL     1      68.994  44.004   7.084  1.00  0.00     0.002 C 
ATOM     12  C   UNL     1      67.892  43.002   7.519  1.00  0.00     0.005 C 
ATOM     13  C   UNL     1      70.279  43.127   7.001  1.00  0.00    -0.026 C 
ATOM     14  C   UNL     1      68.412  41.593   7.194  1.00  0.00     0.005 C 
ATOM     15  C   UNL     1      69.687  41.842   6.402  1.00  0.00    -0.001 C 
ATOM     16  C   UNL     1      71.365  43.627   6.018  1.00  0.00     0.007 C 
ATOM     17  C   UNL     1      70.893  42.921   8.423  1.00  0.00     0.012 C 
ATOM     18  C   UNL     1      70.708  40.692   6.271  1.00  0.00     0.000 C 
ATOM     19  C   UNL     1      72.452  42.554   5.782  1.00  0.00     0.005 C 
ATOM     20  C   UNL     1      71.879  41.163   5.356  1.00  0.00     0.003 C 
ATOM     21  C   UNL     1      70.043  39.457   5.646  1.00  0.00     0.031 C 
ATOM     22  C   UNL     1      72.976  40.041   5.197  1.00  0.00    -0.008 C 
ATOM     23  C   UNL     1      71.035  38.411   5.222  1.00  0.00    -0.027 C 
ATOM     24  C   UNL     1      72.317  38.683   4.893  1.00  0.00    -0.065 C 
ATOM     25  C   UNL     1      73.916  40.418   4.009  1.00  0.00     0.014 C 
ATOM     26  C   UNL     1      73.822  39.887   6.491  1.00  0.00     0.016 C 
ATOM     27  C   UNL     1      73.181  37.553   4.362  1.00  0.00     0.063 C 
ATOM     28  C   UNL     1      74.838  39.274   3.559  1.00  0.00     0.033 C 
ATOM     29  C   UNL     1      74.037  38.020   3.182  1.00  0.00     0.118 C 
BRANCH  29  30
ATOM     30  O   UNL     1      73.210  38.276   2.075  1.00  0.00    -0.393 OA
ATOM     31  H   UNL     1      72.352  38.626   2.431  1.00  0.00     0.210 HD
ENDBRANCH  29  30
ENDBRANCH   1  11
TORSDOF 6
ENDMDL
MODEL 7
REMARK VINA RESULT:    -6.141      2.831      6.426
REMARK INTER + INTRA:          -9.332
REMARK INTER:                  -8.039
REMARK INTRA:                  -1.293
REMARK UNBOUND:                -1.217
REMARK SMILES CC[C@H](C=C[C@@H](C)[C@@H]1CC[C@@H]2[C@H]3CC=C4C[C@@H](O)CC[C@@]4(C)[C@@H]3CC[C@]21C)C(C)C
REMARK SMILES IDX 6 1 7 2 5 3 4 4 3 5 2 6 1 7 28 8 29 9 30 10 8 11 9 12 26 13
REMARK SMILES IDX 10 14 11 15 25 16 27 17 12 18 24 19 23 20 13 21 21 22 14 23
REMARK SMILES IDX 15 24 20 25 22 26 16 27 19 28 17 29 18 30
REMARK H PARENT 18 31
REMARK Flexibility Score: inf
ROOT
ATOM      1  C   UNL     1      73.084  47.375   6.907  1.00  0.00     0.012 C 
ATOM      2  C   UNL     1      73.972  48.103   5.884  1.00  0.00     0.012 C 
ENDROOT
BRANCH   1   3
ATOM      3  C   UNL     1      73.570  45.952   7.082  1.00  0.00    -0.028 C 
ATOM      4  C   UNL     1      73.889  45.163   6.042  1.00  0.00    -0.027 C 
BRANCH   4   5
ATOM      5  C   UNL     1      74.338  43.730   6.245  1.00  0.00     0.014 C 
BRANCH   5   6
ATOM      6  C   UNL     1      74.472  43.469   7.769  1.00  0.00     0.004 C 
ATOM      7  C   UNL     1      73.286  42.731   8.390  1.00  0.00     0.004 C 
ENDBRANCH   5   6
BRANCH   5   8
ATOM      8  C   UNL     1      73.383  42.766   5.464  1.00  0.00    -0.011 C 
ATOM      9  C   UNL     1      72.254  43.500   4.724  1.00  0.00     0.008 C 
ATOM     10  C   UNL     1      74.121  41.802   4.522  1.00  0.00     0.008 C 
ENDBRANCH   5   8
ENDBRANCH   4   5
ENDBRANCH   1   3
BRANCH   1  11
ATOM     11  C   UNL     1      71.576  47.437   6.509  1.00  0.00     0.002 C 
ATOM     12  C   UNL     1      71.058  48.894   6.371  1.00  0.00     0.005 C 
ATOM     13  C   UNL     1      70.550  46.771   7.474  1.00  0.00    -0.026 C 
ATOM     14  C   UNL     1      69.583  48.889   6.802  1.00  0.00     0.005 C 
ATOM     15  C   UNL     1      69.250  47.414   6.967  1.00  0.00    -0.001 C 
ATOM     16  C   UNL     1      70.388  45.239   7.319  1.00  0.00     0.007 C 
ATOM     17  C   UNL     1      70.882  47.131   8.957  1.00  0.00     0.012 C 
ATOM     18  C   UNL     1      68.005  47.030   7.796  1.00  0.00     0.000 C 
ATOM     19  C   UNL     1      69.155  44.719   8.093  1.00  0.00     0.005 C 
ATOM     20  C   UNL     1      67.833  45.481   7.752  1.00  0.00     0.003 C 
ATOM     21  C   UNL     1      66.750  47.695   7.212  1.00  0.00     0.031 C 
ATOM     22  C   UNL     1      66.588  45.014   8.601  1.00  0.00    -0.008 C 
ATOM     23  C   UNL     1      65.476  47.139   7.782  1.00  0.00    -0.027 C 
ATOM     24  C   UNL     1      65.363  45.891   8.287  1.00  0.00    -0.065 C 
ATOM     25  C   UNL     1      66.253  43.534   8.232  1.00  0.00     0.014 C 
ATOM     26  C   UNL     1      66.873  45.111  10.125  1.00  0.00     0.016 C 
ATOM     27  C   UNL     1      63.989  45.408   8.716  1.00  0.00     0.063 C 
ATOM     28  C   UNL     1      64.891  43.056   8.762  1.00  0.00     0.033 C 
ATOM     29  C   UNL     1      63.750  43.961   8.279  1.00  0.00     0.118 C 
BRANCH  29  30
ATOM     30  O   UNL     1      63.634  43.906   6.880  1.00  0.00    -0.393 OA
ATOM     31  H   UNL     1      63.871  44.807   6.536  1.00  0.00     0.210 HD
ENDBRANCH  29  30
ENDBRANCH   1  11
TORSDOF 6
ENDMDL
MODEL 8
REMARK VINA RESULT:    -5.989      2.869      6.515
REMARK INTER + INTRA:          -9.131
REMARK INTER:                  -7.735
REMARK INTRA:                  -1.396
REMARK UNBOUND:                -1.217
REMARK SMILES CC[C@H](C=C[C@@H](C)[C@@H]1CC[C@@H]2[C@H]3CC=C4C[C@@H](O)CC[C@@]4(C)[C@@H]3CC[C@]21C)C(C)C
REMARK SMILES IDX 6 1 7 2 5 3 4 4 3 5 2 6 1 7 28 8 29 9 30 10 8 11 9 12 26 13
REMARK SMILES IDX 10 14 11 15 25 16 27 17 12 18 24 19 23 20 13 21 21 22 14 23
REMARK SMILES IDX 15 24 20 25 22 26 16 27 19 28 17 29 18 30
REMARK H PARENT 18 31
REMARK Flexibility Score: inf
ROOT
ATOM      1  C   UNL     1      67.429  42.176   9.902  1.00  0.00     0.012 C 
ATOM      2  C   UNL     1      67.435  40.652  10.107  1.00  0.00     0.012 C 
ENDROOT
BRANCH   1   3
ATOM      3  C   UNL     1      66.030  42.714  10.113  1.00  0.00    -0.028 C 
ATOM      4  C   UNL     1      65.456  43.591   9.271  1.00  0.00    -0.027 C 
BRANCH   4   5
ATOM      5  C   UNL     1      64.067  44.140   9.527  1.00  0.00     0.014 C 
BRANCH   5   6
ATOM      6  C   UNL     1      64.183  45.663   9.798  1.00  0.00     0.004 C 
ATOM      7  C   UNL     1      65.194  46.387   8.910  1.00  0.00     0.004 C 
ENDBRANCH   5   6
BRANCH   5   8
ATOM      8  C   UNL     1      63.114  43.720   8.357  1.00  0.00    -0.011 C 
ATOM      9  C   UNL     1      63.865  43.181   7.128  1.00  0.00     0.008 C 
ATOM     10  C   UNL     1      62.003  42.752   8.789  1.00  0.00     0.008 C 
ENDBRANCH   5   8
ENDBRANCH   4   5
ENDBRANCH   1   3
BRANCH   1  11
ATOM     11  C   UNL     1      68.007  42.572   8.506  1.00  0.00     0.002 C 
ATOM     12  C   UNL     1      68.249  41.341   7.594  1.00  0.00     0.005 C 
ATOM     13  C   UNL     1      69.372  43.323   8.481  1.00  0.00    -0.026 C 
ATOM     14  C   UNL     1      69.471  41.662   6.720  1.00  0.00     0.005 C 
ATOM     15  C   UNL     1      69.757  43.128   7.007  1.00  0.00    -0.001 C 
ATOM     16  C   UNL     1      69.297  44.849   8.731  1.00  0.00     0.007 C 
ATOM     17  C   UNL     1      70.378  42.662   9.477  1.00  0.00     0.012 C 
ATOM     18  C   UNL     1      71.151  43.689   6.652  1.00  0.00     0.000 C 
ATOM     19  C   UNL     1      70.636  45.544   8.395  1.00  0.00     0.005 C 
ATOM     20  C   UNL     1      71.171  45.216   6.963  1.00  0.00     0.003 C 
ATOM     21  C   UNL     1      71.449  43.473   5.160  1.00  0.00     0.031 C 
ATOM     22  C   UNL     1      72.579  45.852   6.645  1.00  0.00    -0.008 C 
ATOM     23  C   UNL     1      72.647  44.245   4.686  1.00  0.00    -0.027 C 
ATOM     24  C   UNL     1      73.082  45.385   5.267  1.00  0.00    -0.065 C 
ATOM     25  C   UNL     1      72.436  47.407   6.625  1.00  0.00     0.014 C 
ATOM     26  C   UNL     1      73.637  45.448   7.707  1.00  0.00     0.016 C 
ATOM     27  C   UNL     1      74.229  46.135   4.614  1.00  0.00     0.063 C 
ATOM     28  C   UNL     1      73.657  48.135   6.038  1.00  0.00     0.033 C 
ATOM     29  C   UNL     1      73.975  47.645   4.619  1.00  0.00     0.118 C 
BRANCH  29  30
ATOM     30  O   UNL     1      72.917  47.946   3.743  1.00  0.00    -0.393 OA
ATOM     31  H   UNL     1      72.125  48.143   4.307  1.00  0.00     0.210 HD
ENDBRANCH  29  30
ENDBRANCH   1  11
TORSDOF 6
ENDMDL
MODEL 9
REMARK VINA RESULT:    -5.941      3.292      8.741
REMARK INTER + INTRA:          -9.068
REMARK INTER:                  -7.528
REMARK INTRA:                  -1.540
REMARK UNBOUND:                -1.217
REMARK SMILES CC[C@H](C=C[C@@H](C)[C@@H]1CC[C@@H]2[C@H]3CC=C4C[C@@H](O)CC[C@@]4(C)[C@@H]3CC[C@]21C)C(C)C
REMARK SMILES IDX 6 1 7 2 5 3 4 4 3 5 2 6 1 7 28 8 29 9 30 10 8 11 9 12 26 13
REMARK SMILES IDX 10 14 11 15 25 16 27 17 12 18 24 19 23 20 13 21 21 22 14 23
REMARK SMILES IDX 15 24 20 25 22 26 16 27 19 28 17 29 18 30
REMARK H PARENT 18 31
REMARK Flexibility Score: inf
ROOT
ATOM      1  C   UNL     1      73.603  40.269   7.157  1.00  0.00     0.012 C 
ATOM      2  C   UNL     1      74.518  39.392   6.286  1.00  0.00     0.012 C 
ENDROOT
BRANCH   1   3
ATOM      3  C   UNL     1      72.287  39.558   7.390  1.00  0.00    -0.028 C 
ATOM      4  C   UNL     1      71.147  39.926   6.778  1.00  0.00    -0.027 C 
BRANCH   4   5
ATOM      5  C   UNL     1      69.837  39.218   7.058  1.00  0.00     0.014 C 
BRANCH   5   6
ATOM      6  C   UNL     1      68.753  40.289   7.352  1.00  0.00     0.004 C 
ATOM      7  C   UNL     1      69.037  41.660   6.740  1.00  0.00     0.004 C 
ENDBRANCH   5   6
BRANCH   5   8
ATOM      8  C   UNL     1      69.520  38.222   5.892  1.00  0.00    -0.011 C 
ATOM      9  C   UNL     1      69.740  38.833   4.498  1.00  0.00     0.008 C 
ATOM     10  C   UNL     1      70.247  36.875   6.021  1.00  0.00     0.008 C 
ENDBRANCH   5   8
ENDBRANCH   4   5
ENDBRANCH   1   3
BRANCH   1  11
ATOM     11  C   UNL     1      73.404  41.688   6.537  1.00  0.00     0.002 C 
ATOM     12  C   UNL     1      74.515  42.051   5.517  1.00  0.00     0.005 C 
ATOM     13  C   UNL     1      73.388  42.903   7.513  1.00  0.00    -0.026 C 
ATOM     14  C   UNL     1      74.734  43.569   5.611  1.00  0.00     0.005 C 
ATOM     15  C   UNL     1      73.609  44.050   6.516  1.00  0.00    -0.001 C 
ATOM     16  C   UNL     1      72.038  43.172   8.221  1.00  0.00     0.007 C 
ATOM     17  C   UNL     1      74.533  42.770   8.568  1.00  0.00     0.012 C 
ATOM     18  C   UNL     1      73.745  45.435   7.185  1.00  0.00     0.000 C 
ATOM     19  C   UNL     1      72.032  44.548   8.924  1.00  0.00     0.005 C 
ATOM     20  C   UNL     1      72.444  45.731   7.990  1.00  0.00     0.003 C 
ATOM     21  C   UNL     1      73.941  46.524   6.120  1.00  0.00     0.031 C 
ATOM     22  C   UNL     1      72.523  47.127   8.722  1.00  0.00    -0.008 C 
ATOM     23  C   UNL     1      73.787  47.914   6.671  1.00  0.00    -0.027 C 
ATOM     24  C   UNL     1      73.046  48.210   7.761  1.00  0.00    -0.065 C 
ATOM     25  C   UNL     1      71.091  47.529   9.197  1.00  0.00     0.014 C 
ATOM     26  C   UNL     1      73.473  47.070   9.949  1.00  0.00     0.016 C 
ATOM     27  C   UNL     1      72.872  49.670   8.140  1.00  0.00     0.063 C 
ATOM     28  C   UNL     1      70.978  48.992   9.657  1.00  0.00     0.033 C 
ATOM     29  C   UNL     1      71.430  49.964   8.559  1.00  0.00     0.118 C 
BRANCH  29  30
ATOM     30  O   UNL     1      70.587  49.869   7.438  1.00  0.00    -0.393 OA
ATOM     31  H   UNL     1      70.545  50.774   7.033  1.00  0.00     0.210 HD
ENDBRANCH  29  30
ENDBRANCH   1  11
TORSDOF 6
ENDMDL
