MODEL 1
REMARK VINA RESULT:    -3.614      0.000      0.000
REMARK INTER + INTRA:          -7.608
REMARK INTER:                  -6.571
REMARK INTRA:                  -1.037
REMARK UNBOUND:                -1.037
REMARK SMILES CCCCCCCCCCCCCCCC(=O)[O-]
REMARK SMILES IDX 9 1 10 2 11 3 12 4 13 5 14 6 15 7 16 8 17 9 18 10 8 11 7 12
REMARK SMILES IDX 6 13 5 14 4 15 3 16 2 17 1 18
REMARK H PARENT
REMARK Flexibility Score: inf
ROOT
ATOM      1  C   UNL     1      61.902  23.575  50.837  1.00  0.00     0.000 C 
ENDROOT
BRANCH   1   2
ATOM      2  C   UNL     1      62.482  23.253  49.447  1.00  0.00     0.000 C 
BRANCH   2   3
ATOM      3  C   UNL     1      62.258  21.807  48.965  1.00  0.00     0.000 C 
BRANCH   3   4
ATOM      4  C   UNL     1      61.345  20.997  49.896  1.00  0.00     0.000 C 
BRANCH   4   5
ATOM      5  C   UNL     1      60.232  20.298  49.102  1.00  0.00     0.000 C 
BRANCH   5   6
ATOM      6  C   UNL     1      59.664  19.071  49.831  1.00  0.00     0.006 C 
BRANCH   6   7
ATOM      7  C   UNL     1      58.861  18.151  48.902  1.00  0.00     0.053 C 
BRANCH   7   8
ATOM      8  C   UNL     1      57.747  17.495  49.653  1.00  0.00     0.041 C 
ATOM      9  O   UNL     1      57.915  16.362  50.176  1.00  0.00    -0.550 OA
ATOM     10  O   UNL     1      56.505  18.113  49.735  1.00  0.00    -0.550 OA
ENDBRANCH   7   8
ENDBRANCH   6   7
ENDBRANCH   5   6
ENDBRANCH   4   5
ENDBRANCH   3   4
ENDBRANCH   2   3
ENDBRANCH   1   2
BRANCH   1  11
ATOM     11  C   UNL     1      60.851  24.698  50.802  1.00  0.00     0.000 C 
BRANCH  11  12
ATOM     12  C   UNL     1      59.517  24.237  50.191  1.00  0.00    -0.000 C 
BRANCH  12  13
ATOM     13  C   UNL     1      58.847  25.329  49.336  1.00  0.00    -0.000 C 
BRANCH  13  14
ATOM     14  C   UNL     1      59.829  26.429  48.902  1.00  0.00    -0.000 C 
BRANCH  14  15
ATOM     15  C   UNL     1      59.158  27.808  48.793  1.00  0.00    -0.000 C 
BRANCH  15  16
ATOM     16  C   UNL     1      58.241  28.125  49.989  1.00  0.00    -0.000 C 
BRANCH  16  17
ATOM     17  C   UNL     1      56.750  28.289  49.641  1.00  0.00    -0.003 C 
ATOM     18  C   UNL     1      56.138  29.565  50.217  1.00  0.00     0.004 C 
ENDBRANCH  16  17
ENDBRANCH  15  16
ENDBRANCH  14  15
ENDBRANCH  13  14
ENDBRANCH  12  13
ENDBRANCH  11  12
ENDBRANCH   1  11
TORSDOF 14
ENDMDL
MODEL 2
REMARK VINA RESULT:    -3.597      4.374      7.865
REMARK INTER + INTRA:          -7.579
REMARK INTER:                  -5.365
REMARK INTRA:                  -2.214
REMARK UNBOUND:                -1.037
REMARK SMILES CCCCCCCCCCCCCCCC(=O)[O-]
REMARK SMILES IDX 9 1 10 2 11 3 12 4 13 5 14 6 15 7 16 8 17 9 18 10 8 11 7 12
REMARK SMILES IDX 6 13 5 14 4 15 3 16 2 17 1 18
REMARK H PARENT
REMARK Flexibility Score: inf
ROOT
ATOM      1  C   UNL     1      58.162  16.205  50.556  1.00  0.00     0.000 C 
ENDROOT
BRANCH   1   2
ATOM      2  C   UNL     1      59.482  16.254  51.349  1.00  0.00     0.000 C 
BRANCH   2   3
ATOM      3  C   UNL     1      60.325  17.526  51.138  1.00  0.00     0.000 C 
BRANCH   3   4
ATOM      4  C   UNL     1      60.349  18.442  52.369  1.00  0.00     0.000 C 
BRANCH   4   5
ATOM      5  C   UNL     1      60.888  19.834  52.006  1.00  0.00     0.000 C 
BRANCH   5   6
ATOM      6  C   UNL     1      59.848  20.703  51.283  1.00  0.00     0.006 C 
BRANCH   6   7
ATOM      7  C   UNL     1      60.488  21.714  50.324  1.00  0.00     0.053 C 
BRANCH   7   8
ATOM      8  C   UNL     1      60.667  21.106  48.969  1.00  0.00     0.041 C 
ATOM      9  O   UNL     1      61.491  21.600  48.155  1.00  0.00    -0.550 OA
ATOM     10  O   UNL     1      59.888  20.021  48.585  1.00  0.00    -0.550 OA
ENDBRANCH   7   8
ENDBRANCH   6   7
ENDBRANCH   5   6
ENDBRANCH   4   5
ENDBRANCH   3   4
ENDBRANCH   2   3
ENDBRANCH   1   2
BRANCH   1  11
ATOM     11  C   UNL     1      58.014  17.374  49.567  1.00  0.00     0.000 C 
BRANCH  11  12
ATOM     12  C   UNL     1      56.730  18.186  49.804  1.00  0.00    -0.000 C 
BRANCH  12  13
ATOM     13  C   UNL     1      56.226  18.090  51.256  1.00  0.00    -0.000 C 
BRANCH  13  14
ATOM     14  C   UNL     1      56.480  19.376  52.058  1.00  0.00    -0.000 C 
BRANCH  14  15
ATOM     15  C   UNL     1      56.969  19.091  53.488  1.00  0.00    -0.000 C 
BRANCH  15  16
ATOM     16  C   UNL     1      56.964  17.591  53.835  1.00  0.00    -0.000 C 
BRANCH  16  17
ATOM     17  C   UNL     1      55.900  17.165  54.864  1.00  0.00    -0.003 C 
ATOM     18  C   UNL     1      56.497  16.496  56.101  1.00  0.00     0.004 C 
ENDBRANCH  16  17
ENDBRANCH  15  16
ENDBRANCH  14  15
ENDBRANCH  13  14
ENDBRANCH  12  13
ENDBRANCH  11  12
ENDBRANCH   1  11
TORSDOF 14
ENDMDL
MODEL 3
REMARK VINA RESULT:    -3.597      3.987      6.405
REMARK INTER + INTRA:          -7.578
REMARK INTER:                  -5.481
REMARK INTRA:                  -2.097
REMARK UNBOUND:                -1.037
REMARK SMILES CCCCCCCCCCCCCCCC(=O)[O-]
REMARK SMILES IDX 9 1 10 2 11 3 12 4 13 5 14 6 15 7 16 8 17 9 18 10 8 11 7 12
REMARK SMILES IDX 6 13 5 14 4 15 3 16 2 17 1 18
REMARK H PARENT
REMARK Flexibility Score: inf
ROOT
ATOM      1  C   UNL     1      59.421  16.397  52.641  1.00  0.00     0.000 C 
ENDROOT
BRANCH   1   2
ATOM      2  C   UNL     1      59.439  16.320  51.102  1.00  0.00     0.000 C 
BRANCH   2   3
ATOM      3  C   UNL     1      58.051  16.293  50.433  1.00  0.00     0.000 C 
BRANCH   3   4
ATOM      4  C   UNL     1      57.686  17.621  49.755  1.00  0.00     0.000 C 
BRANCH   4   5
ATOM      5  C   UNL     1      56.377  18.186  50.325  1.00  0.00     0.000 C 
BRANCH   5   6
ATOM      6  C   UNL     1      56.416  18.348  51.852  1.00  0.00     0.006 C 
BRANCH   6   7
ATOM      7  C   UNL     1      55.935  19.731  52.311  1.00  0.00     0.053 C 
BRANCH   7   8
ATOM      8  C   UNL     1      54.454  19.723  52.524  1.00  0.00     0.041 C 
ATOM      9  O   UNL     1      53.904  18.763  53.125  1.00  0.00    -0.550 OA
ATOM     10  O   UNL     1      53.674  20.755  52.016  1.00  0.00    -0.550 OA
ENDBRANCH   7   8
ENDBRANCH   6   7
ENDBRANCH   5   6
ENDBRANCH   4   5
ENDBRANCH   3   4
ENDBRANCH   2   3
ENDBRANCH   1   2
BRANCH   1  11
ATOM     11  C   UNL     1      60.093  17.670  53.185  1.00  0.00     0.000 C 
BRANCH  11  12
ATOM     12  C   UNL     1      60.392  18.696  52.080  1.00  0.00    -0.000 C 
BRANCH  12  13
ATOM     13  C   UNL     1      59.716  20.057  52.334  1.00  0.00    -0.000 C 
BRANCH  13  14
ATOM     14  C   UNL     1      59.695  20.951  51.084  1.00  0.00    -0.000 C 
BRANCH  14  15
ATOM     15  C   UNL     1      60.191  20.218  49.827  1.00  0.00    -0.000 C 
BRANCH  15  16
ATOM     16  C   UNL     1      60.771  21.173  48.767  1.00  0.00    -0.000 C 
BRANCH  16  17
ATOM     17  C   UNL     1      60.880  22.644  49.207  1.00  0.00    -0.003 C 
ATOM     18  C   UNL     1      62.315  23.077  49.501  1.00  0.00     0.004 C 
ENDBRANCH  16  17
ENDBRANCH  15  16
ENDBRANCH  14  15
ENDBRANCH  13  14
ENDBRANCH  12  13
ENDBRANCH  11  12
ENDBRANCH   1  11
TORSDOF 14
ENDMDL
MODEL 4
REMARK VINA RESULT:    -3.561      1.447      2.619
REMARK INTER + INTRA:          -7.513
REMARK INTER:                  -5.911
REMARK INTRA:                  -1.602
REMARK UNBOUND:                -1.037
REMARK SMILES CCCCCCCCCCCCCCCC(=O)[O-]
REMARK SMILES IDX 9 1 10 2 11 3 12 4 13 5 14 6 15 7 16 8 17 9 18 10 8 11 7 12
REMARK SMILES IDX 6 13 5 14 4 15 3 16 2 17 1 18
REMARK H PARENT
REMARK Flexibility Score: inf
ROOT
ATOM      1  C   UNL     1      60.404  25.833  50.446  1.00  0.00     0.000 C 
ENDROOT
BRANCH   1   2
ATOM      2  C   UNL     1      60.675  24.362  50.813  1.00  0.00     0.000 C 
BRANCH   2   3
ATOM      3  C   UNL     1      60.123  23.327  49.815  1.00  0.00     0.000 C 
BRANCH   3   4
ATOM      4  C   UNL     1      61.213  22.419  49.227  1.00  0.00     0.000 C 
BRANCH   4   5
ATOM      5  C   UNL     1      60.608  21.114  48.689  1.00  0.00     0.000 C 
BRANCH   5   6
ATOM      6  C   UNL     1      60.150  20.167  49.809  1.00  0.00     0.006 C 
BRANCH   6   7
ATOM      7  C   UNL     1      59.397  18.942  49.275  1.00  0.00     0.053 C 
BRANCH   7   8
ATOM      8  C   UNL     1      58.349  18.508  50.251  1.00  0.00     0.041 C 
ATOM      9  O   UNL     1      57.989  19.278  51.179  1.00  0.00    -0.550 OA
ATOM     10  O   UNL     1      57.803  17.233  50.163  1.00  0.00    -0.550 OA
ENDBRANCH   7   8
ENDBRANCH   6   7
ENDBRANCH   5   6
ENDBRANCH   4   5
ENDBRANCH   3   4
ENDBRANCH   2   3
ENDBRANCH   1   2
BRANCH   1  11
ATOM     11  C   UNL     1      59.952  26.013  48.986  1.00  0.00     0.000 C 
BRANCH  11  12
ATOM     12  C   UNL     1      59.742  27.490  48.613  1.00  0.00    -0.000 C 
BRANCH  12  13
ATOM     13  C   UNL     1      59.001  28.279  49.709  1.00  0.00    -0.000 C 
BRANCH  13  14
ATOM     14  C   UNL     1      57.540  28.579  49.338  1.00  0.00    -0.000 C 
BRANCH  14  15
ATOM     15  C   UNL     1      56.544  28.024  50.370  1.00  0.00    -0.000 C 
BRANCH  15  16
ATOM     16  C   UNL     1      57.232  27.497  51.643  1.00  0.00    -0.000 C 
BRANCH  16  17
ATOM     17  C   UNL     1      56.957  26.017  51.966  1.00  0.00    -0.003 C 
ATOM     18  C   UNL     1      56.814  25.148  50.718  1.00  0.00     0.004 C 
ENDBRANCH  16  17
ENDBRANCH  15  16
ENDBRANCH  14  15
ENDBRANCH  13  14
ENDBRANCH  12  13
ENDBRANCH  11  12
ENDBRANCH   1  11
TORSDOF 14
ENDMDL
MODEL 5
REMARK VINA RESULT:    -3.554      4.040      8.170
REMARK INTER + INTRA:          -7.500
REMARK INTER:                  -5.985
REMARK INTRA:                  -1.515
REMARK UNBOUND:                -1.037
REMARK SMILES CCCCCCCCCCCCCCCC(=O)[O-]
REMARK SMILES IDX 9 1 10 2 11 3 12 4 13 5 14 6 15 7 16 8 17 9 18 10 8 11 7 12
REMARK SMILES IDX 6 13 5 14 4 15 3 16 2 17 1 18
REMARK H PARENT
REMARK Flexibility Score: inf
ROOT
ATOM      1  C   UNL     1      60.385  20.248  49.056  1.00  0.00     0.000 C 
ENDROOT
BRANCH   1   2
ATOM      2  C   UNL     1      60.779  21.671  48.617  1.00  0.00     0.000 C 
BRANCH   2   3
ATOM      3  C   UNL     1      61.832  22.361  49.505  1.00  0.00     0.000 C 
BRANCH   3   4
ATOM      4  C   UNL     1      61.372  23.728  50.030  1.00  0.00     0.000 C 
BRANCH   4   5
ATOM      5  C   UNL     1      59.839  23.810  50.077  1.00  0.00     0.000 C 
BRANCH   5   6
ATOM      6  C   UNL     1      59.325  25.255  50.178  1.00  0.00     0.006 C 
BRANCH   6   7
ATOM      7  C   UNL     1      59.180  25.927  48.806  1.00  0.00     0.053 C 
BRANCH   7   8
ATOM      8  C   UNL     1      59.947  27.211  48.771  1.00  0.00     0.041 C 
ATOM      9  O   UNL     1      59.341  28.314  48.822  1.00  0.00    -0.550 OA
ATOM     10  O   UNL     1      61.329  27.192  48.633  1.00  0.00    -0.550 OA
ENDBRANCH   7   8
ENDBRANCH   6   7
ENDBRANCH   5   6
ENDBRANCH   4   5
ENDBRANCH   3   4
ENDBRANCH   2   3
ENDBRANCH   1   2
BRANCH   1  11
ATOM     11  C   UNL     1      60.110  20.141  50.566  1.00  0.00     0.000 C 
BRANCH  11  12
ATOM     12  C   UNL     1      61.097  19.202  51.279  1.00  0.00    -0.000 C 
BRANCH  12  13
ATOM     13  C   UNL     1      60.400  17.994  51.933  1.00  0.00    -0.000 C 
BRANCH  13  14
ATOM     14  C   UNL     1      60.099  16.869  50.930  1.00  0.00    -0.000 C 
BRANCH  14  15
ATOM     15  C   UNL     1      58.654  16.354  51.038  1.00  0.00    -0.000 C 
BRANCH  15  16
ATOM     16  C   UNL     1      57.798  16.709  49.808  1.00  0.00    -0.000 C 
BRANCH  16  17
ATOM     17  C   UNL     1      57.145  18.103  49.850  1.00  0.00    -0.003 C 
ATOM     18  C   UNL     1      56.575  18.457  51.223  1.00  0.00     0.004 C 
ENDBRANCH  16  17
ENDBRANCH  15  16
ENDBRANCH  14  15
ENDBRANCH  13  14
ENDBRANCH  12  13
ENDBRANCH  11  12
ENDBRANCH   1  11
TORSDOF 14
ENDMDL
MODEL 6
REMARK VINA RESULT:    -3.553      1.160      1.877
REMARK INTER + INTRA:          -7.499
REMARK INTER:                  -6.778
REMARK INTRA:                  -0.720
REMARK UNBOUND:                -1.037
REMARK SMILES CCCCCCCCCCCCCCCC(=O)[O-]
REMARK SMILES IDX 9 1 10 2 11 3 12 4 13 5 14 6 15 7 16 8 17 9 18 10 8 11 7 12
REMARK SMILES IDX 6 13 5 14 4 15 3 16 2 17 1 18
REMARK H PARENT
REMARK Flexibility Score: inf
ROOT
ATOM      1  C   UNL     1      61.856  22.383  49.527  1.00  0.00     0.000 C 
ENDROOT
BRANCH   1   2
ATOM      2  C   UNL     1      60.793  21.391  49.018  1.00  0.00     0.000 C 
BRANCH   2   3
ATOM      3  C   UNL     1      60.489  20.215  49.966  1.00  0.00     0.000 C 
BRANCH   3   4
ATOM      4  C   UNL     1      59.603  19.139  49.323  1.00  0.00     0.000 C 
BRANCH   4   5
ATOM      5  C   UNL     1      59.768  17.792  50.043  1.00  0.00     0.000 C 
BRANCH   5   6
ATOM      6  C   UNL     1      58.452  17.279  50.649  1.00  0.00     0.006 C 
BRANCH   6   7
ATOM      7  C   UNL     1      57.263  17.432  49.693  1.00  0.00     0.053 C 
BRANCH   7   8
ATOM      8  C   UNL     1      56.176  18.234  50.337  1.00  0.00     0.041 C 
ATOM      9  O   UNL     1      55.103  18.460  49.719  1.00  0.00    -0.550 OA
ATOM     10  O   UNL     1      56.368  18.773  51.603  1.00  0.00    -0.550 OA
ENDBRANCH   7   8
ENDBRANCH   6   7
ENDBRANCH   5   6
ENDBRANCH   4   5
ENDBRANCH   3   4
ENDBRANCH   2   3
ENDBRANCH   1   2
BRANCH   1  11
ATOM     11  C   UNL     1      61.312  23.812  49.692  1.00  0.00     0.000 C 
BRANCH  11  12
ATOM     12  C   UNL     1      59.783  23.845  49.851  1.00  0.00    -0.000 C 
BRANCH  12  13
ATOM     13  C   UNL     1      59.236  25.273  50.038  1.00  0.00    -0.000 C 
BRANCH  13  14
ATOM     14  C   UNL     1      59.401  26.141  48.781  1.00  0.00    -0.000 C 
BRANCH  14  15
ATOM     15  C   UNL     1      59.080  27.622  49.041  1.00  0.00    -0.000 C 
BRANCH  15  16
ATOM     16  C   UNL     1      58.070  27.824  50.185  1.00  0.00    -0.000 C 
BRANCH  16  17
ATOM     17  C   UNL     1      56.617  28.064  49.735  1.00  0.00    -0.003 C 
ATOM     18  C   UNL     1      56.167  29.513  49.913  1.00  0.00     0.004 C 
ENDBRANCH  16  17
ENDBRANCH  15  16
ENDBRANCH  14  15
ENDBRANCH  13  14
ENDBRANCH  12  13
ENDBRANCH  11  12
ENDBRANCH   1  11
TORSDOF 14
ENDMDL
MODEL 7
REMARK VINA RESULT:    -3.515      4.498      7.571
REMARK INTER + INTRA:          -7.429
REMARK INTER:                  -4.994
REMARK INTRA:                  -2.436
REMARK UNBOUND:                -1.037
REMARK SMILES CCCCCCCCCCCCCCCC(=O)[O-]
REMARK SMILES IDX 9 1 10 2 11 3 12 4 13 5 14 6 15 7 16 8 17 9 18 10 8 11 7 12
REMARK SMILES IDX 6 13 5 14 4 15 3 16 2 17 1 18
REMARK H PARENT
REMARK Flexibility Score: inf
ROOT
ATOM      1  C   UNL     1      57.863  17.099  49.404  1.00  0.00     0.000 C 
ENDROOT
BRANCH   1   2
ATOM      2  C   UNL     1      58.190  16.252  50.648  1.00  0.00     0.000 C 
BRANCH   2   3
ATOM      3  C   UNL     1      59.279  16.835  51.569  1.00  0.00     0.000 C 
BRANCH   3   4
ATOM      4  C   UNL     1      60.579  17.170  50.824  1.00  0.00     0.000 C 
BRANCH   4   5
ATOM      5  C   UNL     1      61.067  18.582  51.180  1.00  0.00     0.000 C 
BRANCH   5   6
ATOM      6  C   UNL     1      60.312  19.681  50.417  1.00  0.00     0.006 C 
BRANCH   6   7
ATOM      7  C   UNL     1      60.943  21.067  50.600  1.00  0.00     0.053 C 
BRANCH   7   8
ATOM      8  C   UNL     1      60.722  21.906  49.382  1.00  0.00     0.041 C 
ATOM      9  O   UNL     1      60.352  23.105  49.495  1.00  0.00    -0.550 OA
ATOM     10  O   UNL     1      60.876  21.350  48.118  1.00  0.00    -0.550 OA
ENDBRANCH   7   8
ENDBRANCH   6   7
ENDBRANCH   5   6
ENDBRANCH   4   5
ENDBRANCH   3   4
ENDBRANCH   2   3
ENDBRANCH   1   2
BRANCH   1  11
ATOM     11  C   UNL     1      57.022  18.345  49.731  1.00  0.00     0.000 C 
BRANCH  11  12
ATOM     12  C   UNL     1      55.862  18.036  50.691  1.00  0.00    -0.000 C 
BRANCH  12  13
ATOM     13  C   UNL     1      55.863  18.944  51.936  1.00  0.00    -0.000 C 
BRANCH  13  14
ATOM     14  C   UNL     1      55.997  18.153  53.246  1.00  0.00    -0.000 C 
BRANCH  14  15
ATOM     15  C   UNL     1      57.225  18.578  54.068  1.00  0.00    -0.000 C 
BRANCH  15  16
ATOM     16  C   UNL     1      57.948  19.802  53.476  1.00  0.00    -0.000 C 
BRANCH  16  17
ATOM     17  C   UNL     1      59.357  20.062  54.039  1.00  0.00    -0.003 C 
ATOM     18  C   UNL     1      59.959  18.841  54.733  1.00  0.00     0.004 C 
ENDBRANCH  16  17
ENDBRANCH  15  16
ENDBRANCH  14  15
ENDBRANCH  13  14
ENDBRANCH  12  13
ENDBRANCH  11  12
ENDBRANCH   1  11
TORSDOF 14
ENDMDL
MODEL 8
REMARK VINA RESULT:    -3.478      5.927      8.370
REMARK INTER + INTRA:          -7.361
REMARK INTER:                  -5.529
REMARK INTRA:                  -1.832
REMARK UNBOUND:                -1.037
REMARK SMILES CCCCCCCCCCCCCCCC(=O)[O-]
REMARK SMILES IDX 9 1 10 2 11 3 12 4 13 5 14 6 15 7 16 8 17 9 18 10 8 11 7 12
REMARK SMILES IDX 6 13 5 14 4 15 3 16 2 17 1 18
REMARK H PARENT
REMARK Flexibility Score: inf
ROOT
ATOM      1  C   UNL     1      62.282  27.310  50.118  1.00  0.00     0.000 C 
ENDROOT
BRANCH   1   2
ATOM      2  C   UNL     1      62.874  25.889  50.139  1.00  0.00     0.000 C 
BRANCH   2   3
ATOM      3  C   UNL     1      63.842  25.566  48.984  1.00  0.00     0.000 C 
BRANCH   3   4
ATOM      4  C   UNL     1      64.782  26.731  48.646  1.00  0.00     0.000 C 
BRANCH   4   5
ATOM      5  C   UNL     1      64.524  27.248  47.223  1.00  0.00     0.000 C 
BRANCH   5   6
ATOM      6  C   UNL     1      64.574  28.782  47.131  1.00  0.00     0.006 C 
BRANCH   6   7
ATOM      7  C   UNL     1      64.849  29.445  48.486  1.00  0.00     0.053 C 
BRANCH   7   8
ATOM      8  C   UNL     1      64.053  30.705  48.621  1.00  0.00     0.041 C 
ATOM      9  O   UNL     1      62.827  30.655  48.902  1.00  0.00    -0.550 OA
ATOM     10  O   UNL     1      64.656  31.935  48.388  1.00  0.00    -0.550 OA
ENDBRANCH   7   8
ENDBRANCH   6   7
ENDBRANCH   5   6
ENDBRANCH   4   5
ENDBRANCH   3   4
ENDBRANCH   2   3
ENDBRANCH   1   2
BRANCH   1  11
ATOM     11  C   UNL     1      61.229  27.504  49.014  1.00  0.00     0.000 C 
BRANCH  11  12
ATOM     12  C   UNL     1      60.079  28.425  49.452  1.00  0.00    -0.000 C 
BRANCH  12  13
ATOM     13  C   UNL     1      58.798  28.212  48.624  1.00  0.00    -0.000 C 
BRANCH  13  14
ATOM     14  C   UNL     1      57.519  28.500  49.425  1.00  0.00    -0.000 C 
BRANCH  14  15
ATOM     15  C   UNL     1      57.130  27.337  50.353  1.00  0.00    -0.000 C 
BRANCH  15  16
ATOM     16  C   UNL     1      57.365  25.956  49.713  1.00  0.00    -0.000 C 
BRANCH  16  17
ATOM     17  C   UNL     1      58.224  24.989  50.549  1.00  0.00    -0.003 C 
ATOM     18  C   UNL     1      59.424  24.437  49.780  1.00  0.00     0.004 C 
ENDBRANCH  16  17
ENDBRANCH  15  16
ENDBRANCH  14  15
ENDBRANCH  13  14
ENDBRANCH  12  13
ENDBRANCH  11  12
ENDBRANCH   1  11
TORSDOF 14
ENDMDL
