MODEL 1
REMARK VINA RESULT:    -7.579      0.000      0.000
REMARK INTER + INTRA:          -9.086
REMARK INTER:                  -9.351
REMARK INTRA:                   0.265
REMARK UNBOUND:                 0.265
REMARK SMILES Oc1cc(O)c2cc(O)c(-c3cc(O)c(O)c(O)c3)[o+]c2c1
REMARK SMILES IDX 10 1 20 2 21 3 22 4 2 5 3 6 4 7 6 8 7 9 8 10 11 11 12 12
REMARK SMILES IDX 13 13 19 14 15 15 17 16 14 17 16 19 18 21 9 23 1 25 5 27
REMARK H PARENT 14 18 16 20 18 22 9 24 1 26 5 28
REMARK Flexibility Score: inf
ROOT
ATOM      1  C   UNL     1     -23.077  84.978 -23.374  1.00  0.00     0.402 A 
ATOM      2  O   UNL     1     -22.731  86.251 -23.552  1.00  0.00    -0.202 OA
ATOM      3  C   UNL     1     -23.076  86.959 -24.622  1.00  0.00     0.368 A 
ATOM      4  C   UNL     1     -22.661  88.289 -24.721  1.00  0.00     0.162 A 
ATOM      5  C   UNL     1     -23.006  89.055 -25.834  1.00  0.00     0.128 A 
ATOM      6  C   UNL     1     -23.773  88.489 -26.859  1.00  0.00     0.093 A 
ATOM      7  C   UNL     1     -24.200  87.158 -26.784  1.00  0.00     0.136 A 
ATOM      8  C   UNL     1     -23.853  86.376 -25.653  1.00  0.00     0.125 A 
ATOM      9  C   UNL     1     -24.250  85.039 -25.487  1.00  0.00     0.078 A 
ATOM     10  C   UNL     1     -23.872  84.333 -24.340  1.00  0.00     0.223 A 
ENDROOT
BRANCH   1  11
ATOM     11  C   UNL     1     -22.623  84.294 -22.143  1.00  0.00     0.091 A 
ATOM     12  C   UNL     1     -22.191  85.057 -21.048  1.00  0.00     0.068 A 
ATOM     13  C   UNL     1     -21.734  84.443 -19.876  1.00  0.00     0.162 A 
ATOM     14  C   UNL     1     -22.560  82.894 -22.065  1.00  0.00     0.068 A 
ATOM     15  C   UNL     1     -21.696  83.030 -19.797  1.00  0.00     0.200 A 
ATOM     16  C   UNL     1     -22.105  82.266 -20.899  1.00  0.00     0.162 A 
BRANCH  13  17
ATOM     17  O   UNL     1     -21.333  85.268 -18.824  1.00  0.00    -0.504 OA
ATOM     18  H   UNL     1     -20.389  85.313 -18.467  1.00  0.00     0.293 HD
ENDBRANCH  13  17
BRANCH  15  19
ATOM     19  O   UNL     1     -21.258  82.354 -18.655  1.00  0.00    -0.502 OA
ATOM     20  H   UNL     1     -21.618  81.460 -18.354  1.00  0.00     0.293 HD
ENDBRANCH  15  19
BRANCH  16  21
ATOM     21  O   UNL     1     -22.052  80.875 -20.827  1.00  0.00    -0.504 OA
ATOM     22  H   UNL     1     -22.780  80.295 -21.228  1.00  0.00     0.293 HD
ENDBRANCH  16  21
ENDBRANCH   1  11
BRANCH  10  23
ATOM     23  O   UNL     1     -24.307  83.021 -24.151  1.00  0.00    -0.500 OA
ATOM     24  H   UNL     1     -25.261  82.743 -24.350  1.00  0.00     0.294 HD
ENDBRANCH  10  23
BRANCH   5  25
ATOM     25  O   UNL     1     -22.583  90.380 -25.914  1.00  0.00    -0.507 OA
ATOM     26  H   UNL     1     -21.965  90.696 -26.652  1.00  0.00     0.293 HD
ENDBRANCH   5  25
BRANCH   7  27
ATOM     27  O   UNL     1     -24.959  86.665 -27.851  1.00  0.00    -0.507 OA
ATOM     28  H   UNL     1     -25.810  87.089 -28.189  1.00  0.00     0.293 HD
ENDBRANCH   7  27
TORSDOF 7
ENDMDL
MODEL 2
REMARK VINA RESULT:    -7.512      0.092      1.801
REMARK INTER + INTRA:          -9.004
REMARK INTER:                  -9.363
REMARK INTRA:                   0.359
REMARK UNBOUND:                 0.265
REMARK SMILES Oc1cc(O)c2cc(O)c(-c3cc(O)c(O)c(O)c3)[o+]c2c1
REMARK SMILES IDX 10 1 20 2 21 3 22 4 2 5 3 6 4 7 6 8 7 9 8 10 11 11 12 12
REMARK SMILES IDX 13 13 19 14 15 15 17 16 14 17 16 19 18 21 9 23 1 25 5 27
REMARK H PARENT 14 18 16 20 18 22 9 24 1 26 5 28
REMARK Flexibility Score: inf
ROOT
ATOM      1  C   UNL     1     -23.053  84.993 -23.433  1.00  0.00     0.402 A 
ATOM      2  O   UNL     1     -22.715  86.265 -23.630  1.00  0.00    -0.202 OA
ATOM      3  C   UNL     1     -23.073  86.958 -24.705  1.00  0.00     0.368 A 
ATOM      4  C   UNL     1     -22.666  88.289 -24.824  1.00  0.00     0.162 A 
ATOM      5  C   UNL     1     -23.026  89.040 -25.943  1.00  0.00     0.128 A 
ATOM      6  C   UNL     1     -23.798  88.457 -26.955  1.00  0.00     0.093 A 
ATOM      7  C   UNL     1     -24.218  87.124 -26.860  1.00  0.00     0.136 A 
ATOM      8  C   UNL     1     -23.856  86.358 -25.722  1.00  0.00     0.125 A 
ATOM      9  C   UNL     1     -24.244  85.021 -25.536  1.00  0.00     0.078 A 
ATOM     10  C   UNL     1     -23.853  84.331 -24.385  1.00  0.00     0.223 A 
ENDROOT
BRANCH   1  11
ATOM     11  C   UNL     1     -22.584  84.326 -22.198  1.00  0.00     0.091 A 
ATOM     12  C   UNL     1     -22.589  82.926 -22.124  1.00  0.00     0.068 A 
ATOM     13  C   UNL     1     -22.172  82.263 -20.963  1.00  0.00     0.162 A 
ATOM     14  C   UNL     1     -22.186  85.066 -21.074  1.00  0.00     0.068 A 
ATOM     15  C   UNL     1     -21.751  83.016 -19.842  1.00  0.00     0.200 A 
ATOM     16  C   UNL     1     -21.767  84.417 -19.906  1.00  0.00     0.162 A 
BRANCH  13  17
ATOM     17  O   UNL     1     -22.193  80.867 -20.970  1.00  0.00    -0.504 OA
ATOM     18  H   UNL     1     -22.312  80.306 -21.802  1.00  0.00     0.293 HD
ENDBRANCH  13  17
BRANCH  15  19
ATOM     19  O   UNL     1     -21.317  82.418 -18.656  1.00  0.00    -0.502 OA
ATOM     20  H   UNL     1     -21.413  82.838 -17.743  1.00  0.00     0.293 HD
ENDBRANCH  15  19
BRANCH  16  21
ATOM     21  O   UNL     1     -21.367  85.159 -18.796  1.00  0.00    -0.504 OA
ATOM     22  H   UNL     1     -21.961  85.877 -18.396  1.00  0.00     0.293 HD
ENDBRANCH  16  21
ENDBRANCH   1  11
BRANCH  10  23
ATOM     23  O   UNL     1     -24.278  83.020 -24.176  1.00  0.00    -0.500 OA
ATOM     24  H   UNL     1     -23.629  82.282 -23.932  1.00  0.00     0.294 HD
ENDBRANCH  10  23
BRANCH   5  25
ATOM     25  O   UNL     1     -22.611  90.366 -26.042  1.00  0.00    -0.507 OA
ATOM     26  H   UNL     1     -23.258  91.135 -25.911  1.00  0.00     0.293 HD
ENDBRANCH   5  25
BRANCH   7  27
ATOM     27  O   UNL     1     -24.983  86.614 -27.914  1.00  0.00    -0.507 OA
ATOM     28  H   UNL     1     -25.218  87.130 -28.749  1.00  0.00     0.293 HD
ENDBRANCH   7  27
TORSDOF 7
ENDMDL
MODEL 3
REMARK VINA RESULT:    -7.484      1.776      2.933
REMARK INTER + INTRA:          -8.969
REMARK INTER:                  -8.602
REMARK INTRA:                  -0.367
REMARK UNBOUND:                 0.265
REMARK SMILES Oc1cc(O)c2cc(O)c(-c3cc(O)c(O)c(O)c3)[o+]c2c1
REMARK SMILES IDX 10 1 20 2 21 3 22 4 2 5 3 6 4 7 6 8 7 9 8 10 11 11 12 12
REMARK SMILES IDX 13 13 19 14 15 15 17 16 14 17 16 19 18 21 9 23 1 25 5 27
REMARK H PARENT 14 18 16 20 18 22 9 24 1 26 5 28
REMARK Flexibility Score: inf
ROOT
ATOM      1  C   UNL     1     -22.672  85.528 -23.846  1.00  0.00     0.402 A 
ATOM      2  O   UNL     1     -23.643  85.693 -24.741  1.00  0.00    -0.202 OA
ATOM      3  C   UNL     1     -23.846  86.830 -25.398  1.00  0.00     0.368 A 
ATOM      4  C   UNL     1     -24.896  86.908 -26.316  1.00  0.00     0.162 A 
ATOM      5  C   UNL     1     -25.134  88.089 -27.018  1.00  0.00     0.128 A 
ATOM      6  C   UNL     1     -24.316  89.204 -26.801  1.00  0.00     0.093 A 
ATOM      7  C   UNL     1     -23.257  89.152 -25.887  1.00  0.00     0.136 A 
ATOM      8  C   UNL     1     -23.011  87.952 -25.172  1.00  0.00     0.125 A 
ATOM      9  C   UNL     1     -21.965  87.804 -24.247  1.00  0.00     0.078 A 
ATOM     10  C   UNL     1     -21.782  86.587 -23.584  1.00  0.00     0.223 A 
ENDROOT
BRANCH   1  11
ATOM     11  C   UNL     1     -22.555  84.215 -23.173  1.00  0.00     0.091 A 
ATOM     12  C   UNL     1     -23.302  83.965 -22.013  1.00  0.00     0.068 A 
ATOM     13  C   UNL     1     -23.200  82.742 -21.339  1.00  0.00     0.162 A 
ATOM     14  C   UNL     1     -21.667  83.232 -23.637  1.00  0.00     0.068 A 
ATOM     15  C   UNL     1     -22.320  81.747 -21.827  1.00  0.00     0.200 A 
ATOM     16  C   UNL     1     -21.554  82.004 -22.973  1.00  0.00     0.162 A 
BRANCH  13  17
ATOM     17  O   UNL     1     -23.985  82.562 -20.198  1.00  0.00    -0.504 OA
ATOM     18  H   UNL     1     -23.660  82.725 -19.256  1.00  0.00     0.293 HD
ENDBRANCH  13  17
BRANCH  15  19
ATOM     19  O   UNL     1     -22.174  80.503 -21.206  1.00  0.00    -0.502 OA
ATOM     20  H   UNL     1     -22.665  79.668 -21.491  1.00  0.00     0.293 HD
ENDBRANCH  15  19
BRANCH  16  21
ATOM     21  O   UNL     1     -20.675  81.030 -23.444  1.00  0.00    -0.504 OA
ATOM     22  H   UNL     1     -19.813  81.277 -23.917  1.00  0.00     0.293 HD
ENDBRANCH  16  21
ENDBRANCH   1  11
BRANCH  10  23
ATOM     23  O   UNL     1     -20.713  86.423 -22.702  1.00  0.00    -0.500 OA
ATOM     24  H   UNL     1     -19.932  87.068 -22.687  1.00  0.00     0.294 HD
ENDBRANCH  10  23
BRANCH   5  25
ATOM     25  O   UNL     1     -26.185  88.146 -27.930  1.00  0.00    -0.507 OA
ATOM     26  H   UNL     1     -26.230  87.523 -28.727  1.00  0.00     0.293 HD
ENDBRANCH   5  25
BRANCH   7  27
ATOM     27  O   UNL     1     -22.489  90.310 -25.725  1.00  0.00    -0.507 OA
ATOM     28  H   UNL     1     -22.113  90.625 -24.842  1.00  0.00     0.293 HD
ENDBRANCH   7  27
TORSDOF 7
ENDMDL
MODEL 4
REMARK VINA RESULT:    -7.079      3.303      7.284
REMARK INTER + INTRA:          -8.469
REMARK INTER:                  -8.110
REMARK INTRA:                  -0.360
REMARK UNBOUND:                 0.265
REMARK SMILES Oc1cc(O)c2cc(O)c(-c3cc(O)c(O)c(O)c3)[o+]c2c1
REMARK SMILES IDX 10 1 20 2 21 3 22 4 2 5 3 6 4 7 6 8 7 9 8 10 11 11 12 12
REMARK SMILES IDX 13 13 19 14 15 15 17 16 14 17 16 19 18 21 9 23 1 25 5 27
REMARK H PARENT 14 18 16 20 18 22 9 24 1 26 5 28
REMARK Flexibility Score: inf
ROOT
ATOM      1  C   UNL     1     -22.816  82.283 -23.310  1.00  0.00     0.402 A 
ATOM      2  O   UNL     1     -22.070  81.484 -24.068  1.00  0.00    -0.202 OA
ATOM      3  C   UNL     1     -22.100  80.158 -23.982  1.00  0.00     0.368 A 
ATOM      4  C   UNL     1     -21.275  79.402 -24.819  1.00  0.00     0.162 A 
ATOM      5  C   UNL     1     -21.284  78.010 -24.750  1.00  0.00     0.128 A 
ATOM      6  C   UNL     1     -22.125  77.364 -23.836  1.00  0.00     0.093 A 
ATOM      7  C   UNL     1     -22.961  78.098 -22.986  1.00  0.00     0.136 A 
ATOM      8  C   UNL     1     -22.956  79.515 -23.055  1.00  0.00     0.125 A 
ATOM      9  C   UNL     1     -23.770  80.330 -22.253  1.00  0.00     0.078 A 
ATOM     10  C   UNL     1     -23.713  81.721 -22.382  1.00  0.00     0.223 A 
ENDROOT
BRANCH   1  11
ATOM     11  C   UNL     1     -22.685  83.746 -23.494  1.00  0.00     0.091 A 
ATOM     12  C   UNL     1     -23.586  84.421 -24.328  1.00  0.00     0.068 A 
ATOM     13  C   UNL     1     -23.478  85.801 -24.541  1.00  0.00     0.162 A 
ATOM     14  C   UNL     1     -21.640  84.466 -22.895  1.00  0.00     0.068 A 
ATOM     15  C   UNL     1     -22.436  86.524 -23.915  1.00  0.00     0.200 A 
ATOM     16  C   UNL     1     -21.519  85.846 -23.098  1.00  0.00     0.162 A 
BRANCH  13  17
ATOM     17  O   UNL     1     -24.421  86.405 -25.375  1.00  0.00    -0.504 OA
ATOM     18  H   UNL     1     -24.202  86.822 -26.268  1.00  0.00     0.293 HD
ENDBRANCH  13  17
BRANCH  15  19
ATOM     19  O   UNL     1     -22.275  87.903 -24.079  1.00  0.00    -0.502 OA
ATOM     20  H   UNL     1     -22.868  88.476 -24.660  1.00  0.00     0.293 HD
ENDBRANCH  15  19
BRANCH  16  21
ATOM     21  O   UNL     1     -20.482  86.556 -22.495  1.00  0.00    -0.504 OA
ATOM     22  H   UNL     1     -20.039  86.227 -21.644  1.00  0.00     0.293 HD
ENDBRANCH  16  21
ENDBRANCH   1  11
BRANCH  10  23
ATOM     23  O   UNL     1     -24.557  82.530 -21.620  1.00  0.00    -0.500 OA
ATOM     24  H   UNL     1     -24.232  83.394 -21.203  1.00  0.00     0.294 HD
ENDBRANCH  10  23
BRANCH   5  25
ATOM     25  O   UNL     1     -20.455  77.274 -25.593  1.00  0.00    -0.507 OA
ATOM     26  H   UNL     1     -19.900  76.500 -25.248  1.00  0.00     0.293 HD
ENDBRANCH   5  25
BRANCH   7  27
ATOM     27  O   UNL     1     -23.768  77.378 -22.098  1.00  0.00    -0.507 OA
ATOM     28  H   UNL     1     -23.852  76.372 -22.092  1.00  0.00     0.293 HD
ENDBRANCH   7  27
TORSDOF 7
ENDMDL
MODEL 5
REMARK VINA RESULT:    -7.079      1.757      6.831
REMARK INTER + INTRA:          -8.469
REMARK INTER:                  -8.093
REMARK INTRA:                  -0.376
REMARK UNBOUND:                 0.265
REMARK SMILES Oc1cc(O)c2cc(O)c(-c3cc(O)c(O)c(O)c3)[o+]c2c1
REMARK SMILES IDX 10 1 20 2 21 3 22 4 2 5 3 6 4 7 6 8 7 9 8 10 11 11 12 12
REMARK SMILES IDX 13 13 19 14 15 15 17 16 14 17 16 19 18 21 9 23 1 25 5 27
REMARK H PARENT 14 18 16 20 18 22 9 24 1 26 5 28
REMARK Flexibility Score: inf
ROOT
ATOM      1  C   UNL     1     -23.630  85.273 -23.856  1.00  0.00     0.402 A 
ATOM      2  O   UNL     1     -23.171  85.160 -22.612  1.00  0.00    -0.202 OA
ATOM      3  C   UNL     1     -22.723  84.019 -22.099  1.00  0.00     0.368 A 
ATOM      4  C   UNL     1     -22.265  83.999 -20.779  1.00  0.00     0.162 A 
ATOM      5  C   UNL     1     -21.791  82.815 -20.215  1.00  0.00     0.128 A 
ATOM      6  C   UNL     1     -21.776  81.639 -20.974  1.00  0.00     0.093 A 
ATOM      7  C   UNL     1     -22.230  81.632 -22.298  1.00  0.00     0.136 A 
ATOM      8  C   UNL     1     -22.710  82.835 -22.877  1.00  0.00     0.125 A 
ATOM      9  C   UNL     1     -23.172  82.925 -24.200  1.00  0.00     0.078 A 
ATOM     10  C   UNL     1     -23.626  84.149 -24.702  1.00  0.00     0.223 A 
ENDROOT
BRANCH   1  11
ATOM     11  C   UNL     1     -24.111  86.598 -24.307  1.00  0.00     0.091 A 
ATOM     12  C   UNL     1     -23.183  87.577 -24.688  1.00  0.00     0.068 A 
ATOM     13  C   UNL     1     -23.602  88.848 -25.100  1.00  0.00     0.162 A 
ATOM     14  C   UNL     1     -25.478  86.918 -24.309  1.00  0.00     0.068 A 
ATOM     15  C   UNL     1     -24.983  89.155 -25.121  1.00  0.00     0.200 A 
ATOM     16  C   UNL     1     -25.912  88.185 -24.718  1.00  0.00     0.162 A 
BRANCH  13  17
ATOM     17  O   UNL     1     -22.619  89.766 -25.477  1.00  0.00    -0.504 OA
ATOM     18  H   UNL     1     -21.836  89.543 -26.074  1.00  0.00     0.293 HD
ENDBRANCH  13  17
BRANCH  15  19
ATOM     19  O   UNL     1     -25.469  90.401 -25.527  1.00  0.00    -0.502 OA
ATOM     20  H   UNL     1     -25.495  90.712 -26.487  1.00  0.00     0.293 HD
ENDBRANCH  15  19
BRANCH  16  21
ATOM     21  O   UNL     1     -27.272  88.492 -24.723  1.00  0.00    -0.504 OA
ATOM     22  H   UNL     1     -27.765  88.701 -25.584  1.00  0.00     0.293 HD
ENDBRANCH  16  21
ENDBRANCH   1  11
BRANCH  10  23
ATOM     23  O   UNL     1     -24.038  84.250 -26.031  1.00  0.00    -0.500 OA
ATOM     24  H   UNL     1     -24.625  85.011 -26.350  1.00  0.00     0.294 HD
ENDBRANCH  10  23
BRANCH   5  25
ATOM     25  O   UNL     1     -21.338  82.816 -18.898  1.00  0.00    -0.507 OA
ATOM     26  H   UNL     1     -21.805  83.353 -18.176  1.00  0.00     0.293 HD
ENDBRANCH   5  25
BRANCH   7  27
ATOM     27  O   UNL     1     -22.186  80.417 -22.987  1.00  0.00    -0.507 OA
ATOM     28  H   UNL     1     -22.063  80.332 -23.986  1.00  0.00     0.293 HD
ENDBRANCH   7  27
TORSDOF 7
ENDMDL
MODEL 6
REMARK VINA RESULT:    -6.827      6.534      9.396
REMARK INTER + INTRA:          -8.159
REMARK INTER:                  -7.882
REMARK INTRA:                  -0.277
REMARK UNBOUND:                 0.265
REMARK SMILES Oc1cc(O)c2cc(O)c(-c3cc(O)c(O)c(O)c3)[o+]c2c1
REMARK SMILES IDX 10 1 20 2 21 3 22 4 2 5 3 6 4 7 6 8 7 9 8 10 11 11 12 12
REMARK SMILES IDX 13 13 19 14 15 15 17 16 14 17 16 19 18 21 9 23 1 25 5 27
REMARK H PARENT 14 18 16 20 18 22 9 24 1 26 5 28
REMARK Flexibility Score: inf
ROOT
ATOM      1  C   UNL     1     -24.989  91.837 -28.499  1.00  0.00     0.402 A 
ATOM      2  O   UNL     1     -24.376  92.396 -29.539  1.00  0.00    -0.202 OA
ATOM      3  C   UNL     1     -24.328  93.709 -29.739  1.00  0.00     0.368 A 
ATOM      4  C   UNL     1     -23.663  94.202 -30.865  1.00  0.00     0.162 A 
ATOM      5  C   UNL     1     -23.599  95.575 -31.101  1.00  0.00     0.128 A 
ATOM      6  C   UNL     1     -24.206  96.465 -30.207  1.00  0.00     0.093 A 
ATOM      7  C   UNL     1     -24.879  95.996 -29.073  1.00  0.00     0.136 A 
ATOM      8  C   UNL     1     -24.944  94.601 -28.827  1.00  0.00     0.125 A 
ATOM      9  C   UNL     1     -25.585  94.042 -27.709  1.00  0.00     0.078 A 
ATOM     10  C   UNL     1     -25.603  92.655 -27.532  1.00  0.00     0.223 A 
ENDROOT
BRANCH   1  11
ATOM     11  C   UNL     1     -24.982  90.361 -28.392  1.00  0.00     0.091 A 
ATOM     12  C   UNL     1     -23.763  89.686 -28.231  1.00  0.00     0.068 A 
ATOM     13  C   UNL     1     -23.716  88.290 -28.147  1.00  0.00     0.162 A 
ATOM     14  C   UNL     1     -26.164  89.613 -28.507  1.00  0.00     0.068 A 
ATOM     15  C   UNL     1     -24.916  87.544 -28.240  1.00  0.00     0.200 A 
ATOM     16  C   UNL     1     -26.133  88.215 -28.425  1.00  0.00     0.162 A 
BRANCH  13  17
ATOM     17  O   UNL     1     -22.467  87.690 -27.973  1.00  0.00    -0.504 OA
ATOM     18  H   UNL     1     -21.886  87.820 -27.158  1.00  0.00     0.293 HD
ENDBRANCH  13  17
BRANCH  15  19
ATOM     19  O   UNL     1     -24.941  86.149 -28.159  1.00  0.00    -0.502 OA
ATOM     20  H   UNL     1     -24.455  85.537 -28.797  1.00  0.00     0.293 HD
ENDBRANCH  15  19
BRANCH  16  21
ATOM     21  O   UNL     1     -27.313  87.481 -28.533  1.00  0.00    -0.504 OA
ATOM     22  H   UNL     1     -27.818  87.414 -29.409  1.00  0.00     0.293 HD
ENDBRANCH  16  21
ENDBRANCH   1  11
BRANCH  10  23
ATOM     23  O   UNL     1     -26.196  92.102 -26.397  1.00  0.00    -0.500 OA
ATOM     24  H   UNL     1     -27.184  92.215 -26.204  1.00  0.00     0.294 HD
ENDBRANCH  10  23
BRANCH   5  25
ATOM     25  O   UNL     1     -22.930  96.047 -32.229  1.00  0.00    -0.507 OA
ATOM     26  H   UNL     1     -22.760  95.453 -33.032  1.00  0.00     0.293 HD
ENDBRANCH   5  25
BRANCH   7  27
ATOM     27  O   UNL     1     -25.462  96.949 -28.231  1.00  0.00    -0.507 OA
ATOM     28  H   UNL     1     -25.522  97.934 -28.441  1.00  0.00     0.293 HD
ENDBRANCH   7  27
TORSDOF 7
ENDMDL
MODEL 7
REMARK VINA RESULT:    -6.755      4.864      8.172
REMARK INTER + INTRA:          -8.070
REMARK INTER:                  -7.692
REMARK INTRA:                  -0.377
REMARK UNBOUND:                 0.265
REMARK SMILES Oc1cc(O)c2cc(O)c(-c3cc(O)c(O)c(O)c3)[o+]c2c1
REMARK SMILES IDX 10 1 20 2 21 3 22 4 2 5 3 6 4 7 6 8 7 9 8 10 11 11 12 12
REMARK SMILES IDX 13 13 19 14 15 15 17 16 14 17 16 19 18 21 9 23 1 25 5 27
REMARK H PARENT 14 18 16 20 18 22 9 24 1 26 5 28
REMARK Flexibility Score: inf
ROOT
ATOM      1  C   UNL     1     -24.130  91.297 -28.176  1.00  0.00     0.402 A 
ATOM      2  O   UNL     1     -24.570  92.501 -27.822  1.00  0.00    -0.202 OA
ATOM      3  C   UNL     1     -24.536  93.558 -28.627  1.00  0.00     0.368 A 
ATOM      4  C   UNL     1     -25.019  94.784 -28.163  1.00  0.00     0.162 A 
ATOM      5  C   UNL     1     -24.993  95.910 -28.985  1.00  0.00     0.128 A 
ATOM      6  C   UNL     1     -24.479  95.812 -30.284  1.00  0.00     0.093 A 
ATOM      7  C   UNL     1     -23.988  94.595 -30.773  1.00  0.00     0.136 A 
ATOM      8  C   UNL     1     -24.015  93.447 -29.940  1.00  0.00     0.125 A 
ATOM      9  C   UNL     1     -23.558  92.184 -30.350  1.00  0.00     0.078 A 
ATOM     10  C   UNL     1     -23.621  91.097 -29.474  1.00  0.00     0.223 A 
ENDROOT
BRANCH   1  11
ATOM     11  C   UNL     1     -24.213  90.201 -27.185  1.00  0.00     0.091 A 
ATOM     12  C   UNL     1     -23.099  89.906 -26.387  1.00  0.00     0.068 A 
ATOM     13  C   UNL     1     -23.136  88.862 -25.454  1.00  0.00     0.162 A 
ATOM     14  C   UNL     1     -25.366  89.410 -27.065  1.00  0.00     0.068 A 
ATOM     15  C   UNL     1     -24.310  88.084 -25.323  1.00  0.00     0.200 A 
ATOM     16  C   UNL     1     -25.417  88.363 -26.136  1.00  0.00     0.162 A 
BRANCH  13  17
ATOM     17  O   UNL     1     -21.991  88.637 -24.686  1.00  0.00    -0.504 OA
ATOM     18  H   UNL     1     -21.516  89.352 -24.155  1.00  0.00     0.293 HD
ENDBRANCH  13  17
BRANCH  15  19
ATOM     19  O   UNL     1     -24.416  87.033 -24.407  1.00  0.00    -0.502 OA
ATOM     20  H   UNL     1     -24.632  86.081 -24.663  1.00  0.00     0.293 HD
ENDBRANCH  15  19
BRANCH  16  21
ATOM     21  O   UNL     1     -26.569  87.586 -26.018  1.00  0.00    -0.504 OA
ATOM     22  H   UNL     1     -26.521  86.581 -25.902  1.00  0.00     0.293 HD
ENDBRANCH  16  21
ENDBRANCH   1  11
BRANCH  10  23
ATOM     23  O   UNL     1     -23.214  89.832 -29.897  1.00  0.00    -0.500 OA
ATOM     24  H   UNL     1     -23.537  89.433 -30.770  1.00  0.00     0.294 HD
ENDBRANCH  10  23
BRANCH   5  25
ATOM     25  O   UNL     1     -25.480  97.123 -28.504  1.00  0.00    -0.507 OA
ATOM     26  H   UNL     1     -25.956  97.782 -29.111  1.00  0.00     0.293 HD
ENDBRANCH   5  25
BRANCH   7  27
ATOM     27  O   UNL     1     -23.488  94.581 -32.078  1.00  0.00    -0.507 OA
ATOM     28  H   UNL     1     -23.606  95.333 -32.742  1.00  0.00     0.293 HD
ENDBRANCH   7  27
TORSDOF 7
ENDMDL
MODEL 8
REMARK VINA RESULT:    -6.600      4.605     10.377
REMARK INTER + INTRA:          -7.878
REMARK INTER:                  -7.637
REMARK INTRA:                  -0.240
REMARK UNBOUND:                 0.265
REMARK SMILES Oc1cc(O)c2cc(O)c(-c3cc(O)c(O)c(O)c3)[o+]c2c1
REMARK SMILES IDX 10 1 20 2 21 3 22 4 2 5 3 6 4 7 6 8 7 9 8 10 11 11 12 12
REMARK SMILES IDX 13 13 19 14 15 15 17 16 14 17 16 19 18 21 9 23 1 25 5 27
REMARK H PARENT 14 18 16 20 18 22 9 24 1 26 5 28
REMARK Flexibility Score: inf
ROOT
ATOM      1  C   UNL     1     -24.489  91.360 -28.441  1.00  0.00     0.402 A 
ATOM      2  O   UNL     1     -23.757  91.026 -27.381  1.00  0.00    -0.202 OA
ATOM      3  C   UNL     1     -23.640  89.778 -26.939  1.00  0.00     0.368 A 
ATOM      4  C   UNL     1     -22.851  89.527 -25.813  1.00  0.00     0.162 A 
ATOM      5  C   UNL     1     -22.711  88.228 -25.326  1.00  0.00     0.128 A 
ATOM      6  C   UNL     1     -23.365  87.169 -25.967  1.00  0.00     0.093 A 
ATOM      7  C   UNL     1     -24.162  87.395 -27.096  1.00  0.00     0.136 A 
ATOM      8  C   UNL     1     -24.305  88.714 -27.596  1.00  0.00     0.125 A 
ATOM      9  C   UNL     1     -25.071  89.032 -28.729  1.00  0.00     0.078 A 
ATOM     10  C   UNL     1     -25.160  90.357 -29.166  1.00  0.00     0.223 A 
ENDROOT
BRANCH   1  11
ATOM     11  C   UNL     1     -24.549  92.787 -28.829  1.00  0.00     0.091 A 
ATOM     12  C   UNL     1     -23.934  93.206 -30.017  1.00  0.00     0.068 A 
ATOM     13  C   UNL     1     -23.953  94.551 -30.404  1.00  0.00     0.162 A 
ATOM     14  C   UNL     1     -25.159  93.744 -28.003  1.00  0.00     0.068 A 
ATOM     15  C   UNL     1     -24.591  95.507 -29.578  1.00  0.00     0.200 A 
ATOM     16  C   UNL     1     -25.186  95.093 -28.378  1.00  0.00     0.162 A 
BRANCH  13  17
ATOM     17  O   UNL     1     -23.331  94.890 -31.608  1.00  0.00    -0.504 OA
ATOM     18  H   UNL     1     -22.448  94.509 -31.915  1.00  0.00     0.293 HD
ENDBRANCH  13  17
BRANCH  15  19
ATOM     19  O   UNL     1     -24.652  96.863 -29.908  1.00  0.00    -0.502 OA
ATOM     20  H   UNL     1     -25.477  97.321 -30.268  1.00  0.00     0.293 HD
ENDBRANCH  15  19
BRANCH  16  21
ATOM     21  O   UNL     1     -25.801  96.037 -27.555  1.00  0.00    -0.504 OA
ATOM     22  H   UNL     1     -25.328  96.423 -26.746  1.00  0.00     0.293 HD
ENDBRANCH  16  21
ENDBRANCH   1  11
BRANCH  10  23
ATOM     23  O   UNL     1     -25.881  90.667 -30.320  1.00  0.00    -0.500 OA
ATOM     24  H   UNL     1     -25.426  90.770 -31.219  1.00  0.00     0.294 HD
ENDBRANCH  10  23
BRANCH   5  25
ATOM     25  O   UNL     1     -21.919  87.997 -24.203  1.00  0.00    -0.507 OA
ATOM     26  H   UNL     1     -22.087  87.208 -23.589  1.00  0.00     0.293 HD
ENDBRANCH   5  25
BRANCH   7  27
ATOM     27  O   UNL     1     -24.785  86.285 -27.676  1.00  0.00    -0.507 OA
ATOM     28  H   UNL     1     -24.295  85.477 -28.030  1.00  0.00     0.293 HD
ENDBRANCH   7  27
TORSDOF 7
ENDMDL
MODEL 9
REMARK VINA RESULT:    -6.594      2.083      2.781
REMARK INTER + INTRA:          -7.871
REMARK INTER:                  -7.526
REMARK INTRA:                  -0.345
REMARK UNBOUND:                 0.265
REMARK SMILES Oc1cc(O)c2cc(O)c(-c3cc(O)c(O)c(O)c3)[o+]c2c1
REMARK SMILES IDX 10 1 20 2 21 3 22 4 2 5 3 6 4 7 6 8 7 9 8 10 11 11 12 12
REMARK SMILES IDX 13 13 19 14 15 15 17 16 14 17 16 19 18 21 9 23 1 25 5 27
REMARK H PARENT 14 18 16 20 18 22 9 24 1 26 5 28
REMARK Flexibility Score: inf
ROOT
ATOM      1  C   UNL     1     -23.421  84.392 -23.804  1.00  0.00     0.402 A 
ATOM      2  O   UNL     1     -22.727  85.488 -24.102  1.00  0.00    -0.202 OA
ATOM      3  C   UNL     1     -23.292  86.666 -24.347  1.00  0.00     0.368 A 
ATOM      4  C   UNL     1     -22.479  87.759 -24.657  1.00  0.00     0.162 A 
ATOM      5  C   UNL     1     -23.044  89.006 -24.921  1.00  0.00     0.128 A 
ATOM      6  C   UNL     1     -24.434  89.165 -24.877  1.00  0.00     0.093 A 
ATOM      7  C   UNL     1     -25.271  88.085 -24.570  1.00  0.00     0.136 A 
ATOM      8  C   UNL     1     -24.699  86.815 -24.298  1.00  0.00     0.125 A 
ATOM      9  C   UNL     1     -25.459  85.681 -23.968  1.00  0.00     0.078 A 
ATOM     10  C   UNL     1     -24.824  84.463 -23.709  1.00  0.00     0.223 A 
ENDROOT
BRANCH   1  11
ATOM     11  C   UNL     1     -22.677  83.136 -23.561  1.00  0.00     0.091 A 
ATOM     12  C   UNL     1     -22.418  82.731 -22.244  1.00  0.00     0.068 A 
ATOM     13  C   UNL     1     -21.699  81.559 -21.978  1.00  0.00     0.162 A 
ATOM     14  C   UNL     1     -22.172  82.369 -24.622  1.00  0.00     0.068 A 
ATOM     15  C   UNL     1     -21.213  80.779 -23.054  1.00  0.00     0.200 A 
ATOM     16  C   UNL     1     -21.451  81.195 -24.372  1.00  0.00     0.162 A 
BRANCH  13  17
ATOM     17  O   UNL     1     -21.492  81.213 -20.641  1.00  0.00    -0.504 OA
ATOM     18  H   UNL     1     -21.465  81.878 -19.882  1.00  0.00     0.293 HD
ENDBRANCH  13  17
BRANCH  15  19
ATOM     19  O   UNL     1     -20.494  79.596 -22.859  1.00  0.00    -0.502 OA
ATOM     20  H   UNL     1     -19.486  79.540 -22.865  1.00  0.00     0.293 HD
ENDBRANCH  15  19
BRANCH  16  21
ATOM     21  O   UNL     1     -20.959  80.435 -25.432  1.00  0.00    -0.504 OA
ATOM     22  H   UNL     1     -20.887  79.426 -25.373  1.00  0.00     0.293 HD
ENDBRANCH  16  21
ENDBRANCH   1  11
BRANCH  10  23
ATOM     23  O   UNL     1     -25.574  83.349 -23.333  1.00  0.00    -0.500 OA
ATOM     24  H   UNL     1     -26.096  82.805 -24.010  1.00  0.00     0.294 HD
ENDBRANCH  10  23
BRANCH   5  25
ATOM     25  O   UNL     1     -22.216  90.085 -25.226  1.00  0.00    -0.507 OA
ATOM     26  H   UNL     1     -21.274  90.151 -24.859  1.00  0.00     0.293 HD
ENDBRANCH   5  25
BRANCH   7  27
ATOM     27  O   UNL     1     -26.648  88.324 -24.550  1.00  0.00    -0.507 OA
ATOM     28  H   UNL     1     -27.333  87.683 -24.175  1.00  0.00     0.293 HD
ENDBRANCH   7  27
TORSDOF 7
ENDMDL
