MODEL 1
REMARK VINA RESULT:    -3.985      0.000      0.000
REMARK INTER + INTRA:          -7.462
REMARK INTER:                  -6.315
REMARK INTRA:                  -1.147
REMARK UNBOUND:                -1.147
REMARK SMILES CCCCCCCCCCCC(=O)[O-]
REMARK SMILES IDX 7 1 8 2 9 3 10 4 11 5 12 6 13 7 14 8 6 9 5 10 4 11 3 12 2 13
REMARK SMILES IDX 1 14
REMARK H PARENT
REMARK Flexibility Score: inf
ROOT
ATOM      1  C   UNL     1      39.388  22.543   3.261  1.00  0.00     0.000 C 
ENDROOT
BRANCH   1   2
ATOM      2  C   UNL     1      39.505  21.643   4.503  1.00  0.00     0.000 C 
BRANCH   2   3
ATOM      3  C   UNL     1      38.936  20.234   4.266  1.00  0.00     0.000 C 
BRANCH   3   4
ATOM      4  C   UNL     1      37.620  19.991   5.026  1.00  0.00     0.006 C 
BRANCH   4   5
ATOM      5  C   UNL     1      37.648  20.591   6.438  1.00  0.00     0.053 C 
BRANCH   5   6
ATOM      6  C   UNL     1      37.769  19.530   7.490  1.00  0.00     0.041 C 
ATOM      7  O   UNL     1      38.831  18.863   7.598  1.00  0.00    -0.550 OA
ATOM      8  O   UNL     1      36.721  19.304   8.373  1.00  0.00    -0.550 OA
ENDBRANCH   5   6
ENDBRANCH   4   5
ENDBRANCH   3   4
ENDBRANCH   2   3
ENDBRANCH   1   2
BRANCH   1   9
ATOM      9  C   UNL     1      37.998  23.189   3.136  1.00  0.00     0.000 C 
BRANCH   9  10
ATOM     10  C   UNL     1      37.625  23.515   1.679  1.00  0.00    -0.000 C 
BRANCH  10  11
ATOM     11  C   UNL     1      36.480  22.622   1.157  1.00  0.00    -0.000 C 
BRANCH  11  12
ATOM     12  C   UNL     1      36.721  21.116   1.374  1.00  0.00    -0.000 C 
BRANCH  12  13
ATOM     13  C   UNL     1      35.505  20.341   1.907  1.00  0.00    -0.003 C 
ATOM     14  C   UNL     1      34.369  21.258   2.360  1.00  0.00     0.004 C 
ENDBRANCH  12  13
ENDBRANCH  11  12
ENDBRANCH  10  11
ENDBRANCH   9  10
ENDBRANCH   1   9
TORSDOF 10
ENDMDL
MODEL 2
REMARK VINA RESULT:    -3.901      1.462      1.979
REMARK INTER + INTRA:          -7.329
REMARK INTER:                  -6.566
REMARK INTRA:                  -0.764
REMARK UNBOUND:                -1.147
REMARK SMILES CCCCCCCCCCCC(=O)[O-]
REMARK SMILES IDX 7 1 8 2 9 3 10 4 11 5 12 6 13 7 14 8 6 9 5 10 4 11 3 12 2 13
REMARK SMILES IDX 1 14
REMARK H PARENT
REMARK Flexibility Score: inf
ROOT
ATOM      1  C   UNL     1      39.857  22.265   4.687  1.00  0.00     0.000 C 
ENDROOT
BRANCH   1   2
ATOM      2  C   UNL     1      40.507  20.986   5.245  1.00  0.00     0.000 C 
BRANCH   2   3
ATOM      3  C   UNL     1      40.939  21.137   6.713  1.00  0.00     0.000 C 
BRANCH   3   4
ATOM      4  C   UNL     1      40.257  20.115   7.640  1.00  0.00     0.006 C 
BRANCH   4   5
ATOM      5  C   UNL     1      39.013  19.490   6.996  1.00  0.00     0.053 C 
BRANCH   5   6
ATOM      6  C   UNL     1      37.750  19.986   7.632  1.00  0.00     0.041 C 
ATOM      7  O   UNL     1      36.974  19.181   8.210  1.00  0.00    -0.550 OA
ATOM      8  O   UNL     1      37.449  21.342   7.616  1.00  0.00    -0.550 OA
ENDBRANCH   5   6
ENDBRANCH   4   5
ENDBRANCH   3   4
ENDBRANCH   2   3
ENDBRANCH   1   2
BRANCH   1   9
ATOM      9  C   UNL     1      38.363  22.072   4.375  1.00  0.00     0.000 C 
BRANCH   9  10
ATOM     10  C   UNL     1      37.987  22.556   2.963  1.00  0.00    -0.000 C 
BRANCH  10  11
ATOM     11  C   UNL     1      37.243  21.471   2.155  1.00  0.00    -0.000 C 
BRANCH  11  12
ATOM     12  C   UNL     1      36.219  20.675   2.986  1.00  0.00    -0.000 C 
BRANCH  12  13
ATOM     13  C   UNL     1      34.845  20.502   2.318  1.00  0.00    -0.003 C 
ATOM     14  C   UNL     1      34.406  21.740   1.537  1.00  0.00     0.004 C 
ENDBRANCH  12  13
ENDBRANCH  11  12
ENDBRANCH  10  11
ENDBRANCH   9  10
ENDBRANCH   1   9
TORSDOF 10
ENDMDL
MODEL 3
REMARK VINA RESULT:    -3.841      2.982      5.136
REMARK INTER + INTRA:          -7.234
REMARK INTER:                  -5.924
REMARK INTRA:                  -1.310
REMARK UNBOUND:                -1.147
REMARK SMILES CCCCCCCCCCCC(=O)[O-]
REMARK SMILES IDX 7 1 8 2 9 3 10 4 11 5 12 6 13 7 14 8 6 9 5 10 4 11 3 12 2 13
REMARK SMILES IDX 1 14
REMARK H PARENT
REMARK Flexibility Score: inf
ROOT
ATOM      1  C   UNL     1      40.291  21.978   4.722  1.00  0.00     0.000 C 
ENDROOT
BRANCH   1   2
ATOM      2  C   UNL     1      40.393  20.907   3.621  1.00  0.00     0.000 C 
BRANCH   2   3
ATOM      3  C   UNL     1      39.071  20.719   2.859  1.00  0.00     0.000 C 
BRANCH   3   4
ATOM      4  C   UNL     1      37.919  21.547   3.456  1.00  0.00     0.006 C 
BRANCH   4   5
ATOM      5  C   UNL     1      36.656  20.704   3.679  1.00  0.00     0.053 C 
BRANCH   5   6
ATOM      6  C   UNL     1      35.734  20.763   2.500  1.00  0.00     0.041 C 
ATOM      7  O   UNL     1      35.545  21.853   1.898  1.00  0.00    -0.550 OA
ATOM      8  O   UNL     1      35.112  19.608   2.044  1.00  0.00    -0.550 OA
ENDBRANCH   5   6
ENDBRANCH   4   5
ENDBRANCH   3   4
ENDBRANCH   2   3
ENDBRANCH   1   2
BRANCH   1   9
ATOM      9  C   UNL     1      41.123  21.618   5.965  1.00  0.00     0.000 C 
BRANCH   9  10
ATOM     10  C   UNL     1      40.280  21.589   7.252  1.00  0.00    -0.000 C 
BRANCH  10  11
ATOM     11  C   UNL     1      38.803  21.956   6.990  1.00  0.00    -0.000 C 
BRANCH  11  12
ATOM     12  C   UNL     1      37.819  20.809   7.289  1.00  0.00    -0.000 C 
BRANCH  12  13
ATOM     13  C   UNL     1      38.174  19.468   6.627  1.00  0.00    -0.003 C 
ATOM     14  C   UNL     1      38.652  18.419   7.629  1.00  0.00     0.004 C 
ENDBRANCH  12  13
ENDBRANCH  11  12
ENDBRANCH  10  11
ENDBRANCH   9  10
ENDBRANCH   1   9
TORSDOF 10
ENDMDL
MODEL 4
REMARK VINA RESULT:    -3.810      2.961      5.299
REMARK INTER + INTRA:          -7.184
REMARK INTER:                  -6.267
REMARK INTRA:                  -0.917
REMARK UNBOUND:                -1.147
REMARK SMILES CCCCCCCCCCCC(=O)[O-]
REMARK SMILES IDX 7 1 8 2 9 3 10 4 11 5 12 6 13 7 14 8 6 9 5 10 4 11 3 12 2 13
REMARK SMILES IDX 1 14
REMARK H PARENT
REMARK Flexibility Score: inf
ROOT
ATOM      1  C   UNL     1      40.041  21.245   4.051  1.00  0.00     0.000 C 
ENDROOT
BRANCH   1   2
ATOM      2  C   UNL     1      38.727  22.044   4.095  1.00  0.00     0.000 C 
BRANCH   2   3
ATOM      3  C   UNL     1      38.430  22.764   2.769  1.00  0.00     0.000 C 
BRANCH   3   4
ATOM      4  C   UNL     1      37.075  22.357   2.164  1.00  0.00     0.006 C 
BRANCH   4   5
ATOM      5  C   UNL     1      36.505  21.093   2.820  1.00  0.00     0.053 C 
BRANCH   5   6
ATOM      6  C   UNL     1      35.220  20.666   2.180  1.00  0.00     0.041 C 
ATOM      7  O   UNL     1      34.987  19.444   1.981  1.00  0.00    -0.550 OA
ATOM      8  O   UNL     1      34.264  21.613   1.836  1.00  0.00    -0.550 OA
ENDBRANCH   5   6
ENDBRANCH   4   5
ENDBRANCH   3   4
ENDBRANCH   2   3
ENDBRANCH   1   2
BRANCH   1   9
ATOM      9  C   UNL     1      40.953  21.554   5.250  1.00  0.00     0.000 C 
BRANCH   9  10
ATOM     10  C   UNL     1      40.193  21.543   6.588  1.00  0.00    -0.000 C 
BRANCH  10  11
ATOM     11  C   UNL     1      40.430  20.240   7.382  1.00  0.00    -0.000 C 
BRANCH  11  12
ATOM     12  C   UNL     1      39.248  19.254   7.320  1.00  0.00    -0.000 C 
BRANCH  12  13
ATOM     13  C   UNL     1      37.860  19.911   7.377  1.00  0.00    -0.003 C 
ATOM     14  C   UNL     1      37.044  19.686   6.104  1.00  0.00     0.004 C 
ENDBRANCH  12  13
ENDBRANCH  11  12
ENDBRANCH  10  11
ENDBRANCH   9  10
ENDBRANCH   1   9
TORSDOF 10
ENDMDL
MODEL 5
REMARK VINA RESULT:    -3.726      1.234      3.199
REMARK INTER + INTRA:          -7.051
REMARK INTER:                  -5.832
REMARK INTRA:                  -1.219
REMARK UNBOUND:                -1.147
REMARK SMILES CCCCCCCCCCCC(=O)[O-]
REMARK SMILES IDX 7 1 8 2 9 3 10 4 11 5 12 6 13 7 14 8 6 9 5 10 4 11 3 12 2 13
REMARK SMILES IDX 1 14
REMARK H PARENT
REMARK Flexibility Score: inf
ROOT
ATOM      1  C   UNL     1      35.501  20.236   2.644  1.00  0.00     0.000 C 
ENDROOT
BRANCH   1   2
ATOM      2  C   UNL     1      36.023  20.331   4.088  1.00  0.00     0.000 C 
BRANCH   2   3
ATOM      3  C   UNL     1      37.534  20.059   4.187  1.00  0.00     0.000 C 
BRANCH   3   4
ATOM      4  C   UNL     1      38.172  20.706   5.429  1.00  0.00     0.006 C 
BRANCH   4   5
ATOM      5  C   UNL     1      39.565  20.137   5.726  1.00  0.00     0.053 C 
BRANCH   5   6
ATOM      6  C   UNL     1      39.645  19.551   7.102  1.00  0.00     0.041 C 
ATOM      7  O   UNL     1      38.731  18.792   7.521  1.00  0.00    -0.550 OA
ATOM      8  O   UNL     1      40.744  19.816   7.910  1.00  0.00    -0.550 OA
ENDBRANCH   5   6
ENDBRANCH   4   5
ENDBRANCH   3   4
ENDBRANCH   2   3
ENDBRANCH   1   2
BRANCH   1   9
ATOM      9  C   UNL     1      35.343  21.618   1.988  1.00  0.00     0.000 C 
BRANCH   9  10
ATOM     10  C   UNL     1      36.524  21.975   1.069  1.00  0.00    -0.000 C 
BRANCH  10  11
ATOM     11  C   UNL     1      37.139  23.347   1.417  1.00  0.00    -0.000 C 
BRANCH  11  12
ATOM     12  C   UNL     1      37.790  23.398   2.812  1.00  0.00    -0.000 C 
BRANCH  12  13
ATOM     13  C   UNL     1      39.327  23.411   2.803  1.00  0.00    -0.003 C 
ATOM     14  C   UNL     1      39.928  22.118   2.256  1.00  0.00     0.004 C 
ENDBRANCH  12  13
ENDBRANCH  11  12
ENDBRANCH  10  11
ENDBRANCH   9  10
ENDBRANCH   1   9
TORSDOF 10
ENDMDL
MODEL 6
REMARK VINA RESULT:    -3.542      3.231      5.819
REMARK INTER + INTRA:          -6.760
REMARK INTER:                  -5.712
REMARK INTRA:                  -1.048
REMARK UNBOUND:                -1.147
REMARK SMILES CCCCCCCCCCCC(=O)[O-]
REMARK SMILES IDX 7 1 8 2 9 3 10 4 11 5 12 6 13 7 14 8 6 9 5 10 4 11 3 12 2 13
REMARK SMILES IDX 1 14
REMARK H PARENT
REMARK Flexibility Score: inf
ROOT
ATOM      1  C   UNL     1      36.637  20.267   3.941  1.00  0.00     0.000 C 
ENDROOT
BRANCH   1   2
ATOM      2  C   UNL     1      36.063  21.056   2.752  1.00  0.00     0.000 C 
BRANCH   2   3
ATOM      3  C   UNL     1      37.134  21.411   1.708  1.00  0.00     0.000 C 
BRANCH   3   4
ATOM      4  C   UNL     1      37.038  22.871   1.232  1.00  0.00     0.006 C 
BRANCH   4   5
ATOM      5  C   UNL     1      37.666  23.848   2.233  1.00  0.00     0.053 C 
BRANCH   5   6
ATOM      6  C   UNL     1      39.108  24.111   1.923  1.00  0.00     0.041 C 
ATOM      7  O   UNL     1      40.005  23.371   2.408  1.00  0.00    -0.550 OA
ATOM      8  O   UNL     1      39.459  25.150   1.071  1.00  0.00    -0.550 OA
ENDBRANCH   5   6
ENDBRANCH   4   5
ENDBRANCH   3   4
ENDBRANCH   2   3
ENDBRANCH   1   2
BRANCH   1   9
ATOM      9  C   UNL     1      38.124  20.578   4.185  1.00  0.00     0.000 C 
BRANCH   9  10
ATOM     10  C   UNL     1      38.330  21.799   5.099  1.00  0.00    -0.000 C 
BRANCH  10  11
ATOM     11  C   UNL     1      38.798  21.396   6.513  1.00  0.00    -0.000 C 
BRANCH  11  12
ATOM     12  C   UNL     1      37.641  21.098   7.486  1.00  0.00    -0.000 C 
BRANCH  12  13
ATOM     13  C   UNL     1      37.374  19.604   7.729  1.00  0.00    -0.003 C 
ATOM     14  C   UNL     1      38.616  18.738   7.518  1.00  0.00     0.004 C 
ENDBRANCH  12  13
ENDBRANCH  11  12
ENDBRANCH  10  11
ENDBRANCH   9  10
ENDBRANCH   1   9
TORSDOF 10
ENDMDL
MODEL 7
REMARK VINA RESULT:    -3.537      1.373      2.439
REMARK INTER + INTRA:          -6.753
REMARK INTER:                  -5.717
REMARK INTRA:                  -1.035
REMARK UNBOUND:                -1.147
REMARK SMILES CCCCCCCCCCCC(=O)[O-]
REMARK SMILES IDX 7 1 8 2 9 3 10 4 11 5 12 6 13 7 14 8 6 9 5 10 4 11 3 12 2 13
REMARK SMILES IDX 1 14
REMARK H PARENT
REMARK Flexibility Score: inf
ROOT
ATOM      1  C   UNL     1      37.833  21.912   4.242  1.00  0.00     0.000 C 
ENDROOT
BRANCH   1   2
ATOM      2  C   UNL     1      39.307  21.471   4.264  1.00  0.00     0.000 C 
BRANCH   2   3
ATOM      3  C   UNL     1      39.486  20.038   4.791  1.00  0.00     0.000 C 
BRANCH   3   4
ATOM      4  C   UNL     1      39.671  19.986   6.318  1.00  0.00     0.006 C 
BRANCH   4   5
ATOM      5  C   UNL     1      38.644  19.069   6.995  1.00  0.00     0.053 C 
BRANCH   5   6
ATOM      6  C   UNL     1      37.561  19.853   7.672  1.00  0.00     0.041 C 
ATOM      7  O   UNL     1      37.550  21.110   7.600  1.00  0.00    -0.550 OA
ATOM      8  O   UNL     1      36.546  19.193   8.352  1.00  0.00    -0.550 OA
ENDBRANCH   5   6
ENDBRANCH   4   5
ENDBRANCH   3   4
ENDBRANCH   2   3
ENDBRANCH   1   2
BRANCH   1   9
ATOM      9  C   UNL     1      36.955  20.971   3.400  1.00  0.00     0.000 C 
BRANCH   9  10
ATOM     10  C   UNL     1      37.098  21.224   1.889  1.00  0.00    -0.000 C 
BRANCH  10  11
ATOM     11  C   UNL     1      35.897  22.004   1.313  1.00  0.00    -0.000 C 
BRANCH  11  12
ATOM     12  C   UNL     1      36.244  23.440   0.877  1.00  0.00    -0.000 C 
BRANCH  12  13
ATOM     13  C   UNL     1      37.709  23.844   1.104  1.00  0.00    -0.003 C 
ATOM     14  C   UNL     1      37.860  25.003   2.088  1.00  0.00     0.004 C 
ENDBRANCH  12  13
ENDBRANCH  11  12
ENDBRANCH  10  11
ENDBRANCH   9  10
ENDBRANCH   1   9
TORSDOF 10
ENDMDL
MODEL 8
REMARK VINA RESULT:    -3.398      2.043      3.478
REMARK INTER + INTRA:          -6.531
REMARK INTER:                  -6.109
REMARK INTRA:                  -0.422
REMARK UNBOUND:                -1.147
REMARK SMILES CCCCCCCCCCCC(=O)[O-]
REMARK SMILES IDX 7 1 8 2 9 3 10 4 11 5 12 6 13 7 14 8 6 9 5 10 4 11 3 12 2 13
REMARK SMILES IDX 1 14
REMARK H PARENT
REMARK Flexibility Score: inf
ROOT
ATOM      1  C   UNL     1      37.975  22.457   3.160  1.00  0.00     0.000 C 
ENDROOT
BRANCH   1   2
ATOM      2  C   UNL     1      37.697  21.097   3.825  1.00  0.00     0.000 C 
BRANCH   2   3
ATOM      3  C   UNL     1      38.989  20.347   4.192  1.00  0.00     0.000 C 
BRANCH   3   4
ATOM      4  C   UNL     1      39.140  20.133   5.709  1.00  0.00     0.006 C 
BRANCH   4   5
ATOM      5  C   UNL     1      37.811  20.320   6.454  1.00  0.00     0.053 C 
BRANCH   5   6
ATOM      6  C   UNL     1      37.684  19.372   7.607  1.00  0.00     0.041 C 
ATOM      7  O   UNL     1      36.717  19.476   8.408  1.00  0.00    -0.550 OA
ATOM      8  O   UNL     1      38.611  18.352   7.776  1.00  0.00    -0.550 OA
ENDBRANCH   5   6
ENDBRANCH   4   5
ENDBRANCH   3   4
ENDBRANCH   2   3
ENDBRANCH   1   2
BRANCH   1   9
ATOM      9  C   UNL     1      37.315  22.574   1.775  1.00  0.00     0.000 C 
BRANCH   9  10
ATOM     10  C   UNL     1      37.224  24.030   1.286  1.00  0.00    -0.000 C 
BRANCH  10  11
ATOM     11  C   UNL     1      37.897  25.017   2.264  1.00  0.00    -0.000 C 
BRANCH  11  12
ATOM     12  C   UNL     1      38.175  26.403   1.652  1.00  0.00    -0.000 C 
BRANCH  12  13
ATOM     13  C   UNL     1      37.731  27.590   2.521  1.00  0.00    -0.003 C 
ATOM     14  C   UNL     1      36.301  28.040   2.226  1.00  0.00     0.004 C 
ENDBRANCH  12  13
ENDBRANCH  11  12
ENDBRANCH  10  11
ENDBRANCH   9  10
ENDBRANCH   1   9
TORSDOF 10
ENDMDL
MODEL 9
REMARK VINA RESULT:    -3.361     18.091     20.282
REMARK INTER + INTRA:          -6.472
REMARK INTER:                  -4.708
REMARK INTRA:                  -1.764
REMARK UNBOUND:                -1.147
REMARK SMILES CCCCCCCCCCCC(=O)[O-]
REMARK SMILES IDX 7 1 8 2 9 3 10 4 11 5 12 6 13 7 14 8 6 9 5 10 4 11 3 12 2 13
REMARK SMILES IDX 1 14
REMARK H PARENT
REMARK Flexibility Score: inf
ROOT
ATOM      1  C   UNL     1      22.127  22.914  16.693  1.00  0.00     0.000 C 
ENDROOT
BRANCH   1   2
ATOM      2  C   UNL     1      22.105  24.320  17.319  1.00  0.00     0.000 C 
BRANCH   2   3
ATOM      3  C   UNL     1      21.840  24.286  18.834  1.00  0.00     0.000 C 
BRANCH   3   4
ATOM      4  C   UNL     1      22.925  25.020  19.642  1.00  0.00     0.006 C 
BRANCH   4   5
ATOM      5  C   UNL     1      23.735  25.991  18.774  1.00  0.00     0.053 C 
BRANCH   5   6
ATOM      6  C   UNL     1      24.944  26.504  19.494  1.00  0.00     0.041 C 
ATOM      7  O   UNL     1      24.900  26.714  20.735  1.00  0.00    -0.550 OA
ATOM      8  O   UNL     1      26.130  26.715  18.802  1.00  0.00    -0.550 OA
ENDBRANCH   5   6
ENDBRANCH   4   5
ENDBRANCH   3   4
ENDBRANCH   2   3
ENDBRANCH   1   2
BRANCH   1   9
ATOM      9  C   UNL     1      22.280  21.807  17.749  1.00  0.00     0.000 C 
BRANCH   9  10
ATOM     10  C   UNL     1      23.689  21.187  17.756  1.00  0.00    -0.000 C 
BRANCH  10  11
ATOM     11  C   UNL     1      24.565  21.744  18.899  1.00  0.00    -0.000 C 
BRANCH  11  12
ATOM     12  C   UNL     1      25.640  22.740  18.425  1.00  0.00    -0.000 C 
BRANCH  12  13
ATOM     13  C   UNL     1      25.871  22.760  16.905  1.00  0.00    -0.003 C 
ATOM     14  C   UNL     1      25.801  24.167  16.313  1.00  0.00     0.004 C 
ENDBRANCH  12  13
ENDBRANCH  11  12
ENDBRANCH  10  11
ENDBRANCH   9  10
ENDBRANCH   1   9
TORSDOF 10
ENDMDL
