MODEL 1
REMARK VINA RESULT:    -6.546      0.000      0.000
REMARK INTER + INTRA:          -8.461
REMARK INTER:                  -8.077
REMARK INTRA:                  -0.384
REMARK UNBOUND:                -0.384
REMARK SMILES Oc1cc(O)c2cc(O)c(-c3cc(O)c(O)c(O)c3)[o+]c2c1
REMARK SMILES IDX 10 1 20 2 21 3 22 4 2 5 3 6 4 7 6 8 7 9 8 10 11 11 12 12
REMARK SMILES IDX 13 13 19 14 15 15 17 16 14 17 16 19 18 21 9 23 1 25 5 27
REMARK H PARENT 14 18 16 20 18 22 9 24 1 26 5 28
REMARK Flexibility Score: inf
ROOT
ATOM      1  C   UNL     1      31.776 -35.164  35.723  1.00  0.00     0.402 A 
ATOM      2  O   UNL     1      31.055 -36.253  35.981  1.00  0.00    -0.202 OA
ATOM      3  C   UNL     1      31.039 -37.321  35.191  1.00  0.00     0.368 A 
ATOM      4  C   UNL     1      30.247 -38.417  35.546  1.00  0.00     0.162 A 
ATOM      5  C   UNL     1      30.209 -39.553  34.732  1.00  0.00     0.128 A 
ATOM      6  C   UNL     1      30.965 -39.593  33.558  1.00  0.00     0.093 A 
ATOM      7  C   UNL     1      31.767 -38.508  33.181  1.00  0.00     0.136 A 
ATOM      8  C   UNL     1      31.811 -37.353  34.005  1.00  0.00     0.125 A 
ATOM      9  C   UNL     1      32.595 -36.226  33.713  1.00  0.00     0.078 A 
ATOM     10  C   UNL     1      32.591 -35.126  34.576  1.00  0.00     0.223 A 
ENDROOT
BRANCH   1  11
ATOM     11  C   UNL     1      31.702 -34.034  36.676  1.00  0.00     0.091 A 
ATOM     12  C   UNL     1      32.564 -34.005  37.782  1.00  0.00     0.068 A 
ATOM     13  C   UNL     1      32.500 -32.956  38.710  1.00  0.00     0.162 A 
ATOM     14  C   UNL     1      30.747 -33.013  36.528  1.00  0.00     0.068 A 
ATOM     15  C   UNL     1      31.557 -31.929  38.543  1.00  0.00     0.200 A 
ATOM     16  C   UNL     1      30.675 -31.964  37.450  1.00  0.00     0.162 A 
BRANCH  13  17
ATOM     17  O   UNL     1      33.373 -32.933  39.798  1.00  0.00    -0.504 OA
ATOM     18  H   UNL     1      33.950 -32.124  39.998  1.00  0.00     0.293 HD
ENDBRANCH  13  17
BRANCH  15  19
ATOM     19  O   UNL     1      31.482 -30.876  39.456  1.00  0.00    -0.502 OA
ATOM     20  H   UNL     1      32.292 -30.546  39.967  1.00  0.00     0.293 HD
ENDBRANCH  15  19
BRANCH  16  21
ATOM     21  O   UNL     1      29.716 -30.968  37.265  1.00  0.00    -0.504 OA
ATOM     22  H   UNL     1      29.916 -30.115  36.756  1.00  0.00     0.293 HD
ENDBRANCH  16  21
ENDBRANCH   1  11
BRANCH  10  23
ATOM     23  O   UNL     1      33.408 -34.026  34.313  1.00  0.00    -0.500 OA
ATOM     24  H   UNL     1      33.045 -33.187  33.877  1.00  0.00     0.294 HD
ENDBRANCH  10  23
BRANCH   5  25
ATOM     25  O   UNL     1      29.422 -40.648  35.079  1.00  0.00    -0.507 OA
ATOM     26  H   UNL     1      29.794 -41.591  35.074  1.00  0.00     0.293 HD
ENDBRANCH   5  25
BRANCH   7  27
ATOM     27  O   UNL     1      32.490 -38.626  31.991  1.00  0.00    -0.507 OA
ATOM     28  H   UNL     1      33.218 -37.990  31.701  1.00  0.00     0.293 HD
ENDBRANCH   7  27
TORSDOF 7
ENDMDL
MODEL 2
REMARK VINA RESULT:    -6.354      0.144      1.797
REMARK INTER + INTRA:          -8.224
REMARK INTER:                  -7.852
REMARK INTRA:                  -0.372
REMARK UNBOUND:                -0.384
REMARK SMILES Oc1cc(O)c2cc(O)c(-c3cc(O)c(O)c(O)c3)[o+]c2c1
REMARK SMILES IDX 10 1 20 2 21 3 22 4 2 5 3 6 4 7 6 8 7 9 8 10 11 11 12 12
REMARK SMILES IDX 13 13 19 14 15 15 17 16 14 17 16 19 18 21 9 23 1 25 5 27
REMARK H PARENT 14 18 16 20 18 22 9 24 1 26 5 28
REMARK Flexibility Score: inf
ROOT
ATOM      1  C   UNL     1      31.717 -35.182  35.843  1.00  0.00     0.402 A 
ATOM      2  O   UNL     1      31.004 -36.285  36.060  1.00  0.00    -0.202 OA
ATOM      3  C   UNL     1      31.014 -37.333  35.242  1.00  0.00     0.368 A 
ATOM      4  C   UNL     1      30.227 -38.445  35.554  1.00  0.00     0.162 A 
ATOM      5  C   UNL     1      30.216 -39.560  34.710  1.00  0.00     0.128 A 
ATOM      6  C   UNL     1      30.995 -39.562  33.550  1.00  0.00     0.093 A 
ATOM      7  C   UNL     1      31.792 -38.459  33.217  1.00  0.00     0.136 A 
ATOM      8  C   UNL     1      31.809 -37.326  34.071  1.00  0.00     0.125 A 
ATOM      9  C   UNL     1      32.586 -36.183  33.822  1.00  0.00     0.078 A 
ATOM     10  C   UNL     1      32.553 -35.107  34.714  1.00  0.00     0.223 A 
ENDROOT
BRANCH   1  11
ATOM     11  C   UNL     1      31.613 -34.078  36.823  1.00  0.00     0.091 A 
ATOM     12  C   UNL     1      30.612 -33.107  36.667  1.00  0.00     0.068 A 
ATOM     13  C   UNL     1      30.504 -32.041  37.569  1.00  0.00     0.162 A 
ATOM     14  C   UNL     1      32.531 -33.947  37.879  1.00  0.00     0.068 A 
ATOM     15  C   UNL     1      31.413 -31.929  38.634  1.00  0.00     0.200 A 
ATOM     16  C   UNL     1      32.433 -32.885  38.784  1.00  0.00     0.162 A 
BRANCH  13  17
ATOM     17  O   UNL     1      29.495 -31.091  37.411  1.00  0.00    -0.504 OA
ATOM     18  H   UNL     1      29.703 -30.133  37.154  1.00  0.00     0.293 HD
ENDBRANCH  13  17
BRANCH  15  19
ATOM     19  O   UNL     1      31.319 -30.875  39.544  1.00  0.00    -0.502 OA
ATOM     20  H   UNL     1      30.557 -30.207  39.519  1.00  0.00     0.293 HD
ENDBRANCH  15  19
BRANCH  16  21
ATOM     21  O   UNL     1      33.360 -32.793  39.821  1.00  0.00    -0.504 OA
ATOM     22  H   UNL     1      33.436 -31.969  40.405  1.00  0.00     0.293 HD
ENDBRANCH  16  21
ENDBRANCH   1  11
BRANCH  10  23
ATOM     23  O   UNL     1      33.363 -33.991  34.495  1.00  0.00    -0.500 OA
ATOM     24  H   UNL     1      34.118 -34.007  33.820  1.00  0.00     0.294 HD
ENDBRANCH  10  23
BRANCH   5  25
ATOM     25  O   UNL     1      29.435 -40.672  35.014  1.00  0.00    -0.507 OA
ATOM     26  H   UNL     1      29.100 -41.298  34.290  1.00  0.00     0.293 HD
ENDBRANCH   5  25
BRANCH   7  27
ATOM     27  O   UNL     1      32.539 -38.539  32.038  1.00  0.00    -0.507 OA
ATOM     28  H   UNL     1      33.522 -38.766  32.000  1.00  0.00     0.293 HD
ENDBRANCH   7  27
TORSDOF 7
ENDMDL
MODEL 3
REMARK VINA RESULT:    -6.258      1.070      2.617
REMARK INTER + INTRA:          -8.105
REMARK INTER:                  -7.781
REMARK INTRA:                  -0.324
REMARK UNBOUND:                -0.384
REMARK SMILES Oc1cc(O)c2cc(O)c(-c3cc(O)c(O)c(O)c3)[o+]c2c1
REMARK SMILES IDX 10 1 20 2 21 3 22 4 2 5 3 6 4 7 6 8 7 9 8 10 11 11 12 12
REMARK SMILES IDX 13 13 19 14 15 15 17 16 14 17 16 19 18 21 9 23 1 25 5 27
REMARK H PARENT 14 18 16 20 18 22 9 24 1 26 5 28
REMARK Flexibility Score: inf
ROOT
ATOM      1  C   UNL     1      30.893 -35.900  36.597  1.00  0.00     0.402 A 
ATOM      2  O   UNL     1      31.610 -36.212  35.520  1.00  0.00    -0.202 OA
ATOM      3  C   UNL     1      31.493 -37.369  34.876  1.00  0.00     0.368 A 
ATOM      4  C   UNL     1      32.294 -37.607  33.755  1.00  0.00     0.162 A 
ATOM      5  C   UNL     1      32.194 -38.816  33.061  1.00  0.00     0.128 A 
ATOM      6  C   UNL     1      31.290 -39.791  33.489  1.00  0.00     0.093 A 
ATOM      7  C   UNL     1      30.476 -39.576  34.609  1.00  0.00     0.136 A 
ATOM      8  C   UNL     1      30.572 -38.350  35.316  1.00  0.00     0.125 A 
ATOM      9  C   UNL     1      29.789 -38.044  36.440  1.00  0.00     0.078 A 
ATOM     10  C   UNL     1      29.936 -36.811  37.083  1.00  0.00     0.223 A 
ENDROOT
BRANCH   1  11
ATOM     11  C   UNL     1      31.122 -34.583  37.233  1.00  0.00     0.091 A 
ATOM     12  C   UNL     1      32.236 -34.403  38.067  1.00  0.00     0.068 A 
ATOM     13  C   UNL     1      32.465 -33.172  38.696  1.00  0.00     0.162 A 
ATOM     14  C   UNL     1      30.217 -33.521  37.063  1.00  0.00     0.068 A 
ATOM     15  C   UNL     1      31.567 -32.109  38.506  1.00  0.00     0.200 A 
ATOM     16  C   UNL     1      30.437 -32.289  37.689  1.00  0.00     0.162 A 
BRANCH  13  17
ATOM     17  O   UNL     1      33.584 -33.002  39.512  1.00  0.00    -0.504 OA
ATOM     18  H   UNL     1      34.469 -32.679  39.139  1.00  0.00     0.293 HD
ENDBRANCH  13  17
BRANCH  15  19
ATOM     19  O   UNL     1      31.781 -30.875  39.122  1.00  0.00    -0.502 OA
ATOM     20  H   UNL     1      31.360 -30.020  38.778  1.00  0.00     0.293 HD
ENDBRANCH  15  19
BRANCH  16  21
ATOM     21  O   UNL     1      29.518 -31.259  37.492  1.00  0.00    -0.504 OA
ATOM     22  H   UNL     1      29.760 -30.408  37.000  1.00  0.00     0.293 HD
ENDBRANCH  16  21
ENDBRANCH   1  11
BRANCH  10  23
ATOM     23  O   UNL     1      29.123 -36.485  38.169  1.00  0.00    -0.500 OA
ATOM     24  H   UNL     1      28.694 -35.572  38.257  1.00  0.00     0.294 HD
ENDBRANCH  10  23
BRANCH   5  25
ATOM     25  O   UNL     1      32.989 -39.060  31.943  1.00  0.00    -0.507 OA
ATOM     26  H   UNL     1      33.676 -38.386  31.625  1.00  0.00     0.293 HD
ENDBRANCH   5  25
BRANCH   7  27
ATOM     27  O   UNL     1      29.601 -40.603  34.974  1.00  0.00    -0.507 OA
ATOM     28  H   UNL     1      29.893 -41.530  35.247  1.00  0.00     0.293 HD
ENDBRANCH   7  27
TORSDOF 7
ENDMDL
MODEL 4
REMARK VINA RESULT:    -6.247      2.058      7.015
REMARK INTER + INTRA:          -8.092
REMARK INTER:                  -7.768
REMARK INTRA:                  -0.324
REMARK UNBOUND:                -0.384
REMARK SMILES Oc1cc(O)c2cc(O)c(-c3cc(O)c(O)c(O)c3)[o+]c2c1
REMARK SMILES IDX 10 1 20 2 21 3 22 4 2 5 3 6 4 7 6 8 7 9 8 10 11 11 12 12
REMARK SMILES IDX 13 13 19 14 15 15 17 16 14 17 16 19 18 21 9 23 1 25 5 27
REMARK H PARENT 14 18 16 20 18 22 9 24 1 26 5 28
REMARK Flexibility Score: inf
ROOT
ATOM      1  C   UNL     1      32.871 -35.684  35.094  1.00  0.00     0.402 A 
ATOM      2  O   UNL     1      32.869 -35.396  36.393  1.00  0.00    -0.202 OA
ATOM      3  C   UNL     1      32.482 -34.221  36.879  1.00  0.00     0.368 A 
ATOM      4  C   UNL     1      32.518 -34.012  38.261  1.00  0.00     0.162 A 
ATOM      5  C   UNL     1      32.120 -32.785  38.800  1.00  0.00     0.128 A 
ATOM      6  C   UNL     1      31.684 -31.763  37.953  1.00  0.00     0.093 A 
ATOM      7  C   UNL     1      31.638 -31.948  36.565  1.00  0.00     0.136 A 
ATOM      8  C   UNL     1      32.039 -33.192  36.014  1.00  0.00     0.125 A 
ATOM      9  C   UNL     1      32.014 -33.470  34.638  1.00  0.00     0.078 A 
ATOM     10  C   UNL     1      32.420 -34.724  34.169  1.00  0.00     0.223 A 
ENDROOT
BRANCH   1  11
ATOM     11  C   UNL     1      33.335 -37.025  34.675  1.00  0.00     0.091 A 
ATOM     12  C   UNL     1      34.711 -37.294  34.619  1.00  0.00     0.068 A 
ATOM     13  C   UNL     1      35.177 -38.550  34.207  1.00  0.00     0.162 A 
ATOM     14  C   UNL     1      32.428 -38.023  34.278  1.00  0.00     0.068 A 
ATOM     15  C   UNL     1      34.263 -39.548  33.831  1.00  0.00     0.200 A 
ATOM     16  C   UNL     1      32.884 -39.278  33.864  1.00  0.00     0.162 A 
BRANCH  13  17
ATOM     17  O   UNL     1      36.547 -38.809  34.170  1.00  0.00    -0.504 OA
ATOM     18  H   UNL     1      36.917 -39.738  34.329  1.00  0.00     0.293 HD
ENDBRANCH  13  17
BRANCH  15  19
ATOM     19  O   UNL     1      34.709 -40.806  33.422  1.00  0.00    -0.502 OA
ATOM     20  H   UNL     1      35.616 -40.942  32.991  1.00  0.00     0.293 HD
ENDBRANCH  15  19
BRANCH  16  21
ATOM     21  O   UNL     1      31.952 -40.243  33.482  1.00  0.00    -0.504 OA
ATOM     22  H   UNL     1      31.964 -40.671  32.564  1.00  0.00     0.293 HD
ENDBRANCH  16  21
ENDBRANCH   1  11
BRANCH  10  23
ATOM     23  O   UNL     1      32.348 -35.018  32.807  1.00  0.00    -0.500 OA
ATOM     24  H   UNL     1      33.180 -35.194  32.256  1.00  0.00     0.294 HD
ENDBRANCH  10  23
BRANCH   5  25
ATOM     25  O   UNL     1      32.154 -32.570  40.175  1.00  0.00    -0.507 OA
ATOM     26  H   UNL     1      32.286 -33.334  40.828  1.00  0.00     0.293 HD
ENDBRANCH   5  25
BRANCH   7  27
ATOM     27  O   UNL     1      31.192 -30.875  35.789  1.00  0.00    -0.507 OA
ATOM     28  H   UNL     1      30.893 -29.986  36.162  1.00  0.00     0.293 HD
ENDBRANCH   7  27
TORSDOF 7
ENDMDL
MODEL 5
REMARK VINA RESULT:    -6.217      2.025      3.142
REMARK INTER + INTRA:          -8.055
REMARK INTER:                  -7.977
REMARK INTRA:                  -0.078
REMARK UNBOUND:                -0.384
REMARK SMILES Oc1cc(O)c2cc(O)c(-c3cc(O)c(O)c(O)c3)[o+]c2c1
REMARK SMILES IDX 10 1 20 2 21 3 22 4 2 5 3 6 4 7 6 8 7 9 8 10 11 11 12 12
REMARK SMILES IDX 13 13 19 14 15 15 17 16 14 17 16 19 18 21 9 23 1 25 5 27
REMARK H PARENT 14 18 16 20 18 22 9 24 1 26 5 28
REMARK Flexibility Score: inf
ROOT
ATOM      1  C   UNL     1      30.795 -35.844  36.202  1.00  0.00     0.402 A 
ATOM      2  O   UNL     1      29.513 -35.879  35.843  1.00  0.00    -0.202 OA
ATOM      3  C   UNL     1      28.907 -36.980  35.410  1.00  0.00     0.368 A 
ATOM      4  C   UNL     1      27.557 -36.917  35.052  1.00  0.00     0.162 A 
ATOM      5  C   UNL     1      26.896 -38.059  34.590  1.00  0.00     0.128 A 
ATOM      6  C   UNL     1      27.587 -39.268  34.485  1.00  0.00     0.093 A 
ATOM      7  C   UNL     1      28.940 -39.357  34.837  1.00  0.00     0.136 A 
ATOM      8  C   UNL     1      29.616 -38.202  35.309  1.00  0.00     0.125 A 
ATOM      9  C   UNL     1      30.965 -38.201  35.696  1.00  0.00     0.078 A 
ATOM     10  C   UNL     1      31.562 -37.023  36.156  1.00  0.00     0.223 A 
ENDROOT
BRANCH   1  11
ATOM     11  C   UNL     1      31.358 -34.554  36.658  1.00  0.00     0.091 A 
ATOM     12  C   UNL     1      31.264 -33.427  35.828  1.00  0.00     0.068 A 
ATOM     13  C   UNL     1      31.806 -32.198  36.228  1.00  0.00     0.162 A 
ATOM     14  C   UNL     1      32.036 -34.444  37.884  1.00  0.00     0.068 A 
ATOM     15  C   UNL     1      32.465 -32.091  37.465  1.00  0.00     0.200 A 
ATOM     16  C   UNL     1      32.582 -33.222  38.291  1.00  0.00     0.162 A 
BRANCH  13  17
ATOM     17  O   UNL     1      31.693 -31.081  35.399  1.00  0.00    -0.504 OA
ATOM     18  H   UNL     1      32.147 -30.204  35.625  1.00  0.00     0.293 HD
ENDBRANCH  13  17
BRANCH  15  19
ATOM     19  O   UNL     1      33.008 -30.875  37.880  1.00  0.00    -0.502 OA
ATOM     20  H   UNL     1      32.686 -30.397  38.714  1.00  0.00     0.293 HD
ENDBRANCH  15  19
BRANCH  16  21
ATOM     21  O   UNL     1      33.243 -33.153  39.516  1.00  0.00    -0.504 OA
ATOM     22  H   UNL     1      32.748 -33.017  40.389  1.00  0.00     0.293 HD
ENDBRANCH  16  21
ENDBRANCH   1  11
BRANCH  10  23
ATOM     23  O   UNL     1      32.889 -37.033  36.588  1.00  0.00    -0.500 OA
ATOM     24  H   UNL     1      33.434 -36.181  36.650  1.00  0.00     0.294 HD
ENDBRANCH  10  23
BRANCH   5  25
ATOM     25  O   UNL     1      25.551 -38.003  34.232  1.00  0.00    -0.507 OA
ATOM     26  H   UNL     1      25.216 -38.408  33.366  1.00  0.00     0.293 HD
ENDBRANCH   5  25
BRANCH   7  27
ATOM     27  O   UNL     1      29.559 -40.602  34.700  1.00  0.00    -0.507 OA
ATOM     28  H   UNL     1      30.094 -41.056  35.426  1.00  0.00     0.293 HD
ENDBRANCH   7  27
TORSDOF 7
ENDMDL
MODEL 6
REMARK VINA RESULT:    -6.091      4.434      6.620
REMARK INTER + INTRA:          -7.900
REMARK INTER:                  -7.530
REMARK INTRA:                  -0.370
REMARK UNBOUND:                -0.384
REMARK SMILES Oc1cc(O)c2cc(O)c(-c3cc(O)c(O)c(O)c3)[o+]c2c1
REMARK SMILES IDX 10 1 20 2 21 3 22 4 2 5 3 6 4 7 6 8 7 9 8 10 11 11 12 12
REMARK SMILES IDX 13 13 19 14 15 15 17 16 14 17 16 19 18 21 9 23 1 25 5 27
REMARK H PARENT 14 18 16 20 18 22 9 24 1 26 5 28
REMARK Flexibility Score: inf
ROOT
ATOM      1  C   UNL     1      32.338 -38.428  33.637  1.00  0.00     0.402 A 
ATOM      2  O   UNL     1      32.864 -38.745  32.455  1.00  0.00    -0.202 OA
ATOM      3  C   UNL     1      34.167 -38.698  32.201  1.00  0.00     0.368 A 
ATOM      4  C   UNL     1      34.624 -39.047  30.926  1.00  0.00     0.162 A 
ATOM      5  C   UNL     1      35.989 -39.004  30.629  1.00  0.00     0.128 A 
ATOM      6  C   UNL     1      36.902 -38.609  31.611  1.00  0.00     0.093 A 
ATOM      7  C   UNL     1      36.469 -38.255  32.895  1.00  0.00     0.136 A 
ATOM      8  C   UNL     1      35.084 -38.300  33.202  1.00  0.00     0.125 A 
ATOM      9  C   UNL     1      34.563 -37.974  34.465  1.00  0.00     0.078 A 
ATOM     10  C   UNL     1      33.185 -38.047  34.694  1.00  0.00     0.223 A 
ENDROOT
BRANCH   1  11
ATOM     11  C   UNL     1      30.869 -38.511  33.794  1.00  0.00     0.091 A 
ATOM     12  C   UNL     1      30.293 -39.688  34.296  1.00  0.00     0.068 A 
ATOM     13  C   UNL     1      28.903 -39.799  34.435  1.00  0.00     0.162 A 
ATOM     14  C   UNL     1      30.030 -37.455  33.398  1.00  0.00     0.068 A 
ATOM     15  C   UNL     1      28.072 -38.731  34.057  1.00  0.00     0.200 A 
ATOM     16  C   UNL     1      28.641 -37.559  33.531  1.00  0.00     0.162 A 
BRANCH  13  17
ATOM     17  O   UNL     1      28.344 -40.969  34.950  1.00  0.00    -0.504 OA
ATOM     18  H   UNL     1      28.879 -41.827  35.021  1.00  0.00     0.293 HD
ENDBRANCH  13  17
BRANCH  15  19
ATOM     19  O   UNL     1      26.686 -38.824  34.192  1.00  0.00    -0.502 OA
ATOM     20  H   UNL     1      26.129 -39.451  33.624  1.00  0.00     0.293 HD
ENDBRANCH  15  19
BRANCH  16  21
ATOM     21  O   UNL     1      27.843 -36.487  33.132  1.00  0.00    -0.504 OA
ATOM     22  H   UNL     1      27.966 -36.028  32.237  1.00  0.00     0.293 HD
ENDBRANCH  16  21
ENDBRANCH   1  11
BRANCH  10  23
ATOM     23  O   UNL     1      32.671 -37.773  35.961  1.00  0.00    -0.500 OA
ATOM     24  H   UNL     1      32.141 -38.462  36.481  1.00  0.00     0.294 HD
ENDBRANCH  10  23
BRANCH   5  25
ATOM     25  O   UNL     1      36.451 -39.350  29.362  1.00  0.00    -0.507 OA
ATOM     26  H   UNL     1      36.117 -38.879  28.529  1.00  0.00     0.293 HD
ENDBRANCH   5  25
BRANCH   7  27
ATOM     27  O   UNL     1      37.445 -37.869  33.818  1.00  0.00    -0.507 OA
ATOM     28  H   UNL     1      37.997 -38.512  34.367  1.00  0.00     0.293 HD
ENDBRANCH   7  27
TORSDOF 7
ENDMDL
MODEL 7
REMARK VINA RESULT:    -5.786      4.327      6.602
REMARK INTER + INTRA:          -7.523
REMARK INTER:                  -7.144
REMARK INTRA:                  -0.378
REMARK UNBOUND:                -0.384
REMARK SMILES Oc1cc(O)c2cc(O)c(-c3cc(O)c(O)c(O)c3)[o+]c2c1
REMARK SMILES IDX 10 1 20 2 21 3 22 4 2 5 3 6 4 7 6 8 7 9 8 10 11 11 12 12
REMARK SMILES IDX 13 13 19 14 15 15 17 16 14 17 16 19 18 21 9 23 1 25 5 27
REMARK H PARENT 14 18 16 20 18 22 9 24 1 26 5 28
REMARK Flexibility Score: inf
ROOT
ATOM      1  C   UNL     1      31.514 -38.349  33.871  1.00  0.00     0.402 A 
ATOM      2  O   UNL     1      32.154 -38.666  32.747  1.00  0.00    -0.202 OA
ATOM      3  C   UNL     1      33.478 -38.667  32.638  1.00  0.00     0.368 A 
ATOM      4  C   UNL     1      34.059 -39.012  31.414  1.00  0.00     0.162 A 
ATOM      5  C   UNL     1      35.450 -39.019  31.270  1.00  0.00     0.128 A 
ATOM      6  C   UNL     1      36.263 -38.679  32.354  1.00  0.00     0.093 A 
ATOM      7  C   UNL     1      35.705 -38.330  33.591  1.00  0.00     0.136 A 
ATOM      8  C   UNL     1      34.294 -38.324  33.743  1.00  0.00     0.125 A 
ATOM      9  C   UNL     1      33.649 -38.000  34.947  1.00  0.00     0.078 A 
ATOM     10  C   UNL     1      32.253 -38.021  35.022  1.00  0.00     0.223 A 
ENDROOT
BRANCH   1  11
ATOM     11  C   UNL     1      30.034 -38.375  33.864  1.00  0.00     0.091 A 
ATOM     12  C   UNL     1      29.324 -37.212  33.528  1.00  0.00     0.068 A 
ATOM     13  C   UNL     1      27.923 -37.204  33.533  1.00  0.00     0.162 A 
ATOM     14  C   UNL     1      29.320 -39.525  34.240  1.00  0.00     0.068 A 
ATOM     15  C   UNL     1      27.216 -38.364  33.891  1.00  0.00     0.200 A 
ATOM     16  C   UNL     1      27.921 -39.526  34.250  1.00  0.00     0.162 A 
BRANCH  13  17
ATOM     17  O   UNL     1      27.229 -36.045  33.183  1.00  0.00    -0.504 OA
ATOM     18  H   UNL     1      26.281 -35.878  33.499  1.00  0.00     0.293 HD
ENDBRANCH  13  17
BRANCH  15  19
ATOM     19  O   UNL     1      25.821 -38.376  33.898  1.00  0.00    -0.502 OA
ATOM     20  H   UNL     1      25.274 -37.538  33.737  1.00  0.00     0.293 HD
ENDBRANCH  15  19
BRANCH  16  21
ATOM     21  O   UNL     1      27.250 -40.689  34.625  1.00  0.00    -0.504 OA
ATOM     22  H   UNL     1      27.526 -41.235  35.433  1.00  0.00     0.293 HD
ENDBRANCH  16  21
ENDBRANCH   1  11
BRANCH  10  23
ATOM     23  O   UNL     1      31.612 -37.748  36.232  1.00  0.00    -0.500 OA
ATOM     24  H   UNL     1      31.000 -36.948  36.341  1.00  0.00     0.294 HD
ENDBRANCH  10  23
BRANCH   5  25
ATOM     25  O   UNL     1      36.035 -39.362  30.054  1.00  0.00    -0.507 OA
ATOM     26  H   UNL     1      35.555 -39.949  29.382  1.00  0.00     0.293 HD
ENDBRANCH   5  25
BRANCH   7  27
ATOM     27  O   UNL     1      36.586 -38.000  34.624  1.00  0.00    -0.507 OA
ATOM     28  H   UNL     1      37.180 -37.183  34.627  1.00  0.00     0.293 HD
ENDBRANCH   7  27
TORSDOF 7
ENDMDL
MODEL 8
REMARK VINA RESULT:    -4.434      1.950      7.120
REMARK INTER + INTRA:          -5.855
REMARK INTER:                  -5.685
REMARK INTRA:                  -0.170
REMARK UNBOUND:                -0.384
REMARK SMILES Oc1cc(O)c2cc(O)c(-c3cc(O)c(O)c(O)c3)[o+]c2c1
REMARK SMILES IDX 10 1 20 2 21 3 22 4 2 5 3 6 4 7 6 8 7 9 8 10 11 11 12 12
REMARK SMILES IDX 13 13 19 14 15 15 17 16 14 17 16 19 18 21 9 23 1 25 5 27
REMARK H PARENT 14 18 16 20 18 22 9 24 1 26 5 28
REMARK Flexibility Score: inf
ROOT
ATOM      1  C   UNL     1      30.103 -35.766  35.341  1.00  0.00     0.402 A 
ATOM      2  O   UNL     1      30.765 -35.534  36.472  1.00  0.00    -0.202 OA
ATOM      3  C   UNL     1      31.292 -34.353  36.779  1.00  0.00     0.368 A 
ATOM      4  C   UNL     1      31.974 -34.206  37.990  1.00  0.00     0.162 A 
ATOM      5  C   UNL     1      32.541 -32.976  38.337  1.00  0.00     0.128 A 
ATOM      6  C   UNL     1      32.426 -31.888  37.468  1.00  0.00     0.093 A 
ATOM      7  C   UNL     1      31.747 -32.009  36.248  1.00  0.00     0.136 A 
ATOM      8  C   UNL     1      31.168 -33.255  35.893  1.00  0.00     0.125 A 
ATOM      9  C   UNL     1      30.460 -33.464  34.699  1.00  0.00     0.078 A 
ATOM     10  C   UNL     1      29.913 -34.720  34.420  1.00  0.00     0.223 A 
ENDROOT
BRANCH   1  11
ATOM     11  C   UNL     1      29.571 -37.128  35.110  1.00  0.00     0.091 A 
ATOM     12  C   UNL     1      28.186 -37.319  34.994  1.00  0.00     0.068 A 
ATOM     13  C   UNL     1      27.655 -38.601  34.795  1.00  0.00     0.162 A 
ATOM     14  C   UNL     1      30.420 -38.247  35.060  1.00  0.00     0.068 A 
ATOM     15  C   UNL     1      28.513 -39.711  34.725  1.00  0.00     0.200 A 
ATOM     16  C   UNL     1      29.900 -39.530  34.863  1.00  0.00     0.162 A 
BRANCH  13  17
ATOM     17  O   UNL     1      26.277 -38.774  34.666  1.00  0.00    -0.504 OA
ATOM     18  H   UNL     1      25.623 -38.295  35.273  1.00  0.00     0.293 HD
ENDBRANCH  13  17
BRANCH  15  19
ATOM     19  O   UNL     1      28.003 -40.994  34.523  1.00  0.00    -0.502 OA
ATOM     20  H   UNL     1      27.985 -41.430  33.609  1.00  0.00     0.293 HD
ENDBRANCH  15  19
BRANCH  16  21
ATOM     21  O   UNL     1      30.776 -40.614  34.814  1.00  0.00    -0.504 OA
ATOM     22  H   UNL     1      31.150 -41.043  35.652  1.00  0.00     0.293 HD
ENDBRANCH  16  21
ENDBRANCH   1  11
BRANCH  10  23
ATOM     23  O   UNL     1      29.166 -34.916  33.257  1.00  0.00    -0.500 OA
ATOM     24  H   UNL     1      28.821 -35.832  32.995  1.00  0.00     0.294 HD
ENDBRANCH  10  23
BRANCH   5  25
ATOM     25  O   UNL     1      33.222 -32.823  39.542  1.00  0.00    -0.507 OA
ATOM     26  H   UNL     1      34.032 -33.390  39.769  1.00  0.00     0.293 HD
ENDBRANCH   5  25
BRANCH   7  27
ATOM     27  O   UNL     1      31.680 -30.875  35.435  1.00  0.00    -0.507 OA
ATOM     28  H   UNL     1      31.913 -29.941  35.739  1.00  0.00     0.293 HD
ENDBRANCH   7  27
TORSDOF 7
ENDMDL
