MODEL 1
REMARK VINA RESULT:    -2.689      0.000      0.000
REMARK INTER + INTRA:          -6.471
REMARK INTER:                  -4.889
REMARK INTRA:                  -1.582
REMARK UNBOUND:                -1.582
REMARK SMILES CCCCCCCCCCCCCCCC(=O)[O-]
REMARK SMILES IDX 9 1 10 2 11 3 12 4 13 5 14 6 15 7 16 8 17 9 18 10 8 11 7 12
REMARK SMILES IDX 6 13 5 14 4 15 3 16 2 17 1 18
REMARK H PARENT
REMARK Flexibility Score: inf
ROOT
ATOM      1  C   UNL     1      -4.065  -6.760   3.619  1.00  0.00     0.000 C 
ENDROOT
BRANCH   1   2
ATOM      2  C   UNL     1      -5.584  -6.500   3.604  1.00  0.00     0.000 C 
BRANCH   2   3
ATOM      3  C   UNL     1      -6.443  -7.637   4.186  1.00  0.00     0.000 C 
BRANCH   3   4
ATOM      4  C   UNL     1      -7.125  -8.486   3.102  1.00  0.00     0.000 C 
BRANCH   4   5
ATOM      5  C   UNL     1      -6.594  -9.923   3.116  1.00  0.00     0.000 C 
BRANCH   5   6
ATOM      6  C   UNL     1      -6.779 -10.592   1.745  1.00  0.00     0.006 C 
BRANCH   6   7
ATOM      7  C   UNL     1      -5.750 -10.105   0.718  1.00  0.00     0.053 C 
BRANCH   7   8
ATOM      8  C   UNL     1      -6.407  -9.544  -0.505  1.00  0.00     0.041 C 
ATOM      9  O   UNL     1      -6.340  -8.310  -0.751  1.00  0.00    -0.550 OA
ATOM     10  O   UNL     1      -7.063 -10.386  -1.393  1.00  0.00    -0.550 OA
ENDBRANCH   7   8
ENDBRANCH   6   7
ENDBRANCH   5   6
ENDBRANCH   4   5
ENDBRANCH   3   4
ENDBRANCH   2   3
ENDBRANCH   1   2
BRANCH   1  11
ATOM     11  C   UNL     1      -3.645  -8.168   4.086  1.00  0.00     0.000 C 
BRANCH  11  12
ATOM     12  C   UNL     1      -2.941  -9.027   3.020  1.00  0.00    -0.000 C 
BRANCH  12  13
ATOM     13  C   UNL     1      -1.780  -9.857   3.595  1.00  0.00    -0.000 C 
BRANCH  13  14
ATOM     14  C   UNL     1      -0.411  -9.197   3.365  1.00  0.00    -0.000 C 
BRANCH  14  15
ATOM     15  C   UNL     1       0.208  -8.640   4.660  1.00  0.00    -0.000 C 
BRANCH  15  16
ATOM     16  C   UNL     1       0.456  -7.118   4.578  1.00  0.00    -0.000 C 
BRANCH  16  17
ATOM     17  C   UNL     1      -0.715  -6.275   5.112  1.00  0.00    -0.003 C 
ATOM     18  C   UNL     1      -0.561  -4.784   4.818  1.00  0.00     0.004 C 
ENDBRANCH  16  17
ENDBRANCH  15  16
ENDBRANCH  14  15
ENDBRANCH  13  14
ENDBRANCH  12  13
ENDBRANCH  11  12
ENDBRANCH   1  11
TORSDOF 14
ENDMDL
MODEL 2
REMARK VINA RESULT:    -2.449      0.920      1.701
REMARK INTER + INTRA:          -6.036
REMARK INTER:                  -4.832
REMARK INTRA:                  -1.204
REMARK UNBOUND:                -1.582
REMARK SMILES CCCCCCCCCCCCCCCC(=O)[O-]
REMARK SMILES IDX 9 1 10 2 11 3 12 4 13 5 14 6 15 7 16 8 17 9 18 10 8 11 7 12
REMARK SMILES IDX 6 13 5 14 4 15 3 16 2 17 1 18
REMARK H PARENT
REMARK Flexibility Score: inf
ROOT
ATOM      1  C   UNL     1      -2.783  -9.384   2.875  1.00  0.00     0.000 C 
ENDROOT
BRANCH   1   2
ATOM      2  C   UNL     1      -3.966  -8.885   3.728  1.00  0.00     0.000 C 
BRANCH   2   3
ATOM      3  C   UNL     1      -4.686  -7.641   3.176  1.00  0.00     0.000 C 
BRANCH   3   4
ATOM      4  C   UNL     1      -6.115  -7.941   2.699  1.00  0.00     0.000 C 
BRANCH   4   5
ATOM      5  C   UNL     1      -6.540  -9.359   3.097  1.00  0.00     0.000 C 
BRANCH   5   6
ATOM      6  C   UNL     1      -7.097 -10.127   1.888  1.00  0.00     0.006 C 
BRANCH   6   7
ATOM      7  C   UNL     1      -6.052 -10.301   0.779  1.00  0.00     0.053 C 
BRANCH   7   8
ATOM      8  C   UNL     1      -6.517  -9.723  -0.521  1.00  0.00     0.041 C 
ATOM      9  O   UNL     1      -6.550  -8.474  -0.684  1.00  0.00    -0.550 OA
ATOM     10  O   UNL     1      -6.883 -10.562  -1.566  1.00  0.00    -0.550 OA
ENDBRANCH   7   8
ENDBRANCH   6   7
ENDBRANCH   5   6
ENDBRANCH   4   5
ENDBRANCH   3   4
ENDBRANCH   2   3
ENDBRANCH   1   2
BRANCH   1  11
ATOM     11  C   UNL     1      -2.222 -10.763   3.274  1.00  0.00     0.000 C 
BRANCH  11  12
ATOM     12  C   UNL     1      -0.689 -10.888   3.213  1.00  0.00    -0.000 C 
BRANCH  12  13
ATOM     13  C   UNL     1      -0.047 -11.040   4.603  1.00  0.00    -0.000 C 
BRANCH  13  14
ATOM     14  C   UNL     1       0.551  -9.723   5.124  1.00  0.00    -0.000 C 
BRANCH  14  15
ATOM     15  C   UNL     1       0.303  -8.538   4.174  1.00  0.00    -0.000 C 
BRANCH  15  16
ATOM     16  C   UNL     1       0.487  -7.178   4.881  1.00  0.00    -0.000 C 
BRANCH  16  17
ATOM     17  C   UNL     1      -0.808  -6.353   4.974  1.00  0.00    -0.003 C 
ATOM     18  C   UNL     1      -0.567  -4.847   4.894  1.00  0.00     0.004 C 
ENDBRANCH  16  17
ENDBRANCH  15  16
ENDBRANCH  14  15
ENDBRANCH  13  14
ENDBRANCH  12  13
ENDBRANCH  11  12
ENDBRANCH   1  11
TORSDOF 14
ENDMDL
MODEL 3
REMARK VINA RESULT:    -2.366      3.292      6.632
REMARK INTER + INTRA:          -5.885
REMARK INTER:                  -4.204
REMARK INTRA:                  -1.681
REMARK UNBOUND:                -1.582
REMARK SMILES CCCCCCCCCCCCCCCC(=O)[O-]
REMARK SMILES IDX 9 1 10 2 11 3 12 4 13 5 14 6 15 7 16 8 17 9 18 10 8 11 7 12
REMARK SMILES IDX 6 13 5 14 4 15 3 16 2 17 1 18
REMARK H PARENT
REMARK Flexibility Score: inf
ROOT
ATOM      1  C   UNL     1      -3.852  -8.306   4.506  1.00  0.00     0.000 C 
ENDROOT
BRANCH   1   2
ATOM      2  C   UNL     1      -4.155  -9.790   4.794  1.00  0.00     0.000 C 
BRANCH   2   3
ATOM      3  C   UNL     1      -3.010 -10.763   4.460  1.00  0.00     0.000 C 
BRANCH   3   4
ATOM      4  C   UNL     1      -2.369 -10.483   3.093  1.00  0.00     0.000 C 
BRANCH   4   5
ATOM      5  C   UNL     1      -0.863 -10.237   3.234  1.00  0.00     0.000 C 
BRANCH   5   6
ATOM      6  C   UNL     1      -0.530  -8.746   3.066  1.00  0.00     0.006 C 
BRANCH   6   7
ATOM      7  C   UNL     1      -0.473  -8.008   4.409  1.00  0.00     0.053 C 
BRANCH   7   8
ATOM      8  C   UNL     1       0.056  -6.616   4.257  1.00  0.00     0.041 C 
ATOM      9  O   UNL     1       1.003  -6.381   3.461  1.00  0.00    -0.550 OA
ATOM     10  O   UNL     1      -0.518  -5.570   4.969  1.00  0.00    -0.550 OA
ENDBRANCH   7   8
ENDBRANCH   6   7
ENDBRANCH   5   6
ENDBRANCH   4   5
ENDBRANCH   3   4
ENDBRANCH   2   3
ENDBRANCH   1   2
BRANCH   1  11
ATOM     11  C   UNL     1      -4.679  -7.677   3.366  1.00  0.00     0.000 C 
BRANCH  11  12
ATOM     12  C   UNL     1      -6.156  -7.405   3.701  1.00  0.00    -0.000 C 
BRANCH  12  13
ATOM     13  C   UNL     1      -7.124  -8.263   2.868  1.00  0.00    -0.000 C 
BRANCH  13  14
ATOM     14  C   UNL     1      -7.125  -9.738   3.297  1.00  0.00    -0.000 C 
BRANCH  14  15
ATOM     15  C   UNL     1      -7.036 -10.706   2.103  1.00  0.00    -0.000 C 
BRANCH  15  16
ATOM     16  C   UNL     1      -5.636 -10.702   1.454  1.00  0.00    -0.000 C 
BRANCH  16  17
ATOM     17  C   UNL     1      -5.642 -10.254  -0.018  1.00  0.00    -0.003 C 
ATOM     18  C   UNL     1      -5.621  -8.736  -0.182  1.00  0.00     0.004 C 
ENDBRANCH  16  17
ENDBRANCH  15  16
ENDBRANCH  14  15
ENDBRANCH  13  14
ENDBRANCH  12  13
ENDBRANCH  11  12
ENDBRANCH   1  11
TORSDOF 14
ENDMDL
MODEL 4
REMARK VINA RESULT:    -2.241      3.350      6.162
REMARK INTER + INTRA:          -5.658
REMARK INTER:                  -4.123
REMARK INTRA:                  -1.535
REMARK UNBOUND:                -1.582
REMARK SMILES CCCCCCCCCCCCCCCC(=O)[O-]
REMARK SMILES IDX 9 1 10 2 11 3 12 4 13 5 14 6 15 7 16 8 17 9 18 10 8 11 7 12
REMARK SMILES IDX 6 13 5 14 4 15 3 16 2 17 1 18
REMARK H PARENT
REMARK Flexibility Score: inf
ROOT
ATOM      1  C   UNL     1      -4.142  -9.513   2.187  1.00  0.00     0.000 C 
ENDROOT
BRANCH   1   2
ATOM      2  C   UNL     1      -3.719 -10.915   2.669  1.00  0.00     0.000 C 
BRANCH   2   3
ATOM      3  C   UNL     1      -3.640 -11.080   4.197  1.00  0.00     0.000 C 
BRANCH   3   4
ATOM      4  C   UNL     1      -2.643 -10.111   4.851  1.00  0.00     0.000 C 
BRANCH   4   5
ATOM      5  C   UNL     1      -1.204 -10.615   4.694  1.00  0.00     0.000 C 
BRANCH   5   6
ATOM      6  C   UNL     1      -0.294  -9.515   4.127  1.00  0.00     0.006 C 
BRANCH   6   7
ATOM      7  C   UNL     1      -0.993  -8.150   4.078  1.00  0.00     0.053 C 
BRANCH   7   8
ATOM      8  C   UNL     1      -0.140  -7.067   4.664  1.00  0.00     0.041 C 
ATOM      9  O   UNL     1       1.055  -7.304   4.983  1.00  0.00    -0.550 OA
ATOM     10  O   UNL     1      -0.653  -5.786   4.825  1.00  0.00    -0.550 OA
ENDBRANCH   7   8
ENDBRANCH   6   7
ENDBRANCH   5   6
ENDBRANCH   4   5
ENDBRANCH   3   4
ENDBRANCH   2   3
ENDBRANCH   1   2
BRANCH   1  11
ATOM     11  C   UNL     1      -5.427  -9.472   1.334  1.00  0.00     0.000 C 
BRANCH  11  12
ATOM     12  C   UNL     1      -6.691  -9.007   2.077  1.00  0.00    -0.000 C 
BRANCH  12  13
ATOM     13  C   UNL     1      -6.914  -9.757   3.402  1.00  0.00    -0.000 C 
BRANCH  13  14
ATOM     14  C   UNL     1      -7.075  -8.807   4.600  1.00  0.00    -0.000 C 
BRANCH  14  15
ATOM     15  C   UNL     1      -5.887  -7.840   4.758  1.00  0.00    -0.000 C 
BRANCH  15  16
ATOM     16  C   UNL     1      -6.163  -6.468   4.106  1.00  0.00    -0.000 C 
BRANCH  16  17
ATOM     17  C   UNL     1      -4.900  -5.784   3.554  1.00  0.00    -0.003 C 
ATOM     18  C   UNL     1      -5.025  -4.264   3.485  1.00  0.00     0.004 C 
ENDBRANCH  16  17
ENDBRANCH  15  16
ENDBRANCH  14  15
ENDBRANCH  13  14
ENDBRANCH  12  13
ENDBRANCH  11  12
ENDBRANCH   1  11
TORSDOF 14
ENDMDL
MODEL 5
REMARK VINA RESULT:    -2.207      2.428      3.385
REMARK INTER + INTRA:          -5.595
REMARK INTER:                  -4.234
REMARK INTRA:                  -1.361
REMARK UNBOUND:                -1.582
REMARK SMILES CCCCCCCCCCCCCCCC(=O)[O-]
REMARK SMILES IDX 9 1 10 2 11 3 12 4 13 5 14 6 15 7 16 8 17 9 18 10 8 11 7 12
REMARK SMILES IDX 6 13 5 14 4 15 3 16 2 17 1 18
REMARK H PARENT
REMARK Flexibility Score: inf
ROOT
ATOM      1  C   UNL     1      -3.203  -9.011   2.260  1.00  0.00     0.000 C 
ENDROOT
BRANCH   1   2
ATOM      2  C   UNL     1      -4.669  -8.759   1.858  1.00  0.00     0.000 C 
BRANCH   2   3
ATOM      3  C   UNL     1      -5.545 -10.021   1.772  1.00  0.00     0.000 C 
BRANCH   3   4
ATOM      4  C   UNL     1      -6.905  -9.854   2.466  1.00  0.00     0.000 C 
BRANCH   4   5
ATOM      5  C   UNL     1      -6.730  -9.665   3.977  1.00  0.00     0.000 C 
BRANCH   5   6
ATOM      6  C   UNL     1      -7.121  -8.242   4.404  1.00  0.00     0.006 C 
BRANCH   6   7
ATOM      7  C   UNL     1      -5.900  -7.387   4.767  1.00  0.00     0.053 C 
BRANCH   7   8
ATOM      8  C   UNL     1      -5.949  -6.041   4.113  1.00  0.00     0.041 C 
ATOM      9  O   UNL     1      -4.933  -5.586   3.522  1.00  0.00    -0.550 OA
ATOM     10  O   UNL     1      -7.125  -5.302   4.125  1.00  0.00    -0.550 OA
ENDBRANCH   7   8
ENDBRANCH   6   7
ENDBRANCH   5   6
ENDBRANCH   4   5
ENDBRANCH   3   4
ENDBRANCH   2   3
ENDBRANCH   1   2
BRANCH   1  11
ATOM     11  C   UNL     1      -2.980 -10.199   3.219  1.00  0.00     0.000 C 
BRANCH  11  12
ATOM     12  C   UNL     1      -1.792 -11.111   2.865  1.00  0.00    -0.000 C 
BRANCH  12  13
ATOM     13  C   UNL     1      -0.434 -10.495   3.243  1.00  0.00    -0.000 C 
BRANCH  13  14
ATOM     14  C   UNL     1      -0.278 -10.291   4.758  1.00  0.00    -0.000 C 
BRANCH  14  15
ATOM     15  C   UNL     1       0.312  -8.916   5.117  1.00  0.00    -0.000 C 
BRANCH  15  16
ATOM     16  C   UNL     1      -0.398  -7.765   4.371  1.00  0.00    -0.000 C 
BRANCH  16  17
ATOM     17  C   UNL     1       0.358  -6.427   4.444  1.00  0.00    -0.003 C 
ATOM     18  C   UNL     1      -0.529  -5.262   4.878  1.00  0.00     0.004 C 
ENDBRANCH  16  17
ENDBRANCH  15  16
ENDBRANCH  14  15
ENDBRANCH  13  14
ENDBRANCH  12  13
ENDBRANCH  11  12
ENDBRANCH   1  11
TORSDOF 14
ENDMDL
MODEL 6
REMARK VINA RESULT:    -1.927      3.247      5.930
REMARK INTER + INTRA:          -5.087
REMARK INTER:                  -3.812
REMARK INTRA:                  -1.274
REMARK UNBOUND:                -1.582
REMARK SMILES CCCCCCCCCCCCCCCC(=O)[O-]
REMARK SMILES IDX 9 1 10 2 11 3 12 4 13 5 14 6 15 7 16 8 17 9 18 10 8 11 7 12
REMARK SMILES IDX 6 13 5 14 4 15 3 16 2 17 1 18
REMARK H PARENT
REMARK Flexibility Score: inf
ROOT
ATOM      1  C   UNL     1      -5.266  -9.414   0.840  1.00  0.00     0.000 C 
ENDROOT
BRANCH   1   2
ATOM      2  C   UNL     1      -4.938 -10.881   1.183  1.00  0.00     0.000 C 
BRANCH   2   3
ATOM      3  C   UNL     1      -4.181 -11.083   2.508  1.00  0.00     0.000 C 
BRANCH   3   4
ATOM      4  C   UNL     1      -3.265  -9.902   2.859  1.00  0.00     0.000 C 
BRANCH   4   5
ATOM      5  C   UNL     1      -3.064  -9.795   4.375  1.00  0.00     0.000 C 
BRANCH   5   6
ATOM      6  C   UNL     1      -1.692  -9.188   4.708  1.00  0.00     0.006 C 
BRANCH   6   7
ATOM      7  C   UNL     1      -0.767  -9.139   3.486  1.00  0.00     0.053 C 
BRANCH   7   8
ATOM      8  C   UNL     1       0.028 -10.400   3.338  1.00  0.00     0.041 C 
ATOM      9  O   UNL     1       0.389 -10.792   2.197  1.00  0.00    -0.550 OA
ATOM     10  O   UNL     1       0.401 -11.125   4.463  1.00  0.00    -0.550 OA
ENDBRANCH   7   8
ENDBRANCH   6   7
ENDBRANCH   5   6
ENDBRANCH   4   5
ENDBRANCH   3   4
ENDBRANCH   2   3
ENDBRANCH   1   2
BRANCH   1  11
ATOM     11  C   UNL     1      -6.724  -8.988   1.108  1.00  0.00     0.000 C 
BRANCH  11  12
ATOM     12  C   UNL     1      -6.947  -8.204   2.413  1.00  0.00    -0.000 C 
BRANCH  12  13
ATOM     13  C   UNL     1      -7.125  -9.120   3.637  1.00  0.00    -0.000 C 
BRANCH  13  14
ATOM     14  C   UNL     1      -6.478  -8.543   4.906  1.00  0.00    -0.000 C 
BRANCH  14  15
ATOM     15  C   UNL     1      -5.923  -7.122   4.700  1.00  0.00    -0.000 C 
BRANCH  15  16
ATOM     16  C   UNL     1      -7.038  -6.054   4.718  1.00  0.00    -0.000 C 
BRANCH  16  17
ATOM     17  C   UNL     1      -6.530  -4.630   4.438  1.00  0.00    -0.003 C 
ATOM     18  C   UNL     1      -5.269  -4.603   3.576  1.00  0.00     0.004 C 
ENDBRANCH  16  17
ENDBRANCH  15  16
ENDBRANCH  14  15
ENDBRANCH  13  14
ENDBRANCH  12  13
ENDBRANCH  11  12
ENDBRANCH   1  11
TORSDOF 14
ENDMDL
MODEL 7
REMARK VINA RESULT:    -1.892      1.477      3.968
REMARK INTER + INTRA:          -5.021
REMARK INTER:                  -3.739
REMARK INTRA:                  -1.283
REMARK UNBOUND:                -1.582
REMARK SMILES CCCCCCCCCCCCCCCC(=O)[O-]
REMARK SMILES IDX 9 1 10 2 11 3 12 4 13 5 14 6 15 7 16 8 17 9 18 10 8 11 7 12
REMARK SMILES IDX 6 13 5 14 4 15 3 16 2 17 1 18
REMARK H PARENT
REMARK Flexibility Score: inf
ROOT
ATOM      1  C   UNL     1      -0.401  -9.287   2.636  1.00  0.00     0.000 C 
ENDROOT
BRANCH   1   2
ATOM      2  C   UNL     1      -0.981 -10.568   3.268  1.00  0.00     0.000 C 
BRANCH   2   3
ATOM      3  C   UNL     1      -2.362 -10.987   2.733  1.00  0.00     0.000 C 
BRANCH   3   4
ATOM      4  C   UNL     1      -3.416 -11.124   3.842  1.00  0.00     0.000 C 
BRANCH   4   5
ATOM      5  C   UNL     1      -4.832 -11.123   3.257  1.00  0.00     0.000 C 
BRANCH   5   6
ATOM      6  C   UNL     1      -4.811 -10.759   1.764  1.00  0.00     0.006 C 
BRANCH   6   7
ATOM      7  C   UNL     1      -5.969  -9.831   1.376  1.00  0.00     0.053 C 
BRANCH   7   8
ATOM      8  C   UNL     1      -6.129  -9.732  -0.110  1.00  0.00     0.041 C 
ATOM      9  O   UNL     1      -6.087 -10.770  -0.823  1.00  0.00    -0.550 OA
ATOM     10  O   UNL     1      -6.358  -8.498  -0.706  1.00  0.00    -0.550 OA
ENDBRANCH   7   8
ENDBRANCH   6   7
ENDBRANCH   5   6
ENDBRANCH   4   5
ENDBRANCH   3   4
ENDBRANCH   2   3
ENDBRANCH   1   2
BRANCH   1  11
ATOM     11  C   UNL     1      -0.240  -8.094   3.600  1.00  0.00     0.000 C 
BRANCH  11  12
ATOM     12  C   UNL     1      -1.135  -8.139   4.851  1.00  0.00    -0.000 C 
BRANCH  12  13
ATOM     13  C   UNL     1      -2.396  -7.268   4.714  1.00  0.00    -0.000 C 
BRANCH  13  14
ATOM     14  C   UNL     1      -3.568  -8.023   4.068  1.00  0.00    -0.000 C 
BRANCH  14  15
ATOM     15  C   UNL     1      -4.940  -7.467   4.489  1.00  0.00    -0.000 C 
BRANCH  15  16
ATOM     16  C   UNL     1      -5.499  -6.458   3.461  1.00  0.00    -0.000 C 
BRANCH  16  17
ATOM     17  C   UNL     1      -5.671  -5.037   4.025  1.00  0.00    -0.003 C 
ATOM     18  C   UNL     1      -4.886  -3.985   3.246  1.00  0.00     0.004 C 
ENDBRANCH  16  17
ENDBRANCH  15  16
ENDBRANCH  14  15
ENDBRANCH  13  14
ENDBRANCH  12  13
ENDBRANCH  11  12
ENDBRANCH   1  11
TORSDOF 14
ENDMDL
MODEL 8
REMARK VINA RESULT:    -1.889      2.343      5.546
REMARK INTER + INTRA:          -5.017
REMARK INTER:                  -3.131
REMARK INTRA:                  -1.886
REMARK UNBOUND:                -1.582
REMARK SMILES CCCCCCCCCCCCCCCC(=O)[O-]
REMARK SMILES IDX 9 1 10 2 11 3 12 4 13 5 14 6 15 7 16 8 17 9 18 10 8 11 7 12
REMARK SMILES IDX 6 13 5 14 4 15 3 16 2 17 1 18
REMARK H PARENT
REMARK Flexibility Score: inf
ROOT
ATOM      1  C   UNL     1      -0.173  -8.921   2.559  1.00  0.00     0.000 C 
ENDROOT
BRANCH   1   2
ATOM      2  C   UNL     1       0.212  -7.786   3.529  1.00  0.00     0.000 C 
BRANCH   2   3
ATOM      3  C   UNL     1      -0.597  -7.749   4.838  1.00  0.00     0.000 C 
BRANCH   3   4
ATOM      4  C   UNL     1      -1.856  -6.876   4.737  1.00  0.00     0.000 C 
BRANCH   4   5
ATOM      5  C   UNL     1      -3.124  -7.735   4.784  1.00  0.00     0.000 C 
BRANCH   5   6
ATOM      6  C   UNL     1      -3.993  -7.502   3.537  1.00  0.00     0.006 C 
BRANCH   6   7
ATOM      7  C   UNL     1      -4.767  -6.180   3.607  1.00  0.00     0.053 C 
BRANCH   7   8
ATOM      8  C   UNL     1      -6.170  -6.380   4.091  1.00  0.00     0.041 C 
ATOM      9  O   UNL     1      -6.959  -5.402   4.169  1.00  0.00    -0.550 OA
ATOM     10  O   UNL     1      -6.618  -7.652   4.423  1.00  0.00    -0.550 OA
ENDBRANCH   7   8
ENDBRANCH   6   7
ENDBRANCH   5   6
ENDBRANCH   4   5
ENDBRANCH   3   4
ENDBRANCH   2   3
ENDBRANCH   1   2
BRANCH   1  11
ATOM     11  C   UNL     1      -0.634 -10.230   3.231  1.00  0.00     0.000 C 
BRANCH  11  12
ATOM     12  C   UNL     1      -1.999 -10.762   2.760  1.00  0.00    -0.000 C 
BRANCH  12  13
ATOM     13  C   UNL     1      -2.934 -11.125   3.927  1.00  0.00    -0.000 C 
BRANCH  13  14
ATOM     14  C   UNL     1      -4.416 -11.125   3.520  1.00  0.00    -0.000 C 
BRANCH  14  15
ATOM     15  C   UNL     1      -4.652 -10.513   2.127  1.00  0.00    -0.000 C 
BRANCH  15  16
ATOM     16  C   UNL     1      -6.152 -10.281   1.841  1.00  0.00    -0.000 C 
BRANCH  16  17
ATOM     17  C   UNL     1      -6.446  -8.930   1.166  1.00  0.00    -0.003 C 
ATOM     18  C   UNL     1      -5.772  -8.782  -0.195  1.00  0.00     0.004 C 
ENDBRANCH  16  17
ENDBRANCH  15  16
ENDBRANCH  14  15
ENDBRANCH  13  14
ENDBRANCH  12  13
ENDBRANCH  11  12
ENDBRANCH   1  11
TORSDOF 14
ENDMDL
MODEL 9
REMARK VINA RESULT:    -1.874      2.977      6.453
REMARK INTER + INTRA:          -4.990
REMARK INTER:                  -3.566
REMARK INTRA:                  -1.423
REMARK UNBOUND:                -1.582
REMARK SMILES CCCCCCCCCCCCCCCC(=O)[O-]
REMARK SMILES IDX 9 1 10 2 11 3 12 4 13 5 14 6 15 7 16 8 17 9 18 10 8 11 7 12
REMARK SMILES IDX 6 13 5 14 4 15 3 16 2 17 1 18
REMARK H PARENT
REMARK Flexibility Score: inf
ROOT
ATOM      1  C   UNL     1      -4.418  -8.238   1.994  1.00  0.00     0.000 C 
ENDROOT
BRANCH   1   2
ATOM      2  C   UNL     1      -3.065  -8.853   2.403  1.00  0.00     0.000 C 
BRANCH   2   3
ATOM      3  C   UNL     1      -3.131  -9.842   3.581  1.00  0.00     0.000 C 
BRANCH   3   4
ATOM      4  C   UNL     1      -1.809 -10.591   3.807  1.00  0.00     0.000 C 
BRANCH   4   5
ATOM      5  C   UNL     1      -0.611  -9.719   3.417  1.00  0.00     0.000 C 
BRANCH   5   6
ATOM      6  C   UNL     1       0.000  -9.038   4.652  1.00  0.00     0.006 C 
BRANCH   6   7
ATOM      7  C   UNL     1       0.383  -7.578   4.380  1.00  0.00     0.053 C 
BRANCH   7   8
ATOM      8  C   UNL     1      -0.692  -6.630   4.816  1.00  0.00     0.041 C 
ATOM      9  O   UNL     1      -1.841  -7.062   5.100  1.00  0.00    -0.550 OA
ATOM     10  O   UNL     1      -0.417  -5.274   4.942  1.00  0.00    -0.550 OA
ENDBRANCH   7   8
ENDBRANCH   6   7
ENDBRANCH   5   6
ENDBRANCH   4   5
ENDBRANCH   3   4
ENDBRANCH   2   3
ENDBRANCH   1   2
BRANCH   1  11
ATOM     11  C   UNL     1      -4.908  -8.613   0.581  1.00  0.00     0.000 C 
BRANCH  11  12
ATOM     12  C   UNL     1      -6.208  -9.436   0.535  1.00  0.00    -0.000 C 
BRANCH  12  13
ATOM     13  C   UNL     1      -6.028 -10.864   1.078  1.00  0.00    -0.000 C 
BRANCH  13  14
ATOM     14  C   UNL     1      -6.319 -10.966   2.583  1.00  0.00    -0.000 C 
BRANCH  14  15
ATOM     15  C   UNL     1      -7.125  -9.768   3.117  1.00  0.00    -0.000 C 
BRANCH  15  16
ATOM     16  C   UNL     1      -7.034  -9.645   4.654  1.00  0.00    -0.000 C 
BRANCH  16  17
ATOM     17  C   UNL     1      -6.234  -8.417   5.125  1.00  0.00    -0.003 C 
ATOM     18  C   UNL     1      -6.920  -7.093   4.794  1.00  0.00     0.004 C 
ENDBRANCH  16  17
ENDBRANCH  15  16
ENDBRANCH  14  15
ENDBRANCH  13  14
ENDBRANCH  12  13
ENDBRANCH  11  12
ENDBRANCH   1  11
TORSDOF 14
ENDMDL
