MODEL 1
REMARK VINA RESULT:     8.509      0.000      0.000
REMARK INTER + INTRA:          13.440
REMARK INTER:                  12.488
REMARK INTRA:                   0.952
REMARK UNBOUND:                 0.952
REMARK SMILES O=c1c(O[C@@H]2O[C@@H](CO)[C@@H](O)[C@@H](O)[C@@H]2O)c(-c2ccc(O)c(O)c2)oc2cc(O)cc(O)c12
REMARK SMILES IDX 4 1 3 2 16 3 25 4 2 5 26 6 1 7 33 8 27 9 31 10 28 11 30 12
REMARK SMILES IDX 17 13 18 14 19 15 20 16 24 17 22 18 21 19 23 21 32 23 29 25
REMARK SMILES IDX 5 27 14 28 6 29 12 30 7 31 10 32 15 33 13 35 8 37 9 38 11 40
REMARK H PARENT 21 20 23 22 32 24 29 26 15 34 13 36 9 39 11 41
REMARK Flexibility Score: inf
ROOT
ATOM      1  O   UNL     1      95.394 103.579 100.018  1.00  0.00    -0.454 OA
ENDROOT
BRANCH   1   2
ATOM      2  C   UNL     1      95.310 104.919  99.590  1.00  0.00     0.214 A 
ATOM      3  C   UNL     1      95.393 105.179  98.207  1.00  0.00     0.180 A 
ATOM      4  O   UNL     1      95.269 106.419  97.748  1.00  0.00    -0.452 OA
ATOM      5  C   UNL     1      95.117 106.015 100.464  1.00  0.00     0.239 A 
ATOM      6  C   UNL     1      95.089 107.472  98.532  1.00  0.00     0.146 A 
ATOM      7  O   UNL     1      95.029 105.833 101.707  1.00  0.00    -0.285 OA
ATOM      8  C   UNL     1      95.010 107.320  99.934  1.00  0.00     0.111 A 
ATOM      9  C   UNL     1      94.978 108.740  97.951  1.00  0.00     0.094 A 
ATOM     10  C   UNL     1      94.822 108.470 100.741  1.00  0.00     0.134 A 
ATOM     11  C   UNL     1      94.792 109.870  98.752  1.00  0.00     0.123 A 
ATOM     12  C   UNL     1      94.716 109.733 100.140  1.00  0.00     0.093 A 
BRANCH   3  13
ATOM     13  C   UNL     1      95.593 104.093  97.222  1.00  0.00     0.025 A 
ATOM     14  C   UNL     1      96.684 104.148  96.344  1.00  0.00     0.016 A 
ATOM     15  C   UNL     1      96.889 103.131  95.410  1.00  0.00     0.051 A 
ATOM     16  C   UNL     1      96.020 102.036  95.342  1.00  0.00     0.157 A 
ATOM     17  C   UNL     1      94.735 102.982  97.177  1.00  0.00     0.062 A 
ATOM     18  C   UNL     1      94.931 101.958  96.243  1.00  0.00     0.158 A 
BRANCH  16  19
ATOM     19  O   UNL     1      96.275 101.058  94.380  1.00  0.00    -0.504 OA
ATOM     20  H   UNL     1      95.769 100.187  94.312  1.00  0.00     0.293 HD
ENDBRANCH  16  19
BRANCH  18  21
ATOM     21  O   UNL     1      94.032 100.890  96.248  1.00  0.00    -0.504 OA
ATOM     22  H   UNL     1      93.331 100.738  95.536  1.00  0.00     0.293 HD
ENDBRANCH  18  21
ENDBRANCH   3  13
BRANCH  10  23
ATOM     23  O   UNL     1      94.742 108.370 102.131  1.00  0.00    -0.507 OA
ATOM     24  H   UNL     1      94.064 107.769 102.584  1.00  0.00     0.293 HD
ENDBRANCH  10  23
BRANCH  11  25
ATOM     25  O   UNL     1      94.682 111.136  98.180  1.00  0.00    -0.508 OA
ATOM     26  H   UNL     1      93.782 111.518  97.909  1.00  0.00     0.293 HD
ENDBRANCH  11  25
ENDBRANCH   1   2
BRANCH   1  27
ATOM     27  C   UNL     1      94.506 102.886 100.905  1.00  0.00     0.339 C 
ATOM     28  C   UNL     1      93.114 102.743 100.260  1.00  0.00     0.214 C 
ATOM     29  O   UNL     1      95.029 101.621 101.285  1.00  0.00    -0.332 OA
ATOM     30  C   UNL     1      93.170 101.762  99.072  1.00  0.00     0.180 C 
ATOM     31  C   UNL     1      95.203 100.770 100.163  1.00  0.00     0.179 C 
ATOM     32  C   UNL     1      93.844 100.449  99.505  1.00  0.00     0.177 C 
BRANCH  28  33
ATOM     33  O   UNL     1      92.671 104.004  99.830  1.00  0.00    -0.384 OA
ATOM     34  H   UNL     1      93.384 104.656 100.057  1.00  0.00     0.211 HD
ENDBRANCH  28  33
BRANCH  30  35
ATOM     35  O   UNL     1      91.875 101.493  98.599  1.00  0.00    -0.387 OA
ATOM     36  H   UNL     1      91.441 100.896  99.263  1.00  0.00     0.211 HD
ENDBRANCH  30  35
BRANCH  31  37
ATOM     37  C   UNL     1      95.914  99.490 100.615  1.00  0.00     0.191 C 
BRANCH  37  38
ATOM     38  O   UNL     1      97.265  99.550 100.249  1.00  0.00    -0.394 OA
ATOM     39  H   UNL     1      97.324 100.221  99.521  1.00  0.00     0.210 HD
ENDBRANCH  37  38
ENDBRANCH  31  37
BRANCH  32  40
ATOM     40  O   UNL     1      93.025  99.760 100.419  1.00  0.00    -0.387 OA
ATOM     41  H   UNL     1      92.923  98.834 100.075  1.00  0.00     0.211 HD
ENDBRANCH  32  40
ENDBRANCH   1  27
TORSDOF 12
ENDMDL
MODEL 2
REMARK VINA RESULT:     9.434      1.795      4.551
REMARK INTER + INTRA:          14.799
REMARK INTER:                  11.995
REMARK INTRA:                   2.804
REMARK UNBOUND:                 0.952
REMARK SMILES O=c1c(O[C@@H]2O[C@@H](CO)[C@@H](O)[C@@H](O)[C@@H]2O)c(-c2ccc(O)c(O)c2)oc2cc(O)cc(O)c12
REMARK SMILES IDX 4 1 3 2 16 3 25 4 2 5 26 6 1 7 33 8 27 9 31 10 28 11 30 12
REMARK SMILES IDX 17 13 18 14 19 15 20 16 24 17 22 18 21 19 23 21 32 23 29 25
REMARK SMILES IDX 5 27 14 28 6 29 12 30 7 31 10 32 15 33 13 35 8 37 9 38 11 40
REMARK H PARENT 21 20 23 22 32 24 29 26 15 34 13 36 9 39 11 41
REMARK Flexibility Score: inf
ROOT
ATOM      1  O   UNL     1      94.528 103.410  97.262  1.00  0.00    -0.454 OA
ENDROOT
BRANCH   1   2
ATOM      2  C   UNL     1      94.471 104.515  98.135  1.00  0.00     0.214 A 
ATOM      3  C   UNL     1      93.924 104.316  99.419  1.00  0.00     0.180 A 
ATOM      4  O   UNL     1      93.893 105.311 100.297  1.00  0.00    -0.452 OA
ATOM      5  C   UNL     1      94.959 105.802  97.810  1.00  0.00     0.239 A 
ATOM      6  C   UNL     1      94.338 106.532 100.032  1.00  0.00     0.146 A 
ATOM      7  O   UNL     1      95.463 106.027  96.679  1.00  0.00    -0.285 OA
ATOM      8  C   UNL     1      94.889 106.837  98.768  1.00  0.00     0.111 A 
ATOM      9  C   UNL     1      94.253 107.515 101.023  1.00  0.00     0.094 A 
ATOM     10  C   UNL     1      95.349 108.155  98.519  1.00  0.00     0.134 A 
ATOM     11  C   UNL     1      94.711 108.812 100.773  1.00  0.00     0.123 A 
ATOM     12  C   UNL     1      95.253 109.128  99.526  1.00  0.00     0.093 A 
BRANCH   3  13
ATOM     13  C   UNL     1      93.391 103.002  99.843  1.00  0.00     0.025 A 
ATOM     14  C   UNL     1      93.051 102.048  98.875  1.00  0.00     0.016 A 
ATOM     15  C   UNL     1      92.550 100.803  99.258  1.00  0.00     0.051 A 
ATOM     16  C   UNL     1      92.391 100.481 100.611  1.00  0.00     0.157 A 
ATOM     17  C   UNL     1      93.260 102.674 101.203  1.00  0.00     0.062 A 
ATOM     18  C   UNL     1      92.756 101.428 101.597  1.00  0.00     0.158 A 
BRANCH  16  19
ATOM     19  O   UNL     1      91.875  99.223 100.928  1.00  0.00    -0.504 OA
ATOM     20  H   UNL     1      90.897  99.040 101.097  1.00  0.00     0.293 HD
ENDBRANCH  16  19
BRANCH  18  21
ATOM     21  O   UNL     1      92.643 101.175 102.965  1.00  0.00    -0.504 OA
ATOM     22  H   UNL     1      92.829 101.861 103.684  1.00  0.00     0.293 HD
ENDBRANCH  18  21
ENDBRANCH   3  13
BRANCH  10  23
ATOM     23  O   UNL     1      95.897 108.505  97.285  1.00  0.00    -0.507 OA
ATOM     24  H   UNL     1      96.840 108.866  97.203  1.00  0.00     0.293 HD
ENDBRANCH  10  23
BRANCH  11  25
ATOM     25  O   UNL     1      94.629 109.796 101.755  1.00  0.00    -0.508 OA
ATOM     26  H   UNL     1      93.797 109.908 102.325  1.00  0.00     0.293 HD
ENDBRANCH  11  25
ENDBRANCH   1   2
BRANCH   1  27
ATOM     27  C   UNL     1      95.398 102.274  97.343  1.00  0.00     0.339 C 
ATOM     28  C   UNL     1      96.502 102.372  96.273  1.00  0.00     0.214 C 
ATOM     29  O   UNL     1      95.952 102.131  98.643  1.00  0.00    -0.332 OA
ATOM     30  C   UNL     1      97.479 103.516  96.612  1.00  0.00     0.180 C 
ATOM     31  C   UNL     1      96.743 103.255  98.999  1.00  0.00     0.179 C 
ATOM     32  C   UNL     1      97.965 103.380  98.065  1.00  0.00     0.177 C 
BRANCH  28  33
ATOM     33  O   UNL     1      95.914 102.590  95.017  1.00  0.00    -0.384 OA
ATOM     34  H   UNL     1      95.958 103.566  94.842  1.00  0.00     0.211 HD
ENDBRANCH  28  33
BRANCH  30  35
ATOM     35  O   UNL     1      98.581 103.492  95.741  1.00  0.00    -0.387 OA
ATOM     36  H   UNL     1      98.429 104.199  95.061  1.00  0.00     0.211 HD
ENDBRANCH  30  35
BRANCH  31  37
ATOM     37  C   UNL     1      97.178 103.114 100.461  1.00  0.00     0.191 C 
BRANCH  37  38
ATOM     38  O   UNL     1      96.594 101.966 101.015  1.00  0.00    -0.394 OA
ATOM     39  H   UNL     1      96.174 102.255 101.866  1.00  0.00     0.210 HD
ENDBRANCH  37  38
ENDBRANCH  31  37
BRANCH  32  40
ATOM     40  O   UNL     1      98.784 102.244  98.199  1.00  0.00    -0.387 OA
ATOM     41  H   UNL     1      98.274 101.473  97.837  1.00  0.00     0.211 HD
ENDBRANCH  32  40
ENDBRANCH   1  27
TORSDOF 12
ENDMDL
MODEL 3
REMARK VINA RESULT:     9.924      1.673      4.181
REMARK INTER + INTRA:          15.517
REMARK INTER:                  12.100
REMARK INTRA:                   3.417
REMARK UNBOUND:                 0.952
REMARK SMILES O=c1c(O[C@@H]2O[C@@H](CO)[C@@H](O)[C@@H](O)[C@@H]2O)c(-c2ccc(O)c(O)c2)oc2cc(O)cc(O)c12
REMARK SMILES IDX 4 1 3 2 16 3 25 4 2 5 26 6 1 7 33 8 27 9 31 10 28 11 30 12
REMARK SMILES IDX 17 13 18 14 19 15 20 16 24 17 22 18 21 19 23 21 32 23 29 25
REMARK SMILES IDX 5 27 14 28 6 29 12 30 7 31 10 32 15 33 13 35 8 37 9 38 11 40
REMARK H PARENT 21 20 23 22 32 24 29 26 15 34 13 36 9 39 11 41
REMARK Flexibility Score: inf
ROOT
ATOM      1  O   UNL     1      94.658 103.662  97.465  1.00  0.00    -0.454 OA
ENDROOT
BRANCH   1   2
ATOM      2  C   UNL     1      94.544 104.803  98.285  1.00  0.00     0.214 A 
ATOM      3  C   UNL     1      93.944 104.650  99.551  1.00  0.00     0.180 A 
ATOM      4  O   UNL     1      93.858 105.683 100.383  1.00  0.00    -0.452 OA
ATOM      5  C   UNL     1      95.024 106.084  97.924  1.00  0.00     0.239 A 
ATOM      6  C   UNL     1      94.294 106.898 100.083  1.00  0.00     0.146 A 
ATOM      7  O   UNL     1      95.573 106.268  96.806  1.00  0.00    -0.285 OA
ATOM      8  C   UNL     1      94.894 107.158  98.831  1.00  0.00     0.111 A 
ATOM      9  C   UNL     1      94.149 107.922 101.024  1.00  0.00     0.094 A 
ATOM     10  C   UNL     1      95.342 108.472  98.544  1.00  0.00     0.134 A 
ATOM     11  C   UNL     1      94.595 109.216 100.736  1.00  0.00     0.123 A 
ATOM     12  C   UNL     1      95.187 109.486  99.501  1.00  0.00     0.093 A 
BRANCH   3  13
ATOM     13  C   UNL     1      93.416 103.347 100.011  1.00  0.00     0.025 A 
ATOM     14  C   UNL     1      92.742 102.516  99.107  1.00  0.00     0.016 A 
ATOM     15  C   UNL     1      92.239 101.282  99.523  1.00  0.00     0.051 A 
ATOM     16  C   UNL     1      92.411 100.848 100.842  1.00  0.00     0.157 A 
ATOM     17  C   UNL     1      93.616 102.903 101.329  1.00  0.00     0.062 A 
ATOM     18  C   UNL     1      93.114 101.668 101.757  1.00  0.00     0.158 A 
BRANCH  16  19
ATOM     19  O   UNL     1      91.876  99.608 101.198  1.00  0.00    -0.504 OA
ATOM     20  H   UNL     1      91.908  99.226 102.131  1.00  0.00     0.293 HD
ENDBRANCH  16  19
BRANCH  18  21
ATOM     21  O   UNL     1      93.340 101.297 103.083  1.00  0.00    -0.504 OA
ATOM     22  H   UNL     1      93.495 100.346 103.385  1.00  0.00     0.293 HD
ENDBRANCH  18  21
ENDBRANCH   3  13
BRANCH  10  23
ATOM     23  O   UNL     1      95.938 108.778  97.319  1.00  0.00    -0.507 OA
ATOM     24  H   UNL     1      96.574 109.561  97.215  1.00  0.00     0.293 HD
ENDBRANCH  10  23
BRANCH  11  25
ATOM     25  O   UNL     1      94.454 110.240 101.669  1.00  0.00    -0.508 OA
ATOM     26  H   UNL     1      94.573 111.213 101.410  1.00  0.00     0.293 HD
ENDBRANCH  11  25
ENDBRANCH   1   2
BRANCH   1  27
ATOM     27  C   UNL     1      95.830 102.877  97.216  1.00  0.00     0.339 C 
ATOM     28  C   UNL     1      96.849 103.064  98.356  1.00  0.00     0.214 C 
ATOM     29  O   UNL     1      95.511 101.504  97.032  1.00  0.00    -0.332 OA
ATOM     30  C   UNL     1      96.328 102.414  99.654  1.00  0.00     0.180 C 
ATOM     31  C   UNL     1      94.908 100.949  98.190  1.00  0.00     0.179 C 
ATOM     32  C   UNL     1      95.892 100.965  99.379  1.00  0.00     0.177 C 
BRANCH  28  33
ATOM     33  O   UNL     1      97.075 104.436  98.556  1.00  0.00    -0.384 OA
ATOM     34  H   UNL     1      96.250 104.909  98.273  1.00  0.00     0.211 HD
ENDBRANCH  28  33
BRANCH  30  35
ATOM     35  O   UNL     1      97.328 102.426 100.641  1.00  0.00    -0.387 OA
ATOM     36  H   UNL     1      96.897 102.151 101.493  1.00  0.00     0.211 HD
ENDBRANCH  30  35
BRANCH  31  37
ATOM     37  C   UNL     1      94.445  99.523  97.875  1.00  0.00     0.191 C 
BRANCH  37  38
ATOM     38  O   UNL     1      94.028  98.893  99.055  1.00  0.00    -0.394 OA
ATOM     39  H   UNL     1      93.600  98.043  98.777  1.00  0.00     0.210 HD
ENDBRANCH  37  38
ENDBRANCH  31  37
BRANCH  32  40
ATOM     40  O   UNL     1      97.012 100.168  99.079  1.00  0.00    -0.387 OA
ATOM     41  H   UNL     1      97.708 100.379  99.755  1.00  0.00     0.211 HD
ENDBRANCH  32  40
ENDBRANCH   1  27
TORSDOF 12
ENDMDL
MODEL 4
REMARK VINA RESULT:    10.058      1.040      2.126
REMARK INTER + INTRA:          15.714
REMARK INTER:                  12.845
REMARK INTRA:                   2.868
REMARK UNBOUND:                 0.952
REMARK SMILES O=c1c(O[C@@H]2O[C@@H](CO)[C@@H](O)[C@@H](O)[C@@H]2O)c(-c2ccc(O)c(O)c2)oc2cc(O)cc(O)c12
REMARK SMILES IDX 4 1 3 2 16 3 25 4 2 5 26 6 1 7 33 8 27 9 31 10 28 11 30 12
REMARK SMILES IDX 17 13 18 14 19 15 20 16 24 17 22 18 21 19 23 21 32 23 29 25
REMARK SMILES IDX 5 27 14 28 6 29 12 30 7 31 10 32 15 33 13 35 8 37 9 38 11 40
REMARK H PARENT 21 20 23 22 32 24 29 26 15 34 13 36 9 39 11 41
REMARK Flexibility Score: inf
ROOT
ATOM      1  O   UNL     1      95.191 103.872 100.033  1.00  0.00    -0.454 OA
ENDROOT
BRANCH   1   2
ATOM      2  C   UNL     1      95.182 105.192  99.540  1.00  0.00     0.214 A 
ATOM      3  C   UNL     1      95.323 105.381  98.151  1.00  0.00     0.180 A 
ATOM      4  O   UNL     1      95.271 106.602  97.630  1.00  0.00    -0.452 OA
ATOM      5  C   UNL     1      95.010 106.336 100.355  1.00  0.00     0.239 A 
ATOM      6  C   UNL     1      95.113 107.699  98.358  1.00  0.00     0.146 A 
ATOM      7  O   UNL     1      94.873 106.218 101.601  1.00  0.00    -0.285 OA
ATOM      8  C   UNL     1      94.980 107.617  99.762  1.00  0.00     0.111 A 
ATOM      9  C   UNL     1      95.079 108.941  97.715  1.00  0.00     0.094 A 
ATOM     10  C   UNL     1      94.818 108.812 100.507  1.00  0.00     0.134 A 
ATOM     11  C   UNL     1      94.917 110.115  98.456  1.00  0.00     0.123 A 
ATOM     12  C   UNL     1      94.789 110.048  99.844  1.00  0.00     0.093 A 
BRANCH   3  13
ATOM     13  C   UNL     1      95.507 104.242  97.225  1.00  0.00     0.025 A 
ATOM     14  C   UNL     1      96.682 104.148  96.468  1.00  0.00     0.016 A 
ATOM     15  C   UNL     1      96.873 103.078  95.592  1.00  0.00     0.051 A 
ATOM     16  C   UNL     1      95.904 102.077  95.462  1.00  0.00     0.157 A 
ATOM     17  C   UNL     1      94.543 103.225  97.120  1.00  0.00     0.062 A 
ATOM     18  C   UNL     1      94.724 102.149  96.242  1.00  0.00     0.158 A 
BRANCH  16  19
ATOM     19  O   UNL     1      96.151 101.040  94.562  1.00  0.00    -0.504 OA
ATOM     20  H   UNL     1      96.430 101.180  93.602  1.00  0.00     0.293 HD
ENDBRANCH  16  19
BRANCH  18  21
ATOM     21  O   UNL     1      93.720 101.182  96.181  1.00  0.00    -0.504 OA
ATOM     22  H   UNL     1      93.856 100.210  96.422  1.00  0.00     0.293 HD
ENDBRANCH  18  21
ENDBRANCH   3  13
BRANCH  10  23
ATOM     23  O   UNL     1      94.687 108.782 101.896  1.00  0.00    -0.507 OA
ATOM     24  H   UNL     1      94.748 109.623 102.457  1.00  0.00     0.293 HD
ENDBRANCH  10  23
BRANCH  11  25
ATOM     25  O   UNL     1      94.884 111.355  97.822  1.00  0.00    -0.508 OA
ATOM     26  H   UNL     1      94.474 111.469  96.902  1.00  0.00     0.293 HD
ENDBRANCH  11  25
ENDBRANCH   1   2
BRANCH   1  27
ATOM     27  C   UNL     1      94.898 102.667  99.313  1.00  0.00     0.339 C 
ATOM     28  C   UNL     1      96.071 101.675  99.437  1.00  0.00     0.214 C 
ATOM     29  O   UNL     1      93.680 102.080  99.749  1.00  0.00    -0.332 OA
ATOM     30  C   UNL     1      96.172 101.140 100.879  1.00  0.00     0.180 C 
ATOM     31  C   UNL     1      93.739 101.713 101.119  1.00  0.00     0.179 C 
ATOM     32  C   UNL     1      94.803 100.618 101.345  1.00  0.00     0.177 C 
BRANCH  28  33
ATOM     33  O   UNL     1      97.264 102.319  99.072  1.00  0.00    -0.384 OA
ATOM     34  H   UNL     1      97.677 102.659  99.907  1.00  0.00     0.211 HD
ENDBRANCH  28  33
BRANCH  30  35
ATOM     35  O   UNL     1      97.120 100.106 100.951  1.00  0.00    -0.387 OA
ATOM     36  H   UNL     1      96.705  99.303 100.541  1.00  0.00     0.211 HD
ENDBRANCH  30  35
BRANCH  31  37
ATOM     37  C   UNL     1      92.353 101.237 101.566  1.00  0.00     0.191 C 
BRANCH  37  38
ATOM     38  O   UNL     1      91.875 100.273 100.667  1.00  0.00    -0.394 OA
ATOM     39  H   UNL     1      92.444 100.347  99.857  1.00  0.00     0.210 HD
ENDBRANCH  37  38
ENDBRANCH  31  37
BRANCH  32  40
ATOM     40  O   UNL     1      94.453  99.460 100.625  1.00  0.00    -0.387 OA
ATOM     41  H   UNL     1      95.298  99.057 100.296  1.00  0.00     0.211 HD
ENDBRANCH  32  40
ENDBRANCH   1  27
TORSDOF 12
ENDMDL
MODEL 5
REMARK VINA RESULT:    10.592      1.212      1.824
REMARK INTER + INTRA:          16.498
REMARK INTER:                  16.671
REMARK INTRA:                  -0.173
REMARK UNBOUND:                 0.952
REMARK SMILES O=c1c(O[C@@H]2O[C@@H](CO)[C@@H](O)[C@@H](O)[C@@H]2O)c(-c2ccc(O)c(O)c2)oc2cc(O)cc(O)c12
REMARK SMILES IDX 4 1 3 2 16 3 25 4 2 5 26 6 1 7 33 8 27 9 31 10 28 11 30 12
REMARK SMILES IDX 17 13 18 14 19 15 20 16 24 17 22 18 21 19 23 21 32 23 29 25
REMARK SMILES IDX 5 27 14 28 6 29 12 30 7 31 10 32 15 33 13 35 8 37 9 38 11 40
REMARK H PARENT 21 20 23 22 32 24 29 26 15 34 13 36 9 39 11 41
REMARK Flexibility Score: inf
ROOT
ATOM      1  O   UNL     1      94.574 103.403 100.077  1.00  0.00    -0.454 OA
ENDROOT
BRANCH   1   2
ATOM      2  C   UNL     1      94.757 104.731  99.639  1.00  0.00     0.214 A 
ATOM      3  C   UNL     1      95.064 104.943  98.280  1.00  0.00     0.180 A 
ATOM      4  O   UNL     1      95.197 106.176  97.806  1.00  0.00    -0.452 OA
ATOM      5  C   UNL     1      94.620 105.863 100.477  1.00  0.00     0.239 A 
ATOM      6  C   UNL     1      95.078 107.262  98.557  1.00  0.00     0.146 A 
ATOM      7  O   UNL     1      94.340 105.724 101.696  1.00  0.00    -0.285 OA
ATOM      8  C   UNL     1      94.789 107.156  99.936  1.00  0.00     0.111 A 
ATOM      9  C   UNL     1      95.244 108.519  97.964  1.00  0.00     0.094 A 
ATOM     10  C   UNL     1      94.675 108.339 100.707  1.00  0.00     0.134 A 
ATOM     11  C   UNL     1      95.129 109.682  98.730  1.00  0.00     0.123 A 
ATOM     12  C   UNL     1      94.847 109.590 100.095  1.00  0.00     0.093 A 
BRANCH   3  13
ATOM     13  C   UNL     1      95.224 103.817  97.333  1.00  0.00     0.025 A 
ATOM     14  C   UNL     1      96.262 103.847  96.393  1.00  0.00     0.016 A 
ATOM     15  C   UNL     1      96.430 102.792  95.493  1.00  0.00     0.051 A 
ATOM     16  C   UNL     1      95.575 101.684  95.523  1.00  0.00     0.157 A 
ATOM     17  C   UNL     1      94.381 102.695  97.386  1.00  0.00     0.062 A 
ATOM     18  C   UNL     1      94.540 101.632  96.487  1.00  0.00     0.158 A 
BRANCH  16  19
ATOM     19  O   UNL     1      95.789 100.668  94.591  1.00  0.00    -0.504 OA
ATOM     20  H   UNL     1      95.091 100.344  93.938  1.00  0.00     0.293 HD
ENDBRANCH  16  19
BRANCH  18  21
ATOM     21  O   UNL     1      93.659 100.555  96.590  1.00  0.00    -0.504 OA
ATOM     22  H   UNL     1      92.685 100.594  96.325  1.00  0.00     0.293 HD
ENDBRANCH  18  21
ENDBRANCH   3  13
BRANCH  10  23
ATOM     23  O   UNL     1      94.394 108.284 102.073  1.00  0.00    -0.507 OA
ATOM     24  H   UNL     1      95.117 108.407 102.772  1.00  0.00     0.293 HD
ENDBRANCH  10  23
BRANCH  11  25
ATOM     25  O   UNL     1      95.294 110.936  98.147  1.00  0.00    -0.508 OA
ATOM     26  H   UNL     1      95.005 111.118  97.192  1.00  0.00     0.293 HD
ENDBRANCH  11  25
ENDBRANCH   1   2
BRANCH   1  27
ATOM     27  C   UNL     1      95.406 102.654 100.970  1.00  0.00     0.339 C 
ATOM     28  C   UNL     1      94.801 101.258 101.217  1.00  0.00     0.214 C 
ATOM     29  O   UNL     1      96.739 102.558 100.487  1.00  0.00    -0.332 OA
ATOM     30  C   UNL     1      94.891 100.400  99.940  1.00  0.00     0.180 C 
ATOM     31  C   UNL     1      96.794 101.881  99.240  1.00  0.00     0.179 C 
ATOM     32  C   UNL     1      96.328 100.417  99.393  1.00  0.00     0.177 C 
BRANCH  28  33
ATOM     33  O   UNL     1      93.462 101.398 101.618  1.00  0.00    -0.384 OA
ATOM     34  H   UNL     1      93.191 100.537 102.028  1.00  0.00     0.211 HD
ENDBRANCH  28  33
BRANCH  30  35
ATOM     35  O   UNL     1      94.506  99.077 100.213  1.00  0.00    -0.387 OA
ATOM     36  H   UNL     1      93.523  99.083 100.351  1.00  0.00     0.211 HD
ENDBRANCH  30  35
BRANCH  31  37
ATOM     37  C   UNL     1      98.226 101.951  98.700  1.00  0.00     0.191 C 
BRANCH  37  38
ATOM     38  O   UNL     1      98.679 103.276  98.742  1.00  0.00    -0.394 OA
ATOM     39  H   UNL     1      99.587 103.245  99.140  1.00  0.00     0.210 HD
ENDBRANCH  37  38
ENDBRANCH  31  37
BRANCH  32  40
ATOM     40  O   UNL     1      97.191  99.733 100.269  1.00  0.00    -0.387 OA
ATOM     41  H   UNL     1      96.822  98.818 100.384  1.00  0.00     0.211 HD
ENDBRANCH  32  40
ENDBRANCH   1  27
TORSDOF 12
ENDMDL
MODEL 6
REMARK VINA RESULT:    11.498      1.906      6.670
REMARK INTER + INTRA:          17.827
REMARK INTER:                  14.059
REMARK INTRA:                   3.768
REMARK UNBOUND:                 0.952
REMARK SMILES O=c1c(O[C@@H]2O[C@@H](CO)[C@@H](O)[C@@H](O)[C@@H]2O)c(-c2ccc(O)c(O)c2)oc2cc(O)cc(O)c12
REMARK SMILES IDX 4 1 3 2 16 3 25 4 2 5 26 6 1 7 33 8 27 9 31 10 28 11 30 12
REMARK SMILES IDX 17 13 18 14 19 15 20 16 24 17 22 18 21 19 23 21 32 23 29 25
REMARK SMILES IDX 5 27 14 28 6 29 12 30 7 31 10 32 15 33 13 35 8 37 9 38 11 40
REMARK H PARENT 21 20 23 22 32 24 29 26 15 34 13 36 9 39 11 41
REMARK Flexibility Score: inf
ROOT
ATOM      1  O   UNL     1      94.578 104.281  97.656  1.00  0.00    -0.454 OA
ENDROOT
BRANCH   1   2
ATOM      2  C   UNL     1      94.130 103.810  98.907  1.00  0.00     0.214 A 
ATOM      3  C   UNL     1      94.007 104.740  99.958  1.00  0.00     0.180 A 
ATOM      4  O   UNL     1      93.541 104.358 101.142  1.00  0.00    -0.452 OA
ATOM      5  C   UNL     1      93.767 102.466  99.159  1.00  0.00     0.239 A 
ATOM      6  C   UNL     1      93.192 103.110 101.420  1.00  0.00     0.146 A 
ATOM      7  O   UNL     1      93.853 101.600  98.249  1.00  0.00    -0.285 OA
ATOM      8  C   UNL     1      93.295 102.099 100.438  1.00  0.00     0.111 A 
ATOM      9  C   UNL     1      92.719 102.806 102.701  1.00  0.00     0.094 A 
ATOM     10  C   UNL     1      92.917 100.775 100.773  1.00  0.00     0.134 A 
ATOM     11  C   UNL     1      92.347 101.498 103.025  1.00  0.00     0.123 A 
ATOM     12  C   UNL     1      92.448 100.490 102.065  1.00  0.00     0.093 A 
BRANCH   3  13
ATOM     13  C   UNL     1      94.363 106.166  99.783  1.00  0.00     0.025 A 
ATOM     14  C   UNL     1      94.448 106.704  98.492  1.00  0.00     0.016 A 
ATOM     15  C   UNL     1      94.780 108.047  98.308  1.00  0.00     0.051 A 
ATOM     16  C   UNL     1      95.020 108.881  99.406  1.00  0.00     0.157 A 
ATOM     17  C   UNL     1      94.574 107.006 100.889  1.00  0.00     0.062 A 
ATOM     18  C   UNL     1      94.910 108.354 100.715  1.00  0.00     0.158 A 
BRANCH  16  19
ATOM     19  O   UNL     1      95.357 110.212  99.155  1.00  0.00    -0.504 OA
ATOM     20  H   UNL     1      96.191 110.501  98.665  1.00  0.00     0.293 HD
ENDBRANCH  16  19
BRANCH  18  21
ATOM     21  O   UNL     1      95.117 109.126 101.859  1.00  0.00    -0.504 OA
ATOM     22  H   UNL     1      96.009 109.521 102.121  1.00  0.00     0.293 HD
ENDBRANCH  18  21
ENDBRANCH   3  13
BRANCH  10  23
ATOM     23  O   UNL     1      93.005  99.742  99.839  1.00  0.00    -0.507 OA
ATOM     24  H   UNL     1      93.643  98.965  99.960  1.00  0.00     0.293 HD
ENDBRANCH  10  23
BRANCH  11  25
ATOM     25  O   UNL     1      91.877 101.189 104.299  1.00  0.00    -0.508 OA
ATOM     26  H   UNL     1      91.212 101.787 104.778  1.00  0.00     0.293 HD
ENDBRANCH  11  25
ENDBRANCH   1   2
BRANCH   1  27
ATOM     27  C   UNL     1      95.887 104.754  97.317  1.00  0.00     0.339 C 
ATOM     28  C   UNL     1      96.927 104.206  98.314  1.00  0.00     0.214 C 
ATOM     29  O   UNL     1      96.234 104.423  95.979  1.00  0.00    -0.332 OA
ATOM     30  C   UNL     1      97.104 102.686  98.124  1.00  0.00     0.180 C 
ATOM     31  C   UNL     1      96.262 103.018  95.781  1.00  0.00     0.179 C 
ATOM     32  C   UNL     1      97.366 102.368  96.642  1.00  0.00     0.177 C 
BRANCH  28  33
ATOM     33  O   UNL     1      96.506 104.486  99.624  1.00  0.00    -0.384 OA
ATOM     34  H   UNL     1      95.551 104.223  99.685  1.00  0.00     0.211 HD
ENDBRANCH  28  33
BRANCH  30  35
ATOM     35  O   UNL     1      98.174 102.217  98.903  1.00  0.00    -0.387 OA
ATOM     36  H   UNL     1      98.686 103.014  99.201  1.00  0.00     0.211 HD
ENDBRANCH  30  35
BRANCH  31  37
ATOM     37  C   UNL     1      96.482 102.731  94.292  1.00  0.00     0.191 C 
BRANCH  37  38
ATOM     38  O   UNL     1      95.613 101.713  93.877  1.00  0.00    -0.394 OA
ATOM     39  H   UNL     1      95.200 101.351  94.703  1.00  0.00     0.210 HD
ENDBRANCH  37  38
ENDBRANCH  31  37
BRANCH  32  40
ATOM     40  O   UNL     1      98.625 102.862  96.253  1.00  0.00    -0.387 OA
ATOM     41  H   UNL     1      98.461 103.670  95.700  1.00  0.00     0.211 HD
ENDBRANCH  32  40
ENDBRANCH   1  27
TORSDOF 12
ENDMDL
