MODEL 1
REMARK VINA RESULT:    23.790      0.000      0.000
REMARK INTER + INTRA:          27.969
REMARK INTER:                  27.963
REMARK INTRA:                   0.006
REMARK UNBOUND:                 0.006
REMARK SMILES O=c1c(O)c(-c2ccc(O)cc2)oc2cc(O)cc(O)c12
REMARK SMILES IDX 5 1 3 2 2 3 1 4 21 5 19 6 18 7 16 8 15 9 14 10 13 11 6 12
REMARK SMILES IDX 7 13 8 14 9 15 12 16 11 17 10 18 4 20 20 22 17 24
REMARK H PARENT 10 19 4 21 20 23 17 25
REMARK Flexibility Score: inf
ROOT
ATOM      1  C   UNL     1      28.666 -14.170 -24.305  1.00  0.00     0.180 A 
ATOM      2  C   UNL     1      28.670 -14.677 -25.616  1.00  0.00     0.208 A 
ATOM      3  C   UNL     1      28.924 -16.044 -25.816  1.00  0.00     0.238 A 
ATOM      4  O   UNL     1      28.979 -16.481 -26.995  1.00  0.00    -0.285 OA
ATOM      5  C   UNL     1      29.155 -16.888 -24.704  1.00  0.00     0.111 A 
ATOM      6  C   UNL     1      29.382 -18.295 -24.788  1.00  0.00     0.134 A 
ATOM      7  C   UNL     1      29.730 -19.009 -23.634  1.00  0.00     0.093 A 
ATOM      8  C   UNL     1      29.792 -18.381 -22.391  1.00  0.00     0.123 A 
ATOM      9  C   UNL     1      29.513 -17.017 -22.288  1.00  0.00     0.094 A 
ATOM     10  C   UNL     1      29.200 -16.272 -23.426  1.00  0.00     0.146 A 
ATOM     11  O   UNL     1      28.951 -14.975 -23.287  1.00  0.00    -0.452 OA
ENDROOT
BRANCH   1  12
ATOM     12  C   UNL     1      28.382 -12.747 -24.011  1.00  0.00     0.021 A 
ATOM     13  C   UNL     1      29.223 -12.040 -23.135  1.00  0.00     0.016 A 
ATOM     14  C   UNL     1      28.960 -10.702 -22.827  1.00  0.00     0.047 A 
ATOM     15  C   UNL     1      27.844 -10.058 -23.378  1.00  0.00     0.115 A 
ATOM     16  C   UNL     1      27.253 -12.100 -24.545  1.00  0.00     0.016 A 
ATOM     17  C   UNL     1      26.992 -10.762 -24.234  1.00  0.00     0.047 A 
BRANCH  15  18
ATOM     18  O   UNL     1      27.573  -8.725 -23.078  1.00  0.00    -0.508 OA
ATOM     19  H   UNL     1      27.985  -8.269 -22.274  1.00  0.00     0.293 HD
ENDBRANCH  15  18
ENDBRANCH   1  12
BRANCH   2  20
ATOM     20  O   UNL     1      28.462 -13.822 -26.701  1.00  0.00    -0.502 OA
ATOM     21  H   UNL     1      28.490 -12.814 -26.613  1.00  0.00     0.293 HD
ENDBRANCH   2  20
BRANCH   6  22
ATOM     22  O   UNL     1      29.255 -19.037 -25.966  1.00  0.00    -0.507 OA
ATOM     23  H   UNL     1      29.816 -18.902 -26.793  1.00  0.00     0.293 HD
ENDBRANCH   6  22
BRANCH   8  24
ATOM     24  O   UNL     1      30.125 -19.125 -21.261  1.00  0.00    -0.508 OA
ATOM     25  H   UNL     1      29.419 -19.611 -20.720  1.00  0.00     0.293 HD
ENDBRANCH   8  24
TORSDOF 5
ENDMDL
MODEL 2
REMARK VINA RESULT:    26.348     10.998     12.877
REMARK INTER + INTRA:          30.975
REMARK INTER:                  31.217
REMARK INTRA:                  -0.242
REMARK UNBOUND:                 0.006
REMARK SMILES O=c1c(O)c(-c2ccc(O)cc2)oc2cc(O)cc(O)c12
REMARK SMILES IDX 5 1 3 2 2 3 1 4 21 5 19 6 18 7 16 8 15 9 14 10 13 11 6 12
REMARK SMILES IDX 7 13 8 14 9 15 12 16 11 17 10 18 4 20 20 22 17 24
REMARK H PARENT 10 19 4 21 20 23 17 25
REMARK Flexibility Score: inf
ROOT
ATOM      1  C   UNL     1      20.188 -12.549 -15.643  1.00  0.00     0.180 A 
ATOM      2  C   UNL     1      21.355 -12.129 -14.982  1.00  0.00     0.208 A 
ATOM      3  C   UNL     1      22.480 -11.776 -15.746  1.00  0.00     0.238 A 
ATOM      4  O   UNL     1      23.539 -11.452 -15.147  1.00  0.00    -0.285 OA
ATOM      5  C   UNL     1      22.417 -11.829 -17.158  1.00  0.00     0.111 A 
ATOM      6  C   UNL     1      23.482 -11.454 -18.032  1.00  0.00     0.134 A 
ATOM      7  C   UNL     1      23.355 -11.671 -19.409  1.00  0.00     0.093 A 
ATOM      8  C   UNL     1      22.179 -12.187 -19.951  1.00  0.00     0.123 A 
ATOM      9  C   UNL     1      21.108 -12.502 -19.112  1.00  0.00     0.094 A 
ATOM     10  C   UNL     1      21.219 -12.330 -17.731  1.00  0.00     0.146 A 
ATOM     11  O   UNL     1      20.181 -12.651 -16.967  1.00  0.00    -0.452 OA
ENDROOT
BRANCH   1  12
ATOM     12  C   UNL     1      18.955 -12.914 -14.908  1.00  0.00     0.021 A 
ATOM     13  C   UNL     1      18.145 -11.900 -14.368  1.00  0.00     0.016 A 
ATOM     14  C   UNL     1      16.989 -12.224 -13.652  1.00  0.00     0.047 A 
ATOM     15  C   UNL     1      16.636 -13.565 -13.453  1.00  0.00     0.115 A 
ATOM     16  C   UNL     1      18.605 -14.258 -14.687  1.00  0.00     0.016 A 
ATOM     17  C   UNL     1      17.449 -14.579 -13.969  1.00  0.00     0.047 A 
BRANCH  15  18
ATOM     18  O   UNL     1      15.486 -13.899 -12.741  1.00  0.00    -0.508 OA
ATOM     19  H   UNL     1      14.720 -14.397 -13.176  1.00  0.00     0.293 HD
ENDBRANCH  15  18
ENDBRANCH   1  12
BRANCH   2  20
ATOM     20  O   UNL     1      21.403 -12.106 -13.586  1.00  0.00    -0.502 OA
ATOM     21  H   UNL     1      21.259 -12.934 -13.021  1.00  0.00     0.293 HD
ENDBRANCH   2  20
BRANCH   6  22
ATOM     22  O   UNL     1      24.665 -10.844 -17.603  1.00  0.00    -0.507 OA
ATOM     23  H   UNL     1      25.393 -11.308 -17.082  1.00  0.00     0.293 HD
ENDBRANCH   6  22
BRANCH   8  24
ATOM     24  O   UNL     1      22.081 -12.376 -21.328  1.00  0.00    -0.508 OA
ATOM     25  H   UNL     1      22.906 -12.459 -21.912  1.00  0.00     0.293 HD
ENDBRANCH   8  24
TORSDOF 5
ENDMDL
