MODEL 1
REMARK VINA RESULT:    97.729      0.000      0.000
REMARK INTER + INTRA:         100.586
REMARK INTER:                 100.586
REMARK INTRA:                   0.000
REMARK UNBOUND:                 0.000
REMARK SMILES CC1(C)CC[C@]2(C)CC[C@]3(C)C(=CC[C@@H]4[C@@]5(C)CC[C@H](O)C(C)(C)[C@H]5CC[C@@]43C)[C@@H]2C1
REMARK SMILES IDX 1 1 2 2 4 3 5 4 6 5 8 6 9 7 10 8 12 9 13 10 14 11 15 12
REMARK SMILES IDX 28 13 27 14 26 15 25 16 16 17 18 18 19 19 20 20 22 21 23 22
REMARK SMILES IDX 24 23 17 24 29 25 30 26 31 27 11 28 7 29 3 30 21 31
REMARK H PARENT 21 32
REMARK Flexibility Score: inf
ROOT
ATOM      1  C   UNL     1     -20.184  21.899  -5.231  1.00  0.00     0.011 C 
ATOM      2  C   UNL     1     -20.706  22.954  -4.190  1.00  0.00    -0.035 C 
ATOM      3  C   UNL     1     -19.542  23.850  -3.702  1.00  0.00     0.007 C 
ATOM      4  C   UNL     1     -18.875  24.651  -4.810  1.00  0.00     0.008 C 
ATOM      5  C   UNL     1     -19.722  25.206  -6.031  1.00  0.00    -0.026 C 
ATOM      6  C   UNL     1     -19.666  26.758  -6.027  1.00  0.00     0.008 C 
ATOM      7  C   UNL     1     -20.684  27.418  -6.920  1.00  0.00     0.012 C 
ATOM      8  C   UNL     1     -22.123  27.175  -6.376  1.00  0.00    -0.006 C 
ATOM      9  C   UNL     1     -22.320  25.657  -6.486  1.00  0.00    -0.064 C 
ATOM     10  C   UNL     1     -23.515  25.156  -6.809  1.00  0.00    -0.027 C 
ATOM     11  C   UNL     1     -24.732  25.980  -7.044  1.00  0.00     0.032 C 
ATOM     12  C   UNL     1     -24.648  27.521  -6.770  1.00  0.00     0.006 C 
ATOM     13  C   UNL     1     -23.192  28.032  -7.190  1.00  0.00    -0.020 C 
ATOM     14  C   UNL     1     -23.181  27.869  -8.724  1.00  0.00     0.008 C 
ATOM     15  C   UNL     1     -24.234  28.756  -9.418  1.00  0.00     0.005 C 
ATOM     16  C   UNL     1     -25.564  29.227  -8.657  1.00  0.00     0.003 C 
ATOM     17  C   UNL     1     -25.902  28.329  -7.373  1.00  0.00    -0.025 C 
ATOM     18  C   UNL     1     -26.658  29.155  -6.246  1.00  0.00     0.010 C 
ATOM     19  C   UNL     1     -26.401  30.641  -6.157  1.00  0.00     0.033 C 
ATOM     20  C   UNL     1     -26.758  31.306  -7.508  1.00  0.00     0.120 C 
ATOM     21  C   UNL     1     -25.805  30.847  -8.656  1.00  0.00    -0.006 C 
ATOM     22  C   UNL     1     -26.549  31.251  -9.988  1.00  0.00     0.014 C 
ATOM     23  C   UNL     1     -24.536  31.750  -8.680  1.00  0.00     0.014 C 
ATOM     24  C   UNL     1     -26.994  27.307  -7.838  1.00  0.00     0.012 C 
ATOM     25  C   UNL     1     -22.917  29.505  -6.861  1.00  0.00     0.012 C 
ATOM     26  C   UNL     1     -21.262  24.649  -6.083  1.00  0.00     0.022 C 
ATOM     27  C   UNL     1     -21.742  23.874  -4.824  1.00  0.00     0.015 C 
ATOM     28  C   UNL     1     -22.163  27.546  -4.852  1.00  0.00     0.017 C 
ATOM     29  C   UNL     1     -19.050  24.762  -7.345  1.00  0.00     0.012 C 
ATOM     30  C   UNL     1     -21.294  22.198  -3.009  1.00  0.00     0.011 C 
ENDROOT
BRANCH  20  31
ATOM     31  O   UNL     1     -28.142  31.033  -7.783  1.00  0.00    -0.393 OA
ATOM     32  H   UNL     1     -28.212  30.834  -8.767  1.00  0.00     0.210 HD
ENDBRANCH  20  31
TORSDOF 1
ENDMDL
MODEL 2
REMARK VINA RESULT:    99.216      5.202      8.168
REMARK INTER + INTRA:         102.116
REMARK INTER:                 102.116
REMARK INTRA:                   0.000
REMARK UNBOUND:                 0.000
REMARK SMILES CC1(C)CC[C@]2(C)CC[C@]3(C)C(=CC[C@@H]4[C@@]5(C)CC[C@H](O)C(C)(C)[C@H]5CC[C@@]43C)[C@@H]2C1
REMARK SMILES IDX 1 1 2 2 4 3 5 4 6 5 8 6 9 7 10 8 12 9 13 10 14 11 15 12
REMARK SMILES IDX 28 13 27 14 26 15 25 16 16 17 18 18 19 19 20 20 22 21 23 22
REMARK SMILES IDX 24 23 17 24 29 25 30 26 31 27 11 28 7 29 3 30 21 31
REMARK H PARENT 21 32
REMARK Flexibility Score: inf
ROOT
ATOM      1  C   UNL     1     -21.950  30.802  -9.300  1.00  0.00     0.011 C 
ATOM      2  C   UNL     1     -22.850  32.089  -9.241  1.00  0.00    -0.035 C 
ATOM      3  C   UNL     1     -23.921  32.048 -10.358  1.00  0.00     0.007 C 
ATOM      4  C   UNL     1     -24.874  30.867 -10.253  1.00  0.00     0.008 C 
ATOM      5  C   UNL     1     -25.316  30.304  -8.837  1.00  0.00    -0.026 C 
ATOM      6  C   UNL     1     -26.851  30.478  -8.676  1.00  0.00     0.008 C 
ATOM      7  C   UNL     1     -27.351  30.295  -7.267  1.00  0.00     0.012 C 
ATOM      8  C   UNL     1     -26.830  31.443  -6.352  1.00  0.00    -0.006 C 
ATOM      9  C   UNL     1     -25.307  31.253  -6.335  1.00  0.00    -0.064 C 
ATOM     10  C   UNL     1     -24.611  31.502  -5.223  1.00  0.00    -0.027 C 
ATOM     11  C   UNL     1     -25.210  32.005  -3.956  1.00  0.00     0.032 C 
ATOM     12  C   UNL     1     -26.729  32.394  -3.958  1.00  0.00     0.006 C 
ATOM     13  C   UNL     1     -27.512  31.379  -4.914  1.00  0.00    -0.020 C 
ATOM     14  C   UNL     1     -27.416  30.033  -4.166  1.00  0.00     0.008 C 
ATOM     15  C   UNL     1     -28.125  30.068  -2.797  1.00  0.00     0.005 C 
ATOM     16  C   UNL     1     -28.316  31.439  -1.988  1.00  0.00     0.003 C 
ATOM     17  C   UNL     1     -27.320  32.597  -2.475  1.00  0.00    -0.025 C 
ATOM     18  C   UNL     1     -27.949  34.045  -2.293  1.00  0.00     0.010 C 
ATOM     19  C   UNL     1     -29.452  34.183  -2.355  1.00  0.00     0.033 C 
ATOM     20  C   UNL     1     -30.096  33.281  -1.275  1.00  0.00     0.120 C 
ATOM     21  C   UNL     1     -29.864  31.764  -1.564  1.00  0.00    -0.006 C 
ATOM     22  C   UNL     1     -30.181  31.037  -0.200  1.00  0.00     0.014 C 
ATOM     23  C   UNL     1     -30.982  31.231  -2.508  1.00  0.00     0.014 C 
ATOM     24  C   UNL     1     -26.137  32.607  -1.449  1.00  0.00     0.012 C 
ATOM     25  C   UNL     1     -28.995  31.712  -5.114  1.00  0.00     0.012 C 
ATOM     26  C   UNL     1     -24.492  30.949  -7.577  1.00  0.00     0.022 C 
ATOM     27  C   UNL     1     -23.593  32.171  -7.913  1.00  0.00     0.015 C 
ATOM     28  C   UNL     1     -27.125  32.821  -7.042  1.00  0.00     0.017 C 
ATOM     29  C   UNL     1     -25.055  28.786  -8.802  1.00  0.00     0.012 C 
ATOM     30  C   UNL     1     -21.953  33.299  -9.444  1.00  0.00     0.011 C 
ENDROOT
BRANCH  20  31
ATOM     31  O   UNL     1     -29.588  33.693   0.005  1.00  0.00    -0.393 OA
ATOM     32  H   UNL     1     -28.592  33.803  -0.097  1.00  0.00     0.210 HD
ENDBRANCH  20  31
TORSDOF 1
ENDMDL
