MODEL 1
REMARK VINA RESULT:    -6.514      0.000      0.000
REMARK INTER + INTRA:         -10.740
REMARK INTER:                 -10.704
REMARK INTRA:                  -0.037
REMARK UNBOUND:                -0.037
REMARK SMILES C[C@H]1O[C@H](OC[C@@H]2O[C@H](Oc3c(-c4ccc(O)c(O)c4)oc4cc(O)cc(O)c4c3=O)[C@@H](O)[C@H](O)[C@H]2O)[C@H](O)[C@@H](O)[C@H]1O
REMARK SMILES IDX 7 1 36 2 34 3 32 4 9 5 8 6 6 7 5 8 4 9 1 10 2 11 42 12 3 13
REMARK SMILES IDX 40 14 38 15 43 16 41 18 39 20 37 22 35 24 10 26 11 27 12 28
REMARK SMILES IDX 30 29 21 30 29 31 31 32 22 33 27 34 23 35 26 36 24 37 13 38
REMARK SMILES IDX 20 39 14 40 18 41 15 42 16 43 19 44 17 46 28 48 25 50 33 52
REMARK H PARENT 43 17 41 19 39 21 37 23 35 25 19 45 17 47 28 49 25 51 33 53
REMARK Flexibility Score: inf
ROOT
ATOM      1  C   UNL     1    -109.070 -17.785  48.450  1.00  0.00     0.180 C 
ATOM      2  C   UNL     1    -107.577 -17.854  48.781  1.00  0.00     0.177 C 
ATOM      3  C   UNL     1    -107.477 -18.947  50.071  1.00  0.00     0.180 C 
ATOM      4  C   UNL     1    -108.670 -18.757  51.241  1.00  0.00     0.214 C 
ATOM      5  C   UNL     1    -109.747 -17.630  50.778  1.00  0.00     0.339 C 
ATOM      6  O   UNL     1    -109.699 -16.982  49.420  1.00  0.00    -0.332 OA
ENDROOT
BRANCH   1   7
ATOM      7  C   UNL     1    -109.417 -17.425  46.948  1.00  0.00     0.198 C 
BRANCH   7   8
ATOM      8  O   UNL     1    -108.516 -16.509  46.222  1.00  0.00    -0.347 OA
BRANCH   8   9
ATOM      9  C   UNL     1    -108.947 -15.854  45.052  1.00  0.00     0.281 C 
ATOM     10  C   UNL     1    -110.742 -14.685  42.943  1.00  0.00     0.041 C 
ATOM     11  C   UNL     1    -110.675 -14.154  44.372  1.00  0.00     0.150 C 
ATOM     12  C   UNL     1    -109.596 -13.050  44.424  1.00  0.00     0.174 C 
ATOM     13  O   UNL     1    -110.243 -15.246  45.299  1.00  0.00    -0.344 OA
ATOM     14  C   UNL     1    -108.137 -13.490  44.149  1.00  0.00     0.179 C 
ATOM     15  C   UNL     1    -107.825 -15.082  44.294  1.00  0.00     0.202 C 
BRANCH  12  16
ATOM     16  O   UNL     1    -110.051 -12.114  43.422  1.00  0.00    -0.388 OA
ATOM     17  H   UNL     1    -109.385 -11.396  43.110  1.00  0.00     0.211 HD
ENDBRANCH  12  16
BRANCH  14  18
ATOM     18  O   UNL     1    -107.627 -13.075  42.875  1.00  0.00    -0.387 OA
ATOM     19  H   UNL     1    -107.846 -13.674  42.166  1.00  0.00     0.211 HD
ENDBRANCH  14  18
BRANCH  15  20
ATOM     20  O   UNL     1    -106.546 -15.272  44.962  1.00  0.00    -0.385 OA
ATOM     21  H   UNL     1    -106.384 -14.420  45.492  1.00  0.00     0.211 HD
ENDBRANCH  15  20
ENDBRANCH   8   9
ENDBRANCH   7   8
ENDBRANCH   1   7
BRANCH   2  22
ATOM     22  O   UNL     1    -106.845 -18.436  47.643  1.00  0.00    -0.387 OA
ATOM     23  H   UNL     1    -105.878 -18.168  47.754  1.00  0.00     0.211 HD
ENDBRANCH   2  22
BRANCH   3  24
ATOM     24  O   UNL     1    -106.162 -18.972  50.655  1.00  0.00    -0.387 OA
ATOM     25  H   UNL     1    -106.306 -19.022  51.619  1.00  0.00     0.211 HD
ENDBRANCH   3  24
BRANCH   5  26
ATOM     26  O   UNL     1    -109.632 -16.667  51.792  1.00  0.00    -0.454 OA
BRANCH  26  27
ATOM     27  C   UNL     1    -110.244 -16.657  53.039  1.00  0.00     0.214 A 
ATOM     28  C   UNL     1    -109.692 -15.768  53.996  1.00  0.00     0.180 A 
ATOM     29  C   UNL     1    -111.371 -17.415  53.386  1.00  0.00     0.239 A 
ATOM     30  O   UNL     1    -110.289 -15.564  55.156  1.00  0.00    -0.452 OA
ATOM     31  C   UNL     1    -112.030 -17.130  54.618  1.00  0.00     0.111 A 
ATOM     32  O   UNL     1    -111.815 -18.244  52.606  1.00  0.00    -0.285 OA
ATOM     33  C   UNL     1    -111.490 -16.111  55.474  1.00  0.00     0.146 A 
ATOM     34  C   UNL     1    -113.228 -17.800  55.033  1.00  0.00     0.134 A 
ATOM     35  C   UNL     1    -112.134 -15.755  56.643  1.00  0.00     0.094 A 
ATOM     36  C   UNL     1    -113.951 -17.311  56.114  1.00  0.00     0.093 A 
ATOM     37  C   UNL     1    -113.429 -16.284  56.968  1.00  0.00     0.123 A 
BRANCH  28  38
ATOM     38  C   UNL     1    -108.470 -15.026  53.619  1.00  0.00     0.025 A 
ATOM     39  C   UNL     1    -108.023 -13.981  54.475  1.00  0.00     0.062 A 
ATOM     40  C   UNL     1    -107.970 -15.161  52.327  1.00  0.00     0.016 A 
ATOM     41  C   UNL     1    -107.154 -13.022  53.941  1.00  0.00     0.158 A 
ATOM     42  C   UNL     1    -107.067 -14.220  51.816  1.00  0.00     0.051 A 
ATOM     43  C   UNL     1    -106.659 -13.140  52.616  1.00  0.00     0.157 A 
BRANCH  41  44
ATOM     44  O   UNL     1    -106.745 -11.957  54.765  1.00  0.00    -0.504 OA
ATOM     45  H   UNL     1    -106.631 -11.008  54.359  1.00  0.00     0.293 HD
ENDBRANCH  41  44
BRANCH  43  46
ATOM     46  O   UNL     1    -105.826 -12.149  52.065  1.00  0.00    -0.504 OA
ATOM     47  H   UNL     1    -105.212 -11.559  52.652  1.00  0.00     0.293 HD
ENDBRANCH  43  46
ENDBRANCH  28  38
BRANCH  34  48
ATOM     48  O   UNL     1    -113.710 -18.865  54.307  1.00  0.00    -0.507 OA
ATOM     49  H   UNL     1    -113.180 -19.735  54.169  1.00  0.00     0.293 HD
ENDBRANCH  34  48
BRANCH  37  50
ATOM     50  O   UNL     1    -114.118 -15.808  58.057  1.00  0.00    -0.508 OA
ATOM     51  H   UNL     1    -114.209 -14.831  58.206  1.00  0.00     0.293 HD
ENDBRANCH  37  50
ENDBRANCH  26  27
ENDBRANCH   5  26
BRANCH   4  52
ATOM     52  O   UNL     1    -109.403 -19.984  51.733  1.00  0.00    -0.384 OA
ATOM     53  H   UNL     1    -110.034 -20.081  52.598  1.00  0.00     0.211 HD
ENDBRANCH   4  52
TORSDOF 16
ENDMDL
MODEL 2
REMARK VINA RESULT:    -6.415      2.079      8.959
REMARK INTER + INTRA:         -10.578
REMARK INTER:                  -7.924
REMARK INTRA:                  -2.654
REMARK UNBOUND:                -0.037
REMARK SMILES C[C@H]1O[C@H](OC[C@@H]2O[C@H](Oc3c(-c4ccc(O)c(O)c4)oc4cc(O)cc(O)c4c3=O)[C@@H](O)[C@H](O)[C@H]2O)[C@H](O)[C@@H](O)[C@H]1O
REMARK SMILES IDX 7 1 36 2 34 3 32 4 9 5 8 6 6 7 5 8 4 9 1 10 2 11 42 12 3 13
REMARK SMILES IDX 40 14 38 15 43 16 41 18 39 20 37 22 35 24 10 26 11 27 12 28
REMARK SMILES IDX 30 29 21 30 29 31 31 32 22 33 27 34 23 35 26 36 24 37 13 38
REMARK SMILES IDX 20 39 14 40 18 41 15 42 16 43 19 44 17 46 28 48 25 50 33 52
REMARK H PARENT 43 17 41 19 39 21 37 23 35 25 19 45 17 47 28 49 25 51 33 53
REMARK Flexibility Score: inf
ROOT
ATOM      1  C   UNL     1    -108.976 -18.298  51.609  1.00  0.00     0.180 C 
ATOM      2  C   UNL     1    -108.471 -19.725  51.380  1.00  0.00     0.177 C 
ATOM      3  C   UNL     1    -107.083 -19.538  50.428  1.00  0.00     0.180 C 
ATOM      4  C   UNL     1    -107.233 -18.407  49.191  1.00  0.00     0.214 C 
ATOM      5  C   UNL     1    -108.663 -17.641  49.291  1.00  0.00     0.339 C 
ATOM      6  O   UNL     1    -109.618 -17.865  50.434  1.00  0.00    -0.332 OA
ENDROOT
BRANCH   1   7
ATOM      7  C   UNL     1    -109.793 -18.072  52.946  1.00  0.00     0.198 C 
BRANCH   7   8
ATOM      8  O   UNL     1    -111.054 -17.309  52.876  1.00  0.00    -0.347 OA
BRANCH   8   9
ATOM      9  C   UNL     1    -111.147 -16.022  53.440  1.00  0.00     0.281 C 
ATOM     10  C   UNL     1    -111.157 -13.794  55.458  1.00  0.00     0.041 C 
ATOM     11  C   UNL     1    -109.911 -14.606  55.116  1.00  0.00     0.150 C 
ATOM     12  C   UNL     1    -109.178 -13.893  53.958  1.00  0.00     0.174 C 
ATOM     13  O   UNL     1    -110.309 -15.962  54.625  1.00  0.00    -0.344 OA
ATOM     14  C   UNL     1    -109.923 -13.816  52.604  1.00  0.00     0.179 C 
ATOM     15  C   UNL     1    -111.156 -14.861  52.400  1.00  0.00     0.202 C 
BRANCH  12  16
ATOM     16  O   UNL     1    -108.944 -12.572  54.495  1.00  0.00    -0.388 OA
ATOM     17  H   UNL     1    -109.659 -12.185  55.124  1.00  0.00     0.211 HD
ENDBRANCH  12  16
BRANCH  14  18
ATOM     18  O   UNL     1    -110.420 -12.511  52.279  1.00  0.00    -0.387 OA
ATOM     19  H   UNL     1    -111.196 -12.266  52.776  1.00  0.00     0.211 HD
ENDBRANCH  14  18
BRANCH  15  20
ATOM     20  O   UNL     1    -111.125 -15.398  51.048  1.00  0.00    -0.385 OA
ATOM     21  H   UNL     1    -110.791 -14.640  50.459  1.00  0.00     0.211 HD
ENDBRANCH  15  20
ENDBRANCH   8   9
ENDBRANCH   7   8
ENDBRANCH   1   7
BRANCH   2  22
ATOM     22  O   UNL     1    -108.056 -20.314  52.665  1.00  0.00    -0.387 OA
ATOM     23  H   UNL     1    -107.227 -19.817  52.958  1.00  0.00     0.211 HD
ENDBRANCH   2  22
BRANCH   3  24
ATOM     24  O   UNL     1    -106.595 -20.799  49.935  1.00  0.00    -0.387 OA
ATOM     25  H   UNL     1    -106.098 -20.587  49.123  1.00  0.00     0.211 HD
ENDBRANCH   3  24
BRANCH   5  26
ATOM     26  O   UNL     1    -109.268 -17.968  48.068  1.00  0.00    -0.454 OA
BRANCH  26  27
ATOM     27  C   UNL     1    -109.473 -17.147  46.966  1.00  0.00     0.214 A 
ATOM     28  C   UNL     1    -110.825 -16.913  46.607  1.00  0.00     0.180 A 
ATOM     29  C   UNL     1    -108.457 -16.514  46.236  1.00  0.00     0.239 A 
ATOM     30  O   UNL     1    -111.137 -16.028  45.679  1.00  0.00    -0.452 OA
ATOM     31  C   UNL     1    -108.823 -15.519  45.283  1.00  0.00     0.111 A 
ATOM     32  O   UNL     1    -107.285 -16.763  46.477  1.00  0.00    -0.285 OA
ATOM     33  C   UNL     1    -110.215 -15.234  45.076  1.00  0.00     0.146 A 
ATOM     34  C   UNL     1    -107.857 -14.766  44.536  1.00  0.00     0.134 A 
ATOM     35  C   UNL     1    -110.611 -14.231  44.213  1.00  0.00     0.094 A 
ATOM     36  C   UNL     1    -108.265 -13.652  43.812  1.00  0.00     0.093 A 
ATOM     37  C   UNL     1    -109.652 -13.349  43.609  1.00  0.00     0.123 A 
BRANCH  28  38
ATOM     38  C   UNL     1    -111.870 -17.639  47.359  1.00  0.00     0.025 A 
ATOM     39  C   UNL     1    -112.324 -17.088  48.590  1.00  0.00     0.062 A 
ATOM     40  C   UNL     1    -112.164 -18.955  47.009  1.00  0.00     0.016 A 
ATOM     41  C   UNL     1    -112.972 -17.941  49.492  1.00  0.00     0.158 A 
ATOM     42  C   UNL     1    -112.851 -19.788  47.901  1.00  0.00     0.051 A 
ATOM     43  C   UNL     1    -113.252 -19.289  49.151  1.00  0.00     0.157 A 
BRANCH  41  44
ATOM     44  O   UNL     1    -113.381 -17.417  50.732  1.00  0.00    -0.504 OA
ATOM     45  H   UNL     1    -113.843 -18.038  51.425  1.00  0.00     0.293 HD
ENDBRANCH  41  44
BRANCH  43  46
ATOM     46  O   UNL     1    -113.859 -20.157  50.077  1.00  0.00    -0.504 OA
ATOM     47  H   UNL     1    -114.156 -21.114  49.820  1.00  0.00     0.293 HD
ENDBRANCH  43  46
ENDBRANCH  28  38
BRANCH  34  48
ATOM     48  O   UNL     1    -106.522 -15.089  44.610  1.00  0.00    -0.507 OA
ATOM     49  H   UNL     1    -105.986 -15.056  45.487  1.00  0.00     0.293 HD
ENDBRANCH  34  48
BRANCH  37  50
ATOM     50  O   UNL     1    -110.072 -12.267  42.875  1.00  0.00    -0.508 OA
ATOM     51  H   UNL     1    -110.269 -11.403  43.321  1.00  0.00     0.293 HD
ENDBRANCH  37  50
ENDBRANCH  26  27
ENDBRANCH   5  26
BRANCH   4  52
ATOM     52  O   UNL     1    -106.129 -17.393  49.001  1.00  0.00    -0.384 OA
ATOM     53  H   UNL     1    -105.491 -17.254  48.147  1.00  0.00     0.211 HD
ENDBRANCH   4  52
TORSDOF 16
ENDMDL
MODEL 3
REMARK VINA RESULT:    -6.172      3.454      6.347
REMARK INTER + INTRA:         -10.178
REMARK INTER:                  -6.879
REMARK INTRA:                  -3.299
REMARK UNBOUND:                -0.037
REMARK SMILES C[C@H]1O[C@H](OC[C@@H]2O[C@H](Oc3c(-c4ccc(O)c(O)c4)oc4cc(O)cc(O)c4c3=O)[C@@H](O)[C@H](O)[C@H]2O)[C@H](O)[C@@H](O)[C@H]1O
REMARK SMILES IDX 7 1 36 2 34 3 32 4 9 5 8 6 6 7 5 8 4 9 1 10 2 11 42 12 3 13
REMARK SMILES IDX 40 14 38 15 43 16 41 18 39 20 37 22 35 24 10 26 11 27 12 28
REMARK SMILES IDX 30 29 21 30 29 31 31 32 22 33 27 34 23 35 26 36 24 37 13 38
REMARK SMILES IDX 20 39 14 40 18 41 15 42 16 43 19 44 17 46 28 48 25 50 33 52
REMARK H PARENT 43 17 41 19 39 21 37 23 35 25 19 45 17 47 28 49 25 51 33 53
REMARK Flexibility Score: inf
ROOT
ATOM      1  C   UNL     1    -107.941 -15.473  52.334  1.00  0.00     0.180 C 
ATOM      2  C   UNL     1    -108.263 -13.997  52.580  1.00  0.00     0.177 C 
ATOM      3  C   UNL     1    -108.654 -13.915  54.225  1.00  0.00     0.180 C 
ATOM      4  C   UNL     1    -109.628 -15.172  54.775  1.00  0.00     0.214 C 
ATOM      5  C   UNL     1    -109.855 -16.271  53.598  1.00  0.00     0.339 C 
ATOM      6  O   UNL     1    -109.154 -16.183  52.268  1.00  0.00    -0.332 OA
ENDROOT
BRANCH   1   7
ATOM      7  C   UNL     1    -106.927 -15.759  51.151  1.00  0.00     0.198 C 
BRANCH   7   8
ATOM      8  O   UNL     1    -106.696 -17.160  50.751  1.00  0.00    -0.347 OA
BRANCH   8   9
ATOM      9  C   UNL     1    -107.460 -17.750  49.725  1.00  0.00     0.281 C 
ATOM     10  C   UNL     1    -108.443 -18.509  46.988  1.00  0.00     0.041 C 
ATOM     11  C   UNL     1    -107.078 -18.925  47.531  1.00  0.00     0.150 C 
ATOM     12  C   UNL     1    -107.239 -20.286  48.242  1.00  0.00     0.174 C 
ATOM     13  O   UNL     1    -106.619 -17.936  48.556  1.00  0.00    -0.344 OA
ATOM     14  C   UNL     1    -108.136 -20.311  49.504  1.00  0.00     0.179 C 
ATOM     15  C   UNL     1    -108.430 -18.871  50.207  1.00  0.00     0.202 C 
BRANCH  12  16
ATOM     16  O   UNL     1    -107.788 -21.125  47.202  1.00  0.00    -0.388 OA
ATOM     17  H   UNL     1    -107.181 -21.346  46.403  1.00  0.00     0.211 HD
ENDBRANCH  12  16
BRANCH  14  18
ATOM     18  O   UNL     1    -109.403 -20.953  49.313  1.00  0.00    -0.387 OA
ATOM     19  H   UNL     1    -109.683 -21.470  50.063  1.00  0.00     0.211 HD
ENDBRANCH  14  18
BRANCH  15  20
ATOM     20  O   UNL     1    -108.359 -19.009  51.654  1.00  0.00    -0.385 OA
ATOM     21  H   UNL     1    -108.785 -18.166  52.030  1.00  0.00     0.211 HD
ENDBRANCH  15  20
ENDBRANCH   8   9
ENDBRANCH   7   8
ENDBRANCH   1   7
BRANCH   2  22
ATOM     22  O   UNL     1    -107.053 -13.184  52.366  1.00  0.00    -0.387 OA
ATOM     23  H   UNL     1    -106.265 -13.777  52.578  1.00  0.00     0.211 HD
ENDBRANCH   2  22
BRANCH   3  24
ATOM     24  O   UNL     1    -109.195 -12.631  54.587  1.00  0.00    -0.387 OA
ATOM     25  H   UNL     1    -109.550 -12.742  55.488  1.00  0.00     0.211 HD
ENDBRANCH   3  24
BRANCH   5  26
ATOM     26  O   UNL     1    -111.248 -16.248  53.427  1.00  0.00    -0.454 OA
BRANCH  26  27
ATOM     27  C   UNL     1    -111.988 -16.738  52.359  1.00  0.00     0.214 A 
ATOM     28  C   UNL     1    -112.840 -15.806  51.713  1.00  0.00     0.180 A 
ATOM     29  C   UNL     1    -111.913 -18.047  51.862  1.00  0.00     0.239 A 
ATOM     30  O   UNL     1    -113.467 -16.120  50.595  1.00  0.00    -0.452 OA
ATOM     31  C   UNL     1    -112.550 -18.341  50.621  1.00  0.00     0.111 A 
ATOM     32  O   UNL     1    -111.248 -18.887  52.449  1.00  0.00    -0.285 OA
ATOM     33  C   UNL     1    -113.279 -17.301  49.950  1.00  0.00     0.146 A 
ATOM     34  C   UNL     1    -112.475 -19.629  49.994  1.00  0.00     0.134 A 
ATOM     35  C   UNL     1    -113.854 -17.524  48.715  1.00  0.00     0.094 A 
ATOM     36  C   UNL     1    -112.904 -19.782  48.682  1.00  0.00     0.093 A 
ATOM     37  C   UNL     1    -113.621 -18.746  47.996  1.00  0.00     0.123 A 
BRANCH  28  38
ATOM     38  C   UNL     1    -112.940 -14.450  52.295  1.00  0.00     0.025 A 
ATOM     39  C   UNL     1    -112.003 -13.465  51.879  1.00  0.00     0.062 A 
ATOM     40  C   UNL     1    -113.736 -14.256  53.422  1.00  0.00     0.016 A 
ATOM     41  C   UNL     1    -111.817 -12.347  52.701  1.00  0.00     0.158 A 
ATOM     42  C   UNL     1    -113.572 -13.114  54.215  1.00  0.00     0.051 A 
ATOM     43  C   UNL     1    -112.607 -12.155  53.865  1.00  0.00     0.157 A 
BRANCH  41  44
ATOM     44  O   UNL     1    -110.856 -11.390  52.324  1.00  0.00    -0.504 OA
ATOM     45  H   UNL     1    -110.437 -11.430  51.374  1.00  0.00     0.293 HD
ENDBRANCH  41  44
BRANCH  43  46
ATOM     46  O   UNL     1    -112.384 -11.058  54.716  1.00  0.00    -0.504 OA
ATOM     47  H   UNL     1    -112.086 -10.135  54.357  1.00  0.00     0.293 HD
ENDBRANCH  43  46
ENDBRANCH  28  38
BRANCH  34  48
ATOM     48  O   UNL     1    -111.894 -20.686  50.656  1.00  0.00    -0.507 OA
ATOM     49  H   UNL     1    -110.918 -20.974  50.504  1.00  0.00     0.293 HD
ENDBRANCH  34  48
BRANCH  37  50
ATOM     50  O   UNL     1    -114.076 -18.889  46.709  1.00  0.00    -0.508 OA
ATOM     51  H   UNL     1    -113.445 -18.841  45.945  1.00  0.00     0.293 HD
ENDBRANCH  37  50
ENDBRANCH  26  27
ENDBRANCH   5  26
BRANCH   4  52
ATOM     52  O   UNL     1    -109.246 -15.876  56.056  1.00  0.00    -0.384 OA
ATOM     53  H   UNL     1    -109.059 -15.445  57.023  1.00  0.00     0.211 HD
ENDBRANCH   4  52
TORSDOF 16
ENDMDL
MODEL 4
REMARK VINA RESULT:    -6.078      2.373      8.884
REMARK INTER + INTRA:         -10.024
REMARK INTER:                  -8.314
REMARK INTRA:                  -1.710
REMARK UNBOUND:                -0.037
REMARK SMILES C[C@H]1O[C@H](OC[C@@H]2O[C@H](Oc3c(-c4ccc(O)c(O)c4)oc4cc(O)cc(O)c4c3=O)[C@@H](O)[C@H](O)[C@H]2O)[C@H](O)[C@@H](O)[C@H]1O
REMARK SMILES IDX 7 1 36 2 34 3 32 4 9 5 8 6 6 7 5 8 4 9 1 10 2 11 42 12 3 13
REMARK SMILES IDX 40 14 38 15 43 16 41 18 39 20 37 22 35 24 10 26 11 27 12 28
REMARK SMILES IDX 30 29 21 30 29 31 31 32 22 33 27 34 23 35 26 36 24 37 13 38
REMARK SMILES IDX 20 39 14 40 18 41 15 42 16 43 19 44 17 46 28 48 25 50 33 52
REMARK H PARENT 43 17 41 19 39 21 37 23 35 25 19 45 17 47 28 49 25 51 33 53
REMARK Flexibility Score: inf
ROOT
ATOM      1  C   UNL     1    -111.465 -17.636  50.353  1.00  0.00     0.180 C 
ATOM      2  C   UNL     1    -112.332 -16.635  49.585  1.00  0.00     0.177 C 
ATOM      3  C   UNL     1    -113.364 -17.597  48.648  1.00  0.00     0.180 C 
ATOM      4  C   UNL     1    -112.617 -18.916  47.918  1.00  0.00     0.214 C 
ATOM      5  C   UNL     1    -111.072 -19.037  48.408  1.00  0.00     0.339 C 
ATOM      6  O   UNL     1    -110.492 -18.142  49.471  1.00  0.00    -0.332 OA
ENDROOT
BRANCH   1   7
ATOM      7  C   UNL     1    -110.912 -17.126  51.746  1.00  0.00     0.198 C 
BRANCH   7   8
ATOM      8  O   UNL     1    -109.920 -16.033  51.749  1.00  0.00    -0.347 OA
BRANCH   8   9
ATOM      9  C   UNL     1    -110.232 -14.782  52.315  1.00  0.00     0.281 C 
ATOM     10  C   UNL     1    -111.805 -12.480  53.438  1.00  0.00     0.041 C 
ATOM     11  C   UNL     1    -111.728 -13.847  54.112  1.00  0.00     0.150 C 
ATOM     12  C   UNL     1    -110.531 -13.834  55.088  1.00  0.00     0.174 C 
ATOM     13  O   UNL     1    -111.457 -14.902  53.086  1.00  0.00    -0.344 OA
ATOM     14  C   UNL     1    -109.124 -13.676  54.463  1.00  0.00     0.179 C 
ATOM     15  C   UNL     1    -109.002 -14.002  52.871  1.00  0.00     0.202 C 
BRANCH  12  16
ATOM     16  O   UNL     1    -110.839 -12.719  55.954  1.00  0.00    -0.388 OA
ATOM     17  H   UNL     1    -110.567 -11.782  55.632  1.00  0.00     0.211 HD
ENDBRANCH  12  16
BRANCH  14  18
ATOM     18  O   UNL     1    -108.525 -12.391  54.676  1.00  0.00    -0.387 OA
ATOM     19  H   UNL     1    -108.035 -12.072  53.923  1.00  0.00     0.211 HD
ENDBRANCH  14  18
BRANCH  15  20
ATOM     20  O   UNL     1    -107.778 -14.745  52.615  1.00  0.00    -0.385 OA
ATOM     21  H   UNL     1    -107.905 -15.176  51.703  1.00  0.00     0.211 HD
ENDBRANCH  15  20
ENDBRANCH   8   9
ENDBRANCH   7   8
ENDBRANCH   1   7
BRANCH   2  22
ATOM     22  O   UNL     1    -113.166 -15.874  50.532  1.00  0.00    -0.387 OA
ATOM     23  H   UNL     1    -112.964 -14.898  50.375  1.00  0.00     0.211 HD
ENDBRANCH   2  22
BRANCH   3  24
ATOM     24  O   UNL     1    -114.109 -16.817  47.695  1.00  0.00    -0.387 OA
ATOM     25  H   UNL     1    -113.694 -15.935  47.698  1.00  0.00     0.211 HD
ENDBRANCH   3  24
BRANCH   5  26
ATOM     26  O   UNL     1    -110.361 -18.904  47.205  1.00  0.00    -0.454 OA
BRANCH  26  27
ATOM     27  C   UNL     1    -109.782 -17.759  46.674  1.00  0.00     0.214 A 
ATOM     28  C   UNL     1    -108.384 -17.621  46.868  1.00  0.00     0.180 A 
ATOM     29  C   UNL     1    -110.465 -16.782  45.936  1.00  0.00     0.239 A 
ATOM     30  O   UNL     1    -107.708 -16.656  46.273  1.00  0.00    -0.452 OA
ATOM     31  C   UNL     1    -109.703 -15.788  45.254  1.00  0.00     0.111 A 
ATOM     32  O   UNL     1    -111.680 -16.839  45.822  1.00  0.00    -0.285 OA
ATOM     33  C   UNL     1    -108.273 -15.798  45.385  1.00  0.00     0.146 A 
ATOM     34  C   UNL     1    -110.301 -14.787  44.419  1.00  0.00     0.134 A 
ATOM     35  C   UNL     1    -107.493 -14.896  44.688  1.00  0.00     0.094 A 
ATOM     36  C   UNL     1    -109.497 -14.008  43.596  1.00  0.00     0.093 A 
ATOM     37  C   UNL     1    -108.068 -14.020  43.706  1.00  0.00     0.123 A 
BRANCH  28  38
ATOM     38  C   UNL     1    -107.703 -18.637  47.699  1.00  0.00     0.025 A 
ATOM     39  C   UNL     1    -107.579 -18.396  49.096  1.00  0.00     0.062 A 
ATOM     40  C   UNL     1    -106.959 -19.633  47.072  1.00  0.00     0.016 A 
ATOM     41  C   UNL     1    -106.601 -19.108  49.800  1.00  0.00     0.158 A 
ATOM     42  C   UNL     1    -106.013 -20.370  47.796  1.00  0.00     0.051 A 
ATOM     43  C   UNL     1    -105.822 -20.107  49.162  1.00  0.00     0.157 A 
BRANCH  41  44
ATOM     44  O   UNL     1    -106.437 -18.841  51.172  1.00  0.00    -0.504 OA
ATOM     45  H   UNL     1    -107.273 -18.742  51.780  1.00  0.00     0.293 HD
ENDBRANCH  41  44
BRANCH  43  46
ATOM     46  O   UNL     1    -104.806 -20.786  49.860  1.00  0.00    -0.504 OA
ATOM     47  H   UNL     1    -103.955 -20.305  50.198  1.00  0.00     0.293 HD
ENDBRANCH  43  46
ENDBRANCH  28  38
BRANCH  34  48
ATOM     48  O   UNL     1    -111.670 -14.663  44.362  1.00  0.00    -0.507 OA
ATOM     49  H   UNL     1    -112.152 -13.754  44.388  1.00  0.00     0.293 HD
ENDBRANCH  34  48
BRANCH  37  50
ATOM     50  O   UNL     1    -107.259 -13.237  42.919  1.00  0.00    -0.508 OA
ATOM     51  H   UNL     1    -107.312 -12.248  42.972  1.00  0.00     0.293 HD
ENDBRANCH  37  50
ENDBRANCH  26  27
ENDBRANCH   5  26
BRANCH   4  52
ATOM     52  O   UNL     1    -113.285 -20.268  48.012  1.00  0.00    -0.384 OA
ATOM     53  H   UNL     1    -114.334 -20.497  47.980  1.00  0.00     0.211 HD
ENDBRANCH   4  52
TORSDOF 16
ENDMDL
MODEL 5
REMARK VINA RESULT:    -6.069      2.492      8.902
REMARK INTER + INTRA:         -10.008
REMARK INTER:                  -7.915
REMARK INTRA:                  -2.093
REMARK UNBOUND:                -0.037
REMARK SMILES C[C@H]1O[C@H](OC[C@@H]2O[C@H](Oc3c(-c4ccc(O)c(O)c4)oc4cc(O)cc(O)c4c3=O)[C@@H](O)[C@H](O)[C@H]2O)[C@H](O)[C@@H](O)[C@H]1O
REMARK SMILES IDX 7 1 36 2 34 3 32 4 9 5 8 6 6 7 5 8 4 9 1 10 2 11 42 12 3 13
REMARK SMILES IDX 40 14 38 15 43 16 41 18 39 20 37 22 35 24 10 26 11 27 12 28
REMARK SMILES IDX 30 29 21 30 29 31 31 32 22 33 27 34 23 35 26 36 24 37 13 38
REMARK SMILES IDX 20 39 14 40 18 41 15 42 16 43 19 44 17 46 28 48 25 50 33 52
REMARK H PARENT 43 17 41 19 39 21 37 23 35 25 19 45 17 47 28 49 25 51 33 53
REMARK Flexibility Score: inf
ROOT
ATOM      1  C   UNL     1    -108.310 -17.603  51.120  1.00  0.00     0.180 C 
ATOM      2  C   UNL     1    -109.530 -18.349  51.667  1.00  0.00     0.177 C 
ATOM      3  C   UNL     1    -109.264 -19.967  51.245  1.00  0.00     0.180 C 
ATOM      4  C   UNL     1    -108.669 -20.194  49.688  1.00  0.00     0.214 C 
ATOM      5  C   UNL     1    -108.352 -18.762  48.986  1.00  0.00     0.339 C 
ATOM      6  O   UNL     1    -108.469 -17.458  49.730  1.00  0.00    -0.332 OA
ENDROOT
BRANCH   1   7
ATOM      7  C   UNL     1    -107.920 -16.279  51.897  1.00  0.00     0.198 C 
BRANCH   7   8
ATOM      8  O   UNL     1    -108.829 -15.794  52.953  1.00  0.00    -0.347 OA
BRANCH   8   9
ATOM      9  C   UNL     1    -109.383 -14.500  52.885  1.00  0.00     0.281 C 
ATOM     10  C   UNL     1    -111.185 -12.213  52.142  1.00  0.00     0.041 C 
ATOM     11  C   UNL     1    -111.656 -13.419  52.950  1.00  0.00     0.150 C 
ATOM     12  C   UNL     1    -111.452 -13.101  54.447  1.00  0.00     0.174 C 
ATOM     13  O   UNL     1    -110.807 -14.608  52.625  1.00  0.00    -0.344 OA
ATOM     14  C   UNL     1    -109.992 -12.912  54.927  1.00  0.00     0.179 C 
ATOM     15  C   UNL     1    -108.831 -13.506  53.952  1.00  0.00     0.202 C 
BRANCH  12  16
ATOM     16  O   UNL     1    -112.215 -11.887  54.622  1.00  0.00    -0.388 OA
ATOM     17  H   UNL     1    -112.532 -11.661  55.573  1.00  0.00     0.211 HD
ENDBRANCH  12  16
BRANCH  14  18
ATOM     18  O   UNL     1    -109.640 -11.554  55.221  1.00  0.00    -0.387 OA
ATOM     19  H   UNL     1    -108.699 -11.406  55.261  1.00  0.00     0.211 HD
ENDBRANCH  14  18
BRANCH  15  20
ATOM     20  O   UNL     1    -107.800 -14.150  54.752  1.00  0.00    -0.385 OA
ATOM     21  H   UNL     1    -106.962 -13.592  54.620  1.00  0.00     0.211 HD
ENDBRANCH  15  20
ENDBRANCH   8   9
ENDBRANCH   7   8
ENDBRANCH   1   7
BRANCH   2  22
ATOM     22  O   UNL     1    -109.543 -18.266  53.137  1.00  0.00    -0.387 OA
ATOM     23  H   UNL     1    -110.342 -18.798  53.450  1.00  0.00     0.211 HD
ENDBRANCH   2  22
BRANCH   3  24
ATOM     24  O   UNL     1    -110.421 -20.786  51.493  1.00  0.00    -0.387 OA
ATOM     25  H   UNL     1    -111.115 -20.172  51.797  1.00  0.00     0.211 HD
ENDBRANCH   3  24
BRANCH   5  26
ATOM     26  O   UNL     1    -109.203 -18.776  47.871  1.00  0.00    -0.454 OA
BRANCH  26  27
ATOM     27  C   UNL     1    -109.301 -17.833  46.855  1.00  0.00     0.214 A 
ATOM     28  C   UNL     1    -110.510 -17.096  46.805  1.00  0.00     0.180 A 
ATOM     29  C   UNL     1    -108.287 -17.540  45.932  1.00  0.00     0.239 A 
ATOM     30  O   UNL     1    -110.647 -16.071  45.983  1.00  0.00    -0.452 OA
ATOM     31  C   UNL     1    -108.436 -16.392  45.100  1.00  0.00     0.111 A 
ATOM     32  O   UNL     1    -107.269 -18.215  45.906  1.00  0.00    -0.285 OA
ATOM     33  C   UNL     1    -109.634 -15.607  45.207  1.00  0.00     0.146 A 
ATOM     34  C   UNL     1    -107.427 -15.968  44.172  1.00  0.00     0.134 A 
ATOM     35  C   UNL     1    -109.790 -14.451  44.469  1.00  0.00     0.094 A 
ATOM     36  C   UNL     1    -107.525 -14.717  43.574  1.00  0.00     0.093 A 
ATOM     37  C   UNL     1    -108.710 -13.918  43.685  1.00  0.00     0.123 A 
BRANCH  28  38
ATOM     38  C   UNL     1    -111.581 -17.467  47.754  1.00  0.00     0.025 A 
ATOM     39  C   UNL     1    -111.726 -16.700  48.944  1.00  0.00     0.062 A 
ATOM     40  C   UNL     1    -112.211 -18.701  47.613  1.00  0.00     0.016 A 
ATOM     41  C   UNL     1    -112.422 -17.274  50.014  1.00  0.00     0.158 A 
ATOM     42  C   UNL     1    -112.940 -19.248  48.676  1.00  0.00     0.051 A 
ATOM     43  C   UNL     1    -113.045 -18.542  49.886  1.00  0.00     0.157 A 
BRANCH  41  44
ATOM     44  O   UNL     1    -112.528 -16.543  51.212  1.00  0.00    -0.504 OA
ATOM     45  H   UNL     1    -113.006 -15.621  51.211  1.00  0.00     0.293 HD
ENDBRANCH  41  44
BRANCH  43  46
ATOM     46  O   UNL     1    -113.700 -19.139  50.978  1.00  0.00    -0.504 OA
ATOM     47  H   UNL     1    -113.468 -18.898  51.957  1.00  0.00     0.293 HD
ENDBRANCH  43  46
ENDBRANCH  28  38
BRANCH  34  48
ATOM     48  O   UNL     1    -106.321 -16.754  43.947  1.00  0.00    -0.507 OA
ATOM     49  H   UNL     1    -106.017 -17.492  44.597  1.00  0.00     0.293 HD
ENDBRANCH  34  48
BRANCH  37  50
ATOM     50  O   UNL     1    -108.834 -12.692  43.080  1.00  0.00    -0.508 OA
ATOM     51  H   UNL     1    -108.425 -12.527  42.191  1.00  0.00     0.293 HD
ENDBRANCH  37  50
ENDBRANCH  26  27
ENDBRANCH   5  26
BRANCH   4  52
ATOM     52  O   UNL     1    -107.495 -21.125  49.490  1.00  0.00    -0.384 OA
ATOM     53  H   UNL     1    -107.053 -21.453  48.567  1.00  0.00     0.211 HD
ENDBRANCH   4  52
TORSDOF 16
ENDMDL
MODEL 6
REMARK VINA RESULT:    -6.036      4.038      6.260
REMARK INTER + INTRA:          -9.955
REMARK INTER:                  -8.022
REMARK INTRA:                  -1.933
REMARK UNBOUND:                -0.037
REMARK SMILES C[C@H]1O[C@H](OC[C@@H]2O[C@H](Oc3c(-c4ccc(O)c(O)c4)oc4cc(O)cc(O)c4c3=O)[C@@H](O)[C@H](O)[C@H]2O)[C@H](O)[C@@H](O)[C@H]1O
REMARK SMILES IDX 7 1 36 2 34 3 32 4 9 5 8 6 6 7 5 8 4 9 1 10 2 11 42 12 3 13
REMARK SMILES IDX 40 14 38 15 43 16 41 18 39 20 37 22 35 24 10 26 11 27 12 28
REMARK SMILES IDX 30 29 21 30 29 31 31 32 22 33 27 34 23 35 26 36 24 37 13 38
REMARK SMILES IDX 20 39 14 40 18 41 15 42 16 43 19 44 17 46 28 48 25 50 33 52
REMARK H PARENT 43 17 41 19 39 21 37 23 35 25 19 45 17 47 28 49 25 51 33 53
REMARK Flexibility Score: inf
ROOT
ATOM      1  C   UNL     1    -110.694 -16.980  51.185  1.00  0.00     0.180 C 
ATOM      2  C   UNL     1    -111.437 -18.148  51.837  1.00  0.00     0.177 C 
ATOM      3  C   UNL     1    -112.895 -18.256  50.983  1.00  0.00     0.180 C 
ATOM      4  C   UNL     1    -113.621 -16.775  50.651  1.00  0.00     0.214 C 
ATOM      5  C   UNL     1    -112.659 -15.552  51.121  1.00  0.00     0.339 C 
ATOM      6  O   UNL     1    -111.266 -15.781  51.648  1.00  0.00    -0.332 OA
ENDROOT
BRANCH   1   7
ATOM      7  C   UNL     1    -109.114 -17.049  51.267  1.00  0.00     0.198 C 
BRANCH   7   8
ATOM      8  O   UNL     1    -108.448 -16.455  52.442  1.00  0.00    -0.347 OA
BRANCH   8   9
ATOM      9  C   UNL     1    -108.507 -15.068  52.677  1.00  0.00     0.281 C 
ATOM     10  C   UNL     1    -109.275 -12.413  53.858  1.00  0.00     0.041 C 
ATOM     11  C   UNL     1    -108.523 -13.488  54.638  1.00  0.00     0.150 C 
ATOM     12  C   UNL     1    -107.010 -13.249  54.446  1.00  0.00     0.174 C 
ATOM     13  O   UNL     1    -108.839 -14.837  54.072  1.00  0.00    -0.344 OA
ATOM     14  C   UNL     1    -106.455 -13.412  53.010  1.00  0.00     0.179 C 
ATOM     15  C   UNL     1    -107.389 -14.245  51.967  1.00  0.00     0.202 C 
BRANCH  12  16
ATOM     16  O   UNL     1    -106.840 -11.894  54.915  1.00  0.00    -0.388 OA
ATOM     17  H   UNL     1    -107.569 -11.213  54.668  1.00  0.00     0.211 HD
ENDBRANCH  12  16
BRANCH  14  18
ATOM     18  O   UNL     1    -106.109 -12.177  52.369  1.00  0.00    -0.387 OA
ATOM     19  H   UNL     1    -106.703 -11.936  51.663  1.00  0.00     0.211 HD
ENDBRANCH  14  18
BRANCH  15  20
ATOM     20  O   UNL     1    -106.557 -15.123  51.158  1.00  0.00    -0.385 OA
ATOM     21  H   UNL     1    -105.667 -15.182  51.644  1.00  0.00     0.211 HD
ENDBRANCH  15  20
ENDBRANCH   8   9
ENDBRANCH   7   8
ENDBRANCH   1   7
BRANCH   2  22
ATOM     22  O   UNL     1    -110.691 -19.398  51.610  1.00  0.00    -0.387 OA
ATOM     23  H   UNL     1    -110.095 -19.238  50.810  1.00  0.00     0.211 HD
ENDBRANCH   2  22
BRANCH   3  24
ATOM     24  O   UNL     1    -113.817 -19.170  51.604  1.00  0.00    -0.387 OA
ATOM     25  H   UNL     1    -114.523 -18.612  51.981  1.00  0.00     0.211 HD
ENDBRANCH   3  24
BRANCH   5  26
ATOM     26  O   UNL     1    -113.449 -14.893  52.075  1.00  0.00    -0.454 OA
BRANCH  26  27
ATOM     27  C   UNL     1    -113.127 -14.587  53.391  1.00  0.00     0.214 A 
ATOM     28  C   UNL     1    -112.894 -13.217  53.671  1.00  0.00     0.180 A 
ATOM     29  C   UNL     1    -113.066 -15.515  54.440  1.00  0.00     0.239 A 
ATOM     30  O   UNL     1    -112.736 -12.795  54.913  1.00  0.00    -0.452 OA
ATOM     31  C   UNL     1    -112.956 -15.027  55.775  1.00  0.00     0.111 A 
ATOM     32  O   UNL     1    -113.185 -16.709  54.209  1.00  0.00    -0.285 OA
ATOM     33  C   UNL     1    -112.868 -13.610  55.991  1.00  0.00     0.146 A 
ATOM     34  C   UNL     1    -112.955 -15.890  56.921  1.00  0.00     0.134 A 
ATOM     35  C   UNL     1    -112.828 -13.090  57.270  1.00  0.00     0.094 A 
ATOM     36  C   UNL     1    -113.092 -15.345  58.192  1.00  0.00     0.093 A 
ATOM     37  C   UNL     1    -113.020 -13.931  58.419  1.00  0.00     0.123 A 
BRANCH  28  38
ATOM     38  C   UNL     1    -112.908 -12.271  52.535  1.00  0.00     0.025 A 
ATOM     39  C   UNL     1    -111.694 -12.044  51.829  1.00  0.00     0.062 A 
ATOM     40  C   UNL     1    -114.002 -11.425  52.374  1.00  0.00     0.016 A 
ATOM     41  C   UNL     1    -111.590 -10.880  51.058  1.00  0.00     0.158 A 
ATOM     42  C   UNL     1    -113.902 -10.285  51.567  1.00  0.00     0.051 A 
ATOM     43  C   UNL     1    -112.694 -10.000  50.910  1.00  0.00     0.157 A 
BRANCH  41  44
ATOM     44  O   UNL     1    -110.376 -10.622  50.395  1.00  0.00    -0.504 OA
ATOM     45  H   UNL     1    -109.497 -11.050  50.747  1.00  0.00     0.293 HD
ENDBRANCH  41  44
BRANCH  43  46
ATOM     46  O   UNL     1    -112.572  -8.806  50.177  1.00  0.00    -0.504 OA
ATOM     47  H   UNL     1    -112.080  -7.978  50.553  1.00  0.00     0.293 HD
ENDBRANCH  43  46
ENDBRANCH  28  38
BRANCH  34  48
ATOM     48  O   UNL     1    -112.914 -17.255  56.757  1.00  0.00    -0.507 OA
ATOM     49  H   UNL     1    -112.256 -17.723  56.120  1.00  0.00     0.293 HD
ENDBRANCH  34  48
BRANCH  37  50
ATOM     50  O   UNL     1    -113.127 -13.377  59.671  1.00  0.00    -0.508 OA
ATOM     51  H   UNL     1    -112.731 -12.488  59.863  1.00  0.00     0.293 HD
ENDBRANCH  37  50
ENDBRANCH  26  27
ENDBRANCH   5  26
BRANCH   4  52
ATOM     52  O   UNL     1    -114.124 -16.514  49.251  1.00  0.00    -0.384 OA
ATOM     53  H   UNL     1    -114.312 -17.224  48.466  1.00  0.00     0.211 HD
ENDBRANCH   4  52
TORSDOF 16
ENDMDL
MODEL 7
REMARK VINA RESULT:    -5.947      2.473      8.310
REMARK INTER + INTRA:          -9.809
REMARK INTER:                  -7.355
REMARK INTRA:                  -2.454
REMARK UNBOUND:                -0.037
REMARK SMILES C[C@H]1O[C@H](OC[C@@H]2O[C@H](Oc3c(-c4ccc(O)c(O)c4)oc4cc(O)cc(O)c4c3=O)[C@@H](O)[C@H](O)[C@H]2O)[C@H](O)[C@@H](O)[C@H]1O
REMARK SMILES IDX 7 1 36 2 34 3 32 4 9 5 8 6 6 7 5 8 4 9 1 10 2 11 42 12 3 13
REMARK SMILES IDX 40 14 38 15 43 16 41 18 39 20 37 22 35 24 10 26 11 27 12 28
REMARK SMILES IDX 30 29 21 30 29 31 31 32 22 33 27 34 23 35 26 36 24 37 13 38
REMARK SMILES IDX 20 39 14 40 18 41 15 42 16 43 19 44 17 46 28 48 25 50 33 52
REMARK H PARENT 43 17 41 19 39 21 37 23 35 25 19 45 17 47 28 49 25 51 33 53
REMARK Flexibility Score: inf
ROOT
ATOM      1  C   UNL     1    -112.519 -17.474  53.218  1.00  0.00     0.180 C 
ATOM      2  C   UNL     1    -112.779 -18.965  53.446  1.00  0.00     0.177 C 
ATOM      3  C   UNL     1    -111.241 -19.672  53.432  1.00  0.00     0.180 C 
ATOM      4  C   UNL     1    -110.216 -19.091  52.231  1.00  0.00     0.214 C 
ATOM      5  C   UNL     1    -110.915 -17.858  51.434  1.00  0.00     0.339 C 
ATOM      6  O   UNL     1    -112.241 -17.279  51.852  1.00  0.00    -0.332 OA
ENDROOT
BRANCH   1   7
ATOM      7  C   UNL     1    -113.600 -16.494  53.832  1.00  0.00     0.198 C 
BRANCH   7   8
ATOM      8  O   UNL     1    -113.611 -15.090  53.378  1.00  0.00    -0.347 OA
BRANCH   8   9
ATOM      9  C   UNL     1    -112.615 -14.189  53.803  1.00  0.00     0.281 C 
ATOM     10  C   UNL     1    -110.897 -12.480  55.581  1.00  0.00     0.041 C 
ATOM     11  C   UNL     1    -110.902 -14.005  55.640  1.00  0.00     0.150 C 
ATOM     12  C   UNL     1    -109.819 -14.526  54.669  1.00  0.00     0.174 C 
ATOM     13  O   UNL     1    -112.221 -14.525  55.160  1.00  0.00    -0.344 OA
ATOM     14  C   UNL     1    -110.036 -14.236  53.163  1.00  0.00     0.179 C 
ATOM     15  C   UNL     1    -111.553 -13.842  52.717  1.00  0.00     0.202 C 
BRANCH  12  16
ATOM     16  O   UNL     1    -108.622 -13.879  55.152  1.00  0.00    -0.388 OA
ATOM     17  H   UNL     1    -107.853 -13.748  54.483  1.00  0.00     0.211 HD
ENDBRANCH  12  16
BRANCH  14  18
ATOM     18  O   UNL     1    -109.166 -13.232  52.625  1.00  0.00    -0.387 OA
ATOM     19  H   UNL     1    -108.298 -13.561  52.405  1.00  0.00     0.211 HD
ENDBRANCH  14  18
BRANCH  15  20
ATOM     20  O   UNL     1    -111.882 -14.504  51.464  1.00  0.00    -0.385 OA
ATOM     21  H   UNL     1    -111.294 -15.332  51.428  1.00  0.00     0.211 HD
ENDBRANCH  15  20
ENDBRANCH   8   9
ENDBRANCH   7   8
ENDBRANCH   1   7
BRANCH   2  22
ATOM     22  O   UNL     1    -113.353 -19.167  54.787  1.00  0.00    -0.387 OA
ATOM     23  H   UNL     1    -114.354 -19.219  54.669  1.00  0.00     0.211 HD
ENDBRANCH   2  22
BRANCH   3  24
ATOM     24  O   UNL     1    -111.310 -21.110  53.418  1.00  0.00    -0.387 OA
ATOM     25  H   UNL     1    -110.413 -21.412  53.182  1.00  0.00     0.211 HD
ENDBRANCH   3  24
BRANCH   5  26
ATOM     26  O   UNL     1    -110.978 -18.343  50.119  1.00  0.00    -0.454 OA
BRANCH  26  27
ATOM     27  C   UNL     1    -110.919 -17.620  48.935  1.00  0.00     0.214 A 
ATOM     28  C   UNL     1    -109.658 -17.591  48.286  1.00  0.00     0.180 A 
ATOM     29  C   UNL     1    -112.008 -16.975  48.332  1.00  0.00     0.239 A 
ATOM     30  O   UNL     1    -109.527 -17.068  47.081  1.00  0.00    -0.452 OA
ATOM     31  C   UNL     1    -111.854 -16.475  47.007  1.00  0.00     0.111 A 
ATOM     32  O   UNL     1    -113.083 -16.920  48.911  1.00  0.00    -0.285 OA
ATOM     33  C   UNL     1    -110.581 -16.609  46.357  1.00  0.00     0.146 A 
ATOM     34  C   UNL     1    -112.926 -15.861  46.278  1.00  0.00     0.134 A 
ATOM     35  C   UNL     1    -110.407 -16.200  45.049  1.00  0.00     0.094 A 
ATOM     36  C   UNL     1    -112.783 -15.618  44.917  1.00  0.00     0.093 A 
ATOM     37  C   UNL     1    -111.520 -15.763  44.253  1.00  0.00     0.123 A 
BRANCH  28  38
ATOM     38  C   UNL     1    -108.517 -18.230  48.974  1.00  0.00     0.025 A 
ATOM     39  C   UNL     1    -107.481 -17.398  49.483  1.00  0.00     0.062 A 
ATOM     40  C   UNL     1    -108.338 -19.606  48.850  1.00  0.00     0.016 A 
ATOM     41  C   UNL     1    -106.237 -17.984  49.744  1.00  0.00     0.158 A 
ATOM     42  C   UNL     1    -107.102 -20.188  49.155  1.00  0.00     0.051 A 
ATOM     43  C   UNL     1    -106.041 -19.381  49.596  1.00  0.00     0.157 A 
BRANCH  41  44
ATOM     44  O   UNL     1    -105.192 -17.159  50.201  1.00  0.00    -0.504 OA
ATOM     45  H   UNL     1    -105.390 -16.172  50.457  1.00  0.00     0.293 HD
ENDBRANCH  41  44
BRANCH  43  46
ATOM     46  O   UNL     1    -104.777 -19.960  49.810  1.00  0.00    -0.504 OA
ATOM     47  H   UNL     1    -104.244 -20.416  49.049  1.00  0.00     0.293 HD
ENDBRANCH  43  46
ENDBRANCH  28  38
BRANCH  34  48
ATOM     48  O   UNL     1    -114.125 -15.600  46.901  1.00  0.00    -0.507 OA
ATOM     49  H   UNL     1    -114.226 -14.901  47.650  1.00  0.00     0.293 HD
ENDBRANCH  34  48
BRANCH  37  50
ATOM     50  O   UNL     1    -111.354 -15.503  42.915  1.00  0.00    -0.508 OA
ATOM     51  H   UNL     1    -111.706 -16.131  42.234  1.00  0.00     0.293 HD
ENDBRANCH  37  50
ENDBRANCH  26  27
ENDBRANCH   5  26
BRANCH   4  52
ATOM     52  O   UNL     1    -108.802 -18.713  52.607  1.00  0.00    -0.384 OA
ATOM     53  H   UNL     1    -107.899 -19.273  52.451  1.00  0.00     0.211 HD
ENDBRANCH   4  52
TORSDOF 16
ENDMDL
MODEL 8
REMARK VINA RESULT:    -5.831      3.993      6.817
REMARK INTER + INTRA:          -9.618
REMARK INTER:                  -7.604
REMARK INTRA:                  -2.014
REMARK UNBOUND:                -0.037
REMARK SMILES C[C@H]1O[C@H](OC[C@@H]2O[C@H](Oc3c(-c4ccc(O)c(O)c4)oc4cc(O)cc(O)c4c3=O)[C@@H](O)[C@H](O)[C@H]2O)[C@H](O)[C@@H](O)[C@H]1O
REMARK SMILES IDX 7 1 36 2 34 3 32 4 9 5 8 6 6 7 5 8 4 9 1 10 2 11 42 12 3 13
REMARK SMILES IDX 40 14 38 15 43 16 41 18 39 20 37 22 35 24 10 26 11 27 12 28
REMARK SMILES IDX 30 29 21 30 29 31 31 32 22 33 27 34 23 35 26 36 24 37 13 38
REMARK SMILES IDX 20 39 14 40 18 41 15 42 16 43 19 44 17 46 28 48 25 50 33 52
REMARK H PARENT 43 17 41 19 39 21 37 23 35 25 19 45 17 47 28 49 25 51 33 53
REMARK Flexibility Score: inf
ROOT
ATOM      1  C   UNL     1    -110.997 -12.185  53.978  1.00  0.00     0.180 C 
ATOM      2  C   UNL     1    -110.672 -13.187  55.089  1.00  0.00     0.177 C 
ATOM      3  C   UNL     1    -109.157 -13.813  54.667  1.00  0.00     0.180 C 
ATOM      4  C   UNL     1    -108.977 -14.163  53.031  1.00  0.00     0.214 C 
ATOM      5  C   UNL     1    -110.286 -13.677  52.199  1.00  0.00     0.339 C 
ATOM      6  O   UNL     1    -111.408 -12.905  52.842  1.00  0.00    -0.332 OA
ENDROOT
BRANCH   1   7
ATOM      7  C   UNL     1    -111.947 -10.989  54.399  1.00  0.00     0.198 C 
BRANCH   7   8
ATOM      8  O   UNL     1    -113.346 -11.009  53.930  1.00  0.00    -0.347 OA
BRANCH   8   9
ATOM      9  C   UNL     1    -113.719 -10.329  52.754  1.00  0.00     0.281 C 
ATOM     10  C   UNL     1    -114.125  -8.128  50.748  1.00  0.00     0.041 C 
ATOM     11  C   UNL     1    -112.747  -8.627  51.173  1.00  0.00     0.150 C 
ATOM     12  C   UNL     1    -112.333  -9.766  50.216  1.00  0.00     0.174 C 
ATOM     13  O   UNL     1    -112.822  -9.206  52.552  1.00  0.00    -0.344 OA
ATOM     14  C   UNL     1    -113.193 -11.053  50.251  1.00  0.00     0.179 C 
ATOM     15  C   UNL     1    -114.125 -11.261  51.572  1.00  0.00     0.202 C 
BRANCH  12  16
ATOM     16  O   UNL     1    -112.403  -9.134  48.920  1.00  0.00    -0.388 OA
ATOM     17  H   UNL     1    -112.822  -9.674  48.152  1.00  0.00     0.211 HD
ENDBRANCH  12  16
BRANCH  14  18
ATOM     18  O   UNL     1    -114.039 -11.227  49.108  1.00  0.00    -0.387 OA
ATOM     19  H   UNL     1    -113.692 -11.844  48.469  1.00  0.00     0.211 HD
ENDBRANCH  14  18
BRANCH  15  20
ATOM     20  O   UNL     1    -114.078 -12.653  51.990  1.00  0.00    -0.385 OA
ATOM     21  H   UNL     1    -114.148 -13.199  51.136  1.00  0.00     0.211 HD
ENDBRANCH  15  20
ENDBRANCH   8   9
ENDBRANCH   7   8
ENDBRANCH   1   7
BRANCH   2  22
ATOM     22  O   UNL     1    -110.521 -12.474  56.370  1.00  0.00    -0.387 OA
ATOM     23  H   UNL     1    -109.928 -13.047  56.952  1.00  0.00     0.211 HD
ENDBRANCH   2  22
BRANCH   3  24
ATOM     24  O   UNL     1    -108.789 -14.934  55.491  1.00  0.00    -0.387 OA
ATOM     25  H   UNL     1    -107.840 -14.817  55.682  1.00  0.00     0.211 HD
ENDBRANCH   3  24
BRANCH   5  26
ATOM     26  O   UNL     1    -110.760 -14.878  51.650  1.00  0.00    -0.454 OA
BRANCH  26  27
ATOM     27  C   UNL     1    -111.150 -16.031  52.318  1.00  0.00     0.214 A 
ATOM     28  C   UNL     1    -110.442 -17.213  51.985  1.00  0.00     0.180 A 
ATOM     29  C   UNL     1    -112.141 -16.088  53.310  1.00  0.00     0.239 A 
ATOM     30  O   UNL     1    -110.622 -18.328  52.669  1.00  0.00    -0.452 OA
ATOM     31  C   UNL     1    -112.270 -17.285  54.073  1.00  0.00     0.111 A 
ATOM     32  O   UNL     1    -112.817 -15.101  53.557  1.00  0.00    -0.285 OA
ATOM     33  C   UNL     1    -111.415 -18.399  53.769  1.00  0.00     0.146 A 
ATOM     34  C   UNL     1    -113.204 -17.422  55.153  1.00  0.00     0.134 A 
ATOM     35  C   UNL     1    -111.461 -19.553  54.527  1.00  0.00     0.094 A 
ATOM     36  C   UNL     1    -113.113 -18.514  56.007  1.00  0.00     0.093 A 
ATOM     37  C   UNL     1    -112.253 -19.626  55.723  1.00  0.00     0.123 A 
BRANCH  28  38
ATOM     38  C   UNL     1    -109.445 -17.132  50.897  1.00  0.00     0.025 A 
ATOM     39  C   UNL     1    -109.879 -17.370  49.563  1.00  0.00     0.062 A 
ATOM     40  C   UNL     1    -108.091 -17.122  51.221  1.00  0.00     0.016 A 
ATOM     41  C   UNL     1    -108.913 -17.709  48.608  1.00  0.00     0.158 A 
ATOM     42  C   UNL     1    -107.129 -17.422  50.248  1.00  0.00     0.051 A 
ATOM     43  C   UNL     1    -107.533 -17.725  48.938  1.00  0.00     0.157 A 
BRANCH  41  44
ATOM     44  O   UNL     1    -109.339 -17.994  47.297  1.00  0.00    -0.504 OA
ATOM     45  H   UNL     1    -109.737 -17.235  46.710  1.00  0.00     0.293 HD
ENDBRANCH  41  44
BRANCH  43  46
ATOM     46  O   UNL     1    -106.569 -18.115  47.991  1.00  0.00    -0.504 OA
ATOM     47  H   UNL     1    -106.563 -19.060  47.570  1.00  0.00     0.293 HD
ENDBRANCH  43  46
ENDBRANCH  28  38
BRANCH  34  48
ATOM     48  O   UNL     1    -114.125 -16.430  55.399  1.00  0.00    -0.507 OA
ATOM     49  H   UNL     1    -114.326 -15.674  54.731  1.00  0.00     0.293 HD
ENDBRANCH  34  48
BRANCH  37  50
ATOM     50  O   UNL     1    -112.170 -20.724  56.542  1.00  0.00    -0.508 OA
ATOM     51  H   UNL     1    -112.975 -21.275  56.727  1.00  0.00     0.293 HD
ENDBRANCH  37  50
ENDBRANCH  26  27
ENDBRANCH   5  26
BRANCH   4  52
ATOM     52  O   UNL     1    -107.726 -13.696  52.325  1.00  0.00    -0.384 OA
ATOM     53  H   UNL     1    -107.250 -12.734  52.378  1.00  0.00     0.211 HD
ENDBRANCH   4  52
TORSDOF 16
ENDMDL
MODEL 9
REMARK VINA RESULT:    -5.797      3.253      4.829
REMARK INTER + INTRA:          -9.562
REMARK INTER:                  -7.308
REMARK INTRA:                  -2.254
REMARK UNBOUND:                -0.037
REMARK SMILES C[C@H]1O[C@H](OC[C@@H]2O[C@H](Oc3c(-c4ccc(O)c(O)c4)oc4cc(O)cc(O)c4c3=O)[C@@H](O)[C@H](O)[C@H]2O)[C@H](O)[C@@H](O)[C@H]1O
REMARK SMILES IDX 7 1 36 2 34 3 32 4 9 5 8 6 6 7 5 8 4 9 1 10 2 11 42 12 3 13
REMARK SMILES IDX 40 14 38 15 43 16 41 18 39 20 37 22 35 24 10 26 11 27 12 28
REMARK SMILES IDX 30 29 21 30 29 31 31 32 22 33 27 34 23 35 26 36 24 37 13 38
REMARK SMILES IDX 20 39 14 40 18 41 15 42 16 43 19 44 17 46 28 48 25 50 33 52
REMARK H PARENT 43 17 41 19 39 21 37 23 35 25 19 45 17 47 28 49 25 51 33 53
REMARK Flexibility Score: inf
ROOT
ATOM      1  C   UNL     1    -109.621 -19.120  51.852  1.00  0.00     0.180 C 
ATOM      2  C   UNL     1    -110.773 -19.984  51.332  1.00  0.00     0.177 C 
ATOM      3  C   UNL     1    -111.669 -18.945  50.340  1.00  0.00     0.180 C 
ATOM      4  C   UNL     1    -111.889 -17.399  50.966  1.00  0.00     0.214 C 
ATOM      5  C   UNL     1    -111.051 -17.220  52.347  1.00  0.00     0.339 C 
ATOM      6  O   UNL     1    -110.121 -18.284  52.868  1.00  0.00    -0.332 OA
ENDROOT
BRANCH   1   7
ATOM      7  C   UNL     1    -108.294 -19.906  52.217  1.00  0.00     0.198 C 
BRANCH   7   8
ATOM      8  O   UNL     1    -107.006 -19.359  51.748  1.00  0.00    -0.347 OA
BRANCH   8   9
ATOM      9  C   UNL     1    -106.661 -19.405  50.382  1.00  0.00     0.281 C 
ATOM     10  C   UNL     1    -106.062 -20.463  47.634  1.00  0.00     0.041 C 
ATOM     11  C   UNL     1    -107.442 -20.549  48.280  1.00  0.00     0.150 C 
ATOM     12  C   UNL     1    -108.231 -19.279  47.893  1.00  0.00     0.174 C 
ATOM     13  O   UNL     1    -107.304 -20.554  49.770  1.00  0.00    -0.344 OA
ATOM     14  C   UNL     1    -107.685 -17.930  48.423  1.00  0.00     0.179 C 
ATOM     15  C   UNL     1    -106.646 -18.016  49.675  1.00  0.00     0.202 C 
BRANCH  12  16
ATOM     16  O   UNL     1    -108.206 -19.315  46.449  1.00  0.00    -0.388 OA
ATOM     17  H   UNL     1    -108.882 -18.724  45.950  1.00  0.00     0.211 HD
ENDBRANCH  12  16
BRANCH  14  18
ATOM     18  O   UNL     1    -107.069 -17.111  47.421  1.00  0.00    -0.387 OA
ATOM     19  H   UNL     1    -107.683 -16.537  46.970  1.00  0.00     0.211 HD
ENDBRANCH  14  18
BRANCH  15  20
ATOM     20  O   UNL     1    -106.943 -16.961  50.631  1.00  0.00    -0.385 OA
ATOM     21  H   UNL     1    -106.458 -17.221  51.485  1.00  0.00     0.211 HD
ENDBRANCH  15  20
ENDBRANCH   8   9
ENDBRANCH   7   8
ENDBRANCH   1   7
BRANCH   2  22
ATOM     22  O   UNL     1    -110.238 -21.063  50.484  1.00  0.00    -0.387 OA
ATOM     23  H   UNL     1    -110.127 -21.871  51.079  1.00  0.00     0.211 HD
ENDBRANCH   2  22
BRANCH   3  24
ATOM     24  O   UNL     1    -112.918 -19.533  49.933  1.00  0.00    -0.387 OA
ATOM     25  H   UNL     1    -113.585 -18.830  50.041  1.00  0.00     0.211 HD
ENDBRANCH   3  24
BRANCH   5  26
ATOM     26  O   UNL     1    -112.061 -16.944  53.281  1.00  0.00    -0.454 OA
BRANCH  26  27
ATOM     27  C   UNL     1    -112.169 -17.402  54.588  1.00  0.00     0.214 A 
ATOM     28  C   UNL     1    -111.700 -16.523  55.596  1.00  0.00     0.180 A 
ATOM     29  C   UNL     1    -112.739 -18.626  54.966  1.00  0.00     0.239 A 
ATOM     30  O   UNL     1    -111.898 -16.788  56.875  1.00  0.00    -0.452 OA
ATOM     31  C   UNL     1    -112.996 -18.859  56.348  1.00  0.00     0.111 A 
ATOM     32  O   UNL     1    -113.078 -19.433  54.113  1.00  0.00    -0.285 OA
ATOM     33  C   UNL     1    -112.621 -17.854  57.304  1.00  0.00     0.146 A 
ATOM     34  C   UNL     1    -113.638 -20.048  56.831  1.00  0.00     0.134 A 
ATOM     35  C   UNL     1    -112.912 -18.009  58.645  1.00  0.00     0.094 A 
ATOM     36  C   UNL     1    -114.077 -20.106  58.148  1.00  0.00     0.093 A 
ATOM     37  C   UNL     1    -113.722 -19.102  59.108  1.00  0.00     0.123 A 
BRANCH  28  38
ATOM     38  C   UNL     1    -111.052 -15.266  55.164  1.00  0.00     0.025 A 
ATOM     39  C   UNL     1    -109.649 -15.276  54.925  1.00  0.00     0.062 A 
ATOM     40  C   UNL     1    -111.752 -14.068  55.285  1.00  0.00     0.016 A 
ATOM     41  C   UNL     1    -108.973 -14.051  54.933  1.00  0.00     0.158 A 
ATOM     42  C   UNL     1    -111.071 -12.845  55.250  1.00  0.00     0.051 A 
ATOM     43  C   UNL     1    -109.677 -12.828  55.082  1.00  0.00     0.157 A 
BRANCH  41  44
ATOM     44  O   UNL     1    -107.578 -14.055  54.747  1.00  0.00    -0.504 OA
ATOM     45  H   UNL     1    -107.187 -14.157  53.790  1.00  0.00     0.293 HD
ENDBRANCH  41  44
BRANCH  43  46
ATOM     46  O   UNL     1    -108.990 -11.602  55.140  1.00  0.00    -0.504 OA
ATOM     47  H   UNL     1    -108.452 -11.312  55.975  1.00  0.00     0.293 HD
ENDBRANCH  43  46
ENDBRANCH  28  38
BRANCH  34  48
ATOM     48  O   UNL     1    -113.903 -21.088  55.970  1.00  0.00    -0.507 OA
ATOM     49  H   UNL     1    -113.273 -21.893  55.854  1.00  0.00     0.293 HD
ENDBRANCH  34  48
BRANCH  37  50
ATOM     50  O   UNL     1    -114.125 -19.157  60.419  1.00  0.00    -0.508 OA
ATOM     51  H   UNL     1    -114.368 -20.025  60.834  1.00  0.00     0.293 HD
ENDBRANCH  37  50
ENDBRANCH  26  27
ENDBRANCH   5  26
BRANCH   4  52
ATOM     52  O   UNL     1    -111.637 -16.212  50.065  1.00  0.00    -0.384 OA
ATOM     53  H   UNL     1    -111.495 -15.183  50.343  1.00  0.00     0.211 HD
ENDBRANCH   4  52
TORSDOF 16
ENDMDL
