MODEL 1
REMARK VINA RESULT:    -4.869      0.000      0.000
REMARK INTER + INTRA:          -5.355
REMARK INTER:                  -5.296
REMARK INTRA:                  -0.059
REMARK UNBOUND:                -0.059
REMARK SMILES COc1cc2ccc(=O)oc2cc1O
REMARK SMILES IDX 3 1 13 2 12 3 11 4 5 5 4 6 6 7 7 8 8 9 9 10 10 11 2 12 1 13
REMARK SMILES IDX 14 14
REMARK H PARENT 14 15
REMARK Flexibility Score: inf
ROOT
ATOM      1  C   UNL     1     -56.192  25.623 -15.819  1.00  0.00     0.161 A 
ATOM      2  C   UNL     1     -56.625  26.610 -16.718  1.00  0.00     0.161 A 
ATOM      3  C   UNL     1     -57.842  27.275 -16.507  1.00  0.00     0.098 A 
ATOM      4  C   UNL     1     -58.634  26.959 -15.401  1.00  0.00     0.142 A 
ATOM      5  C   UNL     1     -58.206  25.968 -14.492  1.00  0.00     0.022 A 
ATOM      6  C   UNL     1     -56.990  25.303 -14.702  1.00  0.00     0.062 A 
ATOM      7  C   UNL     1     -59.021  25.674 -13.394  1.00  0.00     0.019 A 
ATOM      8  C   UNL     1     -60.222  26.363 -13.229  1.00  0.00     0.094 A 
ATOM      9  C   UNL     1     -60.582  27.334 -14.170  1.00  0.00     0.336 A 
ATOM     10  O   UNL     1     -61.661  27.967 -14.039  1.00  0.00    -0.246 OA
ATOM     11  O   UNL     1     -59.787  27.594 -15.206  1.00  0.00    -0.423 OA
ENDROOT
BRANCH   1  12
ATOM     12  O   UNL     1     -54.967  24.983 -16.070  1.00  0.00    -0.493 OA
ATOM     13  C   UNL     1     -53.871  24.958 -15.163  1.00  0.00     0.278 C 
ENDBRANCH   1  12
BRANCH   2  14
ATOM     14  O   UNL     1     -55.837  26.927 -17.823  1.00  0.00    -0.504 OA
ATOM     15  H   UNL     1     -56.224  26.965 -18.758  1.00  0.00     0.293 HD
ENDBRANCH   2  14
TORSDOF 2
ENDMDL
MODEL 2
REMARK VINA RESULT:    -4.627      8.964     10.147
REMARK INTER + INTRA:          -5.091
REMARK INTER:                  -5.045
REMARK INTRA:                  -0.046
REMARK UNBOUND:                -0.059
REMARK SMILES COc1cc2ccc(=O)oc2cc1O
REMARK SMILES IDX 3 1 13 2 12 3 11 4 5 5 4 6 6 7 7 8 8 9 9 10 10 11 2 12 1 13
REMARK SMILES IDX 14 14
REMARK H PARENT 14 15
REMARK Flexibility Score: inf
ROOT
ATOM      1  C   UNL     1     -59.729  16.148 -18.674  1.00  0.00     0.161 A 
ATOM      2  C   UNL     1     -60.527  16.791 -17.716  1.00  0.00     0.161 A 
ATOM      3  C   UNL     1     -60.006  17.847 -16.953  1.00  0.00     0.098 A 
ATOM      4  C   UNL     1     -58.687  18.265 -17.139  1.00  0.00     0.142 A 
ATOM      5  C   UNL     1     -57.876  17.624 -18.099  1.00  0.00     0.022 A 
ATOM      6  C   UNL     1     -58.397  16.569 -18.863  1.00  0.00     0.062 A 
ATOM      7  C   UNL     1     -56.559  18.065 -18.262  1.00  0.00     0.019 A 
ATOM      8  C   UNL     1     -56.088  19.118 -17.478  1.00  0.00     0.094 A 
ATOM      9  C   UNL     1     -56.949  19.706 -16.546  1.00  0.00     0.336 A 
ATOM     10  O   UNL     1     -56.543  20.658 -15.829  1.00  0.00    -0.246 OA
ATOM     11  O   UNL     1     -58.198  19.267 -16.411  1.00  0.00    -0.423 OA
ENDROOT
BRANCH   1  12
ATOM     12  O   UNL     1     -60.292  15.097 -19.415  1.00  0.00    -0.493 OA
ATOM     13  C   UNL     1     -59.541  14.102 -20.102  1.00  0.00     0.278 C 
ENDBRANCH   1  12
BRANCH   2  14
ATOM     14  O   UNL     1     -61.845  16.376 -17.528  1.00  0.00    -0.504 OA
ATOM     15  H   UNL     1     -62.400  16.709 -16.749  1.00  0.00     0.293 HD
ENDBRANCH   2  14
TORSDOF 2
ENDMDL
MODEL 3
REMARK VINA RESULT:    -4.416      8.802      9.558
REMARK INTER + INTRA:          -4.861
REMARK INTER:                  -4.796
REMARK INTRA:                  -0.065
REMARK UNBOUND:                -0.059
REMARK SMILES COc1cc2ccc(=O)oc2cc1O
REMARK SMILES IDX 3 1 13 2 12 3 11 4 5 5 4 6 6 7 7 8 8 9 9 10 10 11 2 12 1 13
REMARK SMILES IDX 14 14
REMARK H PARENT 14 15
REMARK Flexibility Score: inf
ROOT
ATOM      1  C   UNL     1     -57.230  18.937 -17.602  1.00  0.00     0.161 A 
ATOM      2  C   UNL     1     -56.938  18.590 -18.930  1.00  0.00     0.161 A 
ATOM      3  C   UNL     1     -57.841  17.819 -19.675  1.00  0.00     0.098 A 
ATOM      4  C   UNL     1     -59.039  17.387 -19.101  1.00  0.00     0.142 A 
ATOM      5  C   UNL     1     -59.341  17.731 -17.767  1.00  0.00     0.022 A 
ATOM      6  C   UNL     1     -58.439  18.503 -17.021  1.00  0.00     0.062 A 
ATOM      7  C   UNL     1     -60.548  17.284 -17.220  1.00  0.00     0.019 A 
ATOM      8  C   UNL     1     -61.412  16.518 -18.002  1.00  0.00     0.094 A 
ATOM      9  C   UNL     1     -61.047  16.216 -19.318  1.00  0.00     0.336 A 
ATOM     10  O   UNL     1     -61.813  15.527 -20.041  1.00  0.00    -0.246 OA
ATOM     11  O   UNL     1     -59.892  16.654 -19.814  1.00  0.00    -0.423 OA
ENDROOT
BRANCH   1  12
ATOM     12  O   UNL     1     -56.297  19.712 -16.894  1.00  0.00    -0.493 OA
ATOM     13  C   UNL     1     -55.373  19.191 -15.944  1.00  0.00     0.278 C 
ENDBRANCH   1  12
BRANCH   2  14
ATOM     14  O   UNL     1     -55.743  19.020 -19.506  1.00  0.00    -0.504 OA
ATOM     15  H   UNL     1     -55.130  19.672 -19.032  1.00  0.00     0.293 HD
ENDBRANCH   2  14
TORSDOF 2
ENDMDL
MODEL 4
REMARK VINA RESULT:    -4.370      8.870      9.593
REMARK INTER + INTRA:          -4.812
REMARK INTER:                  -4.746
REMARK INTRA:                  -0.065
REMARK UNBOUND:                -0.059
REMARK SMILES COc1cc2ccc(=O)oc2cc1O
REMARK SMILES IDX 3 1 13 2 12 3 11 4 5 5 4 6 6 7 7 8 8 9 9 10 10 11 2 12 1 13
REMARK SMILES IDX 14 14
REMARK H PARENT 14 15
REMARK Flexibility Score: inf
ROOT
ATOM      1  C   UNL     1     -56.925  18.546 -18.142  1.00  0.00     0.161 A 
ATOM      2  C   UNL     1     -57.691  19.122 -17.117  1.00  0.00     0.161 A 
ATOM      3  C   UNL     1     -59.005  18.690 -16.886  1.00  0.00     0.098 A 
ATOM      4  C   UNL     1     -59.564  17.683 -17.677  1.00  0.00     0.142 A 
ATOM      5  C   UNL     1     -58.802  17.099 -18.710  1.00  0.00     0.022 A 
ATOM      6  C   UNL     1     -57.488  17.530 -18.941  1.00  0.00     0.062 A 
ATOM      7  C   UNL     1     -59.389  16.094 -19.485  1.00  0.00     0.019 A 
ATOM      8  C   UNL     1     -60.699  15.700 -19.217  1.00  0.00     0.094 A 
ATOM      9  C   UNL     1     -61.395  16.323 -18.176  1.00  0.00     0.336 A 
ATOM     10  O   UNL     1     -62.578  15.982 -17.917  1.00  0.00    -0.246 OA
ATOM     11  O   UNL     1     -60.812  17.278 -17.454  1.00  0.00    -0.423 OA
ENDROOT
BRANCH   1  12
ATOM     12  O   UNL     1     -55.614  19.010 -18.337  1.00  0.00    -0.493 OA
ATOM     13  C   UNL     1     -54.444  18.319 -17.913  1.00  0.00     0.278 C 
ENDBRANCH   1  12
BRANCH   2  14
ATOM     14  O   UNL     1     -57.136  20.127 -16.325  1.00  0.00    -0.504 OA
ATOM     15  H   UNL     1     -56.568  19.911 -15.515  1.00  0.00     0.293 HD
ENDBRANCH   2  14
TORSDOF 2
ENDMDL
MODEL 5
REMARK VINA RESULT:    -4.329      2.040      4.248
REMARK INTER + INTRA:          -4.768
REMARK INTER:                  -4.705
REMARK INTRA:                  -0.062
REMARK UNBOUND:                -0.059
REMARK SMILES COc1cc2ccc(=O)oc2cc1O
REMARK SMILES IDX 3 1 13 2 12 3 11 4 5 5 4 6 6 7 7 8 8 9 9 10 10 11 2 12 1 13
REMARK SMILES IDX 14 14
REMARK H PARENT 14 15
REMARK Flexibility Score: inf
ROOT
ATOM      1  C   UNL     1     -57.807  26.777 -15.922  1.00  0.00     0.161 A 
ATOM      2  C   UNL     1     -56.565  26.344 -16.410  1.00  0.00     0.161 A 
ATOM      3  C   UNL     1     -55.893  25.279 -15.793  1.00  0.00     0.098 A 
ATOM      4  C   UNL     1     -56.455  24.640 -14.685  1.00  0.00     0.142 A 
ATOM      5  C   UNL     1     -57.703  25.069 -14.187  1.00  0.00     0.022 A 
ATOM      6  C   UNL     1     -58.376  26.133 -14.805  1.00  0.00     0.062 A 
ATOM      7  C   UNL     1     -58.240  24.410 -13.077  1.00  0.00     0.019 A 
ATOM      8  C   UNL     1     -57.533  23.356 -12.498  1.00  0.00     0.094 A 
ATOM      9  C   UNL     1     -56.301  22.986 -13.045  1.00  0.00     0.336 A 
ATOM     10  O   UNL     1     -55.647  22.037 -12.538  1.00  0.00    -0.246 OA
ATOM     11  O   UNL     1     -55.812  23.630 -14.103  1.00  0.00    -0.423 OA
ENDROOT
BRANCH   1  12
ATOM     12  O   UNL     1     -58.444  27.847 -16.572  1.00  0.00    -0.493 OA
ATOM     13  C   UNL     1     -58.684  29.119 -15.982  1.00  0.00     0.278 C 
ENDBRANCH   1  12
BRANCH   2  14
ATOM     14  O   UNL     1     -56.001  26.979 -17.516  1.00  0.00    -0.504 OA
ATOM     15  H   UNL     1     -55.011  27.185 -17.562  1.00  0.00     0.293 HD
ENDBRANCH   2  14
TORSDOF 2
ENDMDL
MODEL 6
REMARK VINA RESULT:    -4.316      8.187     10.070
REMARK INTER + INTRA:          -4.754
REMARK INTER:                  -4.705
REMARK INTRA:                  -0.048
REMARK UNBOUND:                -0.059
REMARK SMILES COc1cc2ccc(=O)oc2cc1O
REMARK SMILES IDX 3 1 13 2 12 3 11 4 5 5 4 6 6 7 7 8 8 9 9 10 10 11 2 12 1 13
REMARK SMILES IDX 14 14
REMARK H PARENT 14 15
REMARK Flexibility Score: inf
ROOT
ATOM      1  C   UNL     1     -59.602  17.631 -17.239  1.00  0.00     0.161 A 
ATOM      2  C   UNL     1     -59.285  18.932 -16.819  1.00  0.00     0.161 A 
ATOM      3  C   UNL     1     -57.961  19.392 -16.877  1.00  0.00     0.098 A 
ATOM      4  C   UNL     1     -56.946  18.558 -17.351  1.00  0.00     0.142 A 
ATOM      5  C   UNL     1     -57.255  17.249 -17.774  1.00  0.00     0.022 A 
ATOM      6  C   UNL     1     -58.579  16.788 -17.718  1.00  0.00     0.062 A 
ATOM      7  C   UNL     1     -56.217  16.437 -18.243  1.00  0.00     0.019 A 
ATOM      8  C   UNL     1     -54.918  16.941 -18.280  1.00  0.00     0.094 A 
ATOM      9  C   UNL     1     -54.685  18.249 -17.844  1.00  0.00     0.336 A 
ATOM     10  O   UNL     1     -53.520  18.723 -17.869  1.00  0.00    -0.246 OA
ATOM     11  O   UNL     1     -55.692  19.000 -17.402  1.00  0.00    -0.423 OA
ENDROOT
BRANCH   1  12
ATOM     12  O   UNL     1     -60.940  17.214 -17.164  1.00  0.00    -0.493 OA
ATOM     13  C   UNL     1     -61.545  16.284 -18.057  1.00  0.00     0.278 C 
ENDBRANCH   1  12
BRANCH   2  14
ATOM     14  O   UNL     1     -60.296  19.768 -16.346  1.00  0.00    -0.504 OA
ATOM     15  H   UNL     1     -60.329  20.750 -16.590  1.00  0.00     0.293 HD
ENDBRANCH   2  14
TORSDOF 2
ENDMDL
MODEL 7
REMARK VINA RESULT:    -4.296      1.429      1.923
REMARK INTER + INTRA:          -4.731
REMARK INTER:                  -4.682
REMARK INTRA:                  -0.049
REMARK UNBOUND:                -0.059
REMARK SMILES COc1cc2ccc(=O)oc2cc1O
REMARK SMILES IDX 3 1 13 2 12 3 11 4 5 5 4 6 6 7 7 8 8 9 9 10 10 11 2 12 1 13
REMARK SMILES IDX 14 14
REMARK H PARENT 14 15
REMARK Flexibility Score: inf
ROOT
ATOM      1  C   UNL     1     -57.362  26.849 -16.168  1.00  0.00     0.161 A 
ATOM      2  C   UNL     1     -58.471  27.616 -16.558  1.00  0.00     0.161 A 
ATOM      3  C   UNL     1     -59.601  27.698 -15.731  1.00  0.00     0.098 A 
ATOM      4  C   UNL     1     -59.633  27.016 -14.513  1.00  0.00     0.142 A 
ATOM      5  C   UNL     1     -58.523  26.243 -14.113  1.00  0.00     0.022 A 
ATOM      6  C   UNL     1     -57.393  26.160 -14.938  1.00  0.00     0.062 A 
ATOM      7  C   UNL     1     -58.586  25.571 -12.888  1.00  0.00     0.019 A 
ATOM      8  C   UNL     1     -59.733  25.685 -12.103  1.00  0.00     0.094 A 
ATOM      9  C   UNL     1     -60.795  26.469 -12.564  1.00  0.00     0.336 A 
ATOM     10  O   UNL     1     -61.839  26.585 -11.870  1.00  0.00    -0.246 OA
ATOM     11  O   UNL     1     -60.709  27.098 -13.734  1.00  0.00    -0.423 OA
ENDROOT
BRANCH   1  12
ATOM     12  O   UNL     1     -56.252  26.796 -17.026  1.00  0.00    -0.493 OA
ATOM     13  C   UNL     1     -55.437  25.645 -17.219  1.00  0.00     0.278 C 
ENDBRANCH   1  12
BRANCH   2  14
ATOM     14  O   UNL     1     -58.441  28.298 -17.773  1.00  0.00    -0.504 OA
ATOM     15  H   UNL     1     -58.961  29.156 -17.912  1.00  0.00     0.293 HD
ENDBRANCH   2  14
TORSDOF 2
ENDMDL
MODEL 8
REMARK VINA RESULT:    -4.115      1.248      4.740
REMARK INTER + INTRA:          -4.535
REMARK INTER:                  -4.488
REMARK INTRA:                  -0.046
REMARK UNBOUND:                -0.059
REMARK SMILES COc1cc2ccc(=O)oc2cc1O
REMARK SMILES IDX 3 1 13 2 12 3 11 4 5 5 4 6 6 7 7 8 8 9 9 10 10 11 2 12 1 13
REMARK SMILES IDX 14 14
REMARK H PARENT 14 15
REMARK Flexibility Score: inf
ROOT
ATOM      1  C   UNL     1     -58.880  26.955 -15.415  1.00  0.00     0.161 A 
ATOM      2  C   UNL     1     -58.043  27.194 -16.516  1.00  0.00     0.161 A 
ATOM      3  C   UNL     1     -56.795  26.561 -16.607  1.00  0.00     0.098 A 
ATOM      4  C   UNL     1     -56.374  25.688 -15.602  1.00  0.00     0.142 A 
ATOM      5  C   UNL     1     -57.208  25.442 -14.491  1.00  0.00     0.022 A 
ATOM      6  C   UNL     1     -58.456  26.074 -14.400  1.00  0.00     0.062 A 
ATOM      7  C   UNL     1     -56.758  24.563 -13.501  1.00  0.00     0.019 A 
ATOM      8  C   UNL     1     -55.508  23.960 -13.638  1.00  0.00     0.094 A 
ATOM      9  C   UNL     1     -54.735  24.250 -14.766  1.00  0.00     0.336 A 
ATOM     10  O   UNL     1     -53.605  23.715 -14.909  1.00  0.00    -0.246 OA
ATOM     11  O   UNL     1     -55.187  25.091 -15.694  1.00  0.00    -0.423 OA
ENDROOT
BRANCH   1  12
ATOM     12  O   UNL     1     -60.121  27.610 -15.366  1.00  0.00    -0.493 OA
ATOM     13  C   UNL     1     -60.888  27.795 -14.181  1.00  0.00     0.278 C 
ENDBRANCH   1  12
BRANCH   2  14
ATOM     14  O   UNL     1     -58.462  28.064 -17.522  1.00  0.00    -0.504 OA
ATOM     15  H   UNL     1     -57.860  28.801 -17.869  1.00  0.00     0.293 HD
ENDBRANCH   2  14
TORSDOF 2
ENDMDL
MODEL 9
REMARK VINA RESULT:    -4.097     17.209     18.931
REMARK INTER + INTRA:          -4.515
REMARK INTER:                  -4.449
REMARK INTRA:                  -0.065
REMARK UNBOUND:                -0.059
REMARK SMILES COc1cc2ccc(=O)oc2cc1O
REMARK SMILES IDX 3 1 13 2 12 3 11 4 5 5 4 6 6 7 7 8 8 9 9 10 10 11 2 12 1 13
REMARK SMILES IDX 14 14
REMARK H PARENT 14 15
REMARK Flexibility Score: inf
ROOT
ATOM      1  C   UNL     1     -53.781  12.854  -1.041  1.00  0.00     0.161 A 
ATOM      2  C   UNL     1     -53.221  12.241  -2.172  1.00  0.00     0.161 A 
ATOM      3  C   UNL     1     -52.575  13.013  -3.149  1.00  0.00     0.098 A 
ATOM      4  C   UNL     1     -52.485  14.399  -3.005  1.00  0.00     0.142 A 
ATOM      5  C   UNL     1     -53.046  15.024  -1.872  1.00  0.00     0.022 A 
ATOM      6  C   UNL     1     -53.692  14.253  -0.894  1.00  0.00     0.062 A 
ATOM      7  C   UNL     1     -52.941  16.414  -1.756  1.00  0.00     0.019 A 
ATOM      8  C   UNL     1     -52.289  17.136  -2.755  1.00  0.00     0.094 A 
ATOM      9  C   UNL     1     -51.757  16.449  -3.850  1.00  0.00     0.336 A 
ATOM     10  O   UNL     1     -51.165  17.083  -4.762  1.00  0.00    -0.246 OA
ATOM     11  O   UNL     1     -51.871  15.126  -3.936  1.00  0.00    -0.423 OA
ENDROOT
BRANCH   1  12
ATOM     12  O   UNL     1     -54.418  12.042  -0.088  1.00  0.00    -0.493 OA
ATOM     13  C   UNL     1     -55.829  11.925   0.056  1.00  0.00     0.278 C 
ENDBRANCH   1  12
BRANCH   2  14
ATOM     14  O   UNL     1     -53.308  10.857  -2.318  1.00  0.00    -0.504 OA
ATOM     15  H   UNL     1     -53.503  10.430  -3.216  1.00  0.00     0.293 HD
ENDBRANCH   2  14
TORSDOF 2
ENDMDL
