MODEL 1
REMARK VINA RESULT:    -3.051      0.000      0.000
REMARK INTER + INTRA:          -3.140
REMARK INTER:                  -3.140
REMARK INTRA:                   0.000
REMARK UNBOUND:                 0.000
REMARK SMILES O=c1ccc2ccc(O)cc2o1
REMARK SMILES IDX 6 1 7 2 8 3 10 4 11 5 5 6 4 7 3 8 2 9 1 10 12 11 9 12
REMARK H PARENT 9 13
REMARK Flexibility Score: inf
ROOT
ATOM      1  C   UNL     1     174.500 189.902 184.235  1.00  0.00     0.016 A 
ATOM      2  C   UNL     1     174.020 188.896 185.081  1.00  0.00     0.047 A 
ATOM      3  C   UNL     1     172.743 188.356 184.885  1.00  0.00     0.119 A 
ATOM      4  C   UNL     1     171.938 188.826 183.836  1.00  0.00     0.094 A 
ATOM      5  C   UNL     1     172.410 189.832 182.985  1.00  0.00     0.142 A 
ATOM      6  C   UNL     1     173.699 190.373 183.186  1.00  0.00     0.018 A 
ATOM      7  C   UNL     1     174.143 191.378 182.320  1.00  0.00     0.019 A 
ATOM      8  C   UNL     1     173.307 191.812 181.292  1.00  0.00     0.094 A 
ATOM      9  C   UNL     1     172.042 191.231 181.153  1.00  0.00     0.336 A 
ATOM     10  O   UNL     1     171.274 191.609 180.231  1.00  0.00    -0.246 OA
ATOM     11  O   UNL     1     171.645 190.276 181.991  1.00  0.00    -0.423 OA
ENDROOT
BRANCH   3  12
ATOM     12  O   UNL     1     172.283 187.355 185.737  1.00  0.00    -0.508 OA
ATOM     13  H   UNL     1     172.844 186.538 185.947  1.00  0.00     0.293 HD
ENDBRANCH   3  12
TORSDOF 1
ENDMDL
MODEL 2
REMARK VINA RESULT:    -3.037      2.522      3.839
REMARK INTER + INTRA:          -3.125
REMARK INTER:                  -3.125
REMARK INTRA:                   0.000
REMARK UNBOUND:                 0.000
REMARK SMILES O=c1ccc2ccc(O)cc2o1
REMARK SMILES IDX 6 1 7 2 8 3 10 4 11 5 5 6 4 7 3 8 2 9 1 10 12 11 9 12
REMARK H PARENT 9 13
REMARK Flexibility Score: inf
ROOT
ATOM      1  C   UNL     1     173.967 191.755 180.922  1.00  0.00     0.016 A 
ATOM      2  C   UNL     1     173.344 191.423 182.130  1.00  0.00     0.047 A 
ATOM      3  C   UNL     1     171.990 191.070 182.155  1.00  0.00     0.119 A 
ATOM      4  C   UNL     1     171.251 191.049 180.962  1.00  0.00     0.094 A 
ATOM      5  C   UNL     1     171.865 191.379 179.749  1.00  0.00     0.142 A 
ATOM      6  C   UNL     1     173.232 191.734 179.728  1.00  0.00     0.018 A 
ATOM      7  C   UNL     1     173.818 192.060 178.501  1.00  0.00     0.019 A 
ATOM      8  C   UNL     1     173.043 192.023 177.343  1.00  0.00     0.094 A 
ATOM      9  C   UNL     1     171.694 191.663 177.439  1.00  0.00     0.336 A 
ATOM     10  O   UNL     1     170.979 191.625 176.404  1.00  0.00    -0.246 OA
ATOM     11  O   UNL     1     171.162 191.358 178.619  1.00  0.00    -0.423 OA
ENDROOT
BRANCH   3  12
ATOM     12  O   UNL     1     171.387 190.742 183.367  1.00  0.00    -0.508 OA
ATOM     13  H   UNL     1     171.774 191.051 184.252  1.00  0.00     0.293 HD
ENDBRANCH   3  12
TORSDOF 1
ENDMDL
MODEL 3
REMARK VINA RESULT:    -2.853      1.241      4.817
REMARK INTER + INTRA:          -2.936
REMARK INTER:                  -2.936
REMARK INTRA:                   0.000
REMARK UNBOUND:                 0.000
REMARK SMILES O=c1ccc2ccc(O)cc2o1
REMARK SMILES IDX 6 1 7 2 8 3 10 4 11 5 5 6 4 7 3 8 2 9 1 10 12 11 9 12
REMARK H PARENT 9 13
REMARK Flexibility Score: inf
ROOT
ATOM      1  C   UNL     1     174.429 190.078 184.105  1.00  0.00     0.016 A 
ATOM      2  C   UNL     1     173.498 190.465 183.135  1.00  0.00     0.047 A 
ATOM      3  C   UNL     1     172.273 189.796 183.023  1.00  0.00     0.119 A 
ATOM      4  C   UNL     1     171.976 188.732 183.887  1.00  0.00     0.094 A 
ATOM      5  C   UNL     1     172.900 188.338 184.862  1.00  0.00     0.142 A 
ATOM      6  C   UNL     1     174.135 189.016 184.971  1.00  0.00     0.018 A 
ATOM      7  C   UNL     1     175.039 188.600 185.954  1.00  0.00     0.019 A 
ATOM      8  C   UNL     1     174.698 187.538 186.790  1.00  0.00     0.094 A 
ATOM      9  C   UNL     1     173.457 186.912 186.623  1.00  0.00     0.336 A 
ATOM     10  O   UNL     1     173.132 185.952 187.368  1.00  0.00    -0.246 OA
ATOM     11  O   UNL     1     172.616 187.328 185.680  1.00  0.00    -0.423 OA
ENDROOT
BRANCH   3  12
ATOM     12  O   UNL     1     171.359 190.195 182.051  1.00  0.00    -0.508 OA
ATOM     13  H   UNL     1     170.427 189.800 182.005  1.00  0.00     0.293 HD
ENDBRANCH   3  12
TORSDOF 1
ENDMDL
MODEL 4
REMARK VINA RESULT:    -2.735      2.076      3.391
REMARK INTER + INTRA:          -2.815
REMARK INTER:                  -2.815
REMARK INTRA:                   0.000
REMARK UNBOUND:                 0.000
REMARK SMILES O=c1ccc2ccc(O)cc2o1
REMARK SMILES IDX 6 1 7 2 8 3 10 4 11 5 5 6 4 7 3 8 2 9 1 10 12 11 9 12
REMARK H PARENT 9 13
REMARK Flexibility Score: inf
ROOT
ATOM      1  C   UNL     1     171.449 188.999 181.832  1.00  0.00     0.016 A 
ATOM      2  C   UNL     1     172.198 189.288 182.978  1.00  0.00     0.047 A 
ATOM      3  C   UNL     1     173.103 190.356 182.981  1.00  0.00     0.119 A 
ATOM      4  C   UNL     1     173.262 191.141 181.829  1.00  0.00     0.094 A 
ATOM      5  C   UNL     1     172.517 190.860 180.678  1.00  0.00     0.142 A 
ATOM      6  C   UNL     1     171.605 189.782 180.680  1.00  0.00     0.018 A 
ATOM      7  C   UNL     1     170.875 189.524 179.515  1.00  0.00     0.019 A 
ATOM      8  C   UNL     1     171.066 190.333 178.396  1.00  0.00     0.094 A 
ATOM      9  C   UNL     1     171.988 191.383 178.466  1.00  0.00     0.336 A 
ATOM     10  O   UNL     1     172.175 192.124 177.466  1.00  0.00    -0.246 OA
ATOM     11  O   UNL     1     172.669 191.607 179.587  1.00  0.00    -0.423 OA
ENDROOT
BRANCH   3  12
ATOM     12  O   UNL     1     173.840 190.629 184.131  1.00  0.00    -0.508 OA
ATOM     13  H   UNL     1     173.392 190.929 184.989  1.00  0.00     0.293 HD
ENDBRANCH   3  12
TORSDOF 1
ENDMDL
MODEL 5
REMARK VINA RESULT:    -2.735      1.561      2.486
REMARK INTER + INTRA:          -2.814
REMARK INTER:                  -2.814
REMARK INTRA:                   0.000
REMARK UNBOUND:                 0.000
REMARK SMILES O=c1ccc2ccc(O)cc2o1
REMARK SMILES IDX 6 1 7 2 8 3 10 4 11 5 5 6 4 7 3 8 2 9 1 10 12 11 9 12
REMARK H PARENT 9 13
REMARK Flexibility Score: inf
ROOT
ATOM      1  C   UNL     1     171.138 187.204 182.841  1.00  0.00     0.016 A 
ATOM      2  C   UNL     1     171.407 186.650 184.097  1.00  0.00     0.047 A 
ATOM      3  C   UNL     1     172.181 187.352 185.029  1.00  0.00     0.119 A 
ATOM      4  C   UNL     1     172.693 188.617 184.702  1.00  0.00     0.094 A 
ATOM      5  C   UNL     1     172.429 189.179 183.447  1.00  0.00     0.142 A 
ATOM      6  C   UNL     1     171.647 188.468 182.511  1.00  0.00     0.018 A 
ATOM      7  C   UNL     1     171.401 189.054 181.265  1.00  0.00     0.019 A 
ATOM      8  C   UNL     1     171.930 190.313 180.987  1.00  0.00     0.094 A 
ATOM      9  C   UNL     1     172.697 190.960 181.963  1.00  0.00     0.336 A 
ATOM     10  O   UNL     1     173.183 192.096 181.729  1.00  0.00    -0.246 OA
ATOM     11  O   UNL     1     172.916 190.379 183.140  1.00  0.00    -0.423 OA
ENDROOT
BRANCH   3  12
ATOM     12  O   UNL     1     172.438 186.785 186.275  1.00  0.00    -0.508 OA
ATOM     13  H   UNL     1     172.036 187.165 187.124  1.00  0.00     0.293 HD
ENDBRANCH   3  12
TORSDOF 1
ENDMDL
MODEL 6
REMARK VINA RESULT:    -2.686      1.858      5.265
REMARK INTER + INTRA:          -2.764
REMARK INTER:                  -2.764
REMARK INTRA:                   0.000
REMARK UNBOUND:                 0.000
REMARK SMILES O=c1ccc2ccc(O)cc2o1
REMARK SMILES IDX 6 1 7 2 8 3 10 4 11 5 5 6 4 7 3 8 2 9 1 10 12 11 9 12
REMARK H PARENT 9 13
REMARK Flexibility Score: inf
ROOT
ATOM      1  C   UNL     1     172.071 188.848 183.662  1.00  0.00     0.016 A 
ATOM      2  C   UNL     1     172.468 189.955 182.903  1.00  0.00     0.047 A 
ATOM      3  C   UNL     1     173.682 190.598 183.172  1.00  0.00     0.119 A 
ATOM      4  C   UNL     1     174.506 190.132 184.208  1.00  0.00     0.094 A 
ATOM      5  C   UNL     1     174.118 189.026 184.971  1.00  0.00     0.142 A 
ATOM      6  C   UNL     1     172.892 188.380 184.697  1.00  0.00     0.018 A 
ATOM      7  C   UNL     1     172.530 187.277 185.477  1.00  0.00     0.019 A 
ATOM      8  C   UNL     1     173.382 186.851 186.494  1.00  0.00     0.094 A 
ATOM      9  C   UNL     1     174.581 187.540 186.711  1.00  0.00     0.336 A 
ATOM     10  O   UNL     1     175.362 187.170 187.625  1.00  0.00    -0.246 OA
ATOM     11  O   UNL     1     174.901 188.586 185.953  1.00  0.00    -0.423 OA
ENDROOT
BRANCH   3  12
ATOM     12  O   UNL     1     174.061 191.698 182.406  1.00  0.00    -0.508 OA
ATOM     13  H   UNL     1     173.446 192.493 182.280  1.00  0.00     0.293 HD
ENDBRANCH   3  12
TORSDOF 1
ENDMDL
MODEL 7
REMARK VINA RESULT:    -2.670      1.492      4.844
REMARK INTER + INTRA:          -2.748
REMARK INTER:                  -2.748
REMARK INTRA:                   0.000
REMARK UNBOUND:                 0.000
REMARK SMILES O=c1ccc2ccc(O)cc2o1
REMARK SMILES IDX 6 1 7 2 8 3 10 4 11 5 5 6 4 7 3 8 2 9 1 10 12 11 9 12
REMARK H PARENT 9 13
REMARK Flexibility Score: inf
ROOT
ATOM      1  C   UNL     1     171.244 188.509 181.350  1.00  0.00     0.016 A 
ATOM      2  C   UNL     1     171.326 189.814 180.853  1.00  0.00     0.047 A 
ATOM      3  C   UNL     1     171.924 190.825 181.614  1.00  0.00     0.119 A 
ATOM      4  C   UNL     1     172.444 190.530 182.883  1.00  0.00     0.094 A 
ATOM      5  C   UNL     1     172.367 189.228 183.389  1.00  0.00     0.142 A 
ATOM      6  C   UNL     1     171.763 188.210 182.618  1.00  0.00     0.018 A 
ATOM      7  C   UNL     1     171.700 186.919 183.150  1.00  0.00     0.019 A 
ATOM      8  C   UNL     1     172.232 186.674 184.415  1.00  0.00     0.094 A 
ATOM      9  C   UNL     1     172.815 187.731 185.123  1.00  0.00     0.336 A 
ATOM     10  O   UNL     1     173.299 187.530 186.267  1.00  0.00    -0.246 OA
ATOM     11  O   UNL     1     172.861 188.951 184.593  1.00  0.00    -0.423 OA
ENDROOT
BRANCH   3  12
ATOM     12  O   UNL     1     171.996 192.118 181.101  1.00  0.00    -0.508 OA
ATOM     13  H   UNL     1     171.226 192.770 181.195  1.00  0.00     0.293 HD
ENDBRANCH   3  12
TORSDOF 1
ENDMDL
MODEL 8
REMARK VINA RESULT:    -2.670      2.465      4.436
REMARK INTER + INTRA:          -2.748
REMARK INTER:                  -2.748
REMARK INTRA:                   0.000
REMARK UNBOUND:                 0.000
REMARK SMILES O=c1ccc2ccc(O)cc2o1
REMARK SMILES IDX 6 1 7 2 8 3 10 4 11 5 5 6 4 7 3 8 2 9 1 10 12 11 9 12
REMARK H PARENT 9 13
REMARK Flexibility Score: inf
ROOT
ATOM      1  C   UNL     1     172.744 188.296 184.997  1.00  0.00     0.016 A 
ATOM      2  C   UNL     1     171.864 188.635 183.964  1.00  0.00     0.047 A 
ATOM      3  C   UNL     1     172.210 189.625 183.037  1.00  0.00     0.119 A 
ATOM      4  C   UNL     1     173.445 190.282 183.143  1.00  0.00     0.094 A 
ATOM      5  C   UNL     1     174.332 189.949 184.173  1.00  0.00     0.142 A 
ATOM      6  C   UNL     1     173.979 188.949 185.106  1.00  0.00     0.018 A 
ATOM      7  C   UNL     1     174.885 188.638 186.125  1.00  0.00     0.019 A 
ATOM      8  C   UNL     1     176.101 189.317 186.188  1.00  0.00     0.094 A 
ATOM      9  C   UNL     1     176.384 190.297 185.230  1.00  0.00     0.336 A 
ATOM     10  O   UNL     1     177.475 190.921 185.271  1.00  0.00    -0.246 OA
ATOM     11  O   UNL     1     175.503 190.573 184.271  1.00  0.00    -0.423 OA
ENDROOT
BRANCH   3  12
ATOM     12  O   UNL     1     171.321 189.950 182.015  1.00  0.00    -0.508 OA
ATOM     13  H   UNL     1     171.428 190.796 181.467  1.00  0.00     0.293 HD
ENDBRANCH   3  12
TORSDOF 1
ENDMDL
MODEL 9
REMARK VINA RESULT:    -2.632      1.212      4.267
REMARK INTER + INTRA:          -2.708
REMARK INTER:                  -2.708
REMARK INTRA:                   0.000
REMARK UNBOUND:                 0.000
REMARK SMILES O=c1ccc2ccc(O)cc2o1
REMARK SMILES IDX 6 1 7 2 8 3 10 4 11 5 5 6 4 7 3 8 2 9 1 10 12 11 9 12
REMARK H PARENT 9 13
REMARK Flexibility Score: inf
ROOT
ATOM      1  C   UNL     1     174.492 191.645 181.906  1.00  0.00     0.016 A 
ATOM      2  C   UNL     1     173.315 191.954 181.216  1.00  0.00     0.047 A 
ATOM      3  C   UNL     1     172.111 191.325 181.555  1.00  0.00     0.119 A 
ATOM      4  C   UNL     1     172.083 190.379 182.590  1.00  0.00     0.094 A 
ATOM      5  C   UNL     1     173.256 190.064 183.286  1.00  0.00     0.142 A 
ATOM      6  C   UNL     1     174.469 190.701 182.942  1.00  0.00     0.018 A 
ATOM      7  C   UNL     1     175.624 190.365 183.653  1.00  0.00     0.019 A 
ATOM      8  C   UNL     1     175.547 189.420 184.675  1.00  0.00     0.094 A 
ATOM      9  C   UNL     1     174.311 188.828 184.961  1.00  0.00     0.336 A 
ATOM     10  O   UNL     1     174.222 187.973 185.880  1.00  0.00    -0.246 OA
ATOM     11  O   UNL     1     173.227 189.166 184.268  1.00  0.00    -0.423 OA
ENDROOT
BRANCH   3  12
ATOM     12  O   UNL     1     170.949 191.646 180.857  1.00  0.00    -0.508 OA
ATOM     13  H   UNL     1     170.036 191.593 181.294  1.00  0.00     0.293 HD
ENDBRANCH   3  12
TORSDOF 1
ENDMDL
