MODEL 1
REMARK VINA RESULT:    -8.095      0.000      0.000
REMARK INTER + INTRA:          -9.823
REMARK INTER:                  -9.515
REMARK INTRA:                  -0.307
REMARK UNBOUND:                -0.307
REMARK SMILES O=c1cc(-c2ccc(O)c(O)c2)oc2cc(O)cc(O)c12
REMARK SMILES IDX 4 1 3 2 2 3 1 4 21 5 19 6 18 7 16 8 15 9 14 10 13 11 5 12
REMARK SMILES IDX 6 13 7 14 8 15 12 16 10 17 9 18 11 20 20 22 17 24
REMARK H PARENT 9 19 11 21 20 23 17 25
REMARK Flexibility Score: inf
ROOT
ATOM      1  C   UNL     1      39.229 -12.656   8.816  1.00  0.00     0.138 A 
ATOM      2  C   UNL     1      39.425 -11.325   9.208  1.00  0.00     0.100 A 
ATOM      3  C   UNL     1      40.491 -11.002  10.049  1.00  0.00     0.197 A 
ATOM      4  O   UNL     1      40.604  -9.809  10.434  1.00  0.00    -0.289 OA
ATOM      5  C   UNL     1      41.382 -12.015  10.474  1.00  0.00     0.107 A 
ATOM      6  C   UNL     1      42.527 -11.797  11.299  1.00  0.00     0.134 A 
ATOM      7  C   UNL     1      43.271 -12.894  11.751  1.00  0.00     0.093 A 
ATOM      8  C   UNL     1      42.949 -14.193  11.361  1.00  0.00     0.123 A 
ATOM      9  C   UNL     1      41.865 -14.414  10.512  1.00  0.00     0.094 A 
ATOM     10  C   UNL     1      41.083 -13.343  10.071  1.00  0.00     0.146 A 
ATOM     11  O   UNL     1      40.049 -13.597   9.274  1.00  0.00    -0.456 OA
ENDROOT
BRANCH   1  12
ATOM     12  C   UNL     1      38.112 -13.055   7.922  1.00  0.00     0.021 A 
ATOM     13  C   UNL     1      36.931 -12.293   7.909  1.00  0.00     0.016 A 
ATOM     14  C   UNL     1      35.864 -12.651   7.082  1.00  0.00     0.051 A 
ATOM     15  C   UNL     1      35.953 -13.783   6.263  1.00  0.00     0.157 A 
ATOM     16  C   UNL     1      38.191 -14.200   7.105  1.00  0.00     0.062 A 
ATOM     17  C   UNL     1      37.122 -14.562   6.278  1.00  0.00     0.158 A 
BRANCH  15  18
ATOM     18  O   UNL     1      34.886 -14.137   5.437  1.00  0.00    -0.504 OA
ATOM     19  H   UNL     1      34.608 -13.559   4.654  1.00  0.00     0.293 HD
ENDBRANCH  15  18
BRANCH  17  20
ATOM     20  O   UNL     1      37.238 -15.702   5.482  1.00  0.00    -0.504 OA
ATOM     21  H   UNL     1      36.571 -16.464   5.532  1.00  0.00     0.293 HD
ENDBRANCH  17  20
ENDBRANCH   1  12
BRANCH   6  22
ATOM     22  O   UNL     1      42.986 -10.532  11.679  1.00  0.00    -0.507 OA
ATOM     23  H   UNL     1      42.394  -9.743  11.892  1.00  0.00     0.293 HD
ENDBRANCH   6  22
BRANCH   8  24
ATOM     24  O   UNL     1      43.722 -15.258  11.819  1.00  0.00    -0.508 OA
ATOM     25  H   UNL     1      44.715 -15.315  11.622  1.00  0.00     0.293 HD
ENDBRANCH   8  24
TORSDOF 5
ENDMDL
MODEL 2
REMARK VINA RESULT:    -7.703      5.725     11.920
REMARK INTER + INTRA:          -9.361
REMARK INTER:                  -9.049
REMARK INTRA:                  -0.312
REMARK UNBOUND:                -0.307
REMARK SMILES O=c1cc(-c2ccc(O)c(O)c2)oc2cc(O)cc(O)c12
REMARK SMILES IDX 4 1 3 2 2 3 1 4 21 5 19 6 18 7 16 8 15 9 14 10 13 11 5 12
REMARK SMILES IDX 6 13 7 14 8 15 12 16 10 17 9 18 11 20 20 22 17 24
REMARK H PARENT 9 19 11 21 20 23 17 25
REMARK Flexibility Score: inf
ROOT
ATOM      1  C   UNL     1      33.275 -14.882   2.988  1.00  0.00     0.138 A 
ATOM      2  C   UNL     1      33.593 -15.323   1.696  1.00  0.00     0.100 A 
ATOM      3  C   UNL     1      32.573 -15.525   0.764  1.00  0.00     0.197 A 
ATOM      4  O   UNL     1      32.884 -15.981  -0.367  1.00  0.00    -0.289 OA
ATOM      5  C   UNL     1      31.232 -15.253   1.121  1.00  0.00     0.107 A 
ATOM      6  C   UNL     1      30.115 -15.383   0.242  1.00  0.00     0.134 A 
ATOM      7  C   UNL     1      28.819 -15.198   0.740  1.00  0.00     0.093 A 
ATOM      8  C   UNL     1      28.603 -14.829   2.067  1.00  0.00     0.123 A 
ATOM      9  C   UNL     1      29.690 -14.646   2.922  1.00  0.00     0.094 A 
ATOM     10  C   UNL     1      30.993 -14.857   2.463  1.00  0.00     0.146 A 
ATOM     11  O   UNL     1      32.001 -14.687   3.313  1.00  0.00    -0.456 OA
ENDROOT
BRANCH   1  12
ATOM     12  C   UNL     1      34.320 -14.650   4.017  1.00  0.00     0.021 A 
ATOM     13  C   UNL     1      35.581 -15.253   3.870  1.00  0.00     0.016 A 
ATOM     14  C   UNL     1      36.578 -15.056   4.829  1.00  0.00     0.051 A 
ATOM     15  C   UNL     1      36.329 -14.264   5.956  1.00  0.00     0.157 A 
ATOM     16  C   UNL     1      34.071 -13.864   5.160  1.00  0.00     0.062 A 
ATOM     17  C   UNL     1      35.068 -13.668   6.122  1.00  0.00     0.158 A 
BRANCH  15  18
ATOM     18  O   UNL     1      37.327 -14.068   6.909  1.00  0.00    -0.504 OA
ATOM     19  H   UNL     1      37.237 -14.427   7.852  1.00  0.00     0.293 HD
ENDBRANCH  15  18
BRANCH  17  20
ATOM     20  O   UNL     1      34.785 -12.882   7.239  1.00  0.00    -0.504 OA
ATOM     21  H   UNL     1      34.531 -13.287   8.132  1.00  0.00     0.293 HD
ENDBRANCH  17  20
ENDBRANCH   1  12
BRANCH   6  22
ATOM     22  O   UNL     1      30.224 -15.666  -1.123  1.00  0.00    -0.507 OA
ATOM     23  H   UNL     1      29.711 -15.195  -1.853  1.00  0.00     0.293 HD
ENDBRANCH   6  22
BRANCH   8  24
ATOM     24  O   UNL     1      27.300 -14.637   2.523  1.00  0.00    -0.508 OA
ATOM     25  H   UNL     1      26.988 -13.737   2.870  1.00  0.00     0.293 HD
ENDBRANCH   8  24
TORSDOF 5
ENDMDL
MODEL 3
REMARK VINA RESULT:    -7.657      1.769      6.914
REMARK INTER + INTRA:          -9.307
REMARK INTER:                  -9.025
REMARK INTRA:                  -0.283
REMARK UNBOUND:                -0.307
REMARK SMILES O=c1cc(-c2ccc(O)c(O)c2)oc2cc(O)cc(O)c12
REMARK SMILES IDX 4 1 3 2 2 3 1 4 21 5 19 6 18 7 16 8 15 9 14 10 13 11 5 12
REMARK SMILES IDX 6 13 7 14 8 15 12 16 10 17 9 18 11 20 20 22 17 24
REMARK H PARENT 9 19 11 21 20 23 17 25
REMARK Flexibility Score: inf
ROOT
ATOM      1  C   UNL     1      40.446 -12.683   8.762  1.00  0.00     0.138 A 
ATOM      2  C   UNL     1      40.619 -11.455   8.110  1.00  0.00     0.100 A 
ATOM      3  C   UNL     1      39.696 -11.049   7.144  1.00  0.00     0.197 A 
ATOM      4  O   UNL     1      39.912  -9.972   6.530  1.00  0.00    -0.289 OA
ATOM      5  C   UNL     1      38.577 -11.865   6.855  1.00  0.00     0.107 A 
ATOM      6  C   UNL     1      37.550 -11.535   5.921  1.00  0.00     0.134 A 
ATOM      7  C   UNL     1      36.551 -12.474   5.632  1.00  0.00     0.093 A 
ATOM      8  C   UNL     1      36.508 -13.704   6.287  1.00  0.00     0.123 A 
ATOM      9  C   UNL     1      37.476 -14.016   7.242  1.00  0.00     0.094 A 
ATOM     10  C   UNL     1      38.504 -13.114   7.527  1.00  0.00     0.146 A 
ATOM     11  O   UNL     1      39.415 -13.455   8.433  1.00  0.00    -0.456 OA
ENDROOT
BRANCH   1  12
ATOM     12  C   UNL     1      41.397 -13.162   9.797  1.00  0.00     0.021 A 
ATOM     13  C   UNL     1      41.723 -14.527   9.858  1.00  0.00     0.016 A 
ATOM     14  C   UNL     1      42.609 -15.004  10.827  1.00  0.00     0.051 A 
ATOM     15  C   UNL     1      43.175 -14.127  11.759  1.00  0.00     0.157 A 
ATOM     16  C   UNL     1      41.960 -12.286  10.746  1.00  0.00     0.062 A 
ATOM     17  C   UNL     1      42.846 -12.762  11.719  1.00  0.00     0.158 A 
BRANCH  15  18
ATOM     18  O   UNL     1      44.061 -14.606  12.724  1.00  0.00    -0.504 OA
ATOM     19  H   UNL     1      44.068 -15.580  13.000  1.00  0.00     0.293 HD
ENDBRANCH  15  18
BRANCH  17  20
ATOM     20  O   UNL     1      43.385 -11.865  12.641  1.00  0.00    -0.504 OA
ATOM     21  H   UNL     1      43.989 -12.166  13.397  1.00  0.00     0.293 HD
ENDBRANCH  17  20
ENDBRANCH   1  12
BRANCH   6  22
ATOM     22  O   UNL     1      37.451 -10.301   5.272  1.00  0.00    -0.507 OA
ATOM     23  H   UNL     1      37.934  -9.461   5.554  1.00  0.00     0.293 HD
ENDBRANCH   6  22
BRANCH   8  24
ATOM     24  O   UNL     1      35.490 -14.607   5.986  1.00  0.00    -0.508 OA
ATOM     25  H   UNL     1      35.691 -15.572   5.748  1.00  0.00     0.293 HD
ENDBRANCH   8  24
TORSDOF 5
ENDMDL
MODEL 4
REMARK VINA RESULT:    -7.555      6.306      9.727
REMARK INTER + INTRA:          -9.188
REMARK INTER:                  -8.909
REMARK INTRA:                  -0.279
REMARK UNBOUND:                -0.307
REMARK SMILES O=c1cc(-c2ccc(O)c(O)c2)oc2cc(O)cc(O)c12
REMARK SMILES IDX 4 1 3 2 2 3 1 4 21 5 19 6 18 7 16 8 15 9 14 10 13 11 5 12
REMARK SMILES IDX 6 13 7 14 8 15 12 16 10 17 9 18 11 20 20 22 17 24
REMARK H PARENT 9 19 11 21 20 23 17 25
REMARK Flexibility Score: inf
ROOT
ATOM      1  C   UNL     1      32.539 -14.040   2.055  1.00  0.00     0.138 A 
ATOM      2  C   UNL     1      33.214 -13.133   1.227  1.00  0.00     0.100 A 
ATOM      3  C   UNL     1      34.504 -12.718   1.564  1.00  0.00     0.197 A 
ATOM      4  O   UNL     1      35.060 -11.855   0.835  1.00  0.00    -0.289 OA
ATOM      5  C   UNL     1      35.130 -13.240   2.720  1.00  0.00     0.107 A 
ATOM      6  C   UNL     1      36.457 -12.921   3.139  1.00  0.00     0.134 A 
ATOM      7  C   UNL     1      36.929 -13.409   4.364  1.00  0.00     0.093 A 
ATOM      8  C   UNL     1      36.148 -14.251   5.154  1.00  0.00     0.123 A 
ATOM      9  C   UNL     1      34.870 -14.613   4.728  1.00  0.00     0.094 A 
ATOM     10  C   UNL     1      34.357 -14.116   3.527  1.00  0.00     0.146 A 
ATOM     11  O   UNL     1      33.129 -14.473   3.164  1.00  0.00    -0.456 OA
ENDROOT
BRANCH   1  12
ATOM     12  C   UNL     1      31.167 -14.515   1.743  1.00  0.00     0.021 A 
ATOM     13  C   UNL     1      30.207 -14.576   2.768  1.00  0.00     0.016 A 
ATOM     14  C   UNL     1      28.912 -15.026   2.502  1.00  0.00     0.051 A 
ATOM     15  C   UNL     1      28.556 -15.433   1.211  1.00  0.00     0.157 A 
ATOM     16  C   UNL     1      30.806 -14.938   0.449  1.00  0.00     0.062 A 
ATOM     17  C   UNL     1      29.510 -15.392   0.181  1.00  0.00     0.158 A 
BRANCH  15  18
ATOM     18  O   UNL     1      27.261 -15.881   0.949  1.00  0.00    -0.504 OA
ATOM     19  H   UNL     1      26.809 -16.571   1.536  1.00  0.00     0.293 HD
ENDBRANCH  15  18
BRANCH  17  20
ATOM     20  O   UNL     1      29.190 -15.801  -1.114  1.00  0.00    -0.504 OA
ATOM     21  H   UNL     1      28.234 -15.840  -1.445  1.00  0.00     0.293 HD
ENDBRANCH  17  20
ENDBRANCH   1  12
BRANCH   6  22
ATOM     22  O   UNL     1      37.352 -12.156   2.385  1.00  0.00    -0.507 OA
ATOM     23  H   UNL     1      38.213 -11.764   2.736  1.00  0.00     0.293 HD
ENDBRANCH   6  22
BRANCH   8  24
ATOM     24  O   UNL     1      36.658 -14.730   6.359  1.00  0.00    -0.508 OA
ATOM     25  H   UNL     1      36.623 -14.174   7.207  1.00  0.00     0.293 HD
ENDBRANCH   8  24
TORSDOF 5
ENDMDL
MODEL 5
REMARK VINA RESULT:    -7.502      8.096     11.321
REMARK INTER + INTRA:          -9.125
REMARK INTER:                  -8.857
REMARK INTRA:                  -0.268
REMARK UNBOUND:                -0.307
REMARK SMILES O=c1cc(-c2ccc(O)c(O)c2)oc2cc(O)cc(O)c12
REMARK SMILES IDX 4 1 3 2 2 3 1 4 21 5 19 6 18 7 16 8 15 9 14 10 13 11 5 12
REMARK SMILES IDX 6 13 7 14 8 15 12 16 10 17 9 18 11 20 20 22 17 24
REMARK H PARENT 9 19 11 21 20 23 17 25
REMARK Flexibility Score: inf
ROOT
ATOM      1  C   UNL     1      31.823 -14.742   1.367  1.00  0.00     0.138 A 
ATOM      2  C   UNL     1      32.549 -15.501   2.295  1.00  0.00     0.100 A 
ATOM      3  C   UNL     1      33.761 -15.015   2.787  1.00  0.00     0.197 A 
ATOM      4  O   UNL     1      34.420 -15.748   3.570  1.00  0.00    -0.289 OA
ATOM      5  C   UNL     1      34.231 -13.748   2.371  1.00  0.00     0.107 A 
ATOM      6  C   UNL     1      35.432 -13.133   2.838  1.00  0.00     0.134 A 
ATOM      7  C   UNL     1      35.857 -11.926   2.267  1.00  0.00     0.093 A 
ATOM      8  C   UNL     1      35.095 -11.283   1.293  1.00  0.00     0.123 A 
ATOM      9  C   UNL     1      33.892 -11.847   0.868  1.00  0.00     0.094 A 
ATOM     10  C   UNL     1      33.459 -13.067   1.393  1.00  0.00     0.146 A 
ATOM     11  O   UNL     1      32.314 -13.578   0.951  1.00  0.00    -0.456 OA
ENDROOT
BRANCH   1  12
ATOM     12  C   UNL     1      30.528 -15.210   0.811  1.00  0.00     0.021 A 
ATOM     13  C   UNL     1      30.390 -15.375  -0.577  1.00  0.00     0.016 A 
ATOM     14  C   UNL     1      29.180 -15.808  -1.125  1.00  0.00     0.051 A 
ATOM     15  C   UNL     1      28.083 -16.071  -0.296  1.00  0.00     0.157 A 
ATOM     16  C   UNL     1      29.417 -15.465   1.639  1.00  0.00     0.062 A 
ATOM     17  C   UNL     1      28.203 -15.896   1.092  1.00  0.00     0.158 A 
BRANCH  15  18
ATOM     18  O   UNL     1      26.877 -16.505  -0.846  1.00  0.00    -0.504 OA
ATOM     19  H   UNL     1      25.991 -16.110  -0.557  1.00  0.00     0.293 HD
ENDBRANCH  15  18
BRANCH  17  20
ATOM     20  O   UNL     1      27.125 -16.140   1.944  1.00  0.00    -0.504 OA
ATOM     21  H   UNL     1      27.054 -16.988   2.494  1.00  0.00     0.293 HD
ENDBRANCH  17  20
ENDBRANCH   1  12
BRANCH   6  22
ATOM     22  O   UNL     1      36.225 -13.649   3.867  1.00  0.00    -0.507 OA
ATOM     23  H   UNL     1      36.346 -14.631   4.065  1.00  0.00     0.293 HD
ENDBRANCH   6  22
BRANCH   8  24
ATOM     24  O   UNL     1      35.541 -10.075   0.760  1.00  0.00    -0.508 OA
ATOM     25  H   UNL     1      36.420 -10.010   0.258  1.00  0.00     0.293 HD
ENDBRANCH   8  24
TORSDOF 5
ENDMDL
MODEL 6
REMARK VINA RESULT:    -7.121      2.634      7.949
REMARK INTER + INTRA:          -8.677
REMARK INTER:                  -8.359
REMARK INTRA:                  -0.318
REMARK UNBOUND:                -0.307
REMARK SMILES O=c1cc(-c2ccc(O)c(O)c2)oc2cc(O)cc(O)c12
REMARK SMILES IDX 4 1 3 2 2 3 1 4 21 5 19 6 18 7 16 8 15 9 14 10 13 11 5 12
REMARK SMILES IDX 6 13 7 14 8 15 12 16 10 17 9 18 11 20 20 22 17 24
REMARK H PARENT 9 19 11 21 20 23 17 25
REMARK Flexibility Score: inf
ROOT
ATOM      1  C   UNL     1      38.146 -11.842   7.248  1.00  0.00     0.138 A 
ATOM      2  C   UNL     1      37.805 -13.200   7.306  1.00  0.00     0.100 A 
ATOM      3  C   UNL     1      37.072 -13.773   6.265  1.00  0.00     0.197 A 
ATOM      4  O   UNL     1      36.727 -14.979   6.375  1.00  0.00    -0.289 OA
ATOM      5  C   UNL     1      36.708 -12.988   5.147  1.00  0.00     0.107 A 
ATOM      6  C   UNL     1      35.997 -13.474   4.009  1.00  0.00     0.134 A 
ATOM      7  C   UNL     1      35.590 -12.577   3.013  1.00  0.00     0.093 A 
ATOM      8  C   UNL     1      35.919 -11.224   3.085  1.00  0.00     0.123 A 
ATOM      9  C   UNL     1      36.660 -10.746   4.166  1.00  0.00     0.094 A 
ATOM     10  C   UNL     1      37.052 -11.611   5.191  1.00  0.00     0.146 A 
ATOM     11  O   UNL     1      37.744 -11.113   6.212  1.00  0.00    -0.456 OA
ENDROOT
BRANCH   1  12
ATOM     12  C   UNL     1      38.924 -11.182   8.327  1.00  0.00     0.021 A 
ATOM     13  C   UNL     1      39.278 -11.915   9.473  1.00  0.00     0.016 A 
ATOM     14  C   UNL     1      40.004 -11.315  10.504  1.00  0.00     0.051 A 
ATOM     15  C   UNL     1      40.378  -9.969  10.415  1.00  0.00     0.157 A 
ATOM     16  C   UNL     1      39.294  -9.824   8.249  1.00  0.00     0.062 A 
ATOM     17  C   UNL     1      40.018  -9.221   9.283  1.00  0.00     0.158 A 
BRANCH  15  18
ATOM     18  O   UNL     1      41.104  -9.374  11.446  1.00  0.00    -0.504 OA
ATOM     19  H   UNL     1      41.083  -9.741  12.390  1.00  0.00     0.293 HD
ENDBRANCH  15  18
BRANCH  17  20
ATOM     20  O   UNL     1      40.367  -7.875   9.169  1.00  0.00    -0.504 OA
ATOM     21  H   UNL     1      40.414  -7.261   9.973  1.00  0.00     0.293 HD
ENDBRANCH  17  20
ENDBRANCH   1  12
BRANCH   6  22
ATOM     22  O   UNL     1      35.690 -14.822   3.797  1.00  0.00    -0.507 OA
ATOM     23  H   UNL     1      36.226 -15.598   4.153  1.00  0.00     0.293 HD
ENDBRANCH   6  22
BRANCH   8  24
ATOM     24  O   UNL     1      35.510 -10.363   2.068  1.00  0.00    -0.508 OA
ATOM     25  H   UNL     1      34.615  -9.889   2.104  1.00  0.00     0.293 HD
ENDBRANCH   8  24
TORSDOF 5
ENDMDL
MODEL 7
REMARK VINA RESULT:    -7.084      2.051      3.666
REMARK INTER + INTRA:          -8.634
REMARK INTER:                  -8.366
REMARK INTRA:                  -0.268
REMARK UNBOUND:                -0.307
REMARK SMILES O=c1cc(-c2ccc(O)c(O)c2)oc2cc(O)cc(O)c12
REMARK SMILES IDX 4 1 3 2 2 3 1 4 21 5 19 6 18 7 16 8 15 9 14 10 13 11 5 12
REMARK SMILES IDX 6 13 7 14 8 15 12 16 10 17 9 18 11 20 20 22 17 24
REMARK H PARENT 9 19 11 21 20 23 17 25
REMARK Flexibility Score: inf
ROOT
ATOM      1  C   UNL     1      37.702 -13.044   7.330  1.00  0.00     0.138 A 
ATOM      2  C   UNL     1      38.523 -13.975   7.980  1.00  0.00     0.100 A 
ATOM      3  C   UNL     1      39.566 -13.528   8.793  1.00  0.00     0.197 A 
ATOM      4  O   UNL     1      40.325 -14.388   9.313  1.00  0.00    -0.289 OA
ATOM      5  C   UNL     1      39.767 -12.140   8.978  1.00  0.00     0.107 A 
ATOM      6  C   UNL     1      40.772 -11.569   9.815  1.00  0.00     0.134 A 
ATOM      7  C   UNL     1      40.951 -10.180   9.831  1.00  0.00     0.093 A 
ATOM      8  C   UNL     1      40.123  -9.339   9.087  1.00  0.00     0.123 A 
ATOM      9  C   UNL     1      39.102  -9.883   8.307  1.00  0.00     0.094 A 
ATOM     10  C   UNL     1      38.921 -11.267   8.245  1.00  0.00     0.146 A 
ATOM     11  O   UNL     1      37.947 -11.746   7.478  1.00  0.00    -0.456 OA
ENDROOT
BRANCH   1  12
ATOM     12  C   UNL     1      36.578 -13.465   6.455  1.00  0.00     0.021 A 
ATOM     13  C   UNL     1      35.274 -13.034   6.750  1.00  0.00     0.016 A 
ATOM     14  C   UNL     1      34.199 -13.422   5.947  1.00  0.00     0.051 A 
ATOM     15  C   UNL     1      34.406 -14.256   4.842  1.00  0.00     0.157 A 
ATOM     16  C   UNL     1      36.779 -14.315   5.349  1.00  0.00     0.062 A 
ATOM     17  C   UNL     1      35.703 -14.707   4.545  1.00  0.00     0.158 A 
BRANCH  15  18
ATOM     18  O   UNL     1      33.331 -14.640   4.042  1.00  0.00    -0.504 OA
ATOM     19  H   UNL     1      33.196 -14.254   3.115  1.00  0.00     0.293 HD
ENDBRANCH  15  18
BRANCH  17  20
ATOM     20  O   UNL     1      35.941 -15.548   3.458  1.00  0.00    -0.504 OA
ATOM     21  H   UNL     1      35.415 -16.400   3.311  1.00  0.00     0.293 HD
ENDBRANCH  17  20
ENDBRANCH   1  12
BRANCH   6  22
ATOM     22  O   UNL     1      41.598 -12.313  10.663  1.00  0.00    -0.507 OA
ATOM     23  H   UNL     1      41.282 -12.826  11.473  1.00  0.00     0.293 HD
ENDBRANCH   6  22
BRANCH   8  24
ATOM     24  O   UNL     1      40.320  -7.961   9.140  1.00  0.00    -0.508 OA
ATOM     25  H   UNL     1      39.556  -7.324   9.331  1.00  0.00     0.293 HD
ENDBRANCH   8  24
TORSDOF 5
ENDMDL
MODEL 8
REMARK VINA RESULT:    -7.041      2.089      7.506
REMARK INTER + INTRA:          -8.584
REMARK INTER:                  -8.294
REMARK INTRA:                  -0.290
REMARK UNBOUND:                -0.307
REMARK SMILES O=c1cc(-c2ccc(O)c(O)c2)oc2cc(O)cc(O)c12
REMARK SMILES IDX 4 1 3 2 2 3 1 4 21 5 19 6 18 7 16 8 15 9 14 10 13 11 5 12
REMARK SMILES IDX 6 13 7 14 8 15 12 16 10 17 9 18 11 20 20 22 17 24
REMARK H PARENT 9 19 11 21 20 23 17 25
REMARK Flexibility Score: inf
ROOT
ATOM      1  C   UNL     1      38.988 -12.267   7.981  1.00  0.00     0.138 A 
ATOM      2  C   UNL     1      38.492 -13.568   7.817  1.00  0.00     0.100 A 
ATOM      3  C   UNL     1      37.559 -13.830   6.812  1.00  0.00     0.197 A 
ATOM      4  O   UNL     1      37.085 -14.994   6.730  1.00  0.00    -0.289 OA
ATOM      5  C   UNL     1      37.147 -12.790   5.947  1.00  0.00     0.107 A 
ATOM      6  C   UNL     1      36.233 -12.949   4.863  1.00  0.00     0.134 A 
ATOM      7  C   UNL     1      35.808 -11.822   4.146  1.00  0.00     0.093 A 
ATOM      8  C   UNL     1      36.309 -10.554   4.436  1.00  0.00     0.123 A 
ATOM      9  C   UNL     1      37.244 -10.394   5.459  1.00  0.00     0.094 A 
ATOM     10  C   UNL     1      37.661 -11.493   6.214  1.00  0.00     0.146 A 
ATOM     11  O   UNL     1      38.542 -11.296   7.190  1.00  0.00    -0.456 OA
ENDROOT
BRANCH   1  12
ATOM     12  C   UNL     1      39.981 -11.933   9.032  1.00  0.00     0.021 A 
ATOM     13  C   UNL     1      40.043 -10.622   9.534  1.00  0.00     0.016 A 
ATOM     14  C   UNL     1      40.973 -10.280  10.518  1.00  0.00     0.051 A 
ATOM     15  C   UNL     1      41.866 -11.240  11.010  1.00  0.00     0.157 A 
ATOM     16  C   UNL     1      40.891 -12.891   9.522  1.00  0.00     0.062 A 
ATOM     17  C   UNL     1      41.826 -12.550  10.506  1.00  0.00     0.158 A 
BRANCH  15  18
ATOM     18  O   UNL     1      42.793 -10.896  11.994  1.00  0.00    -0.504 OA
ATOM     19  H   UNL     1      43.128 -11.575  12.666  1.00  0.00     0.293 HD
ENDBRANCH  15  18
BRANCH  17  20
ATOM     20  O   UNL     1      42.709 -13.526  10.967  1.00  0.00    -0.504 OA
ATOM     21  H   UNL     1      42.406 -14.292  11.557  1.00  0.00     0.293 HD
ENDBRANCH  17  20
ENDBRANCH   1  12
BRANCH   6  22
ATOM     22  O   UNL     1      35.735 -14.184   4.435  1.00  0.00    -0.507 OA
ATOM     23  H   UNL     1      36.157 -15.077   4.638  1.00  0.00     0.293 HD
ENDBRANCH   6  22
BRANCH   8  24
ATOM     24  O   UNL     1      35.875  -9.458   3.692  1.00  0.00    -0.508 OA
ATOM     25  H   UNL     1      36.144  -8.512   3.937  1.00  0.00     0.293 HD
ENDBRANCH   8  24
TORSDOF 5
ENDMDL
