MODEL 1
REMARK VINA RESULT:    -3.705      0.000      0.000
REMARK INTER + INTRA:          -8.147
REMARK INTER:                  -6.737
REMARK INTRA:                  -1.410
REMARK UNBOUND:                -1.410
REMARK SMILES CCCCCCCCCCCCCCCC(=O)[O-]
REMARK SMILES IDX 9 1 10 2 11 3 12 4 13 5 14 6 15 7 16 8 17 9 18 10 8 11 7 12
REMARK SMILES IDX 6 13 5 14 4 15 3 16 2 17 1 18
REMARK H PARENT
REMARK Flexibility Score: inf
ROOT
ATOM      1  C   UNL     1      12.305 -11.149 -29.033  1.00  0.00     0.000 C 
ENDROOT
BRANCH   1   2
ATOM      2  C   UNL     1      12.098 -10.072 -27.957  1.00  0.00     0.000 C 
BRANCH   2   3
ATOM      3  C   UNL     1      13.202  -9.004 -27.970  1.00  0.00     0.000 C 
BRANCH   3   4
ATOM      4  C   UNL     1      12.656  -7.594 -28.258  1.00  0.00     0.000 C 
BRANCH   4   5
ATOM      5  C   UNL     1      13.762  -6.606 -28.663  1.00  0.00     0.000 C 
BRANCH   5   6
ATOM      6  C   UNL     1      13.276  -5.147 -28.673  1.00  0.00     0.006 C 
BRANCH   6   7
ATOM      7  C   UNL     1      13.920  -4.330 -29.802  1.00  0.00     0.053 C 
BRANCH   7   8
ATOM      8  C   UNL     1      14.104  -2.896 -29.410  1.00  0.00     0.041 C 
ATOM      9  O   UNL     1      15.123  -2.541 -28.761  1.00  0.00    -0.550 OA
ATOM     10  O   UNL     1      13.165  -1.945 -29.789  1.00  0.00    -0.550 OA
ENDBRANCH   7   8
ENDBRANCH   6   7
ENDBRANCH   5   6
ENDBRANCH   4   5
ENDBRANCH   3   4
ENDBRANCH   2   3
ENDBRANCH   1   2
BRANCH   1  11
ATOM     11  C   UNL     1      11.059 -12.033 -29.173  1.00  0.00     0.000 C 
BRANCH  11  12
ATOM     12  C   UNL     1      10.417 -12.299 -27.803  1.00  0.00    -0.000 C 
BRANCH  12  13
ATOM     13  C   UNL     1      10.891 -13.616 -27.171  1.00  0.00    -0.000 C 
BRANCH  13  14
ATOM     14  C   UNL     1      11.390 -13.436 -25.730  1.00  0.00    -0.000 C 
BRANCH  14  15
ATOM     15  C   UNL     1      12.788 -12.805 -25.707  1.00  0.00    -0.000 C 
BRANCH  15  16
ATOM     16  C   UNL     1      13.765 -13.602 -26.584  1.00  0.00    -0.000 C 
BRANCH  16  17
ATOM     17  C   UNL     1      14.960 -12.757 -27.054  1.00  0.00    -0.003 C 
ATOM     18  C   UNL     1      15.046 -11.407 -26.343  1.00  0.00     0.004 C 
ENDBRANCH  16  17
ENDBRANCH  15  16
ENDBRANCH  14  15
ENDBRANCH  13  14
ENDBRANCH  12  13
ENDBRANCH  11  12
ENDBRANCH   1  11
TORSDOF 14
ENDMDL
MODEL 2
REMARK VINA RESULT:    -3.604      0.913      2.571
REMARK INTER + INTRA:          -7.964
REMARK INTER:                  -6.507
REMARK INTRA:                  -1.457
REMARK UNBOUND:                -1.410
REMARK SMILES CCCCCCCCCCCCCCCC(=O)[O-]
REMARK SMILES IDX 9 1 10 2 11 3 12 4 13 5 14 6 15 7 16 8 17 9 18 10 8 11 7 12
REMARK SMILES IDX 6 13 5 14 4 15 3 16 2 17 1 18
REMARK H PARENT
REMARK Flexibility Score: inf
ROOT
ATOM      1  C   UNL     1      14.109 -10.269 -27.224  1.00  0.00     0.000 C 
ENDROOT
BRANCH   1   2
ATOM      2  C   UNL     1      12.693  -9.674 -27.212  1.00  0.00     0.000 C 
BRANCH   2   3
ATOM      3  C   UNL     1      12.493  -8.601 -28.294  1.00  0.00     0.000 C 
BRANCH   3   4
ATOM      4  C   UNL     1      13.709  -7.669 -28.433  1.00  0.00     0.000 C 
BRANCH   4   5
ATOM      5  C   UNL     1      13.362  -6.200 -28.144  1.00  0.00     0.000 C 
BRANCH   5   6
ATOM      6  C   UNL     1      13.784  -5.257 -29.283  1.00  0.00     0.006 C 
BRANCH   6   7
ATOM      7  C   UNL     1      13.256  -3.830 -29.080  1.00  0.00     0.053 C 
BRANCH   7   8
ATOM      8  C   UNL     1      14.265  -2.804 -29.493  1.00  0.00     0.041 C 
ATOM      9  O   UNL     1      15.059  -2.317 -28.646  1.00  0.00    -0.550 OA
ATOM     10  O   UNL     1      14.351  -2.408 -30.822  1.00  0.00    -0.550 OA
ENDBRANCH   7   8
ENDBRANCH   6   7
ENDBRANCH   5   6
ENDBRANCH   4   5
ENDBRANCH   3   4
ENDBRANCH   2   3
ENDBRANCH   1   2
BRANCH   1  11
ATOM     11  C   UNL     1      14.203 -11.485 -26.294  1.00  0.00     0.000 C 
BRANCH  11  12
ATOM     12  C   UNL     1      14.440 -12.774 -27.096  1.00  0.00    -0.000 C 
BRANCH  12  13
ATOM     13  C   UNL     1      13.453 -13.892 -26.726  1.00  0.00    -0.000 C 
BRANCH  13  14
ATOM     14  C   UNL     1      12.364 -13.421 -25.751  1.00  0.00    -0.000 C 
BRANCH  14  15
ATOM     15  C   UNL     1      10.967 -13.607 -26.356  1.00  0.00    -0.000 C 
BRANCH  15  16
ATOM     16  C   UNL     1      11.026 -13.593 -27.891  1.00  0.00    -0.000 C 
BRANCH  16  17
ATOM     17  C   UNL     1      10.566 -12.253 -28.486  1.00  0.00    -0.003 C 
ATOM     18  C   UNL     1      11.374 -11.843 -29.717  1.00  0.00     0.004 C 
ENDBRANCH  16  17
ENDBRANCH  15  16
ENDBRANCH  14  15
ENDBRANCH  13  14
ENDBRANCH  12  13
ENDBRANCH  11  12
ENDBRANCH   1  11
TORSDOF 14
ENDMDL
MODEL 3
REMARK VINA RESULT:    -3.594      1.288      2.509
REMARK INTER + INTRA:          -7.946
REMARK INTER:                  -6.504
REMARK INTRA:                  -1.442
REMARK UNBOUND:                -1.410
REMARK SMILES CCCCCCCCCCCCCCCC(=O)[O-]
REMARK SMILES IDX 9 1 10 2 11 3 12 4 13 5 14 6 15 7 16 8 17 9 18 10 8 11 7 12
REMARK SMILES IDX 6 13 5 14 4 15 3 16 2 17 1 18
REMARK H PARENT
REMARK Flexibility Score: inf
ROOT
ATOM      1  C   UNL     1      14.036 -10.651 -26.642  1.00  0.00     0.000 C 
ENDROOT
BRANCH   1   2
ATOM      2  C   UNL     1      13.224 -10.328 -27.906  1.00  0.00     0.000 C 
BRANCH   2   3
ATOM      3  C   UNL     1      12.625  -8.914 -27.878  1.00  0.00     0.000 C 
BRANCH   3   4
ATOM      4  C   UNL     1      13.612  -7.843 -28.376  1.00  0.00     0.000 C 
BRANCH   4   5
ATOM      5  C   UNL     1      12.938  -6.480 -28.601  1.00  0.00     0.000 C 
BRANCH   5   6
ATOM      6  C   UNL     1      13.941  -5.384 -28.999  1.00  0.00     0.006 C 
BRANCH   6   7
ATOM      7  C   UNL     1      13.250  -4.044 -29.287  1.00  0.00     0.053 C 
BRANCH   7   8
ATOM      8  C   UNL     1      14.245  -2.952 -29.535  1.00  0.00     0.041 C 
ATOM      9  O   UNL     1      15.042  -2.600 -28.626  1.00  0.00    -0.550 OA
ATOM     10  O   UNL     1      14.314  -2.345 -30.783  1.00  0.00    -0.550 OA
ENDBRANCH   7   8
ENDBRANCH   6   7
ENDBRANCH   5   6
ENDBRANCH   4   5
ENDBRANCH   3   4
ENDBRANCH   2   3
ENDBRANCH   1   2
BRANCH   1  11
ATOM     11  C   UNL     1      14.722 -12.017 -26.764  1.00  0.00     0.000 C 
BRANCH  11  12
ATOM     12  C   UNL     1      13.950 -12.937 -27.722  1.00  0.00    -0.000 C 
BRANCH  12  13
ATOM     13  C   UNL     1      13.081 -13.967 -26.983  1.00  0.00    -0.000 C 
BRANCH  13  14
ATOM     14  C   UNL     1      11.593 -13.850 -27.342  1.00  0.00    -0.000 C 
BRANCH  14  15
ATOM     15  C   UNL     1      10.903 -12.780 -26.485  1.00  0.00    -0.000 C 
BRANCH  15  16
ATOM     16  C   UNL     1      11.499 -12.741 -25.070  1.00  0.00    -0.000 C 
BRANCH  16  17
ATOM     17  C   UNL     1      11.139 -11.452 -24.314  1.00  0.00    -0.003 C 
ATOM     18  C   UNL     1      10.726 -10.315 -25.246  1.00  0.00     0.004 C 
ENDBRANCH  16  17
ENDBRANCH  15  16
ENDBRANCH  14  15
ENDBRANCH  13  14
ENDBRANCH  12  13
ENDBRANCH  11  12
ENDBRANCH   1  11
TORSDOF 14
ENDMDL
MODEL 4
REMARK VINA RESULT:    -3.557      3.391      7.790
REMARK INTER + INTRA:          -7.877
REMARK INTER:                  -6.831
REMARK INTRA:                  -1.046
REMARK UNBOUND:                -1.410
REMARK SMILES CCCCCCCCCCCCCCCC(=O)[O-]
REMARK SMILES IDX 9 1 10 2 11 3 12 4 13 5 14 6 15 7 16 8 17 9 18 10 8 11 7 12
REMARK SMILES IDX 6 13 5 14 4 15 3 16 2 17 1 18
REMARK H PARENT
REMARK Flexibility Score: inf
ROOT
ATOM      1  C   UNL     1      12.156 -11.216 -29.177  1.00  0.00     0.000 C 
ENDROOT
BRANCH   1   2
ATOM      2  C   UNL     1      10.922 -12.104 -29.398  1.00  0.00     0.000 C 
BRANCH   2   3
ATOM      3  C   UNL     1      10.285 -12.569 -28.080  1.00  0.00     0.000 C 
BRANCH   3   4
ATOM      4  C   UNL     1      11.082 -13.697 -27.402  1.00  0.00     0.000 C 
BRANCH   4   5
ATOM      5  C   UNL     1      11.401 -13.392 -25.930  1.00  0.00     0.000 C 
BRANCH   5   6
ATOM      6  C   UNL     1      12.911 -13.286 -25.662  1.00  0.00     0.006 C 
BRANCH   6   7
ATOM      7  C   UNL     1      13.740 -13.424 -26.946  1.00  0.00     0.053 C 
BRANCH   7   8
ATOM      8  C   UNL     1      15.027 -12.665 -26.857  1.00  0.00     0.041 C 
ATOM      9  O   UNL     1      15.037 -11.478 -26.436  1.00  0.00    -0.550 OA
ATOM     10  O   UNL     1      16.223 -13.279 -27.210  1.00  0.00    -0.550 OA
ENDBRANCH   7   8
ENDBRANCH   6   7
ENDBRANCH   5   6
ENDBRANCH   4   5
ENDBRANCH   3   4
ENDBRANCH   2   3
ENDBRANCH   1   2
BRANCH   1  11
ATOM     11  C   UNL     1      11.972 -10.315 -27.950  1.00  0.00     0.000 C 
BRANCH  11  12
ATOM     12  C   UNL     1      13.087  -9.262 -27.868  1.00  0.00    -0.000 C 
BRANCH  12  13
ATOM     13  C   UNL     1      12.594  -7.848 -28.212  1.00  0.00    -0.000 C 
BRANCH  13  14
ATOM     14  C   UNL     1      13.735  -6.911 -28.637  1.00  0.00    -0.000 C 
BRANCH  14  15
ATOM     15  C   UNL     1      13.301  -5.442 -28.550  1.00  0.00    -0.000 C 
BRANCH  15  16
ATOM     16  C   UNL     1      14.055  -4.584 -29.576  1.00  0.00    -0.000 C 
BRANCH  16  17
ATOM     17  C   UNL     1      14.405  -3.189 -29.036  1.00  0.00    -0.003 C 
ATOM     18  C   UNL     1      13.687  -2.067 -29.785  1.00  0.00     0.004 C 
ENDBRANCH  16  17
ENDBRANCH  15  16
ENDBRANCH  14  15
ENDBRANCH  13  14
ENDBRANCH  12  13
ENDBRANCH  11  12
ENDBRANCH   1  11
TORSDOF 14
ENDMDL
MODEL 5
REMARK VINA RESULT:    -3.389      3.606      7.844
REMARK INTER + INTRA:          -7.573
REMARK INTER:                  -6.611
REMARK INTRA:                  -0.962
REMARK UNBOUND:                -1.410
REMARK SMILES CCCCCCCCCCCCCCCC(=O)[O-]
REMARK SMILES IDX 9 1 10 2 11 3 12 4 13 5 14 6 15 7 16 8 17 9 18 10 8 11 7 12
REMARK SMILES IDX 6 13 5 14 4 15 3 16 2 17 1 18
REMARK H PARENT
REMARK Flexibility Score: inf
ROOT
ATOM      1  C   UNL     1      14.034 -10.747 -26.651  1.00  0.00     0.000 C 
ENDROOT
BRANCH   1   2
ATOM      2  C   UNL     1      14.946 -11.977 -26.774  1.00  0.00     0.000 C 
BRANCH   2   3
ATOM      3  C   UNL     1      14.265 -13.146 -27.503  1.00  0.00     0.000 C 
BRANCH   3   4
ATOM      4  C   UNL     1      13.329 -13.951 -26.584  1.00  0.00     0.000 C 
BRANCH   4   5
ATOM      5  C   UNL     1      11.873 -13.945 -27.077  1.00  0.00     0.000 C 
BRANCH   5   6
ATOM      6  C   UNL     1      10.938 -13.152 -26.148  1.00  0.00     0.006 C 
BRANCH   6   7
ATOM      7  C   UNL     1      11.694 -12.505 -24.980  1.00  0.00     0.053 C 
BRANCH   7   8
ATOM      8  C   UNL     1      11.032 -11.240 -24.527  1.00  0.00     0.041 C 
ATOM      9  O   UNL     1      10.749 -10.338 -25.359  1.00  0.00    -0.550 OA
ATOM     10  O   UNL     1      10.697 -11.071 -23.189  1.00  0.00    -0.550 OA
ENDBRANCH   7   8
ENDBRANCH   6   7
ENDBRANCH   5   6
ENDBRANCH   4   5
ENDBRANCH   3   4
ENDBRANCH   2   3
ENDBRANCH   1   2
BRANCH   1  11
ATOM     11  C   UNL     1      13.095 -10.635 -27.859  1.00  0.00     0.000 C 
BRANCH  11  12
ATOM     12  C   UNL     1      12.503  -9.222 -27.967  1.00  0.00    -0.000 C 
BRANCH  12  13
ATOM     13  C   UNL     1      13.555  -8.166 -28.341  1.00  0.00    -0.000 C 
BRANCH  13  14
ATOM     14  C   UNL     1      13.011  -6.732 -28.251  1.00  0.00    -0.000 C 
BRANCH  14  15
ATOM     15  C   UNL     1      14.047  -5.720 -28.755  1.00  0.00    -0.000 C 
BRANCH  15  16
ATOM     16  C   UNL     1      13.363  -4.449 -29.283  1.00  0.00    -0.000 C 
BRANCH  16  17
ATOM     17  C   UNL     1      14.293  -3.226 -29.262  1.00  0.00    -0.003 C 
ATOM     18  C   UNL     1      13.593  -1.943 -29.706  1.00  0.00     0.004 C 
ENDBRANCH  16  17
ENDBRANCH  15  16
ENDBRANCH  14  15
ENDBRANCH  13  14
ENDBRANCH  12  13
ENDBRANCH  11  12
ENDBRANCH   1  11
TORSDOF 14
ENDMDL
MODEL 6
REMARK VINA RESULT:    -3.383      1.280      1.951
REMARK INTER + INTRA:          -7.561
REMARK INTER:                  -6.149
REMARK INTRA:                  -1.412
REMARK UNBOUND:                -1.410
REMARK SMILES CCCCCCCCCCCCCCCC(=O)[O-]
REMARK SMILES IDX 9 1 10 2 11 3 12 4 13 5 14 6 15 7 16 8 17 9 18 10 8 11 7 12
REMARK SMILES IDX 6 13 5 14 4 15 3 16 2 17 1 18
REMARK H PARENT
REMARK Flexibility Score: inf
ROOT
ATOM      1  C   UNL     1      11.743 -10.538 -28.970  1.00  0.00     0.000 C 
ENDROOT
BRANCH   1   2
ATOM      2  C   UNL     1      12.940  -9.986 -28.181  1.00  0.00     0.000 C 
BRANCH   2   3
ATOM      3  C   UNL     1      12.726  -8.535 -27.723  1.00  0.00     0.000 C 
BRANCH   3   4
ATOM      4  C   UNL     1      13.645  -7.542 -28.456  1.00  0.00     0.000 C 
BRANCH   4   5
ATOM      5  C   UNL     1      12.986  -6.168 -28.656  1.00  0.00     0.000 C 
BRANCH   5   6
ATOM      6  C   UNL     1      14.005  -5.069 -29.005  1.00  0.00     0.006 C 
BRANCH   6   7
ATOM      7  C   UNL     1      13.324  -3.753 -29.405  1.00  0.00     0.053 C 
BRANCH   7   8
ATOM      8  C   UNL     1      14.326  -2.678 -29.691  1.00  0.00     0.041 C 
ATOM      9  O   UNL     1      14.407  -2.176 -30.842  1.00  0.00    -0.550 OA
ATOM     10  O   UNL     1      15.148  -2.206 -28.675  1.00  0.00    -0.550 OA
ENDBRANCH   7   8
ENDBRANCH   6   7
ENDBRANCH   5   6
ENDBRANCH   4   5
ENDBRANCH   3   4
ENDBRANCH   2   3
ENDBRANCH   1   2
BRANCH   1  11
ATOM     11  C   UNL     1      11.834 -12.063 -29.111  1.00  0.00     0.000 C 
BRANCH  11  12
ATOM     12  C   UNL     1      10.619 -12.749 -28.469  1.00  0.00    -0.000 C 
BRANCH  12  13
ATOM     13  C   UNL     1      11.001 -14.002 -27.666  1.00  0.00    -0.000 C 
BRANCH  13  14
ATOM     14  C   UNL     1      12.430 -13.933 -27.107  1.00  0.00    -0.000 C 
BRANCH  14  15
ATOM     15  C   UNL     1      12.418 -13.610 -25.608  1.00  0.00    -0.000 C 
BRANCH  15  16
ATOM     16  C   UNL     1      12.527 -12.096 -25.371  1.00  0.00    -0.000 C 
BRANCH  16  17
ATOM     17  C   UNL     1      11.317 -11.529 -24.612  1.00  0.00    -0.003 C 
ATOM     18  C   UNL     1      10.705 -10.310 -25.301  1.00  0.00     0.004 C 
ENDBRANCH  16  17
ENDBRANCH  15  16
ENDBRANCH  14  15
ENDBRANCH  13  14
ENDBRANCH  12  13
ENDBRANCH  11  12
ENDBRANCH   1  11
TORSDOF 14
ENDMDL
MODEL 7
REMARK VINA RESULT:    -3.361      3.665      7.930
REMARK INTER + INTRA:          -7.521
REMARK INTER:                  -6.649
REMARK INTRA:                  -0.872
REMARK UNBOUND:                -1.410
REMARK SMILES CCCCCCCCCCCCCCCC(=O)[O-]
REMARK SMILES IDX 9 1 10 2 11 3 12 4 13 5 14 6 15 7 16 8 17 9 18 10 8 11 7 12
REMARK SMILES IDX 6 13 5 14 4 15 3 16 2 17 1 18
REMARK H PARENT
REMARK Flexibility Score: inf
ROOT
ATOM      1  C   UNL     1      14.225 -10.487 -27.234  1.00  0.00     0.000 C 
ENDROOT
BRANCH   1   2
ATOM      2  C   UNL     1      14.374 -11.724 -26.336  1.00  0.00     0.000 C 
BRANCH   2   3
ATOM      3  C   UNL     1      14.387 -13.036 -27.135  1.00  0.00     0.000 C 
BRANCH   3   4
ATOM      4  C   UNL     1      13.498 -14.122 -26.503  1.00  0.00     0.000 C 
BRANCH   4   5
ATOM      5  C   UNL     1      12.178 -13.556 -25.954  1.00  0.00     0.000 C 
BRANCH   5   6
ATOM      6  C   UNL     1      11.041 -13.600 -26.988  1.00  0.00     0.006 C 
BRANCH   6   7
ATOM      7  C   UNL     1      10.746 -12.217 -27.585  1.00  0.00     0.053 C 
BRANCH   7   8
ATOM      8  C   UNL     1      10.730 -12.253 -29.082  1.00  0.00     0.041 C 
ATOM      9  O   UNL     1      11.606 -11.635 -29.742  1.00  0.00    -0.550 OA
ATOM     10  O   UNL     1       9.764 -12.998 -29.749  1.00  0.00    -0.550 OA
ENDBRANCH   7   8
ENDBRANCH   6   7
ENDBRANCH   5   6
ENDBRANCH   4   5
ENDBRANCH   3   4
ENDBRANCH   2   3
ENDBRANCH   1   2
BRANCH   1  11
ATOM     11  C   UNL     1      12.850  -9.833 -27.045  1.00  0.00     0.000 C 
BRANCH  11  12
ATOM     12  C   UNL     1      12.555  -8.835 -28.175  1.00  0.00    -0.000 C 
BRANCH  12  13
ATOM     13  C   UNL     1      13.517  -7.636 -28.172  1.00  0.00    -0.000 C 
BRANCH  13  14
ATOM     14  C   UNL     1      12.946  -6.419 -28.916  1.00  0.00    -0.000 C 
BRANCH  14  15
ATOM     15  C   UNL     1      13.986  -5.295 -29.009  1.00  0.00    -0.000 C 
BRANCH  15  16
ATOM     16  C   UNL     1      13.312  -3.916 -28.953  1.00  0.00    -0.000 C 
BRANCH  16  17
ATOM     17  C   UNL     1      14.019  -2.878 -29.838  1.00  0.00    -0.003 C 
ATOM     18  C   UNL     1      14.962  -1.971 -29.049  1.00  0.00     0.004 C 
ENDBRANCH  16  17
ENDBRANCH  15  16
ENDBRANCH  14  15
ENDBRANCH  13  14
ENDBRANCH  12  13
ENDBRANCH  11  12
ENDBRANCH   1  11
TORSDOF 14
ENDMDL
MODEL 8
REMARK VINA RESULT:    -3.144      3.583      8.021
REMARK INTER + INTRA:          -7.126
REMARK INTER:                  -6.092
REMARK INTRA:                  -1.034
REMARK UNBOUND:                -1.410
REMARK SMILES CCCCCCCCCCCCCCCC(=O)[O-]
REMARK SMILES IDX 9 1 10 2 11 3 12 4 13 5 14 6 15 7 16 8 17 9 18 10 8 11 7 12
REMARK SMILES IDX 6 13 5 14 4 15 3 16 2 17 1 18
REMARK H PARENT
REMARK Flexibility Score: inf
ROOT
ATOM      1  C   UNL     1      11.777 -10.303 -28.638  1.00  0.00     0.000 C 
ENDROOT
BRANCH   1   2
ATOM      2  C   UNL     1      11.996 -11.806 -28.873  1.00  0.00     0.000 C 
BRANCH   2   3
ATOM      3  C   UNL     1      10.717 -12.630 -28.659  1.00  0.00     0.000 C 
BRANCH   3   4
ATOM      4  C   UNL     1      10.956 -13.876 -27.788  1.00  0.00     0.000 C 
BRANCH   4   5
ATOM      5  C   UNL     1      12.261 -13.790 -26.982  1.00  0.00     0.000 C 
BRANCH   5   6
ATOM      6  C   UNL     1      12.025 -13.390 -25.516  1.00  0.00     0.006 C 
BRANCH   6   7
ATOM      7  C   UNL     1      12.440 -11.940 -25.236  1.00  0.00     0.053 C 
BRANCH   7   8
ATOM      8  C   UNL     1      11.282 -11.115 -24.764  1.00  0.00     0.041 C 
ATOM      9  O   UNL     1      10.698 -10.329 -25.556  1.00  0.00    -0.550 OA
ATOM     10  O   UNL     1      10.827 -11.239 -23.457  1.00  0.00    -0.550 OA
ENDBRANCH   7   8
ENDBRANCH   6   7
ENDBRANCH   5   6
ENDBRANCH   4   5
ENDBRANCH   3   4
ENDBRANCH   2   3
ENDBRANCH   1   2
BRANCH   1  11
ATOM     11  C   UNL     1      13.024  -9.656 -28.022  1.00  0.00     0.000 C 
BRANCH  11  12
ATOM     12  C   UNL     1      12.803  -8.155 -27.783  1.00  0.00    -0.000 C 
BRANCH  12  13
ATOM     13  C   UNL     1      13.692  -7.275 -28.675  1.00  0.00    -0.000 C 
BRANCH  13  14
ATOM     14  C   UNL     1      13.623  -5.788 -28.296  1.00  0.00    -0.000 C 
BRANCH  14  15
ATOM     15  C   UNL     1      13.739  -4.898 -29.540  1.00  0.00    -0.000 C 
BRANCH  15  16
ATOM     16  C   UNL     1      13.087  -3.528 -29.298  1.00  0.00    -0.000 C 
BRANCH  16  17
ATOM     17  C   UNL     1      13.912  -2.371 -29.883  1.00  0.00    -0.003 C 
ATOM     18  C   UNL     1      15.123  -2.013 -29.023  1.00  0.00     0.004 C 
ENDBRANCH  16  17
ENDBRANCH  15  16
ENDBRANCH  14  15
ENDBRANCH  13  14
ENDBRANCH  12  13
ENDBRANCH  11  12
ENDBRANCH   1  11
TORSDOF 14
ENDMDL
MODEL 9
REMARK VINA RESULT:    -2.672      4.206      8.403
REMARK INTER + INTRA:          -6.269
REMARK INTER:                  -5.623
REMARK INTRA:                  -0.646
REMARK UNBOUND:                -1.410
REMARK SMILES CCCCCCCCCCCCCCCC(=O)[O-]
REMARK SMILES IDX 9 1 10 2 11 3 12 4 13 5 14 6 15 7 16 8 17 9 18 10 8 11 7 12
REMARK SMILES IDX 6 13 5 14 4 15 3 16 2 17 1 18
REMARK H PARENT
REMARK Flexibility Score: inf
ROOT
ATOM      1  C   UNL     1      13.084 -10.495 -26.908  1.00  0.00     0.000 C 
ENDROOT
BRANCH   1   2
ATOM      2  C   UNL     1      11.635 -10.056 -26.643  1.00  0.00     0.000 C 
BRANCH   2   3
ATOM      3  C   UNL     1      10.992 -10.817 -25.474  1.00  0.00     0.000 C 
BRANCH   3   4
ATOM      4  C   UNL     1      11.972 -11.785 -24.787  1.00  0.00     0.000 C 
BRANCH   4   5
ATOM      5  C   UNL     1      11.689 -13.255 -25.135  1.00  0.00     0.000 C 
BRANCH   5   6
ATOM      6  C   UNL     1      12.861 -13.925 -25.871  1.00  0.00     0.006 C 
BRANCH   6   7
ATOM      7  C   UNL     1      12.776 -13.735 -27.392  1.00  0.00     0.053 C 
BRANCH   7   8
ATOM      8  C   UNL     1      11.361 -13.800 -27.878  1.00  0.00     0.041 C 
ATOM      9  O   UNL     1      10.622 -14.766 -27.554  1.00  0.00    -0.550 OA
ATOM     10  O   UNL     1      10.849 -12.775 -28.664  1.00  0.00    -0.550 OA
ENDBRANCH   7   8
ENDBRANCH   6   7
ENDBRANCH   5   6
ENDBRANCH   4   5
ENDBRANCH   3   4
ENDBRANCH   2   3
ENDBRANCH   1   2
BRANCH   1  11
ATOM     11  C   UNL     1      13.771  -9.549 -27.901  1.00  0.00     0.000 C 
BRANCH  11  12
ATOM     12  C   UNL     1      12.877  -8.342 -28.220  1.00  0.00    -0.000 C 
BRANCH  12  13
ATOM     13  C   UNL     1      13.653  -7.186 -28.870  1.00  0.00    -0.000 C 
BRANCH  13  14
ATOM     14  C   UNL     1      13.249  -5.814 -28.311  1.00  0.00    -0.000 C 
BRANCH  14  15
ATOM     15  C   UNL     1      14.101  -4.696 -28.925  1.00  0.00    -0.000 C 
BRANCH  15  16
ATOM     16  C   UNL     1      13.233  -3.730 -29.745  1.00  0.00    -0.000 C 
BRANCH  16  17
ATOM     17  C   UNL     1      13.724  -2.276 -29.656  1.00  0.00    -0.003 C 
ATOM     18  C   UNL     1      15.099  -2.155 -29.002  1.00  0.00     0.004 C 
ENDBRANCH  16  17
ENDBRANCH  15  16
ENDBRANCH  14  15
ENDBRANCH  13  14
ENDBRANCH  12  13
ENDBRANCH  11  12
ENDBRANCH   1  11
TORSDOF 14
ENDMDL
