MODEL 1
REMARK VINA RESULT:    -4.514      0.000      0.000
REMARK INTER + INTRA:         -16.413
REMARK INTER:                 -11.902
REMARK INTRA:                  -4.511
REMARK UNBOUND:                -4.511
REMARK SMILES CCCCCCCCCCCCCCCCCCCCCCCCCCCCCC(=O)[O-]
REMARK SMILES IDX 16 1 17 2 18 3 19 4 20 5 21 6 22 7 23 8 24 9 25 10 26 11
REMARK SMILES IDX 27 12 28 13 29 14 30 15 31 16 32 17 15 18 14 19 13 20 12 21
REMARK SMILES IDX 11 22 10 23 9 24 8 25 7 26 6 27 5 28 4 29 3 30 2 31 1 32
REMARK H PARENT
REMARK Flexibility Score: inf
ROOT
ATOM      1  C   UNL     1     -25.599 -12.403  17.164  1.00  0.00     0.000 C 
ENDROOT
BRANCH   1   2
ATOM      2  C   UNL     1     -26.893 -11.736  16.662  1.00  0.00     0.000 C 
BRANCH   2   3
ATOM      3  C   UNL     1     -27.736 -11.142  17.801  1.00  0.00     0.000 C 
BRANCH   3   4
ATOM      4  C   UNL     1     -29.234 -11.174  17.463  1.00  0.00     0.000 C 
BRANCH   4   5
ATOM      5  C   UNL     1     -29.620 -12.408  16.626  1.00  0.00     0.000 C 
BRANCH   5   6
ATOM      6  C   UNL     1     -30.241 -13.527  17.480  1.00  0.00     0.000 C 
BRANCH   6   7
ATOM      7  C   UNL     1     -30.387 -14.850  16.699  1.00  0.00     0.000 C 
BRANCH   7   8
ATOM      8  C   UNL     1     -30.506 -14.673  15.177  1.00  0.00     0.000 C 
BRANCH   8   9
ATOM      9  C   UNL     1     -30.656 -16.002  14.423  1.00  0.00     0.000 C 
BRANCH   9  10
ATOM     10  C   UNL     1     -29.410 -16.879  14.601  1.00  0.00     0.000 C 
BRANCH  10  11
ATOM     11  C   UNL     1     -28.878 -17.370  13.249  1.00  0.00     0.000 C 
BRANCH  11  12
ATOM     12  C   UNL     1     -28.205 -18.740  13.385  1.00  0.00     0.000 C 
BRANCH  12  13
ATOM     13  C   UNL     1     -26.986 -18.852  12.460  1.00  0.00     0.006 C 
BRANCH  13  14
ATOM     14  C   UNL     1     -27.368 -19.497  11.126  1.00  0.00     0.053 C 
BRANCH  14  15
ATOM     15  C   UNL     1     -26.144 -19.825  10.329  1.00  0.00     0.041 C 
ATOM     16  O   UNL     1     -24.999 -19.712  10.846  1.00  0.00    -0.550 OA
ATOM     17  O   UNL     1     -26.265 -20.246   9.010  1.00  0.00    -0.550 OA
ENDBRANCH  14  15
ENDBRANCH  13  14
ENDBRANCH  12  13
ENDBRANCH  11  12
ENDBRANCH  10  11
ENDBRANCH   9  10
ENDBRANCH   8   9
ENDBRANCH   7   8
ENDBRANCH   6   7
ENDBRANCH   5   6
ENDBRANCH   4   5
ENDBRANCH   3   4
ENDBRANCH   2   3
ENDBRANCH   1   2
BRANCH   1  18
ATOM     18  C   UNL     1     -25.810 -13.659  18.035  1.00  0.00     0.000 C 
BRANCH  18  19
ATOM     19  C   UNL     1     -26.825 -14.675  17.477  1.00  0.00     0.000 C 
BRANCH  19  20
ATOM     20  C   UNL     1     -26.304 -16.125  17.385  1.00  0.00     0.000 C 
BRANCH  20  21
ATOM     21  C   UNL     1     -27.319 -17.208  17.806  1.00  0.00     0.000 C 
BRANCH  21  22
ATOM     22  C   UNL     1     -27.331 -18.469  16.923  1.00  0.00     0.000 C 
BRANCH  22  23
ATOM     23  C   UNL     1     -28.568 -19.378  17.079  1.00  0.00     0.000 C 
BRANCH  23  24
ATOM     24  C   UNL     1     -29.730 -18.731  17.863  1.00  0.00    -0.000 C 
BRANCH  24  25
ATOM     25  C   UNL     1     -31.100 -18.939  17.190  1.00  0.00    -0.000 C 
BRANCH  25  26
ATOM     26  C   UNL     1     -32.139 -17.887  17.617  1.00  0.00    -0.000 C 
BRANCH  26  27
ATOM     27  C   UNL     1     -33.204 -17.623  16.541  1.00  0.00    -0.000 C 
BRANCH  27  28
ATOM     28  C   UNL     1     -33.813 -16.222  16.700  1.00  0.00    -0.000 C 
BRANCH  28  29
ATOM     29  C   UNL     1     -34.008 -15.504  15.353  1.00  0.00    -0.000 C 
BRANCH  29  30
ATOM     30  C   UNL     1     -34.155 -13.979  15.512  1.00  0.00    -0.000 C 
BRANCH  30  31
ATOM     31  C   UNL     1     -34.305 -13.552  16.982  1.00  0.00    -0.003 C 
ATOM     32  C   UNL     1     -35.766 -13.455  17.421  1.00  0.00     0.004 C 
ENDBRANCH  30  31
ENDBRANCH  29  30
ENDBRANCH  28  29
ENDBRANCH  27  28
ENDBRANCH  26  27
ENDBRANCH  25  26
ENDBRANCH  24  25
ENDBRANCH  23  24
ENDBRANCH  22  23
ENDBRANCH  21  22
ENDBRANCH  20  21
ENDBRANCH  19  20
ENDBRANCH  18  19
ENDBRANCH   1  18
TORSDOF 28
ENDMDL
MODEL 2
REMARK VINA RESULT:    -4.412      3.223      6.175
REMARK INTER + INTRA:         -16.144
REMARK INTER:                 -11.622
REMARK INTRA:                  -4.523
REMARK UNBOUND:                -4.511
REMARK SMILES CCCCCCCCCCCCCCCCCCCCCCCCCCCCCC(=O)[O-]
REMARK SMILES IDX 16 1 17 2 18 3 19 4 20 5 21 6 22 7 23 8 24 9 25 10 26 11
REMARK SMILES IDX 27 12 28 13 29 14 30 15 31 16 32 17 15 18 14 19 13 20 12 21
REMARK SMILES IDX 11 22 10 23 9 24 8 25 7 26 6 27 5 28 4 29 3 30 2 31 1 32
REMARK H PARENT
REMARK Flexibility Score: inf
ROOT
ATOM      1  C   UNL     1     -26.863 -16.338  17.660  1.00  0.00     0.000 C 
ENDROOT
BRANCH   1   2
ATOM      2  C   UNL     1     -25.871 -15.195  17.371  1.00  0.00     0.000 C 
BRANCH   2   3
ATOM      3  C   UNL     1     -26.291 -13.867  18.020  1.00  0.00     0.000 C 
BRANCH   3   4
ATOM      4  C   UNL     1     -25.665 -12.668  17.291  1.00  0.00     0.000 C 
BRANCH   4   5
ATOM      5  C   UNL     1     -26.723 -11.657  16.810  1.00  0.00     0.000 C 
BRANCH   5   6
ATOM      6  C   UNL     1     -27.917 -11.552  17.775  1.00  0.00     0.000 C 
BRANCH   6   7
ATOM      7  C   UNL     1     -29.273 -11.654  17.044  1.00  0.00     0.000 C 
BRANCH   7   8
ATOM      8  C   UNL     1     -29.595 -13.058  16.506  1.00  0.00     0.000 C 
BRANCH   8   9
ATOM      9  C   UNL     1     -29.840 -14.089  17.616  1.00  0.00     0.000 C 
BRANCH   9  10
ATOM     10  C   UNL     1     -31.240 -14.704  17.495  1.00  0.00     0.000 C 
BRANCH  10  11
ATOM     11  C   UNL     1     -32.331 -13.638  17.658  1.00  0.00     0.000 C 
BRANCH  11  12
ATOM     12  C   UNL     1     -33.582 -14.000  16.849  1.00  0.00     0.000 C 
BRANCH  12  13
ATOM     13  C   UNL     1     -33.265 -15.057  15.784  1.00  0.00     0.006 C 
BRANCH  13  14
ATOM     14  C   UNL     1     -34.521 -15.848  15.407  1.00  0.00     0.053 C 
BRANCH  14  15
ATOM     15  C   UNL     1     -34.812 -16.895  16.436  1.00  0.00     0.041 C 
ATOM     16  O   UNL     1     -33.897 -17.312  17.197  1.00  0.00    -0.550 OA
ATOM     17  O   UNL     1     -36.093 -17.422  16.547  1.00  0.00    -0.550 OA
ENDBRANCH  14  15
ENDBRANCH  13  14
ENDBRANCH  12  13
ENDBRANCH  11  12
ENDBRANCH  10  11
ENDBRANCH   9  10
ENDBRANCH   8   9
ENDBRANCH   7   8
ENDBRANCH   6   7
ENDBRANCH   5   6
ENDBRANCH   4   5
ENDBRANCH   3   4
ENDBRANCH   2   3
ENDBRANCH   1   2
BRANCH   1  18
ATOM     18  C   UNL     1     -26.237 -17.748  17.696  1.00  0.00     0.000 C 
BRANCH  18  19
ATOM     19  C   UNL     1     -27.249 -18.909  17.685  1.00  0.00     0.000 C 
BRANCH  19  20
ATOM     20  C   UNL     1     -27.008 -19.966  16.587  1.00  0.00     0.000 C 
BRANCH  20  21
ATOM     21  C   UNL     1     -26.924 -19.404  15.153  1.00  0.00     0.000 C 
BRANCH  21  22
ATOM     22  C   UNL     1     -26.070 -20.235  14.176  1.00  0.00     0.000 C 
BRANCH  22  23
ATOM     23  C   UNL     1     -26.371 -20.016  12.679  1.00  0.00     0.000 C 
BRANCH  23  24
ATOM     24  C   UNL     1     -27.723 -19.324  12.402  1.00  0.00    -0.000 C 
BRANCH  24  25
ATOM     25  C   UNL     1     -27.588 -18.068  11.521  1.00  0.00    -0.000 C 
BRANCH  25  26
ATOM     26  C   UNL     1     -28.606 -16.973  11.886  1.00  0.00    -0.000 C 
BRANCH  26  27
ATOM     27  C   UNL     1     -29.718 -17.474  12.821  1.00  0.00    -0.000 C 
BRANCH  27  28
ATOM     28  C   UNL     1     -29.939 -16.498  13.986  1.00  0.00    -0.000 C 
BRANCH  28  29
ATOM     29  C   UNL     1     -29.527 -17.093  15.344  1.00  0.00    -0.000 C 
BRANCH  29  30
ATOM     30  C   UNL     1     -30.667 -17.884  16.013  1.00  0.00    -0.000 C 
BRANCH  30  31
ATOM     31  C   UNL     1     -30.595 -19.390  15.711  1.00  0.00    -0.003 C 
ATOM     32  C   UNL     1     -31.976 -20.019  15.521  1.00  0.00     0.004 C 
ENDBRANCH  30  31
ENDBRANCH  29  30
ENDBRANCH  28  29
ENDBRANCH  27  28
ENDBRANCH  26  27
ENDBRANCH  25  26
ENDBRANCH  24  25
ENDBRANCH  23  24
ENDBRANCH  22  23
ENDBRANCH  21  22
ENDBRANCH  20  21
ENDBRANCH  19  20
ENDBRANCH  18  19
ENDBRANCH   1  18
TORSDOF 28
ENDMDL
MODEL 3
REMARK VINA RESULT:    -4.339      1.986      5.664
REMARK INTER + INTRA:         -15.954
REMARK INTER:                 -11.832
REMARK INTRA:                  -4.122
REMARK UNBOUND:                -4.511
REMARK SMILES CCCCCCCCCCCCCCCCCCCCCCCCCCCCCC(=O)[O-]
REMARK SMILES IDX 16 1 17 2 18 3 19 4 20 5 21 6 22 7 23 8 24 9 25 10 26 11
REMARK SMILES IDX 27 12 28 13 29 14 30 15 31 16 32 17 15 18 14 19 13 20 12 21
REMARK SMILES IDX 11 22 10 23 9 24 8 25 7 26 6 27 5 28 4 29 3 30 2 31 1 32
REMARK H PARENT
REMARK Flexibility Score: inf
ROOT
ATOM      1  C   UNL     1     -26.431 -14.013  18.033  1.00  0.00     0.000 C 
ENDROOT
BRANCH   1   2
ATOM      2  C   UNL     1     -26.051 -15.401  17.483  1.00  0.00     0.000 C 
BRANCH   2   3
ATOM      3  C   UNL     1     -27.273 -16.303  17.253  1.00  0.00     0.000 C 
BRANCH   3   4
ATOM      4  C   UNL     1     -26.859 -17.776  17.109  1.00  0.00     0.000 C 
BRANCH   4   5
ATOM      5  C   UNL     1     -25.492 -17.936  16.418  1.00  0.00     0.000 C 
BRANCH   5   6
ATOM      6  C   UNL     1     -24.688 -19.126  16.971  1.00  0.00     0.000 C 
BRANCH   6   7
ATOM      7  C   UNL     1     -25.598 -20.235  17.542  1.00  0.00     0.000 C 
BRANCH   7   8
ATOM      8  C   UNL     1     -25.861 -21.395  16.569  1.00  0.00     0.000 C 
BRANCH   8   9
ATOM      9  C   UNL     1     -24.854 -21.455  15.412  1.00  0.00     0.000 C 
BRANCH   9  10
ATOM     10  C   UNL     1     -25.517 -21.066  14.084  1.00  0.00     0.000 C 
BRANCH  10  11
ATOM     11  C   UNL     1     -26.945 -21.617  13.994  1.00  0.00     0.000 C 
BRANCH  11  12
ATOM     12  C   UNL     1     -27.034 -22.758  12.973  1.00  0.00     0.000 C 
BRANCH  12  13
ATOM     13  C   UNL     1     -26.221 -22.436  11.713  1.00  0.00     0.006 C 
BRANCH  13  14
ATOM     14  C   UNL     1     -27.055 -21.630  10.714  1.00  0.00     0.053 C 
BRANCH  14  15
ATOM     15  C   UNL     1     -26.227 -20.552  10.086  1.00  0.00     0.041 C 
ATOM     16  O   UNL     1     -25.447 -19.856  10.792  1.00  0.00    -0.550 OA
ATOM     17  O   UNL     1     -26.325 -20.306   8.722  1.00  0.00    -0.550 OA
ENDBRANCH  14  15
ENDBRANCH  13  14
ENDBRANCH  12  13
ENDBRANCH  11  12
ENDBRANCH  10  11
ENDBRANCH   9  10
ENDBRANCH   8   9
ENDBRANCH   7   8
ENDBRANCH   6   7
ENDBRANCH   5   6
ENDBRANCH   4   5
ENDBRANCH   3   4
ENDBRANCH   2   3
ENDBRANCH   1   2
BRANCH   1  18
ATOM     18  C   UNL     1     -25.266 -13.005  18.115  1.00  0.00     0.000 C 
BRANCH  18  19
ATOM     19  C   UNL     1     -25.457 -11.719  17.289  1.00  0.00     0.000 C 
BRANCH  19  20
ATOM     20  C   UNL     1     -26.849 -11.569  16.640  1.00  0.00     0.000 C 
BRANCH  20  21
ATOM     21  C   UNL     1     -27.823 -10.645  17.399  1.00  0.00     0.000 C 
BRANCH  21  22
ATOM     22  C   UNL     1     -29.264 -11.176  17.522  1.00  0.00     0.000 C 
BRANCH  22  23
ATOM     23  C   UNL     1     -29.619 -12.354  16.591  1.00  0.00     0.000 C 
BRANCH  23  24
ATOM     24  C   UNL     1     -29.964 -13.663  17.333  1.00  0.00    -0.000 C 
BRANCH  24  25
ATOM     25  C   UNL     1     -31.143 -14.424  16.697  1.00  0.00    -0.000 C 
BRANCH  25  26
ATOM     26  C   UNL     1     -30.734 -15.799  16.141  1.00  0.00    -0.000 C 
BRANCH  26  27
ATOM     27  C   UNL     1     -30.338 -15.753  14.657  1.00  0.00    -0.000 C 
BRANCH  27  28
ATOM     28  C   UNL     1     -30.611 -17.100  13.971  1.00  0.00    -0.000 C 
BRANCH  28  29
ATOM     29  C   UNL     1     -29.689 -18.222  14.481  1.00  0.00    -0.000 C 
BRANCH  29  30
ATOM     30  C   UNL     1     -28.300 -18.193  13.815  1.00  0.00    -0.000 C 
BRANCH  30  31
ATOM     31  C   UNL     1     -28.368 -18.443  12.299  1.00  0.00    -0.003 C 
ATOM     32  C   UNL     1     -28.188 -17.163  11.482  1.00  0.00     0.004 C 
ENDBRANCH  30  31
ENDBRANCH  29  30
ENDBRANCH  28  29
ENDBRANCH  27  28
ENDBRANCH  26  27
ENDBRANCH  25  26
ENDBRANCH  24  25
ENDBRANCH  23  24
ENDBRANCH  22  23
ENDBRANCH  21  22
ENDBRANCH  20  21
ENDBRANCH  19  20
ENDBRANCH  18  19
ENDBRANCH   1  18
TORSDOF 28
ENDMDL
MODEL 4
REMARK VINA RESULT:    -4.217      1.588      4.359
REMARK INTER + INTRA:         -15.632
REMARK INTER:                 -11.887
REMARK INTRA:                  -3.745
REMARK UNBOUND:                -4.511
REMARK SMILES CCCCCCCCCCCCCCCCCCCCCCCCCCCCCC(=O)[O-]
REMARK SMILES IDX 16 1 17 2 18 3 19 4 20 5 21 6 22 7 23 8 24 9 25 10 26 11
REMARK SMILES IDX 27 12 28 13 29 14 30 15 31 16 32 17 15 18 14 19 13 20 12 21
REMARK SMILES IDX 11 22 10 23 9 24 8 25 7 26 6 27 5 28 4 29 3 30 2 31 1 32
REMARK H PARENT
REMARK Flexibility Score: inf
ROOT
ATOM      1  C   UNL     1     -26.183 -13.971  18.125  1.00  0.00     0.000 C 
ENDROOT
BRANCH   1   2
ATOM      2  C   UNL     1     -25.852 -15.435  17.778  1.00  0.00     0.000 C 
BRANCH   2   3
ATOM      3  C   UNL     1     -27.096 -16.336  17.758  1.00  0.00     0.000 C 
BRANCH   3   4
ATOM      4  C   UNL     1     -27.035 -17.346  16.602  1.00  0.00     0.000 C 
BRANCH   4   5
ATOM      5  C   UNL     1     -28.424 -17.641  16.007  1.00  0.00     0.000 C 
BRANCH   5   6
ATOM      6  C   UNL     1     -28.385 -18.751  14.942  1.00  0.00     0.000 C 
BRANCH   6   7
ATOM      7  C   UNL     1     -29.028 -18.310  13.610  1.00  0.00     0.000 C 
BRANCH   7   8
ATOM      8  C   UNL     1     -28.025 -18.113  12.461  1.00  0.00     0.000 C 
BRANCH   8   9
ATOM      9  C   UNL     1     -26.677 -18.805  12.710  1.00  0.00     0.000 C 
BRANCH   9  10
ATOM     10  C   UNL     1     -26.562 -20.096  11.889  1.00  0.00     0.000 C 
BRANCH  10  11
ATOM     11  C   UNL     1     -25.543 -19.944  10.753  1.00  0.00     0.000 C 
BRANCH  11  12
ATOM     12  C   UNL     1     -26.184 -20.242   9.393  1.00  0.00     0.000 C 
BRANCH  12  13
ATOM     13  C   UNL     1     -27.648 -20.670   9.553  1.00  0.00     0.006 C 
BRANCH  13  14
ATOM     14  C   UNL     1     -27.934 -21.949   8.762  1.00  0.00     0.053 C 
BRANCH  14  15
ATOM     15  C   UNL     1     -27.202 -23.112   9.358  1.00  0.00     0.041 C 
ATOM     16  O   UNL     1     -27.636 -23.670  10.402  1.00  0.00    -0.550 OA
ATOM     17  O   UNL     1     -26.031 -23.573   8.768  1.00  0.00    -0.550 OA
ENDBRANCH  14  15
ENDBRANCH  13  14
ENDBRANCH  12  13
ENDBRANCH  11  12
ENDBRANCH  10  11
ENDBRANCH   9  10
ENDBRANCH   8   9
ENDBRANCH   7   8
ENDBRANCH   6   7
ENDBRANCH   5   6
ENDBRANCH   4   5
ENDBRANCH   3   4
ENDBRANCH   2   3
ENDBRANCH   1   2
BRANCH   1  18
ATOM     18  C   UNL     1     -25.531 -12.920  17.203  1.00  0.00     0.000 C 
BRANCH  18  19
ATOM     19  C   UNL     1     -26.124 -11.503  17.308  1.00  0.00     0.000 C 
BRANCH  19  20
ATOM     20  C   UNL     1     -27.511 -11.333  16.655  1.00  0.00     0.000 C 
BRANCH  20  21
ATOM     21  C   UNL     1     -28.689 -11.233  17.647  1.00  0.00     0.000 C 
BRANCH  21  22
ATOM     22  C   UNL     1     -29.850 -12.209  17.381  1.00  0.00     0.000 C 
BRANCH  22  23
ATOM     23  C   UNL     1     -29.688 -13.112  16.140  1.00  0.00     0.000 C 
BRANCH  23  24
ATOM     24  C   UNL     1     -30.276 -14.529  16.310  1.00  0.00    -0.000 C 
BRANCH  24  25
ATOM     25  C   UNL     1     -30.834 -15.112  14.998  1.00  0.00    -0.000 C 
BRANCH  25  26
ATOM     26  C   UNL     1     -31.717 -16.351  15.225  1.00  0.00    -0.000 C 
BRANCH  26  27
ATOM     27  C   UNL     1     -32.010 -16.616  16.710  1.00  0.00    -0.000 C 
BRANCH  27  28
ATOM     28  C   UNL     1     -33.476 -17.026  16.918  1.00  0.00    -0.000 C 
BRANCH  28  29
ATOM     29  C   UNL     1     -34.214 -16.108  17.908  1.00  0.00    -0.000 C 
BRANCH  29  30
ATOM     30  C   UNL     1     -33.873 -14.621  17.701  1.00  0.00    -0.000 C 
BRANCH  30  31
ATOM     31  C   UNL     1     -34.814 -13.935  16.696  1.00  0.00    -0.003 C 
ATOM     32  C   UNL     1     -34.110 -13.562  15.392  1.00  0.00     0.004 C 
ENDBRANCH  30  31
ENDBRANCH  29  30
ENDBRANCH  28  29
ENDBRANCH  27  28
ENDBRANCH  26  27
ENDBRANCH  25  26
ENDBRANCH  24  25
ENDBRANCH  23  24
ENDBRANCH  22  23
ENDBRANCH  21  22
ENDBRANCH  20  21
ENDBRANCH  19  20
ENDBRANCH  18  19
ENDBRANCH   1  18
TORSDOF 28
ENDMDL
MODEL 5
REMARK VINA RESULT:    -4.211      1.648      4.867
REMARK INTER + INTRA:         -15.615
REMARK INTER:                 -12.045
REMARK INTRA:                  -3.569
REMARK UNBOUND:                -4.511
REMARK SMILES CCCCCCCCCCCCCCCCCCCCCCCCCCCCCC(=O)[O-]
REMARK SMILES IDX 16 1 17 2 18 3 19 4 20 5 21 6 22 7 23 8 24 9 25 10 26 11
REMARK SMILES IDX 27 12 28 13 29 14 30 15 31 16 32 17 15 18 14 19 13 20 12 21
REMARK SMILES IDX 11 22 10 23 9 24 8 25 7 26 6 27 5 28 4 29 3 30 2 31 1 32
REMARK H PARENT
REMARK Flexibility Score: inf
ROOT
ATOM      1  C   UNL     1     -26.950 -14.149  18.125  1.00  0.00     0.000 C 
ENDROOT
BRANCH   1   2
ATOM      2  C   UNL     1     -27.297 -15.478  17.428  1.00  0.00     0.000 C 
BRANCH   2   3
ATOM      3  C   UNL     1     -26.050 -16.275  17.016  1.00  0.00     0.000 C 
BRANCH   3   4
ATOM      4  C   UNL     1     -26.403 -17.736  16.696  1.00  0.00     0.000 C 
BRANCH   4   5
ATOM      5  C   UNL     1     -27.916 -17.946  16.507  1.00  0.00     0.000 C 
BRANCH   5   6
ATOM      6  C   UNL     1     -28.274 -19.413  16.209  1.00  0.00     0.000 C 
BRANCH   6   7
ATOM      7  C   UNL     1     -28.309 -19.713  14.695  1.00  0.00     0.000 C 
BRANCH   7   8
ATOM      8  C   UNL     1     -28.852 -18.560  13.836  1.00  0.00     0.000 C 
BRANCH   8   9
ATOM      9  C   UNL     1     -27.882 -18.119  12.730  1.00  0.00     0.000 C 
BRANCH   9  10
ATOM     10  C   UNL     1     -26.577 -18.924  12.791  1.00  0.00     0.000 C 
BRANCH  10  11
ATOM     11  C   UNL     1     -26.107 -19.327  11.388  1.00  0.00     0.000 C 
BRANCH  11  12
ATOM     12  C   UNL     1     -27.245 -19.203  10.368  1.00  0.00     0.000 C 
BRANCH  12  13
ATOM     13  C   UNL     1     -27.294 -20.426   9.443  1.00  0.00     0.006 C 
BRANCH  13  14
ATOM     14  C   UNL     1     -27.508 -21.712  10.246  1.00  0.00     0.053 C 
BRANCH  14  15
ATOM     15  C   UNL     1     -28.043 -22.799   9.366  1.00  0.00     0.041 C 
ATOM     16  O   UNL     1     -29.274 -22.855   9.102  1.00  0.00    -0.550 OA
ATOM     17  O   UNL     1     -27.182 -23.759   8.848  1.00  0.00    -0.550 OA
ENDBRANCH  14  15
ENDBRANCH  13  14
ENDBRANCH  12  13
ENDBRANCH  11  12
ENDBRANCH  10  11
ENDBRANCH   9  10
ENDBRANCH   8   9
ENDBRANCH   7   8
ENDBRANCH   6   7
ENDBRANCH   5   6
ENDBRANCH   4   5
ENDBRANCH   3   4
ENDBRANCH   2   3
ENDBRANCH   1   2
BRANCH   1  18
ATOM     18  C   UNL     1     -25.548 -13.591  17.800  1.00  0.00     0.000 C 
BRANCH  18  19
ATOM     19  C   UNL     1     -25.522 -12.117  17.352  1.00  0.00     0.000 C 
BRANCH  19  20
ATOM     20  C   UNL     1     -26.810 -11.630  16.656  1.00  0.00     0.000 C 
BRANCH  20  21
ATOM     21  C   UNL     1     -27.654 -10.632  17.476  1.00  0.00     0.000 C 
BRANCH  21  22
ATOM     22  C   UNL     1     -29.173 -10.883  17.446  1.00  0.00     0.000 C 
BRANCH  22  23
ATOM     23  C   UNL     1     -29.628 -12.110  16.628  1.00  0.00     0.000 C 
BRANCH  23  24
ATOM     24  C   UNL     1     -30.438 -13.143  17.439  1.00  0.00    -0.000 C 
BRANCH  24  25
ATOM     25  C   UNL     1     -30.800 -14.399  16.624  1.00  0.00    -0.000 C 
BRANCH  25  26
ATOM     26  C   UNL     1     -32.157 -14.275  15.910  1.00  0.00    -0.000 C 
BRANCH  26  27
ATOM     27  C   UNL     1     -33.326 -14.827  16.740  1.00  0.00    -0.000 C 
BRANCH  27  28
ATOM     28  C   UNL     1     -33.347 -16.363  16.710  1.00  0.00    -0.000 C 
BRANCH  28  29
ATOM     29  C   UNL     1     -32.483 -16.990  17.819  1.00  0.00    -0.000 C 
BRANCH  29  30
ATOM     30  C   UNL     1     -31.585 -18.127  17.297  1.00  0.00    -0.000 C 
BRANCH  30  31
ATOM     31  C   UNL     1     -32.392 -19.358  16.854  1.00  0.00    -0.003 C 
ATOM     32  C   UNL     1     -31.954 -19.890  15.490  1.00  0.00     0.004 C 
ENDBRANCH  30  31
ENDBRANCH  29  30
ENDBRANCH  28  29
ENDBRANCH  27  28
ENDBRANCH  26  27
ENDBRANCH  25  26
ENDBRANCH  24  25
ENDBRANCH  23  24
ENDBRANCH  22  23
ENDBRANCH  21  22
ENDBRANCH  20  21
ENDBRANCH  19  20
ENDBRANCH  18  19
ENDBRANCH   1  18
TORSDOF 28
ENDMDL
MODEL 6
REMARK VINA RESULT:    -4.188      2.908      6.453
REMARK INTER + INTRA:         -15.554
REMARK INTER:                 -12.534
REMARK INTRA:                  -3.020
REMARK UNBOUND:                -4.511
REMARK SMILES CCCCCCCCCCCCCCCCCCCCCCCCCCCCCC(=O)[O-]
REMARK SMILES IDX 16 1 17 2 18 3 19 4 20 5 21 6 22 7 23 8 24 9 25 10 26 11
REMARK SMILES IDX 27 12 28 13 29 14 30 15 31 16 32 17 15 18 14 19 13 20 12 21
REMARK SMILES IDX 11 22 10 23 9 24 8 25 7 26 6 27 5 28 4 29 3 30 2 31 1 32
REMARK H PARENT
REMARK Flexibility Score: inf
ROOT
ATOM      1  C   UNL     1     -28.928 -16.597  15.594  1.00  0.00     0.000 C 
ENDROOT
BRANCH   1   2
ATOM      2  C   UNL     1     -29.743 -17.657  14.829  1.00  0.00     0.000 C 
BRANCH   2   3
ATOM      3  C   UNL     1     -29.823 -17.370  13.322  1.00  0.00     0.000 C 
BRANCH   3   4
ATOM      4  C   UNL     1     -28.510 -17.742  12.614  1.00  0.00     0.000 C 
BRANCH   4   5
ATOM      5  C   UNL     1     -27.796 -18.928  13.287  1.00  0.00     0.000 C 
BRANCH   5   6
ATOM      6  C   UNL     1     -27.312 -19.977  12.271  1.00  0.00     0.000 C 
BRANCH   6   7
ATOM      7  C   UNL     1     -26.010 -19.549  11.559  1.00  0.00     0.000 C 
BRANCH   7   8
ATOM      8  C   UNL     1     -26.089 -19.590  10.025  1.00  0.00     0.000 C 
BRANCH   8   9
ATOM      9  C   UNL     1     -27.385 -20.225   9.502  1.00  0.00     0.000 C 
BRANCH   9  10
ATOM     10  C   UNL     1     -27.134 -21.649   8.991  1.00  0.00     0.000 C 
BRANCH  10  11
ATOM     11  C   UNL     1     -27.993 -22.670   9.746  1.00  0.00     0.000 C 
BRANCH  11  12
ATOM     12  C   UNL     1     -28.848 -23.496   8.778  1.00  0.00     0.000 C 
BRANCH  12  13
ATOM     13  C   UNL     1     -29.794 -22.598   7.971  1.00  0.00     0.006 C 
BRANCH  13  14
ATOM     14  C   UNL     1     -29.602 -22.811   6.468  1.00  0.00     0.053 C 
BRANCH  14  15
ATOM     15  C   UNL     1     -30.888 -22.581   5.735  1.00  0.00     0.041 C 
ATOM     16  O   UNL     1     -31.788 -23.464   5.736  1.00  0.00    -0.550 OA
ATOM     17  O   UNL     1     -31.088 -21.395   5.039  1.00  0.00    -0.550 OA
ENDBRANCH  14  15
ENDBRANCH  13  14
ENDBRANCH  12  13
ENDBRANCH  11  12
ENDBRANCH  10  11
ENDBRANCH   9  10
ENDBRANCH   8   9
ENDBRANCH   7   8
ENDBRANCH   6   7
ENDBRANCH   5   6
ENDBRANCH   4   5
ENDBRANCH   3   4
ENDBRANCH   2   3
ENDBRANCH   1   2
BRANCH   1  18
ATOM     18  C   UNL     1     -28.606 -16.957  17.060  1.00  0.00     0.000 C 
BRANCH  18  19
ATOM     19  C   UNL     1     -27.931 -15.836  17.872  1.00  0.00     0.000 C 
BRANCH  19  20
ATOM     20  C   UNL     1     -26.430 -15.637  17.575  1.00  0.00     0.000 C 
BRANCH  20  21
ATOM     21  C   UNL     1     -25.837 -14.309  18.087  1.00  0.00     0.000 C 
BRANCH  21  22
ATOM     22  C   UNL     1     -25.600 -13.239  17.005  1.00  0.00     0.000 C 
BRANCH  22  23
ATOM     23  C   UNL     1     -25.592 -11.779  17.504  1.00  0.00     0.000 C 
BRANCH  23  24
ATOM     24  C   UNL     1     -26.858 -10.978  17.134  1.00  0.00    -0.000 C 
BRANCH  24  25
ATOM     25  C   UNL     1     -28.126 -11.496  17.838  1.00  0.00    -0.000 C 
BRANCH  25  26
ATOM     26  C   UNL     1     -29.344 -11.560  16.900  1.00  0.00    -0.000 C 
BRANCH  26  27
ATOM     27  C   UNL     1     -29.830 -12.996  16.646  1.00  0.00    -0.000 C 
BRANCH  27  28
ATOM     28  C   UNL     1     -30.953 -13.379  17.621  1.00  0.00    -0.000 C 
BRANCH  28  29
ATOM     29  C   UNL     1     -31.613 -14.724  17.267  1.00  0.00    -0.000 C 
BRANCH  29  30
ATOM     30  C   UNL     1     -32.199 -14.738  15.843  1.00  0.00    -0.000 C 
BRANCH  30  31
ATOM     31  C   UNL     1     -32.986 -16.025  15.543  1.00  0.00    -0.003 C 
ATOM     32  C   UNL     1     -34.500 -15.812  15.584  1.00  0.00     0.004 C 
ENDBRANCH  30  31
ENDBRANCH  29  30
ENDBRANCH  28  29
ENDBRANCH  27  28
ENDBRANCH  26  27
ENDBRANCH  25  26
ENDBRANCH  24  25
ENDBRANCH  23  24
ENDBRANCH  22  23
ENDBRANCH  21  22
ENDBRANCH  20  21
ENDBRANCH  19  20
ENDBRANCH  18  19
ENDBRANCH   1  18
TORSDOF 28
ENDMDL
MODEL 7
REMARK VINA RESULT:    -4.139      4.160      8.923
REMARK INTER + INTRA:         -15.425
REMARK INTER:                 -12.684
REMARK INTRA:                  -2.741
REMARK UNBOUND:                -4.511
REMARK SMILES CCCCCCCCCCCCCCCCCCCCCCCCCCCCCC(=O)[O-]
REMARK SMILES IDX 16 1 17 2 18 3 19 4 20 5 21 6 22 7 23 8 24 9 25 10 26 11
REMARK SMILES IDX 27 12 28 13 29 14 30 15 31 16 32 17 15 18 14 19 13 20 12 21
REMARK SMILES IDX 11 22 10 23 9 24 8 25 7 26 6 27 5 28 4 29 3 30 2 31 1 32
REMARK H PARENT
REMARK Flexibility Score: inf
ROOT
ATOM      1  C   UNL     1     -28.838 -17.055  15.499  1.00  0.00     0.000 C 
ENDROOT
BRANCH   1   2
ATOM      2  C   UNL     1     -27.990 -17.709  16.606  1.00  0.00     0.000 C 
BRANCH   2   3
ATOM      3  C   UNL     1     -27.820 -16.803  17.836  1.00  0.00     0.000 C 
BRANCH   3   4
ATOM      4  C   UNL     1     -26.336 -16.516  18.115  1.00  0.00     0.000 C 
BRANCH   4   5
ATOM      5  C   UNL     1     -25.824 -15.282  17.350  1.00  0.00     0.000 C 
BRANCH   5   6
ATOM      6  C   UNL     1     -26.268 -13.960  18.002  1.00  0.00     0.000 C 
BRANCH   6   7
ATOM      7  C   UNL     1     -25.139 -12.908  18.024  1.00  0.00     0.000 C 
BRANCH   7   8
ATOM      8  C   UNL     1     -25.501 -11.580  17.339  1.00  0.00     0.000 C 
BRANCH   8   9
ATOM      9  C   UNL     1     -26.844 -11.630  16.595  1.00  0.00     0.000 C 
BRANCH   9  10
ATOM     10  C   UNL     1     -27.874 -10.707  17.258  1.00  0.00     0.000 C 
BRANCH  10  11
ATOM     11  C   UNL     1     -29.122 -11.487  17.690  1.00  0.00     0.000 C 
BRANCH  11  12
ATOM     12  C   UNL     1     -29.673 -12.331  16.536  1.00  0.00     0.000 C 
BRANCH  12  13
ATOM     13  C   UNL     1     -29.723 -13.817  16.911  1.00  0.00     0.006 C 
BRANCH  13  14
ATOM     14  C   UNL     1     -31.139 -14.233  17.315  1.00  0.00     0.053 C 
BRANCH  14  15
ATOM     15  C   UNL     1     -32.025 -14.327  16.112  1.00  0.00     0.041 C 
ATOM     16  O   UNL     1     -31.659 -14.990  15.103  1.00  0.00    -0.550 OA
ATOM     17  O   UNL     1     -33.250 -13.672  16.098  1.00  0.00    -0.550 OA
ENDBRANCH  14  15
ENDBRANCH  13  14
ENDBRANCH  12  13
ENDBRANCH  11  12
ENDBRANCH  10  11
ENDBRANCH   9  10
ENDBRANCH   8   9
ENDBRANCH   7   8
ENDBRANCH   6   7
ENDBRANCH   5   6
ENDBRANCH   4   5
ENDBRANCH   3   4
ENDBRANCH   2   3
ENDBRANCH   1   2
BRANCH   1  18
ATOM     18  C   UNL     1     -29.352 -18.025  14.415  1.00  0.00     0.000 C 
BRANCH  18  19
ATOM     19  C   UNL     1     -29.873 -17.351  13.131  1.00  0.00     0.000 C 
BRANCH  19  20
ATOM     20  C   UNL     1     -28.855 -17.292  11.974  1.00  0.00     0.000 C 
BRANCH  20  21
ATOM     21  C   UNL     1     -27.609 -18.183  12.158  1.00  0.00     0.000 C 
BRANCH  21  22
ATOM     22  C   UNL     1     -27.460 -19.318  11.127  1.00  0.00     0.000 C 
BRANCH  22  23
ATOM     23  C   UNL     1     -26.999 -20.676  11.696  1.00  0.00     0.000 C 
BRANCH  23  24
ATOM     24  C   UNL     1     -26.839 -21.783  10.632  1.00  0.00    -0.000 C 
BRANCH  24  25
ATOM     25  C   UNL     1     -27.136 -21.294   9.202  1.00  0.00    -0.000 C 
BRANCH  25  26
ATOM     26  C   UNL     1     -28.446 -21.868   8.636  1.00  0.00    -0.000 C 
BRANCH  26  27
ATOM     27  C   UNL     1     -28.812 -23.234   9.238  1.00  0.00    -0.000 C 
BRANCH  27  28
ATOM     28  C   UNL     1     -29.583 -24.094   8.225  1.00  0.00    -0.000 C 
BRANCH  28  29
ATOM     29  C   UNL     1     -30.855 -23.400   7.706  1.00  0.00    -0.000 C 
BRANCH  29  30
ATOM     30  C   UNL     1     -31.696 -24.312   6.793  1.00  0.00    -0.000 C 
BRANCH  30  31
ATOM     31  C   UNL     1     -30.827 -25.194   5.881  1.00  0.00    -0.003 C 
ATOM     32  C   UNL     1     -30.375 -24.466   4.615  1.00  0.00     0.004 C 
ENDBRANCH  30  31
ENDBRANCH  29  30
ENDBRANCH  28  29
ENDBRANCH  27  28
ENDBRANCH  26  27
ENDBRANCH  25  26
ENDBRANCH  24  25
ENDBRANCH  23  24
ENDBRANCH  22  23
ENDBRANCH  21  22
ENDBRANCH  20  21
ENDBRANCH  19  20
ENDBRANCH  18  19
ENDBRANCH   1  18
TORSDOF 28
ENDMDL
MODEL 8
REMARK VINA RESULT:    -4.103      2.721      7.298
REMARK INTER + INTRA:         -15.331
REMARK INTER:                 -11.731
REMARK INTRA:                  -3.601
REMARK UNBOUND:                -4.511
REMARK SMILES CCCCCCCCCCCCCCCCCCCCCCCCCCCCCC(=O)[O-]
REMARK SMILES IDX 16 1 17 2 18 3 19 4 20 5 21 6 22 7 23 8 24 9 25 10 26 11
REMARK SMILES IDX 27 12 28 13 29 14 30 15 31 16 32 17 15 18 14 19 13 20 12 21
REMARK SMILES IDX 11 22 10 23 9 24 8 25 7 26 6 27 5 28 4 29 3 30 2 31 1 32
REMARK H PARENT
REMARK Flexibility Score: inf
ROOT
ATOM      1  C   UNL     1     -31.072 -14.170  16.778  1.00  0.00     0.000 C 
ENDROOT
BRANCH   1   2
ATOM      2  C   UNL     1     -29.870 -13.243  16.516  1.00  0.00     0.000 C 
BRANCH   2   3
ATOM      3  C   UNL     1     -29.711 -12.158  17.592  1.00  0.00     0.000 C 
BRANCH   3   4
ATOM      4  C   UNL     1     -28.847 -10.993  17.086  1.00  0.00     0.000 C 
BRANCH   4   5
ATOM      5  C   UNL     1     -27.447 -10.980  17.728  1.00  0.00     0.000 C 
BRANCH   5   6
ATOM      6  C   UNL     1     -26.343 -11.394  16.739  1.00  0.00     0.000 C 
BRANCH   6   7
ATOM      7  C   UNL     1     -25.478 -12.553  17.277  1.00  0.00     0.000 C 
BRANCH   7   8
ATOM      8  C   UNL     1     -26.276 -13.659  17.987  1.00  0.00     0.000 C 
BRANCH   8   9
ATOM      9  C   UNL     1     -26.018 -15.058  17.408  1.00  0.00     0.000 C 
BRANCH   9  10
ATOM     10  C   UNL     1     -27.095 -16.049  17.866  1.00  0.00     0.000 C 
BRANCH  10  11
ATOM     11  C   UNL     1     -27.989 -16.478  16.695  1.00  0.00     0.000 C 
BRANCH  11  12
ATOM     12  C   UNL     1     -27.660 -17.905  16.242  1.00  0.00     0.000 C 
BRANCH  12  13
ATOM     13  C   UNL     1     -28.810 -18.867  16.566  1.00  0.00     0.006 C 
BRANCH  13  14
ATOM     14  C   UNL     1     -28.887 -19.994  15.533  1.00  0.00     0.053 C 
BRANCH  14  15
ATOM     15  C   UNL     1     -28.251 -21.241  16.065  1.00  0.00     0.041 C 
ATOM     16  O   UNL     1     -28.250 -22.298  15.378  1.00  0.00    -0.550 OA
ATOM     17  O   UNL     1     -27.670 -21.240  17.327  1.00  0.00    -0.550 OA
ENDBRANCH  14  15
ENDBRANCH  13  14
ENDBRANCH  12  13
ENDBRANCH  11  12
ENDBRANCH  10  11
ENDBRANCH   9  10
ENDBRANCH   8   9
ENDBRANCH   7   8
ENDBRANCH   6   7
ENDBRANCH   5   6
ENDBRANCH   4   5
ENDBRANCH   3   4
ENDBRANCH   2   3
ENDBRANCH   1   2
BRANCH   1  18
ATOM     18  C   UNL     1     -31.714 -14.776  15.513  1.00  0.00     0.000 C 
BRANCH  18  19
ATOM     19  C   UNL     1     -30.746 -15.553  14.600  1.00  0.00     0.000 C 
BRANCH  19  20
ATOM     20  C   UNL     1     -31.144 -17.019  14.334  1.00  0.00     0.000 C 
BRANCH  20  21
ATOM     21  C   UNL     1     -30.314 -17.732  13.247  1.00  0.00     0.000 C 
BRANCH  21  22
ATOM     22  C   UNL     1     -29.107 -16.933  12.719  1.00  0.00     0.000 C 
BRANCH  22  23
ATOM     23  C   UNL     1     -28.166 -17.702  11.768  1.00  0.00     0.000 C 
BRANCH  23  24
ATOM     24  C   UNL     1     -27.160 -18.626  12.487  1.00  0.00    -0.000 C 
BRANCH  24  25
ATOM     25  C   UNL     1     -27.344 -20.112  12.130  1.00  0.00    -0.000 C 
BRANCH  25  26
ATOM     26  C   UNL     1     -27.047 -20.410  10.650  1.00  0.00    -0.000 C 
BRANCH  26  27
ATOM     27  C   UNL     1     -26.452 -21.810  10.427  1.00  0.00    -0.000 C 
BRANCH  27  28
ATOM     28  C   UNL     1     -27.455 -22.728   9.712  1.00  0.00    -0.000 C 
BRANCH  28  29
ATOM     29  C   UNL     1     -28.475 -21.946   8.866  1.00  0.00    -0.000 C 
BRANCH  29  30
ATOM     30  C   UNL     1     -29.744 -22.765   8.564  1.00  0.00    -0.000 C 
BRANCH  30  31
ATOM     31  C   UNL     1     -30.008 -22.907   7.056  1.00  0.00    -0.003 C 
ATOM     32  C   UNL     1     -28.747 -23.267   6.269  1.00  0.00     0.004 C 
ENDBRANCH  30  31
ENDBRANCH  29  30
ENDBRANCH  28  29
ENDBRANCH  27  28
ENDBRANCH  26  27
ENDBRANCH  25  26
ENDBRANCH  24  25
ENDBRANCH  23  24
ENDBRANCH  22  23
ENDBRANCH  21  22
ENDBRANCH  20  21
ENDBRANCH  19  20
ENDBRANCH  18  19
ENDBRANCH   1  18
TORSDOF 28
ENDMDL
MODEL 9
REMARK VINA RESULT:    -4.013      2.649      6.365
REMARK INTER + INTRA:         -15.092
REMARK INTER:                 -10.935
REMARK INTRA:                  -4.157
REMARK UNBOUND:                -4.511
REMARK SMILES CCCCCCCCCCCCCCCCCCCCCCCCCCCCCC(=O)[O-]
REMARK SMILES IDX 16 1 17 2 18 3 19 4 20 5 21 6 22 7 23 8 24 9 25 10 26 11
REMARK SMILES IDX 27 12 28 13 29 14 30 15 31 16 32 17 15 18 14 19 13 20 12 21
REMARK SMILES IDX 11 22 10 23 9 24 8 25 7 26 6 27 5 28 4 29 3 30 2 31 1 32
REMARK H PARENT
REMARK Flexibility Score: inf
ROOT
ATOM      1  C   UNL     1     -30.087 -12.507  16.639  1.00  0.00     0.000 C 
ENDROOT
BRANCH   1   2
ATOM      2  C   UNL     1     -29.044 -11.631  17.357  1.00  0.00     0.000 C 
BRANCH   2   3
ATOM      3  C   UNL     1     -27.636 -11.774  16.758  1.00  0.00     0.000 C 
BRANCH   3   4
ATOM      4  C   UNL     1     -26.673 -12.441  17.753  1.00  0.00     0.000 C 
BRANCH   4   5
ATOM      5  C   UNL     1     -27.079 -13.889  18.081  1.00  0.00     0.000 C 
BRANCH   5   6
ATOM      6  C   UNL     1     -25.878 -14.851  18.083  1.00  0.00     0.000 C 
BRANCH   6   7
ATOM      7  C   UNL     1     -26.205 -16.201  17.408  1.00  0.00     0.000 C 
BRANCH   7   8
ATOM      8  C   UNL     1     -27.674 -16.352  16.981  1.00  0.00     0.000 C 
BRANCH   8   9
ATOM      9  C   UNL     1     -28.150 -17.811  16.960  1.00  0.00     0.000 C 
BRANCH   9  10
ATOM     10  C   UNL     1     -26.993 -18.763  16.631  1.00  0.00     0.000 C 
BRANCH  10  11
ATOM     11  C   UNL     1     -27.513 -20.131  16.171  1.00  0.00     0.000 C 
BRANCH  11  12
ATOM     12  C   UNL     1     -28.869 -20.450  16.809  1.00  0.00     0.000 C 
BRANCH  12  13
ATOM     13  C   UNL     1     -29.703 -21.368  15.906  1.00  0.00     0.006 C 
BRANCH  13  14
ATOM     14  C   UNL     1     -29.494 -22.838  16.277  1.00  0.00     0.053 C 
BRANCH  14  15
ATOM     15  C   UNL     1     -30.345 -23.724  15.421  1.00  0.00     0.041 C 
ATOM     16  O   UNL     1     -31.507 -23.362  15.089  1.00  0.00    -0.550 OA
ATOM     17  O   UNL     1     -29.860 -24.956  14.999  1.00  0.00    -0.550 OA
ENDBRANCH  14  15
ENDBRANCH  13  14
ENDBRANCH  12  13
ENDBRANCH  11  12
ENDBRANCH  10  11
ENDBRANCH   9  10
ENDBRANCH   8   9
ENDBRANCH   7   8
ENDBRANCH   6   7
ENDBRANCH   5   6
ENDBRANCH   4   5
ENDBRANCH   3   4
ENDBRANCH   2   3
ENDBRANCH   1   2
BRANCH   1  18
ATOM     18  C   UNL     1     -30.914 -13.423  17.565  1.00  0.00     0.000 C 
BRANCH  18  19
ATOM     19  C   UNL     1     -30.665 -14.932  17.380  1.00  0.00     0.000 C 
BRANCH  19  20
ATOM     20  C   UNL     1     -31.803 -15.842  17.888  1.00  0.00     0.000 C 
BRANCH  20  21
ATOM     21  C   UNL     1     -32.537 -16.638  16.790  1.00  0.00     0.000 C 
BRANCH  21  22
ATOM     22  C   UNL     1     -32.000 -18.061  16.544  1.00  0.00     0.000 C 
BRANCH  22  23
ATOM     23  C   UNL     1     -31.408 -18.314  15.142  1.00  0.00     0.000 C 
BRANCH  23  24
ATOM     24  C   UNL     1     -31.303 -17.049  14.264  1.00  0.00    -0.000 C 
BRANCH  24  25
ATOM     25  C   UNL     1     -29.850 -16.673  13.920  1.00  0.00    -0.000 C 
BRANCH  25  26
ATOM     26  C   UNL     1     -29.269 -17.525  12.778  1.00  0.00    -0.000 C 
BRANCH  26  27
ATOM     27  C   UNL     1     -27.883 -18.103  13.105  1.00  0.00    -0.000 C 
BRANCH  27  28
ATOM     28  C   UNL     1     -27.650 -19.429  12.366  1.00  0.00    -0.000 C 
BRANCH  28  29
ATOM     29  C   UNL     1     -26.204 -19.580  11.860  1.00  0.00    -0.000 C 
BRANCH  29  30
ATOM     30  C   UNL     1     -26.115 -19.591  10.322  1.00  0.00    -0.000 C 
BRANCH  30  31
ATOM     31  C   UNL     1     -27.408 -20.095   9.661  1.00  0.00    -0.003 C 
ATOM     32  C   UNL     1     -27.524 -21.620   9.679  1.00  0.00     0.004 C 
ENDBRANCH  30  31
ENDBRANCH  29  30
ENDBRANCH  28  29
ENDBRANCH  27  28
ENDBRANCH  26  27
ENDBRANCH  25  26
ENDBRANCH  24  25
ENDBRANCH  23  24
ENDBRANCH  22  23
ENDBRANCH  21  22
ENDBRANCH  20  21
ENDBRANCH  19  20
ENDBRANCH  18  19
ENDBRANCH   1  18
TORSDOF 28
ENDMDL
