MODEL 1
REMARK VINA RESULT:   148.950      0.000      0.000
REMARK INTER + INTRA:         161.787
REMARK INTER:                 162.012
REMARK INTRA:                  -0.224
REMARK UNBOUND:                -0.224
REMARK SMILES CC1(C)CC[C@@]2(C(=O)[O-])CC[C@]3(C)C(=CC[C@H]4[C@]5(C)CC[C@@H](O)C(C)(C)[C@H]5CC[C@@]43C)[C@H]2C1
REMARK SMILES IDX 6 1 5 2 10 3 32 4 4 5 11 6 14 7 33 8 2 9 12 10 15 11 1 12
REMARK SMILES IDX 3 13 13 14 30 15 16 16 17 17 29 18 31 19 18 20 28 21 27 22
REMARK SMILES IDX 20 23 19 24 24 25 21 26 22 27 25 28 26 29 7 30 8 31 9 32
REMARK SMILES IDX 23 33
REMARK H PARENT 23 34
REMARK Flexibility Score: inf
ROOT
ATOM      1  C   UNL     1       3.702  -5.150  17.882  1.00  0.00     0.017 C 
ATOM      2  C   UNL     1       4.867  -4.835  18.899  1.00  0.00     0.014 C 
ATOM      3  C   UNL     1       2.789  -3.868  17.754  1.00  0.00     0.014 C 
ATOM      4  C   UNL     1       4.297  -5.601  16.488  1.00  0.00     0.028 C 
ATOM      5  C   UNL     1       6.148  -5.624  18.604  1.00  0.00     0.007 C 
ATOM      6  C   UNL     1       2.393  -3.427  16.325  1.00  0.00     0.013 C 
ATOM      7  C   UNL     1       3.347  -5.480  15.286  1.00  0.00    -0.064 C 
ATOM      8  C   UNL     1       5.621  -4.831  16.217  1.00  0.00     0.015 C 
ATOM      9  C   UNL     1       6.747  -5.242  17.215  1.00  0.00    -0.035 C 
ATOM     10  C   UNL     1       2.068  -4.595  15.350  1.00  0.00    -0.006 C 
ATOM     11  C   UNL     1       3.848  -5.931  14.097  1.00  0.00    -0.027 C 
ATOM     12  C   UNL     1       7.726  -4.059  17.378  1.00  0.00     0.011 C 
ATOM     13  C   UNL     1       7.536  -6.447  16.653  1.00  0.00     0.011 C 
ATOM     14  C   UNL     1       0.888  -5.419  15.957  1.00  0.00     0.017 C 
ATOM     15  C   UNL     1       1.664  -4.071  13.872  1.00  0.00    -0.020 C 
ATOM     16  C   UNL     1       3.691  -5.157  12.801  1.00  0.00     0.032 C 
ATOM     17  C   UNL     1       3.009  -3.805  13.099  1.00  0.00     0.006 C 
ATOM     18  C   UNL     1       0.737  -2.798  13.866  1.00  0.00     0.008 C 
ATOM     19  C   UNL     1       0.823  -5.187  13.140  1.00  0.00     0.012 C 
ATOM     20  C   UNL     1       2.976  -2.709  11.966  1.00  0.00    -0.025 C 
ATOM     21  C   UNL     1       1.404  -1.421  13.667  1.00  0.00     0.005 C 
ATOM     22  C   UNL     1       2.634  -1.359  12.708  1.00  0.00     0.003 C 
ATOM     23  C   UNL     1       4.394  -2.557  11.331  1.00  0.00     0.010 C 
ATOM     24  C   UNL     1       1.981  -3.096  10.840  1.00  0.00     0.012 C 
ATOM     25  C   UNL     1       2.761  -0.039  11.852  1.00  0.00    -0.006 C 
ATOM     26  C   UNL     1       4.555  -1.302  10.451  1.00  0.00     0.033 C 
ATOM     27  C   UNL     1       4.189  -0.009  11.204  1.00  0.00     0.120 C 
ATOM     28  C   UNL     1       1.643   0.097  10.779  1.00  0.00     0.014 C 
ATOM     29  C   UNL     1       2.658   1.191  12.797  1.00  0.00     0.014 C 
ENDROOT
BRANCH   1  30
ATOM     30  C   UNL     1       2.886  -6.290  18.498  1.00  0.00     0.048 C 
ATOM     31  O   UNL     1       2.223  -6.132  19.559  1.00  0.00    -0.550 OA
ATOM     32  O   UNL     1       2.889  -7.545  17.900  1.00  0.00    -0.550 OA
ENDBRANCH   1  30
BRANCH  27  33
ATOM     33  O   UNL     1       4.370   1.121  10.380  1.00  0.00    -0.393 OA
ATOM     34  H   UNL     1       3.750   1.043   9.610  1.00  0.00     0.210 HD
ENDBRANCH  27  33
TORSDOF 2
ENDMDL
