MODEL 1
REMARK VINA RESULT:    -3.102      0.000      0.000
REMARK INTER + INTRA:         -13.972
REMARK INTER:                  -8.180
REMARK INTRA:                  -5.793
REMARK UNBOUND:                -5.793
REMARK SMILES CCCCCCCCCCCCCCCCCCCCCCCCCCCCCC(=O)[O-]
REMARK SMILES IDX 16 1 17 2 18 3 19 4 20 5 21 6 22 7 23 8 24 9 25 10 26 11
REMARK SMILES IDX 27 12 28 13 29 14 30 15 31 16 32 17 15 18 14 19 13 20 12 21
REMARK SMILES IDX 11 22 10 23 9 24 8 25 7 26 6 27 5 28 4 29 3 30 2 31 1 32
REMARK H PARENT
REMARK Flexibility Score: inf
ROOT
ATOM      1  C   UNL     1     -98.931  69.849  22.708  1.00  0.00     0.000 C 
ENDROOT
BRANCH   1   2
ATOM      2  C   UNL     1     -98.760  69.913  24.235  1.00  0.00     0.000 C 
BRANCH   2   3
ATOM      3  C   UNL     1     -99.701  68.947  24.981  1.00  0.00     0.000 C 
BRANCH   3   4
ATOM      4  C   UNL     1    -100.521  69.583  26.122  1.00  0.00     0.000 C 
BRANCH   4   5
ATOM      5  C   UNL     1    -100.958  68.612  27.235  1.00  0.00     0.000 C 
BRANCH   5   6
ATOM      6  C   UNL     1    -100.027  68.570  28.463  1.00  0.00     0.000 C 
BRANCH   6   7
ATOM      7  C   UNL     1     -98.582  69.029  28.168  1.00  0.00     0.000 C 
BRANCH   7   8
ATOM      8  C   UNL     1     -98.255  70.401  28.784  1.00  0.00     0.000 C 
BRANCH   8   9
ATOM      9  C   UNL     1     -99.168  70.753  29.973  1.00  0.00     0.000 C 
BRANCH   9  10
ATOM     10  C   UNL     1     -99.883  72.114  29.865  1.00  0.00     0.000 C 
BRANCH  10  11
ATOM     11  C   UNL     1    -100.471  72.438  28.477  1.00  0.00     0.000 C 
BRANCH  11  12
ATOM     12  C   UNL     1    -101.964  72.810  28.475  1.00  0.00     0.000 C 
BRANCH  12  13
ATOM     13  C   UNL     1    -102.834  71.763  27.760  1.00  0.00     0.006 C 
BRANCH  13  14
ATOM     14  C   UNL     1    -103.935  71.202  28.670  1.00  0.00     0.053 C 
BRANCH  14  15
ATOM     15  C   UNL     1    -103.432  70.892  30.048  1.00  0.00     0.041 C 
ATOM     16  O   UNL     1    -102.728  69.866  30.251  1.00  0.00    -0.550 OA
ATOM     17  O   UNL     1    -103.714  71.752  31.102  1.00  0.00    -0.550 OA
ENDBRANCH  14  15
ENDBRANCH  13  14
ENDBRANCH  12  13
ENDBRANCH  11  12
ENDBRANCH  10  11
ENDBRANCH   9  10
ENDBRANCH   8   9
ENDBRANCH   7   8
ENDBRANCH   6   7
ENDBRANCH   5   6
ENDBRANCH   4   5
ENDBRANCH   3   4
ENDBRANCH   2   3
ENDBRANCH   1   2
BRANCH   1  18
ATOM     18  C   UNL     1     -98.297  71.049  21.984  1.00  0.00     0.000 C 
BRANCH  18  19
ATOM     19  C   UNL     1     -99.324  71.967  21.288  1.00  0.00     0.000 C 
BRANCH  19  20
ATOM     20  C   UNL     1     -99.075  73.452  21.607  1.00  0.00     0.000 C 
BRANCH  20  21
ATOM     21  C   UNL     1    -100.251  74.101  22.370  1.00  0.00     0.000 C 
BRANCH  21  22
ATOM     22  C   UNL     1    -101.148  73.087  23.110  1.00  0.00     0.000 C 
BRANCH  22  23
ATOM     23  C   UNL     1    -100.863  72.945  24.616  1.00  0.00     0.000 C 
BRANCH  23  24
ATOM     24  C   UNL     1     -99.792  73.906  25.168  1.00  0.00    -0.000 C 
BRANCH  24  25
ATOM     25  C   UNL     1     -98.424  73.234  25.413  1.00  0.00    -0.000 C 
BRANCH  25  26
ATOM     26  C   UNL     1     -97.276  74.256  25.487  1.00  0.00    -0.000 C 
BRANCH  26  27
ATOM     27  C   UNL     1     -96.500  74.376  24.163  1.00  0.00    -0.000 C 
BRANCH  27  28
ATOM     28  C   UNL     1     -95.853  73.067  23.668  1.00  0.00    -0.000 C 
BRANCH  28  29
ATOM     29  C   UNL     1     -95.223  73.138  22.262  1.00  0.00    -0.000 C 
BRANCH  29  30
ATOM     30  C   UNL     1     -95.525  74.431  21.481  1.00  0.00    -0.000 C 
BRANCH  30  31
ATOM     31  C   UNL     1     -95.703  74.188  19.975  1.00  0.00    -0.003 C 
ATOM     32  C   UNL     1     -95.785  72.696  19.668  1.00  0.00     0.004 C 
ENDBRANCH  30  31
ENDBRANCH  29  30
ENDBRANCH  28  29
ENDBRANCH  27  28
ENDBRANCH  26  27
ENDBRANCH  25  26
ENDBRANCH  24  25
ENDBRANCH  23  24
ENDBRANCH  22  23
ENDBRANCH  21  22
ENDBRANCH  20  21
ENDBRANCH  19  20
ENDBRANCH  18  19
ENDBRANCH   1  18
TORSDOF 28
ENDMDL
MODEL 2
REMARK VINA RESULT:    -3.101      2.429      7.161
REMARK INTER + INTRA:         -13.970
REMARK INTER:                  -8.341
REMARK INTRA:                  -5.629
REMARK UNBOUND:                -5.793
REMARK SMILES CCCCCCCCCCCCCCCCCCCCCCCCCCCCCC(=O)[O-]
REMARK SMILES IDX 16 1 17 2 18 3 19 4 20 5 21 6 22 7 23 8 24 9 25 10 26 11
REMARK SMILES IDX 27 12 28 13 29 14 30 15 31 16 32 17 15 18 14 19 13 20 12 21
REMARK SMILES IDX 11 22 10 23 9 24 8 25 7 26 6 27 5 28 4 29 3 30 2 31 1 32
REMARK H PARENT
REMARK Flexibility Score: inf
ROOT
ATOM      1  C   UNL     1     -98.547  70.251  22.495  1.00  0.00     0.000 C 
ENDROOT
BRANCH   1   2
ATOM      2  C   UNL     1     -99.162  71.446  21.748  1.00  0.00     0.000 C 
BRANCH   2   3
ATOM      3  C   UNL     1     -98.109  72.478  21.304  1.00  0.00     0.000 C 
BRANCH   3   4
ATOM      4  C   UNL     1     -96.656  71.960  21.277  1.00  0.00     0.000 C 
BRANCH   4   5
ATOM      5  C   UNL     1     -95.624  72.867  21.974  1.00  0.00     0.000 C 
BRANCH   5   6
ATOM      6  C   UNL     1     -95.710  72.886  23.513  1.00  0.00     0.000 C 
BRANCH   6   7
ATOM      7  C   UNL     1     -96.168  74.240  24.097  1.00  0.00     0.000 C 
BRANCH   7   8
ATOM      8  C   UNL     1     -97.418  74.114  24.986  1.00  0.00     0.000 C 
BRANCH   8   9
ATOM      9  C   UNL     1     -97.912  72.662  25.116  1.00  0.00     0.000 C 
BRANCH   9  10
ATOM     10  C   UNL     1     -99.247  72.492  25.869  1.00  0.00     0.000 C 
BRANCH  10  11
ATOM     11  C   UNL     1    -100.503  72.455  24.976  1.00  0.00     0.000 C 
BRANCH  11  12
ATOM     12  C   UNL     1    -101.834  72.669  25.719  1.00  0.00     0.000 C 
BRANCH  12  13
ATOM     13  C   UNL     1    -102.830  71.520  25.489  1.00  0.00     0.006 C 
BRANCH  13  14
ATOM     14  C   UNL     1    -102.743  70.951  24.066  1.00  0.00     0.053 C 
BRANCH  14  15
ATOM     15  C   UNL     1    -103.832  71.471  23.176  1.00  0.00     0.041 C 
ATOM     16  O   UNL     1    -103.680  72.558  22.556  1.00  0.00    -0.550 OA
ATOM     17  O   UNL     1    -105.002  70.741  23.008  1.00  0.00    -0.550 OA
ENDBRANCH  14  15
ENDBRANCH  13  14
ENDBRANCH  12  13
ENDBRANCH  11  12
ENDBRANCH  10  11
ENDBRANCH   9  10
ENDBRANCH   8   9
ENDBRANCH   7   8
ENDBRANCH   6   7
ENDBRANCH   5   6
ENDBRANCH   4   5
ENDBRANCH   3   4
ENDBRANCH   2   3
ENDBRANCH   1   2
BRANCH   1  18
ATOM     18  C   UNL     1     -99.606  69.321  23.112  1.00  0.00     0.000 C 
BRANCH  18  19
ATOM     19  C   UNL     1     -99.042  68.365  24.184  1.00  0.00     0.000 C 
BRANCH  19  20
ATOM     20  C   UNL     1     -99.122  68.975  25.596  1.00  0.00     0.000 C 
BRANCH  20  21
ATOM     21  C   UNL     1    -100.510  68.789  26.246  1.00  0.00     0.000 C 
BRANCH  21  22
ATOM     22  C   UNL     1    -100.633  69.428  27.645  1.00  0.00     0.000 C 
BRANCH  22  23
ATOM     23  C   UNL     1    -100.101  68.566  28.803  1.00  0.00     0.000 C 
BRANCH  23  24
ATOM     24  C   UNL     1     -98.829  69.108  29.484  1.00  0.00    -0.000 C 
BRANCH  24  25
ATOM     25  C   UNL     1     -98.552  70.597  29.183  1.00  0.00    -0.000 C 
BRANCH  25  26
ATOM     26  C   UNL     1     -98.981  71.516  30.340  1.00  0.00    -0.000 C 
BRANCH  26  27
ATOM     27  C   UNL     1     -99.330  70.736  31.620  1.00  0.00    -0.000 C 
BRANCH  27  28
ATOM     28  C   UNL     1    -100.718  71.049  32.214  1.00  0.00    -0.000 C 
BRANCH  28  29
ATOM     29  C   UNL     1    -101.820  70.022  31.881  1.00  0.00    -0.000 C 
BRANCH  29  30
ATOM     30  C   UNL     1    -103.100  70.621  31.267  1.00  0.00    -0.000 C 
BRANCH  30  31
ATOM     31  C   UNL     1    -103.033  70.722  29.736  1.00  0.00    -0.003 C 
ATOM     32  C   UNL     1    -102.684  72.140  29.296  1.00  0.00     0.004 C 
ENDBRANCH  30  31
ENDBRANCH  29  30
ENDBRANCH  28  29
ENDBRANCH  27  28
ENDBRANCH  26  27
ENDBRANCH  25  26
ENDBRANCH  24  25
ENDBRANCH  23  24
ENDBRANCH  22  23
ENDBRANCH  21  22
ENDBRANCH  20  21
ENDBRANCH  19  20
ENDBRANCH  18  19
ENDBRANCH   1  18
TORSDOF 28
ENDMDL
MODEL 3
REMARK VINA RESULT:    -3.092      1.657      4.423
REMARK INTER + INTRA:         -13.947
REMARK INTER:                  -8.202
REMARK INTRA:                  -5.745
REMARK UNBOUND:                -5.793
REMARK SMILES CCCCCCCCCCCCCCCCCCCCCCCCCCCCCC(=O)[O-]
REMARK SMILES IDX 16 1 17 2 18 3 19 4 20 5 21 6 22 7 23 8 24 9 25 10 26 11
REMARK SMILES IDX 27 12 28 13 29 14 30 15 31 16 32 17 15 18 14 19 13 20 12 21
REMARK SMILES IDX 11 22 10 23 9 24 8 25 7 26 6 27 5 28 4 29 3 30 2 31 1 32
REMARK H PARENT
REMARK Flexibility Score: inf
ROOT
ATOM      1  C   UNL     1     -99.829  70.240  23.240  1.00  0.00     0.000 C 
ENDROOT
BRANCH   1   2
ATOM      2  C   UNL     1     -99.470  68.748  23.336  1.00  0.00     0.000 C 
BRANCH   2   3
ATOM      3  C   UNL     1     -98.954  68.347  24.730  1.00  0.00     0.000 C 
BRANCH   3   4
ATOM      4  C   UNL     1     -99.346  69.304  25.874  1.00  0.00     0.000 C 
BRANCH   4   5
ATOM      5  C   UNL     1    -100.467  68.795  26.800  1.00  0.00     0.000 C 
BRANCH   5   6
ATOM      6  C   UNL     1    -101.744  69.660  26.812  1.00  0.00     0.000 C 
BRANCH   6   7
ATOM      7  C   UNL     1    -102.036  70.324  28.176  1.00  0.00     0.000 C 
BRANCH   7   8
ATOM      8  C   UNL     1    -102.026  71.861  28.105  1.00  0.00     0.000 C 
BRANCH   8   9
ATOM      9  C   UNL     1    -101.496  72.392  26.761  1.00  0.00     0.000 C 
BRANCH   9  10
ATOM     10  C   UNL     1    -100.241  73.284  26.862  1.00  0.00     0.000 C 
BRANCH  10  11
ATOM     11  C   UNL     1     -98.902  72.524  26.933  1.00  0.00     0.000 C 
BRANCH  11  12
ATOM     12  C   UNL     1     -98.213  72.551  28.309  1.00  0.00     0.000 C 
BRANCH  12  13
ATOM     13  C   UNL     1     -98.148  71.162  28.965  1.00  0.00     0.006 C 
BRANCH  13  14
ATOM     14  C   UNL     1     -99.043  71.062  30.208  1.00  0.00     0.053 C 
BRANCH  14  15
ATOM     15  C   UNL     1     -99.284  69.641  30.623  1.00  0.00     0.041 C 
ATOM     16  O   UNL     1     -99.874  69.388  31.708  1.00  0.00    -0.550 OA
ATOM     17  O   UNL     1     -98.884  68.597  29.799  1.00  0.00    -0.550 OA
ENDBRANCH  14  15
ENDBRANCH  13  14
ENDBRANCH  12  13
ENDBRANCH  11  12
ENDBRANCH  10  11
ENDBRANCH   9  10
ENDBRANCH   8   9
ENDBRANCH   7   8
ENDBRANCH   6   7
ENDBRANCH   5   6
ENDBRANCH   4   5
ENDBRANCH   3   4
ENDBRANCH   2   3
ENDBRANCH   1   2
BRANCH   1  18
ATOM     18  C   UNL     1     -99.137  70.947  22.062  1.00  0.00     0.000 C 
BRANCH  18  19
ATOM     19  C   UNL     1     -97.674  71.346  22.350  1.00  0.00     0.000 C 
BRANCH  19  20
ATOM     20  C   UNL     1     -97.523  72.016  23.728  1.00  0.00     0.000 C 
BRANCH  20  21
ATOM     21  C   UNL     1     -96.370  73.042  23.767  1.00  0.00     0.000 C 
BRANCH  21  22
ATOM     22  C   UNL     1     -95.287  72.803  22.695  1.00  0.00     0.000 C 
BRANCH  22  23
ATOM     23  C   UNL     1     -95.152  73.921  21.646  1.00  0.00     0.000 C 
BRANCH  23  24
ATOM     24  C   UNL     1     -95.447  73.490  20.196  1.00  0.00    -0.000 C 
BRANCH  24  25
ATOM     25  C   UNL     1     -95.726  74.672  19.244  1.00  0.00    -0.000 C 
BRANCH  25  26
ATOM     26  C   UNL     1     -97.114  74.578  18.587  1.00  0.00    -0.000 C 
BRANCH  26  27
ATOM     27  C   UNL     1     -98.040  73.572  19.295  1.00  0.00    -0.000 C 
BRANCH  27  28
ATOM     28  C   UNL     1     -99.181  74.205  20.117  1.00  0.00    -0.000 C 
BRANCH  28  29
ATOM     29  C   UNL     1     -98.756  74.804  21.474  1.00  0.00    -0.000 C 
BRANCH  29  30
ATOM     30  C   UNL     1     -99.817  74.709  22.586  1.00  0.00    -0.000 C 
BRANCH  30  31
ATOM     31  C   UNL     1    -101.107  74.021  22.118  1.00  0.00    -0.003 C 
ATOM     32  C   UNL     1    -101.834  73.366  23.288  1.00  0.00     0.004 C 
ENDBRANCH  30  31
ENDBRANCH  29  30
ENDBRANCH  28  29
ENDBRANCH  27  28
ENDBRANCH  26  27
ENDBRANCH  25  26
ENDBRANCH  24  25
ENDBRANCH  23  24
ENDBRANCH  22  23
ENDBRANCH  21  22
ENDBRANCH  20  21
ENDBRANCH  19  20
ENDBRANCH  18  19
ENDBRANCH   1  18
TORSDOF 28
ENDMDL
MODEL 4
REMARK VINA RESULT:    -3.086      2.256      4.909
REMARK INTER + INTRA:         -13.930
REMARK INTER:                  -8.037
REMARK INTRA:                  -5.893
REMARK UNBOUND:                -5.793
REMARK SMILES CCCCCCCCCCCCCCCCCCCCCCCCCCCCCC(=O)[O-]
REMARK SMILES IDX 16 1 17 2 18 3 19 4 20 5 21 6 22 7 23 8 24 9 25 10 26 11
REMARK SMILES IDX 27 12 28 13 29 14 30 15 31 16 32 17 15 18 14 19 13 20 12 21
REMARK SMILES IDX 11 22 10 23 9 24 8 25 7 26 6 27 5 28 4 29 3 30 2 31 1 32
REMARK H PARENT
REMARK Flexibility Score: inf
ROOT
ATOM      1  C   UNL     1     -98.634  70.424  22.364  1.00  0.00     0.000 C 
ENDROOT
BRANCH   1   2
ATOM      2  C   UNL     1     -98.564  70.602  23.890  1.00  0.00     0.000 C 
BRANCH   2   3
ATOM      3  C   UNL     1     -99.352  69.521  24.653  1.00  0.00     0.000 C 
BRANCH   3   4
ATOM      4  C   UNL     1    -100.627  70.018  25.364  1.00  0.00     0.000 C 
BRANCH   4   5
ATOM      5  C   UNL     1    -100.557  71.457  25.907  1.00  0.00     0.000 C 
BRANCH   5   6
ATOM      6  C   UNL     1    -101.867  71.983  26.527  1.00  0.00     0.000 C 
BRANCH   6   7
ATOM      7  C   UNL     1    -102.658  70.917  27.316  1.00  0.00     0.000 C 
BRANCH   7   8
ATOM      8  C   UNL     1    -102.624  71.154  28.836  1.00  0.00     0.000 C 
BRANCH   8   9
ATOM      9  C   UNL     1    -101.927  70.013  29.601  1.00  0.00     0.000 C 
BRANCH   9  10
ATOM     10  C   UNL     1    -101.019  69.111  28.741  1.00  0.00     0.000 C 
BRANCH  10  11
ATOM     11  C   UNL     1     -99.751  68.594  29.449  1.00  0.00     0.000 C 
BRANCH  11  12
ATOM     12  C   UNL     1     -98.442  68.795  28.663  1.00  0.00     0.000 C 
BRANCH  12  13
ATOM     13  C   UNL     1     -98.252  70.247  28.194  1.00  0.00     0.006 C 
BRANCH  13  14
ATOM     14  C   UNL     1     -98.242  71.240  29.365  1.00  0.00     0.053 C 
BRANCH  14  15
ATOM     15  C   UNL     1     -97.894  72.632  28.928  1.00  0.00     0.041 C 
ATOM     16  O   UNL     1     -98.736  73.329  28.300  1.00  0.00    -0.550 OA
ATOM     17  O   UNL     1     -96.651  73.170  29.240  1.00  0.00    -0.550 OA
ENDBRANCH  14  15
ENDBRANCH  13  14
ENDBRANCH  12  13
ENDBRANCH  11  12
ENDBRANCH  10  11
ENDBRANCH   9  10
ENDBRANCH   8   9
ENDBRANCH   7   8
ENDBRANCH   6   7
ENDBRANCH   5   6
ENDBRANCH   4   5
ENDBRANCH   3   4
ENDBRANCH   2   3
ENDBRANCH   1   2
BRANCH   1  18
ATOM     18  C   UNL     1     -97.493  71.145  21.625  1.00  0.00     0.000 C 
BRANCH  18  19
ATOM     19  C   UNL     1     -97.980  72.220  20.631  1.00  0.00     0.000 C 
BRANCH  19  20
ATOM     20  C   UNL     1     -96.889  73.264  20.334  1.00  0.00     0.000 C 
BRANCH  20  21
ATOM     21  C   UNL     1     -95.686  73.156  21.297  1.00  0.00     0.000 C 
BRANCH  21  22
ATOM     22  C   UNL     1     -95.690  74.213  22.420  1.00  0.00     0.000 C 
BRANCH  22  23
ATOM     23  C   UNL     1     -95.846  73.650  23.843  1.00  0.00     0.000 C 
BRANCH  23  24
ATOM     24  C   UNL     1     -97.259  73.784  24.443  1.00  0.00    -0.000 C 
BRANCH  24  25
ATOM     25  C   UNL     1     -98.223  74.621  23.575  1.00  0.00    -0.000 C 
BRANCH  25  26
ATOM     26  C   UNL     1     -99.699  74.307  23.872  1.00  0.00    -0.000 C 
BRANCH  26  27
ATOM     27  C   UNL     1    -100.481  73.882  22.615  1.00  0.00    -0.000 C 
BRANCH  27  28
ATOM     28  C   UNL     1    -101.626  72.881  22.870  1.00  0.00    -0.000 C 
BRANCH  28  29
ATOM     29  C   UNL     1    -101.861  71.853  21.744  1.00  0.00    -0.000 C 
BRANCH  29  30
ATOM     30  C   UNL     1    -102.517  70.535  22.195  1.00  0.00    -0.000 C 
BRANCH  30  31
ATOM     31  C   UNL     1    -103.551  70.737  23.312  1.00  0.00    -0.003 C 
ATOM     32  C   UNL     1    -104.966  70.792  22.745  1.00  0.00     0.004 C 
ENDBRANCH  30  31
ENDBRANCH  29  30
ENDBRANCH  28  29
ENDBRANCH  27  28
ENDBRANCH  26  27
ENDBRANCH  25  26
ENDBRANCH  24  25
ENDBRANCH  23  24
ENDBRANCH  22  23
ENDBRANCH  21  22
ENDBRANCH  20  21
ENDBRANCH  19  20
ENDBRANCH  18  19
ENDBRANCH   1  18
TORSDOF 28
ENDMDL
MODEL 5
REMARK VINA RESULT:    -3.074      2.355      4.696
REMARK INTER + INTRA:         -13.898
REMARK INTER:                  -8.274
REMARK INTRA:                  -5.624
REMARK UNBOUND:                -5.793
REMARK SMILES CCCCCCCCCCCCCCCCCCCCCCCCCCCCCC(=O)[O-]
REMARK SMILES IDX 16 1 17 2 18 3 19 4 20 5 21 6 22 7 23 8 24 9 25 10 26 11
REMARK SMILES IDX 27 12 28 13 29 14 30 15 31 16 32 17 15 18 14 19 13 20 12 21
REMARK SMILES IDX 11 22 10 23 9 24 8 25 7 26 6 27 5 28 4 29 3 30 2 31 1 32
REMARK H PARENT
REMARK Flexibility Score: inf
ROOT
ATOM      1  C   UNL     1     -99.066  71.744  21.323  1.00  0.00     0.000 C 
ENDROOT
BRANCH   1   2
ATOM      2  C   UNL     1     -98.246  70.631  21.997  1.00  0.00     0.000 C 
BRANCH   2   3
ATOM      3  C   UNL     1     -98.651  70.398  23.465  1.00  0.00     0.000 C 
BRANCH   3   4
ATOM      4  C   UNL     1     -99.008  68.940  23.822  1.00  0.00     0.000 C 
BRANCH   4   5
ATOM      5  C   UNL     1     -99.555  68.729  25.246  1.00  0.00     0.000 C 
BRANCH   5   6
ATOM      6  C   UNL     1     -99.049  69.741  26.294  1.00  0.00     0.000 C 
BRANCH   6   7
ATOM      7  C   UNL     1     -98.799  69.125  27.688  1.00  0.00     0.000 C 
BRANCH   7   8
ATOM      8  C   UNL     1    -100.071  68.522  28.310  1.00  0.00     0.000 C 
BRANCH   8   9
ATOM      9  C   UNL     1    -101.286  69.462  28.209  1.00  0.00     0.000 C 
BRANCH   9  10
ATOM     10  C   UNL     1    -101.739  70.089  29.543  1.00  0.00     0.000 C 
BRANCH  10  11
ATOM     11  C   UNL     1    -101.132  71.471  29.857  1.00  0.00     0.000 C 
BRANCH  11  12
ATOM     12  C   UNL     1    -100.635  72.254  28.628  1.00  0.00     0.000 C 
BRANCH  12  13
ATOM     13  C   UNL     1     -99.268  72.919  28.865  1.00  0.00     0.006 C 
BRANCH  13  14
ATOM     14  C   UNL     1     -98.366  72.083  29.784  1.00  0.00     0.053 C 
BRANCH  14  15
ATOM     15  C   UNL     1     -97.112  72.811  30.165  1.00  0.00     0.041 C 
ATOM     16  O   UNL     1     -96.722  72.820  31.363  1.00  0.00    -0.550 OA
ATOM     17  O   UNL     1     -96.356  73.453  29.191  1.00  0.00    -0.550 OA
ENDBRANCH  14  15
ENDBRANCH  13  14
ENDBRANCH  12  13
ENDBRANCH  11  12
ENDBRANCH  10  11
ENDBRANCH   9  10
ENDBRANCH   8   9
ENDBRANCH   7   8
ENDBRANCH   6   7
ENDBRANCH   5   6
ENDBRANCH   4   5
ENDBRANCH   3   4
ENDBRANCH   2   3
ENDBRANCH   1   2
BRANCH   1  18
ATOM     18  C   UNL     1     -98.263  72.524  20.268  1.00  0.00     0.000 C 
BRANCH  18  19
ATOM     19  C   UNL     1     -96.734  72.399  20.436  1.00  0.00     0.000 C 
BRANCH  19  20
ATOM     20  C   UNL     1     -96.118  73.672  21.046  1.00  0.00     0.000 C 
BRANCH  20  21
ATOM     21  C   UNL     1     -95.162  73.365  22.220  1.00  0.00     0.000 C 
BRANCH  21  22
ATOM     22  C   UNL     1     -95.884  72.926  23.511  1.00  0.00     0.000 C 
BRANCH  22  23
ATOM     23  C   UNL     1     -97.115  73.768  23.887  1.00  0.00     0.000 C 
BRANCH  23  24
ATOM     24  C   UNL     1     -97.722  73.451  25.267  1.00  0.00    -0.000 C 
BRANCH  24  25
ATOM     25  C   UNL     1     -99.226  73.779  25.373  1.00  0.00    -0.000 C 
BRANCH  25  26
ATOM     26  C   UNL     1     -99.926  73.756  24.003  1.00  0.00    -0.000 C 
BRANCH  26  27
ATOM     27  C   UNL     1    -101.432  73.452  24.109  1.00  0.00    -0.000 C 
BRANCH  27  28
ATOM     28  C   UNL     1    -101.790  72.257  25.016  1.00  0.00    -0.000 C 
BRANCH  28  29
ATOM     29  C   UNL     1    -102.141  70.952  24.272  1.00  0.00    -0.000 C 
BRANCH  29  30
ATOM     30  C   UNL     1    -103.520  70.947  23.586  1.00  0.00    -0.000 C 
BRANCH  30  31
ATOM     31  C   UNL     1    -103.492  70.282  22.202  1.00  0.00    -0.003 C 
ATOM     32  C   UNL     1    -102.076  69.854  21.828  1.00  0.00     0.004 C 
ENDBRANCH  30  31
ENDBRANCH  29  30
ENDBRANCH  28  29
ENDBRANCH  27  28
ENDBRANCH  26  27
ENDBRANCH  25  26
ENDBRANCH  24  25
ENDBRANCH  23  24
ENDBRANCH  22  23
ENDBRANCH  21  22
ENDBRANCH  20  21
ENDBRANCH  19  20
ENDBRANCH  18  19
ENDBRANCH   1  18
TORSDOF 28
ENDMDL
MODEL 6
REMARK VINA RESULT:    -3.072      2.761      7.089
REMARK INTER + INTRA:         -13.895
REMARK INTER:                  -8.133
REMARK INTRA:                  -5.761
REMARK UNBOUND:                -5.793
REMARK SMILES CCCCCCCCCCCCCCCCCCCCCCCCCCCCCC(=O)[O-]
REMARK SMILES IDX 16 1 17 2 18 3 19 4 20 5 21 6 22 7 23 8 24 9 25 10 26 11
REMARK SMILES IDX 27 12 28 13 29 14 30 15 31 16 32 17 15 18 14 19 13 20 12 21
REMARK SMILES IDX 11 22 10 23 9 24 8 25 7 26 6 27 5 28 4 29 3 30 2 31 1 32
REMARK H PARENT
REMARK Flexibility Score: inf
ROOT
ATOM      1  C   UNL     1     -98.965  69.854  22.744  1.00  0.00     0.000 C 
ENDROOT
BRANCH   1   2
ATOM      2  C   UNL     1     -98.599  71.228  22.160  1.00  0.00     0.000 C 
BRANCH   2   3
ATOM      3  C   UNL     1     -97.158  71.280  21.618  1.00  0.00     0.000 C 
BRANCH   3   4
ATOM      4  C   UNL     1     -96.421  72.616  21.844  1.00  0.00     0.000 C 
BRANCH   4   5
ATOM      5  C   UNL     1     -95.613  72.707  23.152  1.00  0.00     0.000 C 
BRANCH   5   6
ATOM      6  C   UNL     1     -96.142  73.733  24.174  1.00  0.00     0.000 C 
BRANCH   6   7
ATOM      7  C   UNL     1     -97.050  74.819  23.557  1.00  0.00     0.000 C 
BRANCH   7   8
ATOM      8  C   UNL     1     -98.460  74.838  24.173  1.00  0.00     0.000 C 
BRANCH   8   9
ATOM      9  C   UNL     1     -99.557  74.459  23.162  1.00  0.00     0.000 C 
BRANCH   9  10
ATOM     10  C   UNL     1    -100.955  74.231  23.771  1.00  0.00     0.000 C 
BRANCH  10  11
ATOM     11  C   UNL     1    -101.661  72.935  23.324  1.00  0.00     0.000 C 
BRANCH  11  12
ATOM     12  C   UNL     1    -102.396  72.178  24.444  1.00  0.00     0.000 C 
BRANCH  12  13
ATOM     13  C   UNL     1    -102.844  70.771  24.011  1.00  0.00     0.006 C 
BRANCH  13  14
ATOM     14  C   UNL     1    -103.753  70.805  22.775  1.00  0.00     0.053 C 
BRANCH  14  15
ATOM     15  C   UNL     1    -103.391  69.749  21.774  1.00  0.00     0.041 C 
ATOM     16  O   UNL     1    -102.182  69.516  21.504  1.00  0.00    -0.550 OA
ATOM     17  O   UNL     1    -104.389  69.000  21.161  1.00  0.00    -0.550 OA
ENDBRANCH  14  15
ENDBRANCH  13  14
ENDBRANCH  12  13
ENDBRANCH  11  12
ENDBRANCH  10  11
ENDBRANCH   9  10
ENDBRANCH   8   9
ENDBRANCH   7   8
ENDBRANCH   6   7
ENDBRANCH   5   6
ENDBRANCH   4   5
ENDBRANCH   3   4
ENDBRANCH   2   3
ENDBRANCH   1   2
BRANCH   1  18
ATOM     18  C   UNL     1     -99.281  69.908  24.249  1.00  0.00     0.000 C 
BRANCH  18  19
ATOM     19  C   UNL     1     -98.791  71.199  24.939  1.00  0.00     0.000 C 
BRANCH  19  20
ATOM     20  C   UNL     1     -98.546  70.987  26.444  1.00  0.00     0.000 C 
BRANCH  20  21
ATOM     21  C   UNL     1     -98.470  69.493  26.830  1.00  0.00     0.000 C 
BRANCH  21  22
ATOM     22  C   UNL     1     -98.905  69.202  28.281  1.00  0.00     0.000 C 
BRANCH  22  23
ATOM     23  C   UNL     1    -100.254  68.474  28.422  1.00  0.00     0.000 C 
BRANCH  23  24
ATOM     24  C   UNL     1    -101.280  68.790  27.316  1.00  0.00    -0.000 C 
BRANCH  24  25
ATOM     25  C   UNL     1    -101.995  70.145  27.504  1.00  0.00    -0.000 C 
BRANCH  25  26
ATOM     26  C   UNL     1    -102.389  70.399  28.970  1.00  0.00    -0.000 C 
BRANCH  26  27
ATOM     27  C   UNL     1    -102.556  71.896  29.290  1.00  0.00    -0.000 C 
BRANCH  27  28
ATOM     28  C   UNL     1    -101.435  72.806  28.749  1.00  0.00    -0.000 C 
BRANCH  28  29
ATOM     29  C   UNL     1    -100.393  73.253  29.795  1.00  0.00    -0.000 C 
BRANCH  29  30
ATOM     30  C   UNL     1     -98.963  72.736  29.548  1.00  0.00    -0.000 C 
BRANCH  30  31
ATOM     31  C   UNL     1     -98.429  71.887  30.711  1.00  0.00    -0.003 C 
ATOM     32  C   UNL     1     -99.567  71.180  31.440  1.00  0.00     0.004 C 
ENDBRANCH  30  31
ENDBRANCH  29  30
ENDBRANCH  28  29
ENDBRANCH  27  28
ENDBRANCH  26  27
ENDBRANCH  25  26
ENDBRANCH  24  25
ENDBRANCH  23  24
ENDBRANCH  22  23
ENDBRANCH  21  22
ENDBRANCH  20  21
ENDBRANCH  19  20
ENDBRANCH  18  19
ENDBRANCH   1  18
TORSDOF 28
ENDMDL
MODEL 7
REMARK VINA RESULT:    -3.067      2.491      7.144
REMARK INTER + INTRA:         -13.880
REMARK INTER:                  -8.001
REMARK INTRA:                  -5.879
REMARK UNBOUND:                -5.793
REMARK SMILES CCCCCCCCCCCCCCCCCCCCCCCCCCCCCC(=O)[O-]
REMARK SMILES IDX 16 1 17 2 18 3 19 4 20 5 21 6 22 7 23 8 24 9 25 10 26 11
REMARK SMILES IDX 27 12 28 13 29 14 30 15 31 16 32 17 15 18 14 19 13 20 12 21
REMARK SMILES IDX 11 22 10 23 9 24 8 25 7 26 6 27 5 28 4 29 3 30 2 31 1 32
REMARK H PARENT
REMARK Flexibility Score: inf
ROOT
ATOM      1  C   UNL     1     -99.460  69.547  22.926  1.00  0.00     0.000 C 
ENDROOT
BRANCH   1   2
ATOM      2  C   UNL     1     -98.401  70.648  23.106  1.00  0.00     0.000 C 
BRANCH   2   3
ATOM      3  C   UNL     1     -98.187  71.483  21.830  1.00  0.00     0.000 C 
BRANCH   3   4
ATOM      4  C   UNL     1     -96.769  71.406  21.227  1.00  0.00     0.000 C 
BRANCH   4   5
ATOM      5  C   UNL     1     -95.920  72.681  21.381  1.00  0.00     0.000 C 
BRANCH   5   6
ATOM      6  C   UNL     1     -95.335  72.907  22.789  1.00  0.00     0.000 C 
BRANCH   6   7
ATOM      7  C   UNL     1     -95.959  74.102  23.542  1.00  0.00     0.000 C 
BRANCH   7   8
ATOM      8  C   UNL     1     -96.881  74.953  22.650  1.00  0.00     0.000 C 
BRANCH   8   9
ATOM      9  C   UNL     1     -98.332  74.994  23.161  1.00  0.00     0.000 C 
BRANCH   9  10
ATOM     10  C   UNL     1     -98.587  74.214  24.466  1.00  0.00     0.000 C 
BRANCH  10  11
ATOM     11  C   UNL     1    -100.033  73.714  24.660  1.00  0.00     0.000 C 
BRANCH  11  12
ATOM     12  C   UNL     1    -100.852  73.582  23.363  1.00  0.00     0.000 C 
BRANCH  12  13
ATOM     13  C   UNL     1    -101.885  72.445  23.430  1.00  0.00     0.006 C 
BRANCH  13  14
ATOM     14  C   UNL     1    -102.130  71.800  22.059  1.00  0.00     0.053 C 
BRANCH  14  15
ATOM     15  C   UNL     1    -102.943  70.544  22.158  1.00  0.00     0.041 C 
ATOM     16  O   UNL     1    -102.669  69.552  21.431  1.00  0.00    -0.550 OA
ATOM     17  O   UNL     1    -103.983  70.458  23.075  1.00  0.00    -0.550 OA
ENDBRANCH  14  15
ENDBRANCH  13  14
ENDBRANCH  12  13
ENDBRANCH  11  12
ENDBRANCH  10  11
ENDBRANCH   9  10
ENDBRANCH   8   9
ENDBRANCH   7   8
ENDBRANCH   6   7
ENDBRANCH   5   6
ENDBRANCH   4   5
ENDBRANCH   3   4
ENDBRANCH   2   3
ENDBRANCH   1   2
BRANCH   1  18
ATOM     18  C   UNL     1     -99.255  68.357  23.879  1.00  0.00     0.000 C 
BRANCH  18  19
ATOM     19  C   UNL     1     -99.098  68.769  25.358  1.00  0.00     0.000 C 
BRANCH  19  20
ATOM     20  C   UNL     1    -100.384  69.405  25.917  1.00  0.00     0.000 C 
BRANCH  20  21
ATOM     21  C   UNL     1    -100.130  70.780  26.574  1.00  0.00     0.000 C 
BRANCH  21  22
ATOM     22  C   UNL     1     -98.641  71.070  26.853  1.00  0.00     0.000 C 
BRANCH  22  23
ATOM     23  C   UNL     1     -98.373  72.299  27.740  1.00  0.00     0.000 C 
BRANCH  23  24
ATOM     24  C   UNL     1     -99.629  72.926  28.376  1.00  0.00    -0.000 C 
BRANCH  24  25
ATOM     25  C   UNL     1     -99.462  73.263  29.873  1.00  0.00    -0.000 C 
BRANCH  25  26
ATOM     26  C   UNL     1     -98.484  72.309  30.581  1.00  0.00    -0.000 C 
BRANCH  26  27
ATOM     27  C   UNL     1     -99.079  71.686  31.856  1.00  0.00    -0.000 C 
BRANCH  27  28
ATOM     28  C   UNL     1     -99.497  70.208  31.724  1.00  0.00    -0.000 C 
BRANCH  28  29
ATOM     29  C   UNL     1     -99.373  69.616  30.305  1.00  0.00    -0.000 C 
BRANCH  29  30
ATOM     30  C   UNL     1    -100.712  69.256  29.633  1.00  0.00    -0.000 C 
BRANCH  30  31
ATOM     31  C   UNL     1    -101.915  69.936  30.304  1.00  0.00    -0.003 C 
ATOM     32  C   UNL     1    -102.575  70.936  29.359  1.00  0.00     0.004 C 
ENDBRANCH  30  31
ENDBRANCH  29  30
ENDBRANCH  28  29
ENDBRANCH  27  28
ENDBRANCH  26  27
ENDBRANCH  25  26
ENDBRANCH  24  25
ENDBRANCH  23  24
ENDBRANCH  22  23
ENDBRANCH  21  22
ENDBRANCH  20  21
ENDBRANCH  19  20
ENDBRANCH  18  19
ENDBRANCH   1  18
TORSDOF 28
ENDMDL
MODEL 8
REMARK VINA RESULT:    -3.029      1.407      3.690
REMARK INTER + INTRA:         -13.780
REMARK INTER:                  -7.400
REMARK INTRA:                  -6.379
REMARK UNBOUND:                -5.793
REMARK SMILES CCCCCCCCCCCCCCCCCCCCCCCCCCCCCC(=O)[O-]
REMARK SMILES IDX 16 1 17 2 18 3 19 4 20 5 21 6 22 7 23 8 24 9 25 10 26 11
REMARK SMILES IDX 27 12 28 13 29 14 30 15 31 16 32 17 15 18 14 19 13 20 12 21
REMARK SMILES IDX 11 22 10 23 9 24 8 25 7 26 6 27 5 28 4 29 3 30 2 31 1 32
REMARK H PARENT
REMARK Flexibility Score: inf
ROOT
ATOM      1  C   UNL     1     -98.613  70.386  23.875  1.00  0.00     0.000 C 
ENDROOT
BRANCH   1   2
ATOM      2  C   UNL     1     -99.367  69.140  24.369  1.00  0.00     0.000 C 
BRANCH   2   3
ATOM      3  C   UNL     1     -99.484  69.084  25.903  1.00  0.00     0.000 C 
BRANCH   3   4
ATOM      4  C   UNL     1    -100.921  69.182  26.455  1.00  0.00     0.000 C 
BRANCH   4   5
ATOM      5  C   UNL     1    -101.056  68.978  27.975  1.00  0.00     0.000 C 
BRANCH   5   6
ATOM      6  C   UNL     1     -99.819  68.364  28.661  1.00  0.00     0.000 C 
BRANCH   6   7
ATOM      7  C   UNL     1     -99.364  69.124  29.926  1.00  0.00     0.000 C 
BRANCH   7   8
ATOM      8  C   UNL     1     -99.208  70.637  29.689  1.00  0.00     0.000 C 
BRANCH   8   9
ATOM      9  C   UNL     1     -98.015  70.976  28.777  1.00  0.00     0.000 C 
BRANCH   9  10
ATOM     10  C   UNL     1     -98.312  72.009  27.671  1.00  0.00     0.000 C 
BRANCH  10  11
ATOM     11  C   UNL     1     -98.965  73.319  28.157  1.00  0.00     0.000 C 
BRANCH  11  12
ATOM     12  C   UNL     1    -100.076  73.867  27.244  1.00  0.00     0.000 C 
BRANCH  12  13
ATOM     13  C   UNL     1    -101.452  73.881  27.932  1.00  0.00     0.006 C 
BRANCH  13  14
ATOM     14  C   UNL     1    -102.087  72.485  27.991  1.00  0.00     0.053 C 
BRANCH  14  15
ATOM     15  C   UNL     1    -102.911  72.286  29.228  1.00  0.00     0.041 C 
ATOM     16  O   UNL     1    -102.647  71.345  30.023  1.00  0.00    -0.550 OA
ATOM     17  O   UNL     1    -103.952  73.160  29.518  1.00  0.00    -0.550 OA
ENDBRANCH  14  15
ENDBRANCH  13  14
ENDBRANCH  12  13
ENDBRANCH  11  12
ENDBRANCH  10  11
ENDBRANCH   9  10
ENDBRANCH   8   9
ENDBRANCH   7   8
ENDBRANCH   6   7
ENDBRANCH   5   6
ENDBRANCH   4   5
ENDBRANCH   3   4
ENDBRANCH   2   3
ENDBRANCH   1   2
BRANCH   1  18
ATOM     18  C   UNL     1     -98.716  70.585  22.353  1.00  0.00     0.000 C 
BRANCH  18  19
ATOM     19  C   UNL     1     -97.433  71.157  21.714  1.00  0.00     0.000 C 
BRANCH  19  20
ATOM     20  C   UNL     1     -97.750  72.192  20.619  1.00  0.00     0.000 C 
BRANCH  20  21
ATOM     21  C   UNL     1     -96.650  73.267  20.481  1.00  0.00     0.000 C 
BRANCH  21  22
ATOM     22  C   UNL     1     -95.586  73.215  21.597  1.00  0.00     0.000 C 
BRANCH  22  23
ATOM     23  C   UNL     1     -95.749  74.276  22.700  1.00  0.00     0.000 C 
BRANCH  23  24
ATOM     24  C   UNL     1     -96.014  73.711  24.109  1.00  0.00    -0.000 C 
BRANCH  24  25
ATOM     25  C   UNL     1     -97.492  73.804  24.545  1.00  0.00    -0.000 C 
BRANCH  25  26
ATOM     26  C   UNL     1     -98.315  74.723  23.626  1.00  0.00    -0.000 C 
BRANCH  26  27
ATOM     27  C   UNL     1     -99.640  74.081  23.175  1.00  0.00    -0.000 C 
BRANCH  27  28
ATOM     28  C   UNL     1    -100.910  74.734  23.757  1.00  0.00    -0.000 C 
BRANCH  28  29
ATOM     29  C   UNL     1    -102.047  73.754  24.111  1.00  0.00    -0.000 C 
BRANCH  29  30
ATOM     30  C   UNL     1    -101.612  72.285  24.269  1.00  0.00    -0.000 C 
BRANCH  30  31
ATOM     31  C   UNL     1    -102.739  71.293  23.946  1.00  0.00    -0.003 C 
ATOM     32  C   UNL     1    -102.425  70.501  22.680  1.00  0.00     0.004 C 
ENDBRANCH  30  31
ENDBRANCH  29  30
ENDBRANCH  28  29
ENDBRANCH  27  28
ENDBRANCH  26  27
ENDBRANCH  25  26
ENDBRANCH  24  25
ENDBRANCH  23  24
ENDBRANCH  22  23
ENDBRANCH  21  22
ENDBRANCH  20  21
ENDBRANCH  19  20
ENDBRANCH  18  19
ENDBRANCH   1  18
TORSDOF 28
ENDMDL
MODEL 9
REMARK VINA RESULT:    -3.011      1.670      5.757
REMARK INTER + INTRA:         -13.733
REMARK INTER:                  -7.757
REMARK INTRA:                  -5.976
REMARK UNBOUND:                -5.793
REMARK SMILES CCCCCCCCCCCCCCCCCCCCCCCCCCCCCC(=O)[O-]
REMARK SMILES IDX 16 1 17 2 18 3 19 4 20 5 21 6 22 7 23 8 24 9 25 10 26 11
REMARK SMILES IDX 27 12 28 13 29 14 30 15 31 16 32 17 15 18 14 19 13 20 12 21
REMARK SMILES IDX 11 22 10 23 9 24 8 25 7 26 6 27 5 28 4 29 3 30 2 31 1 32
REMARK H PARENT
REMARK Flexibility Score: inf
ROOT
ATOM      1  C   UNL     1     -95.630  74.151  23.637  1.00  0.00     0.000 C 
ENDROOT
BRANCH   1   2
ATOM      2  C   UNL     1     -96.901  74.968  23.357  1.00  0.00     0.000 C 
BRANCH   2   3
ATOM      3  C   UNL     1     -98.073  74.584  24.280  1.00  0.00     0.000 C 
BRANCH   3   4
ATOM      4  C   UNL     1     -99.157  73.700  23.630  1.00  0.00     0.000 C 
BRANCH   4   5
ATOM      5  C   UNL     1     -99.144  72.222  24.060  1.00  0.00     0.000 C 
BRANCH   5   6
ATOM      6  C   UNL     1     -98.057  71.358  23.388  1.00  0.00     0.000 C 
BRANCH   6   7
ATOM      7  C   UNL     1     -98.619  70.231  22.495  1.00  0.00     0.000 C 
BRANCH   7   8
ATOM      8  C   UNL     1     -99.739  69.428  23.181  1.00  0.00     0.000 C 
BRANCH   8   9
ATOM      9  C   UNL     1     -99.207  68.457  24.251  1.00  0.00     0.000 C 
BRANCH   9  10
ATOM     10  C   UNL     1     -99.654  68.767  25.693  1.00  0.00     0.000 C 
BRANCH  10  11
ATOM     11  C   UNL     1     -98.649  69.584  26.530  1.00  0.00     0.000 C 
BRANCH  11  12
ATOM     12  C   UNL     1     -98.726  69.347  28.049  1.00  0.00     0.000 C 
BRANCH  12  13
ATOM     13  C   UNL     1    -100.008  68.606  28.467  1.00  0.00     0.006 C 
BRANCH  13  14
ATOM     14  C   UNL     1    -100.969  69.506  29.255  1.00  0.00     0.053 C 
BRANCH  14  15
ATOM     15  C   UNL     1    -100.312  70.132  30.449  1.00  0.00     0.041 C 
ATOM     16  O   UNL     1     -99.924  69.414  31.409  1.00  0.00    -0.550 OA
ATOM     17  O   UNL     1    -100.101  71.505  30.489  1.00  0.00    -0.550 OA
ENDBRANCH  14  15
ENDBRANCH  13  14
ENDBRANCH  12  13
ENDBRANCH  11  12
ENDBRANCH  10  11
ENDBRANCH   9  10
ENDBRANCH   8   9
ENDBRANCH   7   8
ENDBRANCH   6   7
ENDBRANCH   5   6
ENDBRANCH   4   5
ENDBRANCH   3   4
ENDBRANCH   2   3
ENDBRANCH   1   2
BRANCH   1  18
ATOM     18  C   UNL     1     -95.226  73.247  22.459  1.00  0.00     0.000 C 
BRANCH  18  19
ATOM     19  C   UNL     1     -95.925  73.611  21.132  1.00  0.00     0.000 C 
BRANCH  19  20
ATOM     20  C   UNL     1     -96.188  72.368  20.262  1.00  0.00     0.000 C 
BRANCH  20  21
ATOM     21  C   UNL     1     -97.560  72.417  19.555  1.00  0.00     0.000 C 
BRANCH  21  22
ATOM     22  C   UNL     1     -98.608  73.279  20.288  1.00  0.00     0.000 C 
BRANCH  22  23
ATOM     23  C   UNL     1     -99.937  73.467  19.536  1.00  0.00     0.000 C 
BRANCH  23  24
ATOM     24  C   UNL     1    -101.194  73.459  20.428  1.00  0.00    -0.000 C 
BRANCH  24  25
ATOM     25  C   UNL     1    -101.455  72.103  21.117  1.00  0.00    -0.000 C 
BRANCH  25  26
ATOM     26  C   UNL     1    -102.812  72.068  21.842  1.00  0.00    -0.000 C 
BRANCH  26  27
ATOM     27  C   UNL     1    -102.681  72.288  23.360  1.00  0.00    -0.000 C 
BRANCH  27  28
ATOM     28  C   UNL     1    -102.905  71.029  24.221  1.00  0.00    -0.000 C 
BRANCH  28  29
ATOM     29  C   UNL     1    -102.235  71.058  25.611  1.00  0.00    -0.000 C 
BRANCH  29  30
ATOM     30  C   UNL     1    -103.063  71.740  26.716  1.00  0.00    -0.000 C 
BRANCH  30  31
ATOM     31  C   UNL     1    -102.211  72.628  27.634  1.00  0.00    -0.003 C 
ATOM     32  C   UNL     1    -100.750  72.628  27.195  1.00  0.00     0.004 C 
ENDBRANCH  30  31
ENDBRANCH  29  30
ENDBRANCH  28  29
ENDBRANCH  27  28
ENDBRANCH  26  27
ENDBRANCH  25  26
ENDBRANCH  24  25
ENDBRANCH  23  24
ENDBRANCH  22  23
ENDBRANCH  21  22
ENDBRANCH  20  21
ENDBRANCH  19  20
ENDBRANCH  18  19
ENDBRANCH   1  18
TORSDOF 28
ENDMDL
