MODEL 1
REMARK VINA RESULT:    -3.822      0.000      0.000
REMARK INTER + INTRA:          -8.162
REMARK INTER:                  -6.503
REMARK INTRA:                  -1.659
REMARK UNBOUND:                -1.659
REMARK SMILES CCCCCCCCCCCCCC(=O)[O-]
REMARK SMILES IDX 8 1 9 2 10 3 11 4 12 5 13 6 14 7 15 8 16 9 7 10 6 11 5 12
REMARK SMILES IDX 4 13 3 14 2 15 1 16
REMARK H PARENT
REMARK Flexibility Score: inf
ROOT
ATOM      1  C   UNL     1       5.228  -5.539   1.011  1.00  0.00     0.000 C 
ENDROOT
BRANCH   1   2
ATOM      2  C   UNL     1       5.463  -4.165   1.664  1.00  0.00     0.000 C 
BRANCH   2   3
ATOM      3  C   UNL     1       6.703  -3.441   1.110  1.00  0.00     0.000 C 
BRANCH   3   4
ATOM      4  C   UNL     1       6.531  -1.914   1.083  1.00  0.00     0.000 C 
BRANCH   4   5
ATOM      5  C   UNL     1       5.237  -1.477   0.380  1.00  0.00     0.006 C 
BRANCH   5   6
ATOM      6  C   UNL     1       5.344  -1.677  -1.135  1.00  0.00     0.053 C 
BRANCH   6   7
ATOM      7  C   UNL     1       5.660  -0.382  -1.815  1.00  0.00     0.041 C 
ATOM      8  O   UNL     1       4.935   0.033  -2.756  1.00  0.00    -0.550 OA
ATOM      9  O   UNL     1       6.785   0.342  -1.441  1.00  0.00    -0.550 OA
ENDBRANCH   6   7
ENDBRANCH   5   6
ENDBRANCH   4   5
ENDBRANCH   3   4
ENDBRANCH   2   3
ENDBRANCH   1   2
BRANCH   1  10
ATOM     10  C   UNL     1       4.170  -5.563  -0.109  1.00  0.00     0.000 C 
BRANCH  10  11
ATOM     11  C   UNL     1       3.124  -4.445   0.030  1.00  0.00    -0.000 C 
BRANCH  11  12
ATOM     12  C   UNL     1       1.696  -4.991   0.194  1.00  0.00    -0.000 C 
BRANCH  12  13
ATOM     13  C   UNL     1       1.417  -5.510   1.616  1.00  0.00    -0.000 C 
BRANCH  13  14
ATOM     14  C   UNL     1       1.880  -4.530   2.708  1.00  0.00    -0.000 C 
BRANCH  14  15
ATOM     15  C   UNL     1       2.769  -5.155   3.799  1.00  0.00    -0.003 C 
ATOM     16  C   UNL     1       2.851  -6.678   3.702  1.00  0.00     0.004 C 
ENDBRANCH  14  15
ENDBRANCH  13  14
ENDBRANCH  12  13
ENDBRANCH  11  12
ENDBRANCH  10  11
ENDBRANCH   1  10
TORSDOF 12
ENDMDL
MODEL 2
REMARK VINA RESULT:    -3.664      1.105      2.378
REMARK INTER + INTRA:          -7.894
REMARK INTER:                  -5.853
REMARK INTRA:                  -2.041
REMARK UNBOUND:                -1.659
REMARK SMILES CCCCCCCCCCCCCC(=O)[O-]
REMARK SMILES IDX 8 1 9 2 10 3 11 4 12 5 13 6 14 7 15 8 16 9 7 10 6 11 5 12
REMARK SMILES IDX 4 13 3 14 2 15 1 16
REMARK H PARENT
REMARK Flexibility Score: inf
ROOT
ATOM      1  C   UNL     1       2.924  -4.517   0.217  1.00  0.00     0.000 C 
ENDROOT
BRANCH   1   2
ATOM      2  C   UNL     1       4.109  -5.429  -0.147  1.00  0.00     0.000 C 
BRANCH   2   3
ATOM      3  C   UNL     1       5.423  -5.008   0.534  1.00  0.00     0.000 C 
BRANCH   3   4
ATOM      4  C   UNL     1       5.285  -3.691   1.315  1.00  0.00     0.000 C 
BRANCH   4   5
ATOM      5  C   UNL     1       6.097  -2.545   0.691  1.00  0.00     0.006 C 
BRANCH   5   6
ATOM      6  C   UNL     1       5.171  -1.490   0.080  1.00  0.00     0.053 C 
BRANCH   6   7
ATOM      7  C   UNL     1       5.315  -1.466  -1.410  1.00  0.00     0.041 C 
ATOM      8  O   UNL     1       5.661  -2.506  -2.029  1.00  0.00    -0.550 OA
ATOM      9  O   UNL     1       5.113  -0.282  -2.109  1.00  0.00    -0.550 OA
ENDBRANCH   6   7
ENDBRANCH   5   6
ENDBRANCH   4   5
ENDBRANCH   3   4
ENDBRANCH   2   3
ENDBRANCH   1   2
BRANCH   1  10
ATOM     10  C   UNL     1       1.592  -5.242   0.486  1.00  0.00     0.000 C 
BRANCH  10  11
ATOM     11  C   UNL     1       1.296  -5.415   1.985  1.00  0.00    -0.000 C 
BRANCH  11  12
ATOM     12  C   UNL     1       2.118  -4.456   2.862  1.00  0.00    -0.000 C 
BRANCH  12  13
ATOM     13  C   UNL     1       3.039  -5.194   3.850  1.00  0.00    -0.000 C 
BRANCH  13  14
ATOM     14  C   UNL     1       2.894  -6.724   3.769  1.00  0.00    -0.000 C 
BRANCH  14  15
ATOM     15  C   UNL     1       4.115  -7.457   3.183  1.00  0.00    -0.003 C 
ATOM     16  C   UNL     1       3.767  -8.321   1.971  1.00  0.00     0.004 C 
ENDBRANCH  14  15
ENDBRANCH  13  14
ENDBRANCH  12  13
ENDBRANCH  11  12
ENDBRANCH  10  11
ENDBRANCH   1  10
TORSDOF 12
ENDMDL
MODEL 3
REMARK VINA RESULT:    -3.576      3.041      6.227
REMARK INTER + INTRA:          -7.743
REMARK INTER:                  -5.918
REMARK INTRA:                  -1.825
REMARK UNBOUND:                -1.659
REMARK SMILES CCCCCCCCCCCCCC(=O)[O-]
REMARK SMILES IDX 8 1 9 2 10 3 11 4 12 5 13 6 14 7 15 8 16 9 7 10 6 11 5 12
REMARK SMILES IDX 4 13 3 14 2 15 1 16
REMARK H PARENT
REMARK Flexibility Score: inf
ROOT
ATOM      1  C   UNL     1       7.514   0.213  -1.661  1.00  0.00     0.000 C 
ENDROOT
BRANCH   1   2
ATOM      2  C   UNL     1       5.998  -0.025  -1.783  1.00  0.00     0.000 C 
BRANCH   2   3
ATOM      3  C   UNL     1       5.614  -1.512  -1.692  1.00  0.00     0.000 C 
BRANCH   3   4
ATOM      4  C   UNL     1       4.921  -1.861  -0.365  1.00  0.00     0.000 C 
BRANCH   4   5
ATOM      5  C   UNL     1       4.636  -3.364  -0.223  1.00  0.00     0.006 C 
BRANCH   5   6
ATOM      6  C   UNL     1       4.222  -3.709   1.210  1.00  0.00     0.053 C 
BRANCH   6   7
ATOM      7  C   UNL     1       2.777  -4.094   1.260  1.00  0.00     0.041 C 
ATOM      8  O   UNL     1       2.141  -4.027   2.345  1.00  0.00    -0.550 OA
ATOM      9  O   UNL     1       2.145  -4.573   0.120  1.00  0.00    -0.550 OA
ENDBRANCH   6   7
ENDBRANCH   5   6
ENDBRANCH   4   5
ENDBRANCH   3   4
ENDBRANCH   2   3
ENDBRANCH   1   2
BRANCH   1  10
ATOM     10  C   UNL     1       8.393  -1.042  -1.824  1.00  0.00     0.000 C 
BRANCH  10  11
ATOM     11  C   UNL     1       9.148  -1.416  -0.538  1.00  0.00    -0.000 C 
BRANCH  11  12
ATOM     12  C   UNL     1       8.677  -2.755   0.053  1.00  0.00    -0.000 C 
BRANCH  12  13
ATOM     13  C   UNL     1       7.907  -2.583   1.375  1.00  0.00    -0.000 C 
BRANCH  13  14
ATOM     14  C   UNL     1       8.386  -1.368   2.189  1.00  0.00    -0.000 C 
BRANCH  14  15
ATOM     15  C   UNL     1       7.377  -0.207   2.267  1.00  0.00    -0.003 C 
ATOM     16  C   UNL     1       8.015   1.157   2.007  1.00  0.00     0.004 C 
ENDBRANCH  14  15
ENDBRANCH  13  14
ENDBRANCH  12  13
ENDBRANCH  11  12
ENDBRANCH  10  11
ENDBRANCH   1  10
TORSDOF 12
ENDMDL
MODEL 4
REMARK VINA RESULT:    -3.564      3.380      5.754
REMARK INTER + INTRA:          -7.722
REMARK INTER:                  -6.068
REMARK INTRA:                  -1.654
REMARK UNBOUND:                -1.659
REMARK SMILES CCCCCCCCCCCCCC(=O)[O-]
REMARK SMILES IDX 8 1 9 2 10 3 11 4 12 5 13 6 14 7 15 8 16 9 7 10 6 11 5 12
REMARK SMILES IDX 4 13 3 14 2 15 1 16
REMARK H PARENT
REMARK Flexibility Score: inf
ROOT
ATOM      1  C   UNL     1       6.456  -4.973  -1.117  1.00  0.00     0.000 C 
ENDROOT
BRANCH   1   2
ATOM      2  C   UNL     1       5.021  -4.936  -0.561  1.00  0.00     0.000 C 
BRANCH   2   3
ATOM      3  C   UNL     1       4.892  -5.611   0.816  1.00  0.00     0.000 C 
BRANCH   3   4
ATOM      4  C   UNL     1       4.494  -4.620   1.922  1.00  0.00     0.000 C 
BRANCH   4   5
ATOM      5  C   UNL     1       3.106  -4.002   1.691  1.00  0.00     0.006 C 
BRANCH   5   6
ATOM      6  C   UNL     1       2.119  -4.457   2.770  1.00  0.00     0.053 C 
BRANCH   6   7
ATOM      7  C   UNL     1       1.193  -5.500   2.226  1.00  0.00     0.041 C 
ATOM      8  O   UNL     1       0.480  -6.184   3.008  1.00  0.00    -0.550 OA
ATOM      9  O   UNL     1       1.152  -5.750   0.861  1.00  0.00    -0.550 OA
ENDBRANCH   6   7
ENDBRANCH   5   6
ENDBRANCH   4   5
ENDBRANCH   3   4
ENDBRANCH   2   3
ENDBRANCH   1   2
BRANCH   1  10
ATOM     10  C   UNL     1       6.682  -4.168  -2.411  1.00  0.00     0.000 C 
BRANCH  10  11
ATOM     11  C   UNL     1       6.937  -2.675  -2.150  1.00  0.00    -0.000 C 
BRANCH  11  12
ATOM     12  C   UNL     1       5.658  -1.829  -2.268  1.00  0.00    -0.000 C 
BRANCH  12  13
ATOM     13  C   UNL     1       5.548  -0.760  -1.167  1.00  0.00    -0.000 C 
BRANCH  13  14
ATOM     14  C   UNL     1       5.348  -1.365   0.234  1.00  0.00    -0.000 C 
BRANCH  14  15
ATOM     15  C   UNL     1       6.509  -1.118   1.214  1.00  0.00    -0.003 C 
ATOM     16  C   UNL     1       7.294  -2.388   1.543  1.00  0.00     0.004 C 
ENDBRANCH  14  15
ENDBRANCH  13  14
ENDBRANCH  12  13
ENDBRANCH  11  12
ENDBRANCH  10  11
ENDBRANCH   1  10
TORSDOF 12
ENDMDL
MODEL 5
REMARK VINA RESULT:    -3.547      3.674      6.652
REMARK INTER + INTRA:          -7.693
REMARK INTER:                  -6.388
REMARK INTRA:                  -1.305
REMARK UNBOUND:                -1.659
REMARK SMILES CCCCCCCCCCCCCC(=O)[O-]
REMARK SMILES IDX 8 1 9 2 10 3 11 4 12 5 13 6 14 7 15 8 16 9 7 10 6 11 5 12
REMARK SMILES IDX 4 13 3 14 2 15 1 16
REMARK H PARENT
REMARK Flexibility Score: inf
ROOT
ATOM      1  C   UNL     1       6.038  -4.265   1.924  1.00  0.00     0.000 C 
ENDROOT
BRANCH   1   2
ATOM      2  C   UNL     1       5.081  -5.337   1.369  1.00  0.00     0.000 C 
BRANCH   2   3
ATOM      3  C   UNL     1       3.812  -4.739   0.737  1.00  0.00     0.000 C 
BRANCH   3   4
ATOM      4  C   UNL     1       3.054  -3.813   1.702  1.00  0.00     0.000 C 
BRANCH   4   5
ATOM      5  C   UNL     1       2.510  -4.555   2.932  1.00  0.00     0.006 C 
BRANCH   5   6
ATOM      6  C   UNL     1       1.086  -5.059   2.681  1.00  0.00     0.053 C 
BRANCH   6   7
ATOM      7  C   UNL     1       1.024  -6.547   2.824  1.00  0.00     0.041 C 
ATOM      8  O   UNL     1      -0.079  -7.118   3.036  1.00  0.00    -0.550 OA
ATOM      9  O   UNL     1       2.190  -7.301   2.771  1.00  0.00    -0.550 OA
ENDBRANCH   6   7
ENDBRANCH   5   6
ENDBRANCH   4   5
ENDBRANCH   3   4
ENDBRANCH   2   3
ENDBRANCH   1   2
BRANCH   1  10
ATOM     10  C   UNL     1       6.681  -3.346   0.868  1.00  0.00     0.000 C 
BRANCH  10  11
ATOM     11  C   UNL     1       6.325  -1.864   1.068  1.00  0.00    -0.000 C 
BRANCH  11  12
ATOM     12  C   UNL     1       5.245  -1.380   0.086  1.00  0.00    -0.000 C 
BRANCH  12  13
ATOM     13  C   UNL     1       5.305  -2.105  -1.270  1.00  0.00    -0.000 C 
BRANCH  13  14
ATOM     14  C   UNL     1       5.558  -1.148  -2.448  1.00  0.00    -0.000 C 
BRANCH  14  15
ATOM     15  C   UNL     1       5.797   0.319  -2.045  1.00  0.00    -0.003 C 
ATOM     16  C   UNL     1       7.280   0.678  -1.949  1.00  0.00     0.004 C 
ENDBRANCH  14  15
ENDBRANCH  13  14
ENDBRANCH  12  13
ENDBRANCH  11  12
ENDBRANCH  10  11
ENDBRANCH   1  10
TORSDOF 12
ENDMDL
MODEL 6
REMARK VINA RESULT:    -3.543      1.124      2.534
REMARK INTER + INTRA:          -7.687
REMARK INTER:                  -6.197
REMARK INTRA:                  -1.491
REMARK UNBOUND:                -1.659
REMARK SMILES CCCCCCCCCCCCCC(=O)[O-]
REMARK SMILES IDX 8 1 9 2 10 3 11 4 12 5 13 6 14 7 15 8 16 9 7 10 6 11 5 12
REMARK SMILES IDX 4 13 3 14 2 15 1 16
REMARK H PARENT
REMARK Flexibility Score: inf
ROOT
ATOM      1  C   UNL     1       5.325  -5.801   2.188  1.00  0.00     0.000 C 
ENDROOT
BRANCH   1   2
ATOM      2  C   UNL     1       6.030  -4.583   1.565  1.00  0.00     0.000 C 
BRANCH   2   3
ATOM      3  C   UNL     1       5.251  -3.978   0.384  1.00  0.00     0.000 C 
BRANCH   3   4
ATOM      4  C   UNL     1       4.513  -2.684   0.766  1.00  0.00     0.000 C 
BRANCH   4   5
ATOM      5  C   UNL     1       5.254  -1.421   0.300  1.00  0.00     0.006 C 
BRANCH   5   6
ATOM      6  C   UNL     1       5.236  -1.309  -1.227  1.00  0.00     0.053 C 
BRANCH   6   7
ATOM      7  C   UNL     1       6.366  -0.452  -1.703  1.00  0.00     0.041 C 
ATOM      8  O   UNL     1       7.557  -0.828  -1.544  1.00  0.00    -0.550 OA
ATOM      9  O   UNL     1       6.106   0.786  -2.279  1.00  0.00    -0.550 OA
ENDBRANCH   6   7
ENDBRANCH   5   6
ENDBRANCH   4   5
ENDBRANCH   3   4
ENDBRANCH   2   3
ENDBRANCH   1   2
BRANCH   1  10
ATOM     10  C   UNL     1       4.892  -5.632   3.657  1.00  0.00     0.000 C 
BRANCH  10  11
ATOM     11  C   UNL     1       3.372  -5.754   3.851  1.00  0.00    -0.000 C 
BRANCH  11  12
ATOM     12  C   UNL     1       2.608  -4.539   3.299  1.00  0.00    -0.000 C 
BRANCH  12  13
ATOM     13  C   UNL     1       1.344  -4.935   2.517  1.00  0.00    -0.000 C 
BRANCH  13  14
ATOM     14  C   UNL     1       1.468  -6.314   1.845  1.00  0.00    -0.000 C 
BRANCH  14  15
ATOM     15  C   UNL     1       1.678  -6.271   0.321  1.00  0.00    -0.003 C 
ATOM     16  C   UNL     1       1.637  -4.853  -0.248  1.00  0.00     0.004 C 
ENDBRANCH  14  15
ENDBRANCH  13  14
ENDBRANCH  12  13
ENDBRANCH  11  12
ENDBRANCH  10  11
ENDBRANCH   1  10
TORSDOF 12
ENDMDL
MODEL 7
REMARK VINA RESULT:    -3.522      1.478      2.441
REMARK INTER + INTRA:          -7.651
REMARK INTER:                  -5.977
REMARK INTRA:                  -1.674
REMARK UNBOUND:                -1.659
REMARK SMILES CCCCCCCCCCCCCC(=O)[O-]
REMARK SMILES IDX 8 1 9 2 10 3 11 4 12 5 13 6 14 7 15 8 16 9 7 10 6 11 5 12
REMARK SMILES IDX 4 13 3 14 2 15 1 16
REMARK H PARENT
REMARK Flexibility Score: inf
ROOT
ATOM      1  C   UNL     1       6.794  -3.616   1.091  1.00  0.00     0.000 C 
ENDROOT
BRANCH   1   2
ATOM      2  C   UNL     1       7.335  -2.269   1.604  1.00  0.00     0.000 C 
BRANCH   2   3
ATOM      3  C   UNL     1       6.424  -1.082   1.247  1.00  0.00     0.000 C 
BRANCH   3   4
ATOM      4  C   UNL     1       5.247  -1.491   0.347  1.00  0.00     0.000 C 
BRANCH   4   5
ATOM      5  C   UNL     1       5.388  -0.964  -1.089  1.00  0.00     0.006 C 
BRANCH   5   6
ATOM      6  C   UNL     1       5.694  -2.105  -2.063  1.00  0.00     0.053 C 
BRANCH   6   7
ATOM      7  C   UNL     1       7.172  -2.262  -2.239  1.00  0.00     0.041 C 
ATOM      8  O   UNL     1       7.646  -3.341  -2.682  1.00  0.00    -0.550 OA
ATOM      9  O   UNL     1       8.029  -1.234  -1.869  1.00  0.00    -0.550 OA
ENDBRANCH   6   7
ENDBRANCH   5   6
ENDBRANCH   4   5
ENDBRANCH   3   4
ENDBRANCH   2   3
ENDBRANCH   1   2
BRANCH   1  10
ATOM     10  C   UNL     1       6.442  -4.644   2.185  1.00  0.00     0.000 C 
BRANCH  10  11
ATOM     11  C   UNL     1       5.076  -5.312   1.961  1.00  0.00    -0.000 C 
BRANCH  11  12
ATOM     12  C   UNL     1       4.529  -5.076   0.544  1.00  0.00    -0.000 C 
BRANCH  12  13
ATOM     13  C   UNL     1       3.086  -4.542   0.543  1.00  0.00    -0.000 C 
BRANCH  13  14
ATOM     14  C   UNL     1       2.643  -4.023   1.922  1.00  0.00    -0.000 C 
BRANCH  14  15
ATOM     15  C   UNL     1       1.389  -4.708   2.496  1.00  0.00    -0.003 C 
ATOM     16  C   UNL     1       1.468  -6.233   2.450  1.00  0.00     0.004 C 
ENDBRANCH  14  15
ENDBRANCH  13  14
ENDBRANCH  12  13
ENDBRANCH  11  12
ENDBRANCH  10  11
ENDBRANCH   1  10
TORSDOF 12
ENDMDL
MODEL 8
REMARK VINA RESULT:    -3.519      3.964      6.541
REMARK INTER + INTRA:          -7.646
REMARK INTER:                  -5.923
REMARK INTRA:                  -1.723
REMARK UNBOUND:                -1.659
REMARK SMILES CCCCCCCCCCCCCC(=O)[O-]
REMARK SMILES IDX 8 1 9 2 10 3 11 4 12 5 13 6 14 7 15 8 16 9 7 10 6 11 5 12
REMARK SMILES IDX 4 13 3 14 2 15 1 16
REMARK H PARENT
REMARK Flexibility Score: inf
ROOT
ATOM      1  C   UNL     1       3.136  -6.216  -0.193  1.00  0.00     0.000 C 
ENDROOT
BRANCH   1   2
ATOM      2  C   UNL     1       1.916  -5.360   0.194  1.00  0.00     0.000 C 
BRANCH   2   3
ATOM      3  C   UNL     1       1.428  -5.625   1.629  1.00  0.00     0.000 C 
BRANCH   3   4
ATOM      4  C   UNL     1       1.811  -4.496   2.600  1.00  0.00     0.000 C 
BRANCH   4   5
ATOM      5  C   UNL     1       2.897  -4.919   3.601  1.00  0.00     0.006 C 
BRANCH   5   6
ATOM      6  C   UNL     1       3.005  -6.445   3.679  1.00  0.00     0.053 C 
BRANCH   6   7
ATOM      7  C   UNL     1       3.027  -6.896   5.106  1.00  0.00     0.041 C 
ATOM      8  O   UNL     1       2.110  -7.635   5.551  1.00  0.00    -0.550 OA
ATOM      9  O   UNL     1       4.035  -6.462   5.957  1.00  0.00    -0.550 OA
ENDBRANCH   6   7
ENDBRANCH   5   6
ENDBRANCH   4   5
ENDBRANCH   3   4
ENDBRANCH   2   3
ENDBRANCH   1   2
BRANCH   1  10
ATOM     10  C   UNL     1       4.446  -5.435  -0.409  1.00  0.00     0.000 C 
BRANCH  10  11
ATOM     11  C   UNL     1       5.296  -5.326   0.868  1.00  0.00    -0.000 C 
BRANCH  11  12
ATOM     12  C   UNL     1       5.587  -3.868   1.259  1.00  0.00    -0.000 C 
BRANCH  12  13
ATOM     13  C   UNL     1       4.618  -2.870   0.601  1.00  0.00    -0.000 C 
BRANCH  13  14
ATOM     14  C   UNL     1       5.254  -1.489   0.364  1.00  0.00    -0.000 C 
BRANCH  14  15
ATOM     15  C   UNL     1       5.350  -1.070  -1.114  1.00  0.00    -0.003 C 
ATOM     16  C   UNL     1       5.800  -2.209  -2.030  1.00  0.00     0.004 C 
ENDBRANCH  14  15
ENDBRANCH  13  14
ENDBRANCH  12  13
ENDBRANCH  11  12
ENDBRANCH  10  11
ENDBRANCH   1  10
TORSDOF 12
ENDMDL
MODEL 9
REMARK VINA RESULT:    -3.474      3.398      6.409
REMARK INTER + INTRA:          -7.570
REMARK INTER:                  -6.283
REMARK INTRA:                  -1.286
REMARK UNBOUND:                -1.659
REMARK SMILES CCCCCCCCCCCCCC(=O)[O-]
REMARK SMILES IDX 8 1 9 2 10 3 11 4 12 5 13 6 14 7 15 8 16 9 7 10 6 11 5 12
REMARK SMILES IDX 4 13 3 14 2 15 1 16
REMARK H PARENT
REMARK Flexibility Score: inf
ROOT
ATOM      1  C   UNL     1       5.673  -2.450  -1.769  1.00  0.00     0.000 C 
ENDROOT
BRANCH   1   2
ATOM      2  C   UNL     1       5.774  -3.459  -0.610  1.00  0.00     0.000 C 
BRANCH   2   3
ATOM      3  C   UNL     1       5.262  -2.893   0.726  1.00  0.00     0.000 C 
BRANCH   3   4
ATOM      4  C   UNL     1       3.899  -3.477   1.130  1.00  0.00     0.000 C 
BRANCH   4   5
ATOM      5  C   UNL     1       3.340  -4.455   0.084  1.00  0.00     0.006 C 
BRANCH   5   6
ATOM      6  C   UNL     1       1.881  -4.807   0.390  1.00  0.00     0.053 C 
BRANCH   6   7
ATOM      7  C   UNL     1       1.768  -5.453   1.734  1.00  0.00     0.041 C 
ATOM      8  O   UNL     1       1.113  -4.893   2.653  1.00  0.00    -0.550 OA
ATOM      9  O   UNL     1       2.426  -6.649   1.989  1.00  0.00    -0.550 OA
ENDBRANCH   6   7
ENDBRANCH   5   6
ENDBRANCH   4   5
ENDBRANCH   3   4
ENDBRANCH   2   3
ENDBRANCH   1   2
BRANCH   1  10
ATOM     10  C   UNL     1       5.240  -1.027  -1.367  1.00  0.00     0.000 C 
BRANCH  10  11
ATOM     11  C   UNL     1       6.137   0.065  -1.972  1.00  0.00    -0.000 C 
BRANCH  11  12
ATOM     12  C   UNL     1       7.611  -0.090  -1.563  1.00  0.00    -0.000 C 
BRANCH  12  13
ATOM     13  C   UNL     1       7.869   0.311  -0.100  1.00  0.00    -0.000 C 
BRANCH  13  14
ATOM     14  C   UNL     1       8.256  -0.886   0.786  1.00  0.00    -0.000 C 
BRANCH  14  15
ATOM     15  C   UNL     1       7.956  -0.702   2.285  1.00  0.00    -0.003 C 
ATOM     16  C   UNL     1       7.735   0.760   2.675  1.00  0.00     0.004 C 
ENDBRANCH  14  15
ENDBRANCH  13  14
ENDBRANCH  12  13
ENDBRANCH  11  12
ENDBRANCH  10  11
ENDBRANCH   1  10
TORSDOF 12
ENDMDL
