MODEL 1
REMARK VINA RESULT:    -4.865      0.000      0.000
REMARK INTER + INTRA:         -11.442
REMARK INTER:                  -9.415
REMARK INTRA:                  -2.026
REMARK UNBOUND:                -2.026
REMARK SMILES CCCCCCCCCCCCCCCCCC(=O)[O-]
REMARK SMILES IDX 10 1 11 2 12 3 13 4 14 5 15 6 16 7 17 8 18 9 19 10 20 11
REMARK SMILES IDX 9 12 8 13 7 14 6 15 5 16 4 17 3 18 2 19 1 20
REMARK H PARENT
REMARK Flexibility Score: inf
ROOT
ATOM      1  C   UNL     1       3.414  43.211   9.050  1.00  0.00     0.000 C 
ENDROOT
BRANCH   1   2
ATOM      2  C   UNL     1       1.882  43.179   9.147  1.00  0.00     0.000 C 
BRANCH   2   3
ATOM      3  C   UNL     1       1.215  44.399   8.484  1.00  0.00     0.000 C 
BRANCH   3   4
ATOM      4  C   UNL     1       1.086  45.643   9.386  1.00  0.00     0.000 C 
BRANCH   4   5
ATOM      5  C   UNL     1      -0.297  46.325   9.364  1.00  0.00     0.000 C 
BRANCH   5   6
ATOM      6  C   UNL     1      -0.345  47.674   8.620  1.00  0.00     0.000 C 
BRANCH   6   7
ATOM      7  C   UNL     1       0.910  48.004   7.786  1.00  0.00     0.006 C 
BRANCH   7   8
ATOM      8  C   UNL     1       1.948  48.872   8.514  1.00  0.00     0.053 C 
BRANCH   8   9
ATOM      9  C   UNL     1       2.350  50.064   7.703  1.00  0.00     0.041 C 
ATOM     10  O   UNL     1       3.567  50.353   7.562  1.00  0.00    -0.550 OA
ATOM     11  O   UNL     1       1.379  50.879   7.135  1.00  0.00    -0.550 OA
ENDBRANCH   8   9
ENDBRANCH   7   8
ENDBRANCH   6   7
ENDBRANCH   5   6
ENDBRANCH   4   5
ENDBRANCH   3   4
ENDBRANCH   2   3
ENDBRANCH   1   2
BRANCH   1  12
ATOM     12  C   UNL     1       4.056  42.949  10.421  1.00  0.00     0.000 C 
BRANCH  12  13
ATOM     13  C   UNL     1       3.131  43.319  11.594  1.00  0.00    -0.000 C 
BRANCH  13  14
ATOM     14  C   UNL     1       3.421  44.685  12.249  1.00  0.00    -0.000 C 
BRANCH  14  15
ATOM     15  C   UNL     1       4.564  45.491  11.602  1.00  0.00    -0.000 C 
BRANCH  15  16
ATOM     16  C   UNL     1       4.110  46.637  10.676  1.00  0.00    -0.000 C 
BRANCH  16  17
ATOM     17  C   UNL     1       4.820  46.690   9.310  1.00  0.00    -0.000 C 
BRANCH  17  18
ATOM     18  C   UNL     1       5.709  47.928   9.087  1.00  0.00    -0.000 C 
BRANCH  18  19
ATOM     19  C   UNL     1       7.169  47.738   9.552  1.00  0.00    -0.003 C 
ATOM     20  C   UNL     1       7.957  49.047   9.572  1.00  0.00     0.004 C 
ENDBRANCH  18  19
ENDBRANCH  17  18
ENDBRANCH  16  17
ENDBRANCH  15  16
ENDBRANCH  14  15
ENDBRANCH  13  14
ENDBRANCH  12  13
ENDBRANCH   1  12
TORSDOF 16
ENDMDL
MODEL 2
REMARK VINA RESULT:    -4.735      1.851      4.522
REMARK INTER + INTRA:         -11.190
REMARK INTER:                  -8.958
REMARK INTRA:                  -2.233
REMARK UNBOUND:                -2.026
REMARK SMILES CCCCCCCCCCCCCCCCCC(=O)[O-]
REMARK SMILES IDX 10 1 11 2 12 3 13 4 14 5 15 6 16 7 17 8 18 9 19 10 20 11
REMARK SMILES IDX 9 12 8 13 7 14 6 15 5 16 4 17 3 18 2 19 1 20
REMARK H PARENT
REMARK Flexibility Score: inf
ROOT
ATOM      1  C   UNL     1       3.766  43.166   9.183  1.00  0.00     0.000 C 
ENDROOT
BRANCH   1   2
ATOM      2  C   UNL     1       4.415  43.172  10.575  1.00  0.00     0.000 C 
BRANCH   2   3
ATOM      3  C   UNL     1       3.683  44.088  11.573  1.00  0.00     0.000 C 
BRANCH   3   4
ATOM      4  C   UNL     1       4.308  45.486  11.756  1.00  0.00     0.000 C 
BRANCH   4   5
ATOM      5  C   UNL     1       3.722  46.586  10.849  1.00  0.00     0.000 C 
BRANCH   5   6
ATOM      6  C   UNL     1       4.551  46.899   9.587  1.00  0.00     0.000 C 
BRANCH   6   7
ATOM      7  C   UNL     1       5.994  47.372   9.857  1.00  0.00     0.006 C 
BRANCH   7   8
ATOM      8  C   UNL     1       6.639  48.141   8.693  1.00  0.00     0.053 C 
BRANCH   8   9
ATOM      9  C   UNL     1       7.630  49.156   9.172  1.00  0.00     0.041 C 
ATOM     10  O   UNL     1       8.484  48.845  10.044  1.00  0.00    -0.550 OA
ATOM     11  O   UNL     1       7.587  50.455   8.682  1.00  0.00    -0.550 OA
ENDBRANCH   8   9
ENDBRANCH   7   8
ENDBRANCH   6   7
ENDBRANCH   5   6
ENDBRANCH   4   5
ENDBRANCH   3   4
ENDBRANCH   2   3
ENDBRANCH   1   2
BRANCH   1  12
ATOM     12  C   UNL     1       2.246  42.972   9.288  1.00  0.00     0.000 C 
BRANCH  12  13
ATOM     13  C   UNL     1       1.451  44.176   8.753  1.00  0.00    -0.000 C 
BRANCH  13  14
ATOM     14  C   UNL     1       0.783  45.051   9.834  1.00  0.00    -0.000 C 
BRANCH  14  15
ATOM     15  C   UNL     1       0.323  46.442   9.359  1.00  0.00    -0.000 C 
BRANCH  15  16
ATOM     16  C   UNL     1       0.581  46.740   7.868  1.00  0.00    -0.000 C 
BRANCH  16  17
ATOM     17  C   UNL     1       1.562  47.897   7.597  1.00  0.00    -0.000 C 
BRANCH  17  18
ATOM     18  C   UNL     1       1.303  49.175   8.417  1.00  0.00    -0.000 C 
BRANCH  18  19
ATOM     19  C   UNL     1       2.244  50.345   8.061  1.00  0.00    -0.003 C 
ATOM     20  C   UNL     1       3.596  49.874   7.525  1.00  0.00     0.004 C 
ENDBRANCH  18  19
ENDBRANCH  17  18
ENDBRANCH  16  17
ENDBRANCH  15  16
ENDBRANCH  14  15
ENDBRANCH  13  14
ENDBRANCH  12  13
ENDBRANCH   1  12
TORSDOF 16
ENDMDL
MODEL 3
REMARK VINA RESULT:    -4.694      2.661      6.269
REMARK INTER + INTRA:         -11.110
REMARK INTER:                  -8.901
REMARK INTRA:                  -2.209
REMARK UNBOUND:                -2.026
REMARK SMILES CCCCCCCCCCCCCCCCCC(=O)[O-]
REMARK SMILES IDX 10 1 11 2 12 3 13 4 14 5 15 6 16 7 17 8 18 9 19 10 20 11
REMARK SMILES IDX 9 12 8 13 7 14 6 15 5 16 4 17 3 18 2 19 1 20
REMARK H PARENT
REMARK Flexibility Score: inf
ROOT
ATOM      1  C   UNL     1       5.264  47.316   9.179  1.00  0.00     0.000 C 
ENDROOT
BRANCH   1   2
ATOM      2  C   UNL     1       3.889  46.664   9.382  1.00  0.00     0.000 C 
BRANCH   2   3
ATOM      3  C   UNL     1       3.562  46.404  10.864  1.00  0.00     0.000 C 
BRANCH   3   4
ATOM      4  C   UNL     1       4.565  45.496  11.604  1.00  0.00     0.000 C 
BRANCH   4   5
ATOM      5  C   UNL     1       3.931  44.358  12.428  1.00  0.00     0.000 C 
BRANCH   5   6
ATOM      6  C   UNL     1       2.398  44.246  12.310  1.00  0.00     0.000 C 
BRANCH   6   7
ATOM      7  C   UNL     1       1.893  43.012  11.534  1.00  0.00     0.006 C 
BRANCH   7   8
ATOM      8  C   UNL     1       2.939  42.371  10.608  1.00  0.00     0.053 C 
BRANCH   8   9
ATOM      9  C   UNL     1       2.973  43.026   9.262  1.00  0.00     0.041 C 
ATOM     10  O   UNL     1       1.900  43.283   8.656  1.00  0.00    -0.550 OA
ATOM     11  O   UNL     1       4.191  43.318   8.661  1.00  0.00    -0.550 OA
ENDBRANCH   8   9
ENDBRANCH   7   8
ENDBRANCH   6   7
ENDBRANCH   5   6
ENDBRANCH   4   5
ENDBRANCH   3   4
ENDBRANCH   2   3
ENDBRANCH   1   2
BRANCH   1  12
ATOM     12  C   UNL     1       5.149  48.584   8.321  1.00  0.00     0.000 C 
BRANCH  12  13
ATOM     13  C   UNL     1       3.838  48.645   7.516  1.00  0.00    -0.000 C 
BRANCH  13  14
ATOM     14  C   UNL     1       3.060  49.971   7.635  1.00  0.00    -0.000 C 
BRANCH  14  15
ATOM     15  C   UNL     1       1.797  49.913   8.515  1.00  0.00    -0.000 C 
BRANCH  15  16
ATOM     16  C   UNL     1       0.463  49.891   7.741  1.00  0.00    -0.000 C 
BRANCH  16  17
ATOM     17  C   UNL     1      -0.338  48.580   7.862  1.00  0.00    -0.000 C 
BRANCH  17  18
ATOM     18  C   UNL     1       0.479  47.296   7.627  1.00  0.00    -0.000 C 
BRANCH  18  19
ATOM     19  C   UNL     1      -0.134  46.040   8.283  1.00  0.00    -0.003 C 
ATOM     20  C   UNL     1       0.146  45.960   9.783  1.00  0.00     0.004 C 
ENDBRANCH  18  19
ENDBRANCH  17  18
ENDBRANCH  16  17
ENDBRANCH  15  16
ENDBRANCH  14  15
ENDBRANCH  13  14
ENDBRANCH  12  13
ENDBRANCH   1  12
TORSDOF 16
ENDMDL
MODEL 4
REMARK VINA RESULT:    -4.637      2.374      5.043
REMARK INTER + INTRA:         -11.000
REMARK INTER:                  -9.116
REMARK INTRA:                  -1.884
REMARK UNBOUND:                -2.026
REMARK SMILES CCCCCCCCCCCCCCCCCC(=O)[O-]
REMARK SMILES IDX 10 1 11 2 12 3 13 4 14 5 15 6 16 7 17 8 18 9 19 10 20 11
REMARK SMILES IDX 9 12 8 13 7 14 6 15 5 16 4 17 3 18 2 19 1 20
REMARK H PARENT
REMARK Flexibility Score: inf
ROOT
ATOM      1  C   UNL     1       3.131  48.167   7.501  1.00  0.00     0.000 C 
ENDROOT
BRANCH   1   2
ATOM      2  C   UNL     1       3.885  49.499   7.625  1.00  0.00     0.000 C 
BRANCH   2   3
ATOM      3  C   UNL     1       2.946  50.720   7.621  1.00  0.00     0.000 C 
BRANCH   3   4
ATOM      4  C   UNL     1       1.582  50.498   8.304  1.00  0.00     0.000 C 
BRANCH   4   5
ATOM      5  C   UNL     1       0.354  50.747   7.405  1.00  0.00     0.000 C 
BRANCH   5   6
ATOM      6  C   UNL     1      -0.801  49.743   7.588  1.00  0.00     0.000 C 
BRANCH   6   7
ATOM      7  C   UNL     1      -0.387  48.370   8.159  1.00  0.00     0.006 C 
BRANCH   7   8
ATOM      8  C   UNL     1      -0.579  47.194   7.188  1.00  0.00     0.053 C 
BRANCH   8   9
ATOM      9  C   UNL     1      -0.135  45.895   7.786  1.00  0.00     0.041 C 
ATOM     10  O   UNL     1       0.111  45.816   9.018  1.00  0.00    -0.550 OA
ATOM     11  O   UNL     1       0.042  44.781   6.976  1.00  0.00    -0.550 OA
ENDBRANCH   8   9
ENDBRANCH   7   8
ENDBRANCH   6   7
ENDBRANCH   5   6
ENDBRANCH   4   5
ENDBRANCH   3   4
ENDBRANCH   2   3
ENDBRANCH   1   2
BRANCH   1  12
ATOM     12  C   UNL     1       3.237  47.353   8.799  1.00  0.00     0.000 C 
BRANCH  12  13
ATOM     13  C   UNL     1       4.687  46.975   9.151  1.00  0.00    -0.000 C 
BRANCH  13  14
ATOM     14  C   UNL     1       4.915  46.561  10.620  1.00  0.00    -0.000 C 
BRANCH  14  15
ATOM     15  C   UNL     1       3.727  45.846  11.290  1.00  0.00    -0.000 C 
BRANCH  15  16
ATOM     16  C   UNL     1       4.112  44.796  12.352  1.00  0.00    -0.000 C 
BRANCH  16  17
ATOM     17  C   UNL     1       3.133  43.614  12.483  1.00  0.00    -0.000 C 
BRANCH  17  18
ATOM     18  C   UNL     1       2.175  43.429  11.292  1.00  0.00    -0.000 C 
BRANCH  18  19
ATOM     19  C   UNL     1       2.758  42.566  10.152  1.00  0.00    -0.003 C 
ATOM     20  C   UNL     1       2.774  43.294   8.809  1.00  0.00     0.004 C 
ENDBRANCH  18  19
ENDBRANCH  17  18
ENDBRANCH  16  17
ENDBRANCH  15  16
ENDBRANCH  14  15
ENDBRANCH  13  14
ENDBRANCH  12  13
ENDBRANCH   1  12
TORSDOF 16
ENDMDL
MODEL 5
REMARK VINA RESULT:    -4.634      2.893      5.635
REMARK INTER + INTRA:         -10.995
REMARK INTER:                  -8.642
REMARK INTRA:                  -2.353
REMARK UNBOUND:                -2.026
REMARK SMILES CCCCCCCCCCCCCCCCCC(=O)[O-]
REMARK SMILES IDX 10 1 11 2 12 3 13 4 14 5 15 6 16 7 17 8 18 9 19 10 20 11
REMARK SMILES IDX 9 12 8 13 7 14 6 15 5 16 4 17 3 18 2 19 1 20
REMARK H PARENT
REMARK Flexibility Score: inf
ROOT
ATOM      1  C   UNL     1      -0.311  48.629   8.197  1.00  0.00     0.000 C 
ENDROOT
BRANCH   1   2
ATOM      2  C   UNL     1      -0.228  47.434   7.237  1.00  0.00     0.000 C 
BRANCH   2   3
ATOM      3  C   UNL     1      -0.695  46.115   7.881  1.00  0.00     0.000 C 
BRANCH   3   4
ATOM      4  C   UNL     1       0.221  44.902   7.621  1.00  0.00     0.000 C 
BRANCH   4   5
ATOM      5  C   UNL     1       1.151  44.524   8.791  1.00  0.00     0.000 C 
BRANCH   5   6
ATOM      6  C   UNL     1       0.819  45.207  10.133  1.00  0.00     0.000 C 
BRANCH   6   7
ATOM      7  C   UNL     1       1.364  44.485  11.383  1.00  0.00     0.006 C 
BRANCH   7   8
ATOM      8  C   UNL     1       2.785  44.907  11.791  1.00  0.00     0.053 C 
BRANCH   8   9
ATOM      9  C   UNL     1       3.767  43.787  11.638  1.00  0.00     0.041 C 
ATOM     10  O   UNL     1       4.292  43.262  12.655  1.00  0.00    -0.550 OA
ATOM     11  O   UNL     1       4.131  43.348  10.371  1.00  0.00    -0.550 OA
ENDBRANCH   8   9
ENDBRANCH   7   8
ENDBRANCH   6   7
ENDBRANCH   5   6
ENDBRANCH   4   5
ENDBRANCH   3   4
ENDBRANCH   2   3
ENDBRANCH   1   2
BRANCH   1  12
ATOM     12  C   UNL     1      -0.532  49.939   7.425  1.00  0.00     0.000 C 
BRANCH  12  13
ATOM     13  C   UNL     1       0.714  50.843   7.412  1.00  0.00    -0.000 C 
BRANCH  13  14
ATOM     14  C   UNL     1       1.862  50.385   8.335  1.00  0.00    -0.000 C 
BRANCH  14  15
ATOM     15  C   UNL     1       3.184  50.049   7.618  1.00  0.00    -0.000 C 
BRANCH  15  16
ATOM     16  C   UNL     1       3.488  48.543   7.484  1.00  0.00    -0.000 C 
BRANCH  16  17
ATOM     17  C   UNL     1       3.232  47.712   8.755  1.00  0.00    -0.000 C 
BRANCH  17  18
ATOM     18  C   UNL     1       4.291  46.633   9.051  1.00  0.00    -0.000 C 
BRANCH  18  19
ATOM     19  C   UNL     1       5.361  47.074  10.072  1.00  0.00    -0.003 C 
ATOM     20  C   UNL     1       6.531  47.811   9.420  1.00  0.00     0.004 C 
ENDBRANCH  18  19
ENDBRANCH  17  18
ENDBRANCH  16  17
ENDBRANCH  15  16
ENDBRANCH  14  15
ENDBRANCH  13  14
ENDBRANCH  12  13
ENDBRANCH   1  12
TORSDOF 16
ENDMDL
MODEL 6
REMARK VINA RESULT:    -4.578      2.774      5.420
REMARK INTER + INTRA:         -10.886
REMARK INTER:                  -9.062
REMARK INTRA:                  -1.823
REMARK UNBOUND:                -2.026
REMARK SMILES CCCCCCCCCCCCCCCCCC(=O)[O-]
REMARK SMILES IDX 10 1 11 2 12 3 13 4 14 5 15 6 16 7 17 8 18 9 19 10 20 11
REMARK SMILES IDX 9 12 8 13 7 14 6 15 5 16 4 17 3 18 2 19 1 20
REMARK H PARENT
REMARK Flexibility Score: inf
ROOT
ATOM      1  C   UNL     1      -0.137  48.767   8.211  1.00  0.00     0.000 C 
ENDROOT
BRANCH   1   2
ATOM      2  C   UNL     1       0.165  47.550   7.325  1.00  0.00     0.000 C 
BRANCH   2   3
ATOM      3  C   UNL     1      -0.345  46.228   7.929  1.00  0.00     0.000 C 
BRANCH   3   4
ATOM      4  C   UNL     1      -0.160  46.092   9.454  1.00  0.00     0.000 C 
BRANCH   4   5
ATOM      5  C   UNL     1       0.840  45.005   9.895  1.00  0.00     0.000 C 
BRANCH   5   6
ATOM      6  C   UNL     1       1.872  45.459  10.947  1.00  0.00     0.000 C 
BRANCH   6   7
ATOM      7  C   UNL     1       2.411  44.336  11.857  1.00  0.00     0.006 C 
BRANCH   7   8
ATOM      8  C   UNL     1       3.770  43.763  11.425  1.00  0.00     0.053 C 
BRANCH   8   9
ATOM      9  C   UNL     1       3.676  43.014  10.131  1.00  0.00     0.041 C 
ATOM     10  O   UNL     1       4.359  43.377   9.138  1.00  0.00    -0.550 OA
ATOM     11  O   UNL     1       2.807  41.936  10.013  1.00  0.00    -0.550 OA
ENDBRANCH   8   9
ENDBRANCH   7   8
ENDBRANCH   6   7
ENDBRANCH   5   6
ENDBRANCH   4   5
ENDBRANCH   3   4
ENDBRANCH   2   3
ENDBRANCH   1   2
BRANCH   1  12
ATOM     12  C   UNL     1       0.506  50.037   7.635  1.00  0.00     0.000 C 
BRANCH  12  13
ATOM     13  C   UNL     1       1.907  50.312   8.212  1.00  0.00    -0.000 C 
BRANCH  13  14
ATOM     14  C   UNL     1       3.078  50.011   7.254  1.00  0.00    -0.000 C 
BRANCH  14  15
ATOM     15  C   UNL     1       3.672  48.595   7.373  1.00  0.00    -0.000 C 
BRANCH  15  16
ATOM     16  C   UNL     1       3.514  47.935   8.757  1.00  0.00    -0.000 C 
BRANCH  16  17
ATOM     17  C   UNL     1       4.532  46.821   9.067  1.00  0.00    -0.000 C 
BRANCH  17  18
ATOM     18  C   UNL     1       5.779  47.279   9.848  1.00  0.00    -0.000 C 
BRANCH  18  19
ATOM     19  C   UNL     1       6.733  48.173   9.029  1.00  0.00    -0.003 C 
ATOM     20  C   UNL     1       8.026  48.498   9.776  1.00  0.00     0.004 C 
ENDBRANCH  18  19
ENDBRANCH  17  18
ENDBRANCH  16  17
ENDBRANCH  15  16
ENDBRANCH  14  15
ENDBRANCH  13  14
ENDBRANCH  12  13
ENDBRANCH   1  12
TORSDOF 16
ENDMDL
MODEL 7
REMARK VINA RESULT:    -4.573      2.156      5.246
REMARK INTER + INTRA:         -10.876
REMARK INTER:                  -9.020
REMARK INTRA:                  -1.856
REMARK UNBOUND:                -2.026
REMARK SMILES CCCCCCCCCCCCCCCCCC(=O)[O-]
REMARK SMILES IDX 10 1 11 2 12 3 13 4 14 5 15 6 16 7 17 8 18 9 19 10 20 11
REMARK SMILES IDX 9 12 8 13 7 14 6 15 5 16 4 17 3 18 2 19 1 20
REMARK H PARENT
REMARK Flexibility Score: inf
ROOT
ATOM      1  C   UNL     1      -0.030  48.198   8.388  1.00  0.00     0.000 C 
ENDROOT
BRANCH   1   2
ATOM      2  C   UNL     1      -0.665  49.359   7.609  1.00  0.00     0.000 C 
BRANCH   2   3
ATOM      3  C   UNL     1       0.229  50.612   7.567  1.00  0.00     0.000 C 
BRANCH   3   4
ATOM      4  C   UNL     1       1.620  50.443   8.211  1.00  0.00     0.000 C 
BRANCH   4   5
ATOM      5  C   UNL     1       2.802  50.445   7.221  1.00  0.00     0.000 C 
BRANCH   5   6
ATOM      6  C   UNL     1       4.020  49.610   7.661  1.00  0.00     0.000 C 
BRANCH   6   7
ATOM      7  C   UNL     1       3.796  48.083   7.666  1.00  0.00     0.006 C 
BRANCH   7   8
ATOM      8  C   UNL     1       3.714  47.457   9.067  1.00  0.00     0.053 C 
BRANCH   8   9
ATOM      9  C   UNL     1       5.071  47.196   9.644  1.00  0.00     0.041 C 
ATOM     10  O   UNL     1       5.189  46.546  10.716  1.00  0.00    -0.550 OA
ATOM     11  O   UNL     1       6.203  47.701   9.017  1.00  0.00    -0.550 OA
ENDBRANCH   8   9
ENDBRANCH   7   8
ENDBRANCH   6   7
ENDBRANCH   5   6
ENDBRANCH   4   5
ENDBRANCH   3   4
ENDBRANCH   2   3
ENDBRANCH   1   2
BRANCH   1  12
ATOM     12  C   UNL     1       0.437  47.088   7.434  1.00  0.00     0.000 C 
BRANCH  12  13
ATOM     13  C   UNL     1      -0.090  45.697   7.831  1.00  0.00    -0.000 C 
BRANCH  13  14
ATOM     14  C   UNL     1       0.778  44.940   8.856  1.00  0.00    -0.000 C 
BRANCH  14  15
ATOM     15  C   UNL     1       0.601  45.386  10.320  1.00  0.00    -0.000 C 
BRANCH  15  16
ATOM     16  C   UNL     1       1.205  44.431  11.370  1.00  0.00    -0.000 C 
BRANCH  16  17
ATOM     17  C   UNL     1       2.662  44.739  11.767  1.00  0.00    -0.000 C 
BRANCH  17  18
ATOM     18  C   UNL     1       3.620  43.535  11.706  1.00  0.00    -0.000 C 
BRANCH  18  19
ATOM     19  C   UNL     1       3.533  42.736  10.389  1.00  0.00    -0.003 C 
ATOM     20  C   UNL     1       4.051  43.522   9.185  1.00  0.00     0.004 C 
ENDBRANCH  18  19
ENDBRANCH  17  18
ENDBRANCH  16  17
ENDBRANCH  15  16
ENDBRANCH  14  15
ENDBRANCH  13  14
ENDBRANCH  12  13
ENDBRANCH   1  12
TORSDOF 16
ENDMDL
MODEL 8
REMARK VINA RESULT:    -4.491      2.767      5.466
REMARK INTER + INTRA:         -10.718
REMARK INTER:                  -8.657
REMARK INTRA:                  -2.060
REMARK UNBOUND:                -2.026
REMARK SMILES CCCCCCCCCCCCCCCCCC(=O)[O-]
REMARK SMILES IDX 10 1 11 2 12 3 13 4 14 5 15 6 16 7 17 8 18 9 19 10 20 11
REMARK SMILES IDX 9 12 8 13 7 14 6 15 5 16 4 17 3 18 2 19 1 20
REMARK H PARENT
REMARK Flexibility Score: inf
ROOT
ATOM      1  C   UNL     1       0.052  46.613   6.894  1.00  0.00     0.000 C 
ENDROOT
BRANCH   1   2
ATOM      2  C   UNL     1      -0.290  45.203   7.395  1.00  0.00     0.000 C 
BRANCH   2   3
ATOM      3  C   UNL     1       0.739  44.660   8.405  1.00  0.00     0.000 C 
BRANCH   3   4
ATOM      4  C   UNL     1       1.155  45.652   9.510  1.00  0.00     0.000 C 
BRANCH   4   5
ATOM      5  C   UNL     1       0.617  45.324  10.917  1.00  0.00     0.000 C 
BRANCH   5   6
ATOM      6  C   UNL     1       1.325  44.152  11.627  1.00  0.00     0.000 C 
BRANCH   6   7
ATOM      7  C   UNL     1       2.799  44.412  12.002  1.00  0.00     0.006 C 
BRANCH   7   8
ATOM      8  C   UNL     1       3.774  43.318  11.540  1.00  0.00     0.053 C 
BRANCH   8   9
ATOM      9  C   UNL     1       3.536  42.918  10.117  1.00  0.00     0.041 C 
ATOM     10  O   UNL     1       2.860  41.889   9.852  1.00  0.00    -0.550 OA
ATOM     11  O   UNL     1       4.093  43.661   9.083  1.00  0.00    -0.550 OA
ENDBRANCH   8   9
ENDBRANCH   7   8
ENDBRANCH   6   7
ENDBRANCH   5   6
ENDBRANCH   4   5
ENDBRANCH   3   4
ENDBRANCH   2   3
ENDBRANCH   1   2
BRANCH   1  12
ATOM     12  C   UNL     1      -1.083  47.598   7.210  1.00  0.00     0.000 C 
BRANCH  12  13
ATOM     13  C   UNL     1      -0.635  48.756   8.120  1.00  0.00    -0.000 C 
BRANCH  13  14
ATOM     14  C   UNL     1       0.884  48.834   8.375  1.00  0.00    -0.000 C 
BRANCH  14  15
ATOM     15  C   UNL     1       1.534  50.192   8.048  1.00  0.00    -0.000 C 
BRANCH  15  16
ATOM     16  C   UNL     1       3.013  50.120   7.616  1.00  0.00    -0.000 C 
BRANCH  16  17
ATOM     17  C   UNL     1       3.555  48.696   7.389  1.00  0.00    -0.000 C 
BRANCH  17  18
ATOM     18  C   UNL     1       4.702  48.279   8.329  1.00  0.00    -0.000 C 
BRANCH  18  19
ATOM     19  C   UNL     1       4.466  46.929   9.038  1.00  0.00    -0.003 C 
ATOM     20  C   UNL     1       4.983  46.918  10.476  1.00  0.00     0.004 C 
ENDBRANCH  18  19
ENDBRANCH  17  18
ENDBRANCH  16  17
ENDBRANCH  15  16
ENDBRANCH  14  15
ENDBRANCH  13  14
ENDBRANCH  12  13
ENDBRANCH   1  12
TORSDOF 16
ENDMDL
MODEL 9
REMARK VINA RESULT:    -4.396      3.095      6.921
REMARK INTER + INTRA:         -10.535
REMARK INTER:                  -8.766
REMARK INTRA:                  -1.769
REMARK UNBOUND:                -2.026
REMARK SMILES CCCCCCCCCCCCCCCCCC(=O)[O-]
REMARK SMILES IDX 10 1 11 2 12 3 13 4 14 5 15 6 16 7 17 8 18 9 19 10 20 11
REMARK SMILES IDX 9 12 8 13 7 14 6 15 5 16 4 17 3 18 2 19 1 20
REMARK H PARENT
REMARK Flexibility Score: inf
ROOT
ATOM      1  C   UNL     1       3.537  49.009   7.225  1.00  0.00     0.000 C 
ENDROOT
BRANCH   1   2
ATOM      2  C   UNL     1       3.670  48.013   8.386  1.00  0.00     0.000 C 
BRANCH   2   3
ATOM      3  C   UNL     1       5.135  47.736   8.771  1.00  0.00     0.000 C 
BRANCH   3   4
ATOM      4  C   UNL     1       5.333  47.061  10.143  1.00  0.00     0.000 C 
BRANCH   4   5
ATOM      5  C   UNL     1       4.259  46.022  10.520  1.00  0.00     0.000 C 
BRANCH   5   6
ATOM      6  C   UNL     1       4.133  44.833   9.546  1.00  0.00     0.000 C 
BRANCH   6   7
ATOM      7  C   UNL     1       4.067  43.446  10.217  1.00  0.00     0.006 C 
BRANCH   7   8
ATOM      8  C   UNL     1       2.644  42.967  10.548  1.00  0.00     0.053 C 
BRANCH   8   9
ATOM      9  C   UNL     1       2.297  43.193  11.987  1.00  0.00     0.041 C 
ATOM     10  O   UNL     1       1.259  42.678  12.477  1.00  0.00    -0.550 OA
ATOM     11  O   UNL     1       3.102  44.005  12.777  1.00  0.00    -0.550 OA
ENDBRANCH   8   9
ENDBRANCH   7   8
ENDBRANCH   6   7
ENDBRANCH   5   6
ENDBRANCH   4   5
ENDBRANCH   3   4
ENDBRANCH   2   3
ENDBRANCH   1   2
BRANCH   1  12
ATOM     12  C   UNL     1       2.953  50.344   7.712  1.00  0.00     0.000 C 
BRANCH  12  13
ATOM     13  C   UNL     1       1.525  50.204   8.270  1.00  0.00    -0.000 C 
BRANCH  13  14
ATOM     14  C   UNL     1       0.410  50.746   7.353  1.00  0.00    -0.000 C 
BRANCH  14  15
ATOM     15  C   UNL     1      -0.965  50.074   7.527  1.00  0.00    -0.000 C 
BRANCH  15  16
ATOM     16  C   UNL     1      -0.932  48.685   8.197  1.00  0.00    -0.000 C 
BRANCH  16  17
ATOM     17  C   UNL     1      -0.769  47.499   7.228  1.00  0.00    -0.000 C 
BRANCH  17  18
ATOM     18  C   UNL     1       0.511  46.666   7.430  1.00  0.00    -0.000 C 
BRANCH  18  19
ATOM     19  C   UNL     1       0.337  45.484   8.407  1.00  0.00    -0.003 C 
ATOM     20  C   UNL     1       0.573  45.883   9.864  1.00  0.00     0.004 C 
ENDBRANCH  18  19
ENDBRANCH  17  18
ENDBRANCH  16  17
ENDBRANCH  15  16
ENDBRANCH  14  15
ENDBRANCH  13  14
ENDBRANCH  12  13
ENDBRANCH   1  12
TORSDOF 16
ENDMDL
