MODEL 1
REMARK VINA RESULT:    35.041      0.000      0.000
REMARK INTER + INTRA:          42.922
REMARK INTER:                  43.235
REMARK INTRA:                  -0.314
REMARK UNBOUND:                -0.314
REMARK SMILES Oc1cc(O)c2cc(O)c(-c3cc(O)c(O)c(O)c3)[o+]c2c1
REMARK SMILES IDX 10 1 20 2 21 3 22 4 2 5 3 6 4 7 6 8 7 9 8 10 11 11 12 12
REMARK SMILES IDX 13 13 19 14 15 15 17 16 14 17 16 19 18 21 9 23 1 25 5 27
REMARK H PARENT 14 18 16 20 18 22 9 24 1 26 5 28
REMARK Flexibility Score: inf
ROOT
ATOM      1  C   UNL     1      96.309  73.908  54.487  1.00  0.00     0.402 A 
ATOM      2  O   UNL     1      96.769  73.232  53.438  1.00  0.00    -0.202 OA
ATOM      3  C   UNL     1      96.960  71.917  53.444  1.00  0.00     0.368 A 
ATOM      4  C   UNL     1      97.444  71.295  52.290  1.00  0.00     0.162 A 
ATOM      5  C   UNL     1      97.651  69.915  52.267  1.00  0.00     0.128 A 
ATOM      6  C   UNL     1      97.373  69.149  53.405  1.00  0.00     0.093 A 
ATOM      7  C   UNL     1      96.886  69.750  54.573  1.00  0.00     0.136 A 
ATOM      8  C   UNL     1      96.676  71.152  54.601  1.00  0.00     0.125 A 
ATOM      9  C   UNL     1      96.204  71.840  55.731  1.00  0.00     0.078 A 
ATOM     10  C   UNL     1      96.027  73.227  55.685  1.00  0.00     0.223 A 
ENDROOT
BRANCH   1  11
ATOM     11  C   UNL     1      96.128  75.372  54.353  1.00  0.00     0.091 A 
ATOM     12  C   UNL     1      97.063  76.240  54.938  1.00  0.00     0.068 A 
ATOM     13  C   UNL     1      96.927  77.628  54.809  1.00  0.00     0.162 A 
ATOM     14  C   UNL     1      95.070  75.914  53.602  1.00  0.00     0.068 A 
ATOM     15  C   UNL     1      95.858  78.162  54.079  1.00  0.00     0.200 A 
ATOM     16  C   UNL     1      94.929  77.302  53.469  1.00  0.00     0.162 A 
BRANCH  13  17
ATOM     17  O   UNL     1      97.850  78.485  55.406  1.00  0.00    -0.504 OA
ATOM     18  H   UNL     1      98.795  78.184  55.615  1.00  0.00     0.293 HD
ENDBRANCH  13  17
BRANCH  15  19
ATOM     19  O   UNL     1      95.736  79.547  53.963  1.00  0.00    -0.502 OA
ATOM     20  H   UNL     1      96.542  80.162  53.970  1.00  0.00     0.293 HD
ENDBRANCH  15  19
BRANCH  16  21
ATOM     21  O   UNL     1      93.872  77.830  52.728  1.00  0.00    -0.504 OA
ATOM     22  H   UNL     1      93.965  78.700  52.216  1.00  0.00     0.293 HD
ENDBRANCH  16  21
ENDBRANCH   1  11
BRANCH  10  23
ATOM     23  O   UNL     1      95.606  73.917  56.822  1.00  0.00    -0.500 OA
ATOM     24  H   UNL     1      96.253  74.171  57.560  1.00  0.00     0.294 HD
ENDBRANCH  10  23
BRANCH   5  25
ATOM     25  O   UNL     1      98.136  69.313  51.108  1.00  0.00    -0.507 OA
ATOM     26  H   UNL     1      98.393  68.334  51.087  1.00  0.00     0.293 HD
ENDBRANCH   5  25
BRANCH   7  27
ATOM     27  O   UNL     1      96.628  68.916  55.665  1.00  0.00    -0.507 OA
ATOM     28  H   UNL     1      95.852  68.273  55.721  1.00  0.00     0.293 HD
ENDBRANCH   7  27
TORSDOF 7
ENDMDL
MODEL 2
REMARK VINA RESULT:    35.157      3.103      6.864
REMARK INTER + INTRA:          43.064
REMARK INTER:                  43.365
REMARK INTRA:                  -0.301
REMARK UNBOUND:                -0.314
REMARK SMILES Oc1cc(O)c2cc(O)c(-c3cc(O)c(O)c(O)c3)[o+]c2c1
REMARK SMILES IDX 10 1 20 2 21 3 22 4 2 5 3 6 4 7 6 8 7 9 8 10 11 11 12 12
REMARK SMILES IDX 13 13 19 14 15 15 17 16 14 17 16 19 18 21 9 23 1 25 5 27
REMARK H PARENT 14 18 16 20 18 22 9 24 1 26 5 28
REMARK Flexibility Score: inf
ROOT
ATOM      1  C   UNL     1      95.987  72.695  55.721  1.00  0.00     0.402 A 
ATOM      2  O   UNL     1      96.743  73.632  56.287  1.00  0.00    -0.202 OA
ATOM      3  C   UNL     1      96.328  74.395  57.293  1.00  0.00     0.368 A 
ATOM      4  C   UNL     1      97.197  75.352  57.824  1.00  0.00     0.162 A 
ATOM      5  C   UNL     1      96.789  76.165  58.882  1.00  0.00     0.128 A 
ATOM      6  C   UNL     1      95.504  76.022  59.415  1.00  0.00     0.093 A 
ATOM      7  C   UNL     1      94.614  75.070  58.901  1.00  0.00     0.136 A 
ATOM      8  C   UNL     1      95.024  74.243  57.823  1.00  0.00     0.125 A 
ATOM      9  C   UNL     1      94.197  73.272  57.237  1.00  0.00     0.078 A 
ATOM     10  C   UNL     1      94.669  72.497  56.173  1.00  0.00     0.223 A 
ENDROOT
BRANCH   1  11
ATOM     11  C   UNL     1      96.568  71.901  54.614  1.00  0.00     0.091 A 
ATOM     12  C   UNL     1      96.874  72.533  53.399  1.00  0.00     0.068 A 
ATOM     13  C   UNL     1      97.442  71.809  52.341  1.00  0.00     0.162 A 
ATOM     14  C   UNL     1      96.872  70.537  54.770  1.00  0.00     0.068 A 
ATOM     15  C   UNL     1      97.723  70.447  52.497  1.00  0.00     0.200 A 
ATOM     16  C   UNL     1      97.441  69.809  53.717  1.00  0.00     0.162 A 
BRANCH  13  17
ATOM     17  O   UNL     1      97.730  72.439  51.132  1.00  0.00    -0.504 OA
ATOM     18  H   UNL     1      98.569  72.995  51.010  1.00  0.00     0.293 HD
ENDBRANCH  13  17
BRANCH  15  19
ATOM     19  O   UNL     1      98.286  69.741  51.432  1.00  0.00    -0.502 OA
ATOM     20  H   UNL     1      97.722  69.350  50.687  1.00  0.00     0.293 HD
ENDBRANCH  15  19
BRANCH  16  21
ATOM     21  O   UNL     1      97.734  68.455  53.880  1.00  0.00    -0.504 OA
ATOM     22  H   UNL     1      97.066  67.734  53.633  1.00  0.00     0.293 HD
ENDBRANCH  16  21
ENDBRANCH   1  11
BRANCH  10  23
ATOM     23  O   UNL     1      93.831  71.568  55.557  1.00  0.00    -0.500 OA
ATOM     24  H   UNL     1      93.774  70.607  55.877  1.00  0.00     0.294 HD
ENDBRANCH  10  23
BRANCH   5  25
ATOM     25  O   UNL     1      97.670  77.114  59.396  1.00  0.00    -0.507 OA
ATOM     26  H   UNL     1      98.458  76.848  59.974  1.00  0.00     0.293 HD
ENDBRANCH   5  25
BRANCH   7  27
ATOM     27  O   UNL     1      93.350  74.986  59.491  1.00  0.00    -0.507 OA
ATOM     28  H   UNL     1      93.183  74.699  60.444  1.00  0.00     0.293 HD
ENDBRANCH   7  27
TORSDOF 7
ENDMDL
MODEL 3
REMARK VINA RESULT:    36.909      3.073      7.052
REMARK INTER + INTRA:          45.226
REMARK INTER:                  45.375
REMARK INTRA:                  -0.148
REMARK UNBOUND:                -0.314
REMARK SMILES Oc1cc(O)c2cc(O)c(-c3cc(O)c(O)c(O)c3)[o+]c2c1
REMARK SMILES IDX 10 1 20 2 21 3 22 4 2 5 3 6 4 7 6 8 7 9 8 10 11 11 12 12
REMARK SMILES IDX 13 13 19 14 15 15 17 16 14 17 16 19 18 21 9 23 1 25 5 27
REMARK H PARENT 14 18 16 20 18 22 9 24 1 26 5 28
REMARK Flexibility Score: inf
ROOT
ATOM      1  C   UNL     1      96.340  73.106  55.962  1.00  0.00     0.402 A 
ATOM      2  O   UNL     1      95.114  73.120  56.478  1.00  0.00    -0.202 OA
ATOM      3  C   UNL     1      94.732  73.970  57.426  1.00  0.00     0.368 A 
ATOM      4  C   UNL     1      93.420  73.910  57.903  1.00  0.00     0.162 A 
ATOM      5  C   UNL     1      92.989  74.791  58.896  1.00  0.00     0.128 A 
ATOM      6  C   UNL     1      93.876  75.741  59.417  1.00  0.00     0.093 A 
ATOM      7  C   UNL     1      95.196  75.821  58.954  1.00  0.00     0.136 A 
ATOM      8  C   UNL     1      95.637  74.925  57.947  1.00  0.00     0.125 A 
ATOM      9  C   UNL     1      96.944  74.925  57.433  1.00  0.00     0.078 A 
ATOM     10  C   UNL     1      97.308  74.007  56.443  1.00  0.00     0.223 A 
ENDROOT
BRANCH   1  11
ATOM     11  C   UNL     1      96.642  72.118  54.902  1.00  0.00     0.091 A 
ATOM     12  C   UNL     1      97.118  72.563  53.658  1.00  0.00     0.068 A 
ATOM     13  C   UNL     1      97.431  71.647  52.644  1.00  0.00     0.162 A 
ATOM     14  C   UNL     1      96.517  70.736  55.130  1.00  0.00     0.068 A 
ATOM     15  C   UNL     1      97.283  70.274  52.872  1.00  0.00     0.200 A 
ATOM     16  C   UNL     1      96.828  69.816  54.120  1.00  0.00     0.162 A 
BRANCH  13  17
ATOM     17  O   UNL     1      97.889  72.096  51.407  1.00  0.00    -0.504 OA
ATOM     18  H   UNL     1      98.262  71.457  50.715  1.00  0.00     0.293 HD
ENDBRANCH  13  17
BRANCH  15  19
ATOM     19  O   UNL     1      97.596  69.377  51.849  1.00  0.00    -0.502 OA
ATOM     20  H   UNL     1      96.898  69.035  51.200  1.00  0.00     0.293 HD
ENDBRANCH  15  19
BRANCH  16  21
ATOM     21  O   UNL     1      96.695  68.448  54.354  1.00  0.00    -0.504 OA
ATOM     22  H   UNL     1      95.950  68.078  54.934  1.00  0.00     0.293 HD
ENDBRANCH  16  21
ENDBRANCH   1  11
BRANCH  10  23
ATOM     23  O   UNL     1      98.620  73.972  55.968  1.00  0.00    -0.500 OA
ATOM     24  H   UNL     1      98.867  73.467  55.124  1.00  0.00     0.294 HD
ENDBRANCH  10  23
BRANCH   5  25
ATOM     25  O   UNL     1      91.678  74.714  59.361  1.00  0.00    -0.507 OA
ATOM     26  H   UNL     1      90.969  75.369  59.054  1.00  0.00     0.293 HD
ENDBRANCH   5  25
BRANCH   7  27
ATOM     27  O   UNL     1      96.017  76.800  59.521  1.00  0.00    -0.507 OA
ATOM     28  H   UNL     1      95.702  77.718  59.799  1.00  0.00     0.293 HD
ENDBRANCH   7  27
TORSDOF 7
ENDMDL
MODEL 4
REMARK VINA RESULT:    37.758      1.374      7.117
REMARK INTER + INTRA:          46.273
REMARK INTER:                  46.546
REMARK INTRA:                  -0.273
REMARK UNBOUND:                -0.314
REMARK SMILES Oc1cc(O)c2cc(O)c(-c3cc(O)c(O)c(O)c3)[o+]c2c1
REMARK SMILES IDX 10 1 20 2 21 3 22 4 2 5 3 6 4 7 6 8 7 9 8 10 11 11 12 12
REMARK SMILES IDX 13 13 19 14 15 15 17 16 14 17 16 19 18 21 9 23 1 25 5 27
REMARK H PARENT 14 18 16 20 18 22 9 24 1 26 5 28
REMARK Flexibility Score: inf
ROOT
ATOM      1  C   UNL     1      96.436  74.445  53.977  1.00  0.00     0.402 A 
ATOM      2  O   UNL     1      95.480  74.985  53.226  1.00  0.00    -0.202 OA
ATOM      3  C   UNL     1      95.181  76.280  53.245  1.00  0.00     0.368 A 
ATOM      4  C   UNL     1      94.160  76.753  52.416  1.00  0.00     0.162 A 
ATOM      5  C   UNL     1      93.826  78.108  52.413  1.00  0.00     0.128 A 
ATOM      6  C   UNL     1      94.517  78.998  53.242  1.00  0.00     0.093 A 
ATOM      7  C   UNL     1      95.545  78.548  54.082  1.00  0.00     0.136 A 
ATOM      8  C   UNL     1      95.885  77.171  54.090  1.00  0.00     0.125 A 
ATOM      9  C   UNL     1      96.891  76.629  54.907  1.00  0.00     0.078 A 
ATOM     10  C   UNL     1      97.166  75.258  54.864  1.00  0.00     0.223 A 
ENDROOT
BRANCH   1  11
ATOM     11  C   UNL     1      96.683  72.990  53.859  1.00  0.00     0.091 A 
ATOM     12  C   UNL     1      97.311  72.487  52.709  1.00  0.00     0.068 A 
ATOM     13  C   UNL     1      97.574  71.117  52.581  1.00  0.00     0.162 A 
ATOM     14  C   UNL     1      96.352  72.104  54.899  1.00  0.00     0.068 A 
ATOM     15  C   UNL     1      97.223  70.237  53.612  1.00  0.00     0.200 A 
ATOM     16  C   UNL     1      96.614  70.732  54.777  1.00  0.00     0.162 A 
BRANCH  13  17
ATOM     17  O   UNL     1      98.185  70.622  51.430  1.00  0.00    -0.504 OA
ATOM     18  H   UNL     1      98.637  71.237  50.763  1.00  0.00     0.293 HD
ENDBRANCH  13  17
BRANCH  15  19
ATOM     19  O   UNL     1      97.490  68.875  53.465  1.00  0.00    -0.502 OA
ATOM     20  H   UNL     1      97.990  68.345  54.169  1.00  0.00     0.293 HD
ENDBRANCH  15  19
BRANCH  16  21
ATOM     21  O   UNL     1      96.277  69.861  55.812  1.00  0.00    -0.504 OA
ATOM     22  H   UNL     1      96.135  68.871  55.648  1.00  0.00     0.293 HD
ENDBRANCH  16  21
ENDBRANCH   1  11
BRANCH  10  23
ATOM     23  O   UNL     1      98.130  74.711  55.711  1.00  0.00    -0.500 OA
ATOM     24  H   UNL     1      97.951  74.568  56.699  1.00  0.00     0.294 HD
ENDBRANCH  10  23
BRANCH   5  25
ATOM     25  O   UNL     1      92.805  78.561  51.581  1.00  0.00    -0.507 OA
ATOM     26  H   UNL     1      91.964  78.016  51.429  1.00  0.00     0.293 HD
ENDBRANCH   5  25
BRANCH   7  27
ATOM     27  O   UNL     1      96.189  79.500  54.877  1.00  0.00    -0.507 OA
ATOM     28  H   UNL     1      97.152  79.437  55.174  1.00  0.00     0.293 HD
ENDBRANCH   7  27
TORSDOF 7
ENDMDL
