MODEL 1
REMARK VINA RESULT:    -4.615      0.000      0.000
REMARK INTER + INTRA:          -8.527
REMARK INTER:                  -6.774
REMARK INTRA:                  -1.753
REMARK UNBOUND:                -1.753
REMARK SMILES O=c1c(O[C@@H]2O[C@H](CO)[C@H](O)[C@@H](O)[C@H]2O)c(-c2ccc(O)c(O)c2)oc2cc(O)cc(O)c12
REMARK SMILES IDX 4 1 3 2 16 3 25 4 2 5 26 6 1 7 33 8 27 9 31 10 28 11 30 12
REMARK SMILES IDX 17 13 18 14 19 15 20 16 24 17 22 18 21 19 23 21 32 23 29 25
REMARK SMILES IDX 5 27 14 28 6 29 12 30 7 31 10 32 15 33 13 35 8 37 9 38 11 40
REMARK H PARENT 21 20 23 22 32 24 29 26 15 34 13 36 9 39 11 41
REMARK Flexibility Score: inf
ROOT
ATOM      1  O   UNL     1       5.900  14.966   9.950  1.00  0.00    -0.454 OA
ENDROOT
BRANCH   1   2
ATOM      2  C   UNL     1       5.073  15.223   8.840  1.00  0.00     0.214 A 
ATOM      3  C   UNL     1       5.194  14.389   7.711  1.00  0.00     0.180 A 
ATOM      4  O   UNL     1       4.389  14.557   6.670  1.00  0.00    -0.452 OA
ATOM      5  C   UNL     1       4.113  16.258   8.809  1.00  0.00     0.239 A 
ATOM      6  C   UNL     1       3.477  15.517   6.598  1.00  0.00     0.146 A 
ATOM      7  O   UNL     1       3.954  16.984   9.821  1.00  0.00    -0.285 OA
ATOM      8  C   UNL     1       3.320  16.452   7.650  1.00  0.00     0.111 A 
ATOM      9  C   UNL     1       2.666  15.581   5.461  1.00  0.00     0.094 A 
ATOM     10  C   UNL     1       2.357  17.495   7.494  1.00  0.00     0.134 A 
ATOM     11  C   UNL     1       1.687  16.563   5.346  1.00  0.00     0.123 A 
ATOM     12  C   UNL     1       1.534  17.511   6.362  1.00  0.00     0.093 A 
BRANCH   3  13
ATOM     13  C   UNL     1       6.162  13.270   7.663  1.00  0.00     0.025 A 
ATOM     14  C   UNL     1       5.762  11.946   7.909  1.00  0.00     0.016 A 
ATOM     15  C   UNL     1       6.692  10.906   7.862  1.00  0.00     0.051 A 
ATOM     16  C   UNL     1       8.036  11.172   7.585  1.00  0.00     0.157 A 
ATOM     17  C   UNL     1       7.516  13.538   7.407  1.00  0.00     0.062 A 
ATOM     18  C   UNL     1       8.453  12.495   7.361  1.00  0.00     0.158 A 
BRANCH  16  19
ATOM     19  O   UNL     1       8.943  10.114   7.542  1.00  0.00    -0.504 OA
ATOM     20  H   UNL     1       8.716   9.227   7.109  1.00  0.00     0.293 HD
ENDBRANCH  16  19
BRANCH  18  21
ATOM     21  O   UNL     1       9.793  12.770   7.093  1.00  0.00    -0.504 OA
ATOM     22  H   UNL     1      10.373  13.277   7.751  1.00  0.00     0.293 HD
ENDBRANCH  18  21
ENDBRANCH   3  13
BRANCH  10  23
ATOM     23  O   UNL     1       2.190  18.547   8.400  1.00  0.00    -0.507 OA
ATOM     24  H   UNL     1       2.928  19.164   8.704  1.00  0.00     0.293 HD
ENDBRANCH  10  23
BRANCH  11  25
ATOM     25  O   UNL     1       0.875  16.596   4.215  1.00  0.00    -0.508 OA
ATOM     26  H   UNL     1       1.046  15.991   3.421  1.00  0.00     0.293 HD
ENDBRANCH  11  25
ENDBRANCH   1   2
BRANCH   1  27
ATOM     27  C   UNL     1       5.604  14.107  11.055  1.00  0.00     0.339 C 
ATOM     28  C   UNL     1       6.675  13.013  11.167  1.00  0.00     0.214 C 
ATOM     29  O   UNL     1       5.440  14.830  12.270  1.00  0.00    -0.332 OA
ATOM     30  C   UNL     1       8.011  13.629  11.610  1.00  0.00     0.180 C 
ATOM     31  C   UNL     1       6.632  15.434  12.762  1.00  0.00     0.179 C 
ATOM     32  C   UNL     1       7.803  14.428  12.905  1.00  0.00     0.177 C 
BRANCH  28  33
ATOM     33  O   UNL     1       6.247  12.042  12.090  1.00  0.00    -0.384 OA
ATOM     34  H   UNL     1       7.062  11.632  12.479  1.00  0.00     0.211 HD
ENDBRANCH  28  33
BRANCH  30  35
ATOM     35  O   UNL     1       8.964  12.621  11.828  1.00  0.00    -0.387 OA
ATOM     36  H   UNL     1       9.222  12.673  12.785  1.00  0.00     0.211 HD
ENDBRANCH  30  35
BRANCH  31  37
ATOM     37  C   UNL     1       6.984  16.728  11.994  1.00  0.00     0.191 C 
BRANCH  37  38
ATOM     38  O   UNL     1       5.839  17.510  11.782  1.00  0.00    -0.394 OA
ATOM     39  H   UNL     1       5.134  17.156  12.384  1.00  0.00     0.210 HD
ENDBRANCH  37  38
ENDBRANCH  31  37
BRANCH  32  40
ATOM     40  O   UNL     1       8.984  15.104  13.254  1.00  0.00    -0.387 OA
ATOM     41  H   UNL     1       8.953  15.255  14.236  1.00  0.00     0.211 HD
ENDBRANCH  32  40
ENDBRANCH   1  27
TORSDOF 12
ENDMDL
MODEL 2
REMARK VINA RESULT:    -4.440      2.684      7.442
REMARK INTER + INTRA:          -8.269
REMARK INTER:                  -6.444
REMARK INTRA:                  -1.825
REMARK UNBOUND:                -1.753
REMARK SMILES O=c1c(O[C@@H]2O[C@H](CO)[C@H](O)[C@@H](O)[C@H]2O)c(-c2ccc(O)c(O)c2)oc2cc(O)cc(O)c12
REMARK SMILES IDX 4 1 3 2 16 3 25 4 2 5 26 6 1 7 33 8 27 9 31 10 28 11 30 12
REMARK SMILES IDX 17 13 18 14 19 15 20 16 24 17 22 18 21 19 23 21 32 23 29 25
REMARK SMILES IDX 5 27 14 28 6 29 12 30 7 31 10 32 15 33 13 35 8 37 9 38 11 40
REMARK H PARENT 21 20 23 22 32 24 29 26 15 34 13 36 9 39 11 41
REMARK Flexibility Score: inf
ROOT
ATOM      1  O   UNL     1       7.419  10.773  10.247  1.00  0.00    -0.454 OA
ENDROOT
BRANCH   1   2
ATOM      2  C   UNL     1       7.980  10.326   9.035  1.00  0.00     0.214 A 
ATOM      3  C   UNL     1       7.493  10.872   7.832  1.00  0.00     0.180 A 
ATOM      4  O   UNL     1       8.038  10.525   6.673  1.00  0.00    -0.452 OA
ATOM      5  C   UNL     1       9.022   9.374   8.965  1.00  0.00     0.239 A 
ATOM      6  C   UNL     1       9.014   9.635   6.562  1.00  0.00     0.146 A 
ATOM      7  O   UNL     1       9.506   8.908  10.026  1.00  0.00    -0.285 OA
ATOM      8  C   UNL     1       9.531   8.974   7.705  1.00  0.00     0.111 A 
ATOM      9  C   UNL     1       9.530   9.367   5.291  1.00  0.00     0.094 A 
ATOM     10  C   UNL     1      10.545   7.988   7.518  1.00  0.00     0.134 A 
ATOM     11  C   UNL     1      10.563   8.449   5.127  1.00  0.00     0.123 A 
ATOM     12  C   UNL     1      11.068   7.768   6.238  1.00  0.00     0.093 A 
BRANCH   3  13
ATOM     13  C   UNL     1       6.414  11.886   7.812  1.00  0.00     0.025 A 
ATOM     14  C   UNL     1       6.702  13.261   7.861  1.00  0.00     0.016 A 
ATOM     15  C   UNL     1       5.669  14.200   7.845  1.00  0.00     0.051 A 
ATOM     16  C   UNL     1       4.336  13.784   7.795  1.00  0.00     0.157 A 
ATOM     17  C   UNL     1       5.074  11.470   7.784  1.00  0.00     0.062 A 
ATOM     18  C   UNL     1       4.035  12.412   7.769  1.00  0.00     0.158 A 
BRANCH  16  19
ATOM     19  O   UNL     1       3.325  14.744   7.777  1.00  0.00    -0.504 OA
ATOM     20  H   UNL     1       2.901  15.064   6.914  1.00  0.00     0.293 HD
ENDBRANCH  16  19
BRANCH  18  21
ATOM     21  O   UNL     1       2.707  11.988   7.727  1.00  0.00    -0.504 OA
ATOM     22  H   UNL     1       2.167  11.849   8.574  1.00  0.00     0.293 HD
ENDBRANCH  18  21
ENDBRANCH   3  13
BRANCH  10  23
ATOM     23  O   UNL     1      11.051   7.182   8.543  1.00  0.00    -0.507 OA
ATOM     24  H   UNL     1      11.703   7.492   9.247  1.00  0.00     0.293 HD
ENDBRANCH  10  23
BRANCH  11  25
ATOM     25  O   UNL     1      11.078   8.213   3.854  1.00  0.00    -0.508 OA
ATOM     26  H   UNL     1      11.775   8.822   3.442  1.00  0.00     0.293 HD
ENDBRANCH  11  25
ENDBRANCH   1   2
BRANCH   1  27
ATOM     27  C   UNL     1       8.003  11.703  11.165  1.00  0.00     0.339 C 
ATOM     28  C   UNL     1       7.029  12.862  11.422  1.00  0.00     0.214 C 
ATOM     29  O   UNL     1       8.426  11.074  12.370  1.00  0.00    -0.332 OA
ATOM     30  C   UNL     1       5.817  12.362  12.223  1.00  0.00     0.180 C 
ATOM     31  C   UNL     1       7.366  10.583  13.183  1.00  0.00     0.179 C 
ATOM     32  C   UNL     1       6.300  11.662  13.502  1.00  0.00     0.177 C 
BRANCH  28  33
ATOM     33  O   UNL     1       7.700  13.880  12.122  1.00  0.00    -0.384 OA
ATOM     34  H   UNL     1       8.427  14.207  11.532  1.00  0.00     0.211 HD
ENDBRANCH  28  33
BRANCH  30  35
ATOM     35  O   UNL     1       4.980  13.437  12.563  1.00  0.00    -0.387 OA
ATOM     36  H   UNL     1       4.479  13.164  13.375  1.00  0.00     0.211 HD
ENDBRANCH  30  35
BRANCH  31  37
ATOM     37  C   UNL     1       6.794   9.252  12.644  1.00  0.00     0.191 C 
BRANCH  37  38
ATOM     38  O   UNL     1       7.824   8.408  12.203  1.00  0.00    -0.394 OA
ATOM     39  H   UNL     1       8.368   8.931  11.558  1.00  0.00     0.210 HD
ENDBRANCH  37  38
ENDBRANCH  31  37
BRANCH  32  40
ATOM     40  O   UNL     1       5.214  11.086  14.181  1.00  0.00    -0.387 OA
ATOM     41  H   UNL     1       4.847  11.782  14.788  1.00  0.00     0.211 HD
ENDBRANCH  32  40
ENDBRANCH   1  27
TORSDOF 12
ENDMDL
MODEL 3
REMARK VINA RESULT:    -4.356      2.820      7.249
REMARK INTER + INTRA:          -8.146
REMARK INTER:                  -6.614
REMARK INTRA:                  -1.532
REMARK UNBOUND:                -1.753
REMARK SMILES O=c1c(O[C@@H]2O[C@H](CO)[C@H](O)[C@@H](O)[C@H]2O)c(-c2ccc(O)c(O)c2)oc2cc(O)cc(O)c12
REMARK SMILES IDX 4 1 3 2 16 3 25 4 2 5 26 6 1 7 33 8 27 9 31 10 28 11 30 12
REMARK SMILES IDX 17 13 18 14 19 15 20 16 24 17 22 18 21 19 23 21 32 23 29 25
REMARK SMILES IDX 5 27 14 28 6 29 12 30 7 31 10 32 15 33 13 35 8 37 9 38 11 40
REMARK H PARENT 21 20 23 22 32 24 29 26 15 34 13 36 9 39 11 41
REMARK Flexibility Score: inf
ROOT
ATOM      1  O   UNL     1       7.814  10.721  10.334  1.00  0.00    -0.454 OA
ENDROOT
BRANCH   1   2
ATOM      2  C   UNL     1       8.291  10.265   9.090  1.00  0.00     0.214 A 
ATOM      3  C   UNL     1       7.794  10.875   7.922  1.00  0.00     0.180 A 
ATOM      4  O   UNL     1       8.264  10.519   6.733  1.00  0.00    -0.452 OA
ATOM      5  C   UNL     1       9.258   9.244   8.954  1.00  0.00     0.239 A 
ATOM      6  C   UNL     1       9.168   9.565   6.560  1.00  0.00     0.146 A 
ATOM      7  O   UNL     1       9.750   8.718   9.983  1.00  0.00    -0.285 OA
ATOM      8  C   UNL     1       9.683   8.841   7.664  1.00  0.00     0.111 A 
ATOM      9  C   UNL     1       9.610   9.293   5.262  1.00  0.00     0.094 A 
ATOM     10  C   UNL     1      10.616   7.790   7.411  1.00  0.00     0.134 A 
ATOM     11  C   UNL     1      10.567   8.309   5.033  1.00  0.00     0.123 A 
ATOM     12  C   UNL     1      11.068   7.566   6.105  1.00  0.00     0.093 A 
BRANCH   3  13
ATOM     13  C   UNL     1       6.792  11.963   7.971  1.00  0.00     0.025 A 
ATOM     14  C   UNL     1       7.169  13.295   8.211  1.00  0.00     0.016 A 
ATOM     15  C   UNL     1       6.207  14.305   8.257  1.00  0.00     0.051 A 
ATOM     16  C   UNL     1       4.854  14.001   8.080  1.00  0.00     0.157 A 
ATOM     17  C   UNL     1       5.431  11.657   7.815  1.00  0.00     0.062 A 
ATOM     18  C   UNL     1       4.461  12.670   7.862  1.00  0.00     0.158 A 
BRANCH  16  19
ATOM     19  O   UNL     1       3.914  15.031   8.128  1.00  0.00    -0.504 OA
ATOM     20  H   UNL     1       3.992  15.800   8.782  1.00  0.00     0.293 HD
ENDBRANCH  16  19
BRANCH  18  21
ATOM     21  O   UNL     1       3.113  12.357   7.693  1.00  0.00    -0.504 OA
ATOM     22  H   UNL     1       2.437  13.056   7.409  1.00  0.00     0.293 HD
ENDBRANCH  18  21
ENDBRANCH   3  13
BRANCH  10  23
ATOM     23  O   UNL     1      11.104   6.925   8.395  1.00  0.00    -0.507 OA
ATOM     24  H   UNL     1      10.597   6.135   8.767  1.00  0.00     0.293 HD
ENDBRANCH  10  23
BRANCH  11  25
ATOM     25  O   UNL     1      11.009   8.069   3.734  1.00  0.00    -0.508 OA
ATOM     26  H   UNL     1      11.929   7.685   3.549  1.00  0.00     0.293 HD
ENDBRANCH  11  25
ENDBRANCH   1   2
BRANCH   1  27
ATOM     27  C   UNL     1       6.751  10.149  11.103  1.00  0.00     0.339 C 
ATOM     28  C   UNL     1       7.330   9.324  12.261  1.00  0.00     0.214 C 
ATOM     29  O   UNL     1       5.822  11.131  11.549  1.00  0.00    -0.332 OA
ATOM     30  C   UNL     1       7.985  10.255  13.293  1.00  0.00     0.180 C 
ATOM     31  C   UNL     1       6.341  12.038  12.515  1.00  0.00     0.179 C 
ATOM     32  C   UNL     1       6.975  11.322  13.736  1.00  0.00     0.177 C 
BRANCH  28  33
ATOM     33  O   UNL     1       6.298   8.575  12.854  1.00  0.00    -0.384 OA
ATOM     34  H   UNL     1       5.637   8.379  12.141  1.00  0.00     0.211 HD
ENDBRANCH  28  33
BRANCH  30  35
ATOM     35  O   UNL     1       8.413   9.520  14.410  1.00  0.00    -0.387 OA
ATOM     36  H   UNL     1       9.011   8.803  14.069  1.00  0.00     0.211 HD
ENDBRANCH  30  35
BRANCH  31  37
ATOM     37  C   UNL     1       7.235  13.121  11.869  1.00  0.00     0.191 C 
BRANCH  37  38
ATOM     38  O   UNL     1       7.143  14.330  12.573  1.00  0.00    -0.394 OA
ATOM     39  H   UNL     1       7.608  14.193  13.440  1.00  0.00     0.210 HD
ENDBRANCH  37  38
ENDBRANCH  31  37
BRANCH  32  40
ATOM     40  O   UNL     1       7.594  12.258  14.581  1.00  0.00    -0.387 OA
ATOM     41  H   UNL     1       8.539  12.335  14.287  1.00  0.00     0.211 HD
ENDBRANCH  32  40
ENDBRANCH   1  27
TORSDOF 12
ENDMDL
MODEL 4
REMARK VINA RESULT:    -4.354      1.891      3.420
REMARK INTER + INTRA:          -8.143
REMARK INTER:                  -6.573
REMARK INTRA:                  -1.570
REMARK UNBOUND:                -1.753
REMARK SMILES O=c1c(O[C@@H]2O[C@H](CO)[C@H](O)[C@@H](O)[C@H]2O)c(-c2ccc(O)c(O)c2)oc2cc(O)cc(O)c12
REMARK SMILES IDX 4 1 3 2 16 3 25 4 2 5 26 6 1 7 33 8 27 9 31 10 28 11 30 12
REMARK SMILES IDX 17 13 18 14 19 15 20 16 24 17 22 18 21 19 23 21 32 23 29 25
REMARK SMILES IDX 5 27 14 28 6 29 12 30 7 31 10 32 15 33 13 35 8 37 9 38 11 40
REMARK H PARENT 21 20 23 22 32 24 29 26 15 34 13 36 9 39 11 41
REMARK Flexibility Score: inf
ROOT
ATOM      1  O   UNL     1       6.855  12.648  10.387  1.00  0.00    -0.454 OA
ENDROOT
BRANCH   1   2
ATOM      2  C   UNL     1       6.127  13.410   9.453  1.00  0.00     0.214 A 
ATOM      3  C   UNL     1       5.874  12.850   8.186  1.00  0.00     0.180 A 
ATOM      4  O   UNL     1       5.137  13.508   7.301  1.00  0.00    -0.452 OA
ATOM      5  C   UNL     1       5.616  14.698   9.730  1.00  0.00     0.239 A 
ATOM      6  C   UNL     1       4.642  14.719   7.518  1.00  0.00     0.146 A 
ATOM      7  O   UNL     1       5.788  15.199  10.869  1.00  0.00    -0.285 OA
ATOM      8  C   UNL     1       4.895  15.401   8.734  1.00  0.00     0.111 A 
ATOM      9  C   UNL     1       3.856  15.306   6.522  1.00  0.00     0.094 A 
ATOM     10  C   UNL     1       4.379  16.723   8.890  1.00  0.00     0.134 A 
ATOM     11  C   UNL     1       3.305  16.570   6.710  1.00  0.00     0.123 A 
ATOM     12  C   UNL     1       3.564  17.270   7.891  1.00  0.00     0.093 A 
BRANCH   3  13
ATOM     13  C   UNL     1       6.356  11.500   7.816  1.00  0.00     0.025 A 
ATOM     14  C   UNL     1       5.499  10.387   7.831  1.00  0.00     0.016 A 
ATOM     15  C   UNL     1       5.976   9.122   7.481  1.00  0.00     0.051 A 
ATOM     16  C   UNL     1       7.317   8.945   7.127  1.00  0.00     0.157 A 
ATOM     17  C   UNL     1       7.707  11.316   7.481  1.00  0.00     0.062 A 
ATOM     18  C   UNL     1       8.189  10.047   7.131  1.00  0.00     0.158 A 
BRANCH  16  19
ATOM     19  O   UNL     1       7.765   7.672   6.780  1.00  0.00    -0.504 OA
ATOM     20  H   UNL     1       8.745   7.419   6.807  1.00  0.00     0.293 HD
ENDBRANCH  16  19
BRANCH  18  21
ATOM     21  O   UNL     1       9.530   9.877   6.786  1.00  0.00    -0.504 OA
ATOM     22  H   UNL     1      10.007   8.995   6.928  1.00  0.00     0.293 HD
ENDBRANCH  18  21
ENDBRANCH   3  13
BRANCH  10  23
ATOM     23  O   UNL     1       4.657  17.547   9.986  1.00  0.00    -0.507 OA
ATOM     24  H   UNL     1       3.972  17.861  10.656  1.00  0.00     0.293 HD
ENDBRANCH  10  23
BRANCH  11  25
ATOM     25  O   UNL     1       2.507  17.127   5.714  1.00  0.00    -0.508 OA
ATOM     26  H   UNL     1       2.385  16.674   4.816  1.00  0.00     0.293 HD
ENDBRANCH  11  25
ENDBRANCH   1   2
BRANCH   1  27
ATOM     27  C   UNL     1       8.204  12.874  10.806  1.00  0.00     0.339 C 
ATOM     28  C   UNL     1       8.226  13.312  12.278  1.00  0.00     0.214 C 
ATOM     29  O   UNL     1       9.039  11.747  10.564  1.00  0.00    -0.332 OA
ATOM     30  C   UNL     1       7.819  12.138  13.181  1.00  0.00     0.180 C 
ATOM     31  C   UNL     1       8.738  10.608  11.364  1.00  0.00     0.179 C 
ATOM     32  C   UNL     1       8.712  10.926  12.881  1.00  0.00     0.177 C 
BRANCH  28  33
ATOM     33  O   UNL     1       9.517  13.765  12.604  1.00  0.00    -0.384 OA
ATOM     34  H   UNL     1      10.140  13.362  11.946  1.00  0.00     0.211 HD
ENDBRANCH  28  33
BRANCH  30  35
ATOM     35  O   UNL     1       7.949  12.495  14.533  1.00  0.00    -0.387 OA
ATOM     36  H   UNL     1       7.512  13.381  14.638  1.00  0.00     0.211 HD
ENDBRANCH  30  35
BRANCH  31  37
ATOM     37  C   UNL     1       7.496   9.849  10.843  1.00  0.00     0.191 C 
BRANCH  37  38
ATOM     38  O   UNL     1       7.699   8.463  10.896  1.00  0.00    -0.394 OA
ATOM     39  H   UNL     1       7.308   8.084  10.065  1.00  0.00     0.210 HD
ENDBRANCH  37  38
ENDBRANCH  31  37
BRANCH  32  40
ATOM     40  O   UNL     1       8.272   9.805  13.604  1.00  0.00    -0.387 OA
ATOM     41  H   UNL     1       7.281   9.784  13.535  1.00  0.00     0.211 HD
ENDBRANCH  32  40
ENDBRANCH   1  27
TORSDOF 12
ENDMDL
MODEL 5
REMARK VINA RESULT:    -4.255      7.207     12.189
REMARK INTER + INTRA:          -7.999
REMARK INTER:                  -6.592
REMARK INTRA:                  -1.407
REMARK UNBOUND:                -1.753
REMARK SMILES O=c1c(O[C@@H]2O[C@H](CO)[C@H](O)[C@@H](O)[C@H]2O)c(-c2ccc(O)c(O)c2)oc2cc(O)cc(O)c12
REMARK SMILES IDX 4 1 3 2 16 3 25 4 2 5 26 6 1 7 33 8 27 9 31 10 28 11 30 12
REMARK SMILES IDX 17 13 18 14 19 15 20 16 24 17 22 18 21 19 23 21 32 23 29 25
REMARK SMILES IDX 5 27 14 28 6 29 12 30 7 31 10 32 15 33 13 35 8 37 9 38 11 40
REMARK H PARENT 21 20 23 22 32 24 29 26 15 34 13 36 9 39 11 41
REMARK Flexibility Score: inf
ROOT
ATOM      1  O   UNL     1       9.978   7.450   3.238  1.00  0.00    -0.454 OA
ENDROOT
BRANCH   1   2
ATOM      2  C   UNL     1      11.270   8.011   3.263  1.00  0.00     0.214 A 
ATOM      3  C   UNL     1      11.681   8.687   4.427  1.00  0.00     0.180 A 
ATOM      4  O   UNL     1      12.912   9.173   4.516  1.00  0.00    -0.452 OA
ATOM      5  C   UNL     1      12.181   7.909   2.189  1.00  0.00     0.239 A 
ATOM      6  C   UNL     1      13.798   9.103   3.532  1.00  0.00     0.146 A 
ATOM      7  O   UNL     1      11.855   7.270   1.158  1.00  0.00    -0.285 OA
ATOM      8  C   UNL     1      13.463   8.504   2.292  1.00  0.00     0.111 A 
ATOM      9  C   UNL     1      15.076   9.627   3.747  1.00  0.00     0.094 A 
ATOM     10  C   UNL     1      14.441   8.504   1.252  1.00  0.00     0.134 A 
ATOM     11  C   UNL     1      16.042   9.565   2.748  1.00  0.00     0.123 A 
ATOM     12  C   UNL     1      15.724   9.002   1.510  1.00  0.00     0.093 A 
BRANCH   3  13
ATOM     13  C   UNL     1      10.797   8.827   5.607  1.00  0.00     0.025 A 
ATOM     14  C   UNL     1       9.904   9.905   5.727  1.00  0.00     0.016 A 
ATOM     15  C   UNL     1       9.082  10.019   6.850  1.00  0.00     0.051 A 
ATOM     16  C   UNL     1       9.148   9.071   7.874  1.00  0.00     0.157 A 
ATOM     17  C   UNL     1      10.877   7.887   6.647  1.00  0.00     0.062 A 
ATOM     18  C   UNL     1      10.053   8.001   7.776  1.00  0.00     0.158 A 
BRANCH  16  19
ATOM     19  O   UNL     1       8.313   9.209   8.983  1.00  0.00    -0.504 OA
ATOM     20  H   UNL     1       8.147   8.449   9.630  1.00  0.00     0.293 HD
ENDBRANCH  16  19
BRANCH  18  21
ATOM     21  O   UNL     1      10.132   7.055   8.797  1.00  0.00    -0.504 OA
ATOM     22  H   UNL     1       9.806   6.105   8.667  1.00  0.00     0.293 HD
ENDBRANCH  18  21
ENDBRANCH   3  13
BRANCH  10  23
ATOM     23  O   UNL     1      14.198   8.056  -0.050  1.00  0.00    -0.507 OA
ATOM     24  H   UNL     1      14.722   8.344  -0.863  1.00  0.00     0.293 HD
ENDBRANCH  10  23
BRANCH  11  25
ATOM     25  O   UNL     1      17.316  10.074   2.991  1.00  0.00    -0.508 OA
ATOM     26  H   UNL     1      17.514  10.644   3.805  1.00  0.00     0.293 HD
ENDBRANCH  11  25
ENDBRANCH   1   2
BRANCH   1  27
ATOM     27  C   UNL     1       8.753   8.140   2.968  1.00  0.00     0.339 C 
ATOM     28  C   UNL     1       8.517   8.209   1.452  1.00  0.00     0.214 C 
ATOM     29  O   UNL     1       7.650   7.567   3.662  1.00  0.00    -0.332 OA
ATOM     30  C   UNL     1       8.205   6.808   0.905  1.00  0.00     0.180 C 
ATOM     31  C   UNL     1       7.283   6.266   3.216  1.00  0.00     0.179 C 
ATOM     32  C   UNL     1       7.033   6.200   1.688  1.00  0.00     0.177 C 
BRANCH  28  33
ATOM     33  O   UNL     1       7.453   9.091   1.192  1.00  0.00    -0.384 OA
ATOM     34  H   UNL     1       7.824  10.011   1.230  1.00  0.00     0.211 HD
ENDBRANCH  28  33
BRANCH  30  35
ATOM     35  O   UNL     1       7.873   6.880  -0.458  1.00  0.00    -0.387 OA
ATOM     36  H   UNL     1       7.566   5.975  -0.726  1.00  0.00     0.211 HD
ENDBRANCH  30  35
BRANCH  31  37
ATOM     37  C   UNL     1       8.239   5.180   3.760  1.00  0.00     0.191 C 
BRANCH  37  38
ATOM     38  O   UNL     1       8.652   5.485   5.065  1.00  0.00    -0.394 OA
ATOM     39  H   UNL     1       9.484   4.968   5.231  1.00  0.00     0.210 HD
ENDBRANCH  37  38
ENDBRANCH  31  37
BRANCH  32  40
ATOM     40  O   UNL     1       6.817   4.871   1.288  1.00  0.00    -0.387 OA
ATOM     41  H   UNL     1       5.952   4.849   0.801  1.00  0.00     0.211 HD
ENDBRANCH  32  40
ENDBRANCH   1  27
TORSDOF 12
ENDMDL
MODEL 6
REMARK VINA RESULT:    -4.199      7.067     12.041
REMARK INTER + INTRA:          -7.917
REMARK INTER:                  -6.083
REMARK INTRA:                  -1.834
REMARK UNBOUND:                -1.753
REMARK SMILES O=c1c(O[C@@H]2O[C@H](CO)[C@H](O)[C@@H](O)[C@H]2O)c(-c2ccc(O)c(O)c2)oc2cc(O)cc(O)c12
REMARK SMILES IDX 4 1 3 2 16 3 25 4 2 5 26 6 1 7 33 8 27 9 31 10 28 11 30 12
REMARK SMILES IDX 17 13 18 14 19 15 20 16 24 17 22 18 21 19 23 21 32 23 29 25
REMARK SMILES IDX 5 27 14 28 6 29 12 30 7 31 10 32 15 33 13 35 8 37 9 38 11 40
REMARK H PARENT 21 20 23 22 32 24 29 26 15 34 13 36 9 39 11 41
REMARK Flexibility Score: inf
ROOT
ATOM      1  O   UNL     1       9.946   7.398   3.413  1.00  0.00    -0.454 OA
ENDROOT
BRANCH   1   2
ATOM      2  C   UNL     1      11.246   7.940   3.445  1.00  0.00     0.214 A 
ATOM      3  C   UNL     1      11.637   8.669   4.584  1.00  0.00     0.180 A 
ATOM      4  O   UNL     1      12.874   9.140   4.681  1.00  0.00    -0.452 OA
ATOM      5  C   UNL     1      12.185   7.768   2.403  1.00  0.00     0.239 A 
ATOM      6  C   UNL     1      13.785   9.005   3.727  1.00  0.00     0.146 A 
ATOM      7  O   UNL     1      11.875   7.081   1.399  1.00  0.00    -0.285 OA
ATOM      8  C   UNL     1      13.473   8.347   2.511  1.00  0.00     0.111 A 
ATOM      9  C   UNL     1      15.065   9.521   3.951  1.00  0.00     0.094 A 
ATOM     10  C   UNL     1      14.479   8.278   1.500  1.00  0.00     0.134 A 
ATOM     11  C   UNL     1      16.057   9.392   2.983  1.00  0.00     0.123 A 
ATOM     12  C   UNL     1      15.763   8.769   1.767  1.00  0.00     0.093 A 
BRANCH   3  13
ATOM     13  C   UNL     1      10.724   8.884   5.729  1.00  0.00     0.025 A 
ATOM     14  C   UNL     1       9.786   9.930   5.730  1.00  0.00     0.016 A 
ATOM     15  C   UNL     1       8.936  10.116   6.823  1.00  0.00     0.051 A 
ATOM     16  C   UNL     1       9.021   9.274   7.936  1.00  0.00     0.157 A 
ATOM     17  C   UNL     1      10.822   8.053   6.857  1.00  0.00     0.062 A 
ATOM     18  C   UNL     1       9.971   8.240   7.956  1.00  0.00     0.158 A 
BRANCH  16  19
ATOM     19  O   UNL     1       8.158   9.483   9.011  1.00  0.00    -0.504 OA
ATOM     20  H   UNL     1       8.496   9.589   9.960  1.00  0.00     0.293 HD
ENDBRANCH  16  19
BRANCH  18  21
ATOM     21  O   UNL     1      10.067   7.401   9.066  1.00  0.00    -0.504 OA
ATOM     22  H   UNL     1      10.789   6.692   9.135  1.00  0.00     0.293 HD
ENDBRANCH  18  21
ENDBRANCH   3  13
BRANCH  10  23
ATOM     23  O   UNL     1      14.263   7.767   0.217  1.00  0.00    -0.507 OA
ATOM     24  H   UNL     1      13.536   7.110  -0.024  1.00  0.00     0.293 HD
ENDBRANCH  10  23
BRANCH  11  25
ATOM     25  O   UNL     1      17.332   9.892   3.235  1.00  0.00    -0.508 OA
ATOM     26  H   UNL     1      17.844   9.644   4.073  1.00  0.00     0.293 HD
ENDBRANCH  11  25
ENDBRANCH   1   2
BRANCH   1  27
ATOM     27  C   UNL     1       9.575   6.052   3.723  1.00  0.00     0.339 C 
ATOM     28  C   UNL     1       8.562   6.042   4.877  1.00  0.00     0.214 C 
ATOM     29  O   UNL     1       9.099   5.349   2.580  1.00  0.00    -0.332 OA
ATOM     30  C   UNL     1       7.222   6.628   4.405  1.00  0.00     0.180 C 
ATOM     31  C   UNL     1       7.855   5.820   2.074  1.00  0.00     0.179 C 
ATOM     32  C   UNL     1       6.745   5.874   3.155  1.00  0.00     0.177 C 
BRANCH  28  33
ATOM     33  O   UNL     1       8.394   4.722   5.331  1.00  0.00    -0.384 OA
ATOM     34  H   UNL     1       7.959   4.217   4.597  1.00  0.00     0.211 HD
ENDBRANCH  28  33
BRANCH  30  35
ATOM     35  O   UNL     1       6.257   6.515   5.419  1.00  0.00    -0.387 OA
ATOM     36  H   UNL     1       6.020   7.440   5.692  1.00  0.00     0.211 HD
ENDBRANCH  30  35
BRANCH  31  37
ATOM     37  C   UNL     1       8.020   7.120   1.254  1.00  0.00     0.191 C 
BRANCH  37  38
ATOM     38  O   UNL     1       9.161   7.057   0.441  1.00  0.00    -0.394 OA
ATOM     39  H   UNL     1       8.979   7.626  -0.352  1.00  0.00     0.210 HD
ENDBRANCH  37  38
ENDBRANCH  31  37
BRANCH  32  40
ATOM     40  O   UNL     1       5.588   6.478   2.634  1.00  0.00    -0.387 OA
ATOM     41  H   UNL     1       5.721   6.563   1.654  1.00  0.00     0.211 HD
ENDBRANCH  32  40
ENDBRANCH   1  27
TORSDOF 12
ENDMDL
MODEL 7
REMARK VINA RESULT:    -4.196      4.579      9.231
REMARK INTER + INTRA:          -7.912
REMARK INTER:                  -6.511
REMARK INTRA:                  -1.401
REMARK UNBOUND:                -1.753
REMARK SMILES O=c1c(O[C@@H]2O[C@H](CO)[C@H](O)[C@@H](O)[C@H]2O)c(-c2ccc(O)c(O)c2)oc2cc(O)cc(O)c12
REMARK SMILES IDX 4 1 3 2 16 3 25 4 2 5 26 6 1 7 33 8 27 9 31 10 28 11 30 12
REMARK SMILES IDX 17 13 18 14 19 15 20 16 24 17 22 18 21 19 23 21 32 23 29 25
REMARK SMILES IDX 5 27 14 28 6 29 12 30 7 31 10 32 15 33 13 35 8 37 9 38 11 40
REMARK H PARENT 21 20 23 22 32 24 29 26 15 34 13 36 9 39 11 41
REMARK Flexibility Score: inf
ROOT
ATOM      1  O   UNL     1       8.622   9.878   9.871  1.00  0.00    -0.454 OA
ENDROOT
BRANCH   1   2
ATOM      2  C   UNL     1       9.390   8.765  10.264  1.00  0.00     0.214 A 
ATOM      3  C   UNL     1       9.877   7.904   9.262  1.00  0.00     0.180 A 
ATOM      4  O   UNL     1      10.657   6.880   9.585  1.00  0.00    -0.452 OA
ATOM      5  C   UNL     1       9.716   8.481  11.609  1.00  0.00     0.239 A 
ATOM      6  C   UNL     1      10.985   6.576  10.833  1.00  0.00     0.146 A 
ATOM      7  O   UNL     1       9.333   9.261  12.516  1.00  0.00    -0.285 OA
ATOM      8  C   UNL     1      10.492   7.338  11.921  1.00  0.00     0.111 A 
ATOM      9  C   UNL     1      11.837   5.489  11.051  1.00  0.00     0.094 A 
ATOM     10  C   UNL     1      10.838   6.931  13.246  1.00  0.00     0.134 A 
ATOM     11  C   UNL     1      12.218   5.140  12.343  1.00  0.00     0.123 A 
ATOM     12  C   UNL     1      11.722   5.862  13.432  1.00  0.00     0.093 A 
BRANCH   3  13
ATOM     13  C   UNL     1       9.597   8.134   7.826  1.00  0.00     0.025 A 
ATOM     14  C   UNL     1       8.365   7.777   7.255  1.00  0.00     0.016 A 
ATOM     15  C   UNL     1       8.124   8.000   5.898  1.00  0.00     0.051 A 
ATOM     16  C   UNL     1       9.112   8.567   5.088  1.00  0.00     0.157 A 
ATOM     17  C   UNL     1      10.596   8.683   7.007  1.00  0.00     0.062 A 
ATOM     18  C   UNL     1      10.357   8.907   5.643  1.00  0.00     0.158 A 
BRANCH  16  19
ATOM     19  O   UNL     1       8.843   8.780   3.737  1.00  0.00    -0.504 OA
ATOM     20  H   UNL     1       8.545   8.033   3.122  1.00  0.00     0.293 HD
ENDBRANCH  16  19
BRANCH  18  21
ATOM     21  O   UNL     1      11.352   9.465   4.841  1.00  0.00    -0.504 OA
ATOM     22  H   UNL     1      11.554  10.458   4.860  1.00  0.00     0.293 HD
ENDBRANCH  18  21
ENDBRANCH   3  13
BRANCH  10  23
ATOM     23  O   UNL     1      10.321   7.521  14.404  1.00  0.00    -0.507 OA
ATOM     24  H   UNL     1      10.767   7.493  15.308  1.00  0.00     0.293 HD
ENDBRANCH  10  23
BRANCH  11  25
ATOM     25  O   UNL     1      13.085   4.067  12.538  1.00  0.00    -0.508 OA
ATOM     26  H   UNL     1      12.768   3.108  12.461  1.00  0.00     0.293 HD
ENDBRANCH  11  25
ENDBRANCH   1   2
BRANCH   1  27
ATOM     27  C   UNL     1       9.117  11.117   9.354  1.00  0.00     0.339 C 
ATOM     28  C   UNL     1       8.287  11.541   8.133  1.00  0.00     0.214 C 
ATOM     29  O   UNL     1       9.172  12.132  10.350  1.00  0.00    -0.332 OA
ATOM     30  C   UNL     1       6.870  11.940   8.574  1.00  0.00     0.180 C 
ATOM     31  C   UNL     1       7.901  12.571  10.816  1.00  0.00     0.179 C 
ATOM     32  C   UNL     1       6.956  13.013   9.669  1.00  0.00     0.177 C 
BRANCH  28  33
ATOM     33  O   UNL     1       8.928  12.616   7.492  1.00  0.00    -0.384 OA
ATOM     34  H   UNL     1       9.729  12.840   8.033  1.00  0.00     0.211 HD
ENDBRANCH  28  33
BRANCH  30  35
ATOM     35  O   UNL     1       6.143  12.439   7.482  1.00  0.00    -0.387 OA
ATOM     36  H   UNL     1       6.722  13.110   7.035  1.00  0.00     0.211 HD
ENDBRANCH  30  35
BRANCH  31  37
ATOM     37  C   UNL     1       7.276  11.570  11.815  1.00  0.00     0.191 C 
BRANCH  37  38
ATOM     38  O   UNL     1       7.897  11.663  13.070  1.00  0.00    -0.394 OA
ATOM     39  H   UNL     1       8.582  12.379  12.998  1.00  0.00     0.210 HD
ENDBRANCH  37  38
ENDBRANCH  31  37
BRANCH  32  40
ATOM     40  O   UNL     1       5.677  13.296  10.175  1.00  0.00    -0.387 OA
ATOM     41  H   UNL     1       5.256  13.948   9.555  1.00  0.00     0.211 HD
ENDBRANCH  32  40
ENDBRANCH   1  27
TORSDOF 12
ENDMDL
MODEL 8
REMARK VINA RESULT:    -4.156      3.382      7.846
REMARK INTER + INTRA:          -7.853
REMARK INTER:                  -6.491
REMARK INTRA:                  -1.362
REMARK UNBOUND:                -1.753
REMARK SMILES O=c1c(O[C@@H]2O[C@H](CO)[C@H](O)[C@@H](O)[C@H]2O)c(-c2ccc(O)c(O)c2)oc2cc(O)cc(O)c12
REMARK SMILES IDX 4 1 3 2 16 3 25 4 2 5 26 6 1 7 33 8 27 9 31 10 28 11 30 12
REMARK SMILES IDX 17 13 18 14 19 15 20 16 24 17 22 18 21 19 23 21 32 23 29 25
REMARK SMILES IDX 5 27 14 28 6 29 12 30 7 31 10 32 15 33 13 35 8 37 9 38 11 40
REMARK H PARENT 21 20 23 22 32 24 29 26 15 34 13 36 9 39 11 41
REMARK Flexibility Score: inf
ROOT
ATOM      1  O   UNL     1       7.697   9.085   9.852  1.00  0.00    -0.454 OA
ENDROOT
BRANCH   1   2
ATOM      2  C   UNL     1       8.388   8.989   8.629  1.00  0.00     0.214 A 
ATOM      3  C   UNL     1       7.962   9.795   7.556  1.00  0.00     0.180 A 
ATOM      4  O   UNL     1       8.625   9.781   6.407  1.00  0.00    -0.452 OA
ATOM      5  C   UNL     1       9.503   8.144   8.431  1.00  0.00     0.239 A 
ATOM      6  C   UNL     1       9.673   9.002   6.177  1.00  0.00     0.146 A 
ATOM      7  O   UNL     1       9.932   7.452   9.387  1.00  0.00    -0.285 OA
ATOM      8  C   UNL     1      10.143   8.103   7.167  1.00  0.00     0.111 A 
ATOM      9  C   UNL     1      10.311   9.093   4.937  1.00  0.00     0.094 A 
ATOM     10  C   UNL     1      11.243   7.252   6.844  1.00  0.00     0.134 A 
ATOM     11  C   UNL     1      11.422   8.303   4.655  1.00  0.00     0.123 A 
ATOM     12  C   UNL     1      11.885   7.392   5.608  1.00  0.00     0.093 A 
BRANCH   3  13
ATOM     13  C   UNL     1       6.813  10.721   7.680  1.00  0.00     0.025 A 
ATOM     14  C   UNL     1       5.491  10.270   7.532  1.00  0.00     0.016 A 
ATOM     15  C   UNL     1       4.423  11.162   7.650  1.00  0.00     0.051 A 
ATOM     16  C   UNL     1       4.658  12.518   7.899  1.00  0.00     0.157 A 
ATOM     17  C   UNL     1       7.048  12.086   7.908  1.00  0.00     0.062 A 
ATOM     18  C   UNL     1       5.977  12.984   8.025  1.00  0.00     0.158 A 
BRANCH  16  19
ATOM     19  O   UNL     1       3.572  13.385   8.014  1.00  0.00    -0.504 OA
ATOM     20  H   UNL     1       2.788  13.190   8.625  1.00  0.00     0.293 HD
ENDBRANCH  16  19
BRANCH  18  21
ATOM     21  O   UNL     1       6.220  14.336   8.265  1.00  0.00    -0.504 OA
ATOM     22  H   UNL     1       7.071  14.650   8.718  1.00  0.00     0.293 HD
ENDBRANCH  18  21
ENDBRANCH   3  13
BRANCH  10  23
ATOM     23  O   UNL     1      11.722   6.242   7.683  1.00  0.00    -0.507 OA
ATOM     24  H   UNL     1      11.257   5.361   7.844  1.00  0.00     0.293 HD
ENDBRANCH  10  23
BRANCH  11  25
ATOM     25  O   UNL     1      12.056   8.425   3.421  1.00  0.00    -0.508 OA
ATOM     26  H   UNL     1      13.031   8.692   3.349  1.00  0.00     0.293 HD
ENDBRANCH  11  25
ENDBRANCH   1   2
BRANCH   1  27
ATOM     27  C   UNL     1       8.278   9.217  11.153  1.00  0.00     0.339 C 
ATOM     28  C   UNL     1       9.173  10.463  11.201  1.00  0.00     0.214 C 
ATOM     29  O   UNL     1       7.295   9.216  12.183  1.00  0.00    -0.332 OA
ATOM     30  C   UNL     1       8.310  11.733  11.122  1.00  0.00     0.180 C 
ATOM     31  C   UNL     1       6.450  10.361  12.192  1.00  0.00     0.179 C 
ATOM     32  C   UNL     1       7.240  11.695  12.222  1.00  0.00     0.177 C 
BRANCH  28  33
ATOM     33  O   UNL     1       9.923  10.447  12.390  1.00  0.00    -0.384 OA
ATOM     34  H   UNL     1      10.267   9.523  12.502  1.00  0.00     0.211 HD
ENDBRANCH  28  33
BRANCH  30  35
ATOM     35  O   UNL     1       9.110  12.876  11.282  1.00  0.00    -0.387 OA
ATOM     36  H   UNL     1       9.130  13.077  12.254  1.00  0.00     0.211 HD
ENDBRANCH  30  35
BRANCH  31  37
ATOM     37  C   UNL     1       5.360  10.283  11.099  1.00  0.00     0.191 C 
BRANCH  37  38
ATOM     38  O   UNL     1       4.899   8.967  10.946  1.00  0.00    -0.394 OA
ATOM     39  H   UNL     1       5.589   8.374  11.343  1.00  0.00     0.210 HD
ENDBRANCH  37  38
ENDBRANCH  31  37
BRANCH  32  40
ATOM     40  O   UNL     1       6.362  12.783  12.085  1.00  0.00    -0.387 OA
ATOM     41  H   UNL     1       5.470  12.478  12.396  1.00  0.00     0.211 HD
ENDBRANCH  32  40
ENDBRANCH   1  27
TORSDOF 12
ENDMDL
MODEL 9
REMARK VINA RESULT:    -4.148      3.565      6.311
REMARK INTER + INTRA:          -7.841
REMARK INTER:                  -6.157
REMARK INTRA:                  -1.684
REMARK UNBOUND:                -1.753
REMARK SMILES O=c1c(O[C@@H]2O[C@H](CO)[C@H](O)[C@@H](O)[C@H]2O)c(-c2ccc(O)c(O)c2)oc2cc(O)cc(O)c12
REMARK SMILES IDX 4 1 3 2 16 3 25 4 2 5 26 6 1 7 33 8 27 9 31 10 28 11 30 12
REMARK SMILES IDX 17 13 18 14 19 15 20 16 24 17 22 18 21 19 23 21 32 23 29 25
REMARK SMILES IDX 5 27 14 28 6 29 12 30 7 31 10 32 15 33 13 35 8 37 9 38 11 40
REMARK H PARENT 21 20 23 22 32 24 29 26 15 34 13 36 9 39 11 41
REMARK Flexibility Score: inf
ROOT
ATOM      1  O   UNL     1       9.000   9.389   9.628  1.00  0.00    -0.454 OA
ENDROOT
BRANCH   1   2
ATOM      2  C   UNL     1       8.252  10.515   9.230  1.00  0.00     0.214 A 
ATOM      3  C   UNL     1       8.036  10.719   7.853  1.00  0.00     0.180 A 
ATOM      4  O   UNL     1       7.283  11.730   7.440  1.00  0.00    -0.452 OA
ATOM      5  C   UNL     1       7.688  11.435  10.141  1.00  0.00     0.239 A 
ATOM      6  C   UNL     1       6.737  12.618   8.259  1.00  0.00     0.146 A 
ATOM      7  O   UNL     1       7.826  11.247  11.375  1.00  0.00    -0.285 OA
ATOM      8  C   UNL     1       6.949  12.544   9.659  1.00  0.00     0.111 A 
ATOM      9  C   UNL     1       5.940  13.628   7.712  1.00  0.00     0.094 A 
ATOM     10  C   UNL     1       6.380  13.558  10.486  1.00  0.00     0.134 A 
ATOM     11  C   UNL     1       5.337  14.575   8.534  1.00  0.00     0.123 A 
ATOM     12  C   UNL     1       5.555  14.534   9.914  1.00  0.00     0.093 A 
BRANCH   3  13
ATOM     13  C   UNL     1       8.576   9.796   6.829  1.00  0.00     0.025 A 
ATOM     14  C   UNL     1       7.832   8.694   6.373  1.00  0.00     0.016 A 
ATOM     15  C   UNL     1       8.362   7.834   5.409  1.00  0.00     0.051 A 
ATOM     16  C   UNL     1       9.646   8.050   4.898  1.00  0.00     0.157 A 
ATOM     17  C   UNL     1       9.872   9.998   6.331  1.00  0.00     0.062 A 
ATOM     18  C   UNL     1      10.408   9.134   5.364  1.00  0.00     0.158 A 
BRANCH  16  19
ATOM     19  O   UNL     1      10.149   7.177   3.935  1.00  0.00    -0.504 OA
ATOM     20  H   UNL     1      11.007   6.657   4.074  1.00  0.00     0.293 HD
ENDBRANCH  16  19
BRANCH  18  21
ATOM     21  O   UNL     1      11.692   9.352   4.866  1.00  0.00    -0.504 OA
ATOM     22  H   UNL     1      12.345   8.589   4.731  1.00  0.00     0.293 HD
ENDBRANCH  18  21
ENDBRANCH   3  13
BRANCH  10  23
ATOM     23  O   UNL     1       6.613  13.668  11.860  1.00  0.00    -0.507 OA
ATOM     24  H   UNL     1       5.896  13.629  12.569  1.00  0.00     0.293 HD
ENDBRANCH  10  23
BRANCH  11  25
ATOM     25  O   UNL     1       4.529  15.559   7.971  1.00  0.00    -0.508 OA
ATOM     26  H   UNL     1       4.102  16.283   8.538  1.00  0.00     0.293 HD
ENDBRANCH  11  25
ENDBRANCH   1   2
BRANCH   1  27
ATOM     27  C   UNL     1       8.486   8.092   9.947  1.00  0.00     0.339 C 
ATOM     28  C   UNL     1       9.199   7.027   9.102  1.00  0.00     0.214 C 
ATOM     29  O   UNL     1       8.557   7.814  11.341  1.00  0.00    -0.332 OA
ATOM     30  C   UNL     1      10.663   6.894   9.550  1.00  0.00     0.180 C 
ATOM     31  C   UNL     1       9.879   7.668  11.847  1.00  0.00     0.179 C 
ATOM     32  C   UNL     1      10.715   6.625  11.061  1.00  0.00     0.177 C 
BRANCH  28  33
ATOM     33  O   UNL     1       8.525   5.801   9.242  1.00  0.00    -0.384 OA
ATOM     34  H   UNL     1       8.007   5.851  10.086  1.00  0.00     0.211 HD
ENDBRANCH  28  33
BRANCH  30  35
ATOM     35  O   UNL     1      11.289   5.842   8.863  1.00  0.00    -0.387 OA
ATOM     36  H   UNL     1      12.186   5.725   9.274  1.00  0.00     0.211 HD
ENDBRANCH  30  35
BRANCH  31  37
ATOM     37  C   UNL     1      10.576   9.034  12.044  1.00  0.00     0.191 C 
BRANCH  37  38
ATOM     38  O   UNL     1       9.743   9.924  12.737  1.00  0.00    -0.394 OA
ATOM     39  H   UNL     1       9.070   9.373  13.216  1.00  0.00     0.210 HD
ENDBRANCH  37  38
ENDBRANCH  31  37
BRANCH  32  40
ATOM     40  O   UNL     1      12.045   6.628  11.511  1.00  0.00    -0.387 OA
ATOM     41  H   UNL     1      12.155   5.838  12.102  1.00  0.00     0.211 HD
ENDBRANCH  32  40
ENDBRANCH   1  27
TORSDOF 12
ENDMDL
