MODEL 1
REMARK VINA RESULT:    -3.858      0.000      0.000
REMARK INTER + INTRA:          -4.956
REMARK INTER:                  -4.647
REMARK INTRA:                  -0.309
REMARK UNBOUND:                -0.309
REMARK SMILES O=c1c(O)c(-c2ccc(O)c(O)c2)oc2cc(O)cc(O)c12
REMARK SMILES IDX 5 1 3 2 2 3 1 4 22 5 20 6 19 7 17 8 16 9 15 10 14 11 6 12
REMARK SMILES IDX 7 13 8 14 9 15 13 16 11 17 10 18 12 20 4 22 21 24 18 26
REMARK H PARENT 10 19 12 21 4 23 21 25 18 27
REMARK Flexibility Score: inf
ROOT
ATOM      1  C   UNL     1      23.380  47.595  87.828  1.00  0.00     0.180 A 
ATOM      2  C   UNL     1      22.117  46.980  87.874  1.00  0.00     0.208 A 
ATOM      3  C   UNL     1      20.986  47.768  88.142  1.00  0.00     0.238 A 
ATOM      4  O   UNL     1      19.851  47.220  88.127  1.00  0.00    -0.285 OA
ATOM      5  C   UNL     1      21.132  49.156  88.378  1.00  0.00     0.111 A 
ATOM      6  C   UNL     1      20.060  50.041  88.699  1.00  0.00     0.134 A 
ATOM      7  C   UNL     1      20.304  51.418  88.783  1.00  0.00     0.093 A 
ATOM      8  C   UNL     1      21.589  51.933  88.623  1.00  0.00     0.123 A 
ATOM      9  C   UNL     1      22.655  51.070  88.368  1.00  0.00     0.094 A 
ATOM     10  C   UNL     1      22.438  49.696  88.243  1.00  0.00     0.146 A 
ATOM     11  O   UNL     1      23.477  48.910  87.989  1.00  0.00    -0.452 OA
ENDROOT
BRANCH   1  12
ATOM     12  C   UNL     1      24.621  46.828  87.576  1.00  0.00     0.025 A 
ATOM     13  C   UNL     1      25.240  46.148  88.636  1.00  0.00     0.016 A 
ATOM     14  C   UNL     1      26.400  45.401  88.418  1.00  0.00     0.051 A 
ATOM     15  C   UNL     1      26.950  45.311  87.133  1.00  0.00     0.157 A 
ATOM     16  C   UNL     1      25.165  46.719  86.283  1.00  0.00     0.062 A 
ATOM     17  C   UNL     1      26.328  45.967  86.063  1.00  0.00     0.158 A 
BRANCH  15  18
ATOM     18  O   UNL     1      28.107  44.568  86.910  1.00  0.00    -0.504 OA
ATOM     19  H   UNL     1      28.132  43.566  87.062  1.00  0.00     0.293 HD
ENDBRANCH  15  18
BRANCH  17  20
ATOM     20  O   UNL     1      26.869  45.865  84.782  1.00  0.00    -0.504 OA
ATOM     21  H   UNL     1      26.331  46.106  83.958  1.00  0.00     0.293 HD
ENDBRANCH  17  20
ENDBRANCH   1  12
BRANCH   2  22
ATOM     22  O   UNL     1      21.992  45.612  87.616  1.00  0.00    -0.502 OA
ATOM     23  H   UNL     1      22.663  45.102  87.053  1.00  0.00     0.293 HD
ENDBRANCH   2  22
BRANCH   6  24
ATOM     24  O   UNL     1      18.755  49.621  88.969  1.00  0.00    -0.507 OA
ATOM     25  H   UNL     1      17.976  50.239  89.145  1.00  0.00     0.293 HD
ENDBRANCH   6  24
BRANCH   8  26
ATOM     26  O   UNL     1      21.797  53.307  88.729  1.00  0.00    -0.508 OA
ATOM     27  H   UNL     1      21.557  53.816  89.572  1.00  0.00     0.293 HD
ENDBRANCH   8  26
TORSDOF 6
ENDMDL
MODEL 2
REMARK VINA RESULT:    -3.647      1.251      2.897
REMARK INTER + INTRA:          -4.702
REMARK INTER:                  -4.397
REMARK INTRA:                  -0.305
REMARK UNBOUND:                -0.309
REMARK SMILES O=c1c(O)c(-c2ccc(O)c(O)c2)oc2cc(O)cc(O)c12
REMARK SMILES IDX 5 1 3 2 2 3 1 4 22 5 20 6 19 7 17 8 16 9 15 10 14 11 6 12
REMARK SMILES IDX 7 13 8 14 9 15 13 16 11 17 10 18 12 20 4 22 21 24 18 26
REMARK H PARENT 10 19 12 21 4 23 21 25 18 27
REMARK Flexibility Score: inf
ROOT
ATOM      1  C   UNL     1      24.092  48.234  87.533  1.00  0.00     0.180 A 
ATOM      2  C   UNL     1      24.341  49.615  87.618  1.00  0.00     0.208 A 
ATOM      3  C   UNL     1      23.282  50.477  87.950  1.00  0.00     0.238 A 
ATOM      4  O   UNL     1      23.523  51.707  88.078  1.00  0.00    -0.285 OA
ATOM      5  C   UNL     1      21.988  49.950  88.177  1.00  0.00     0.111 A 
ATOM      6  C   UNL     1      20.836  50.736  88.480  1.00  0.00     0.134 A 
ATOM      7  C   UNL     1      19.635  50.097  88.814  1.00  0.00     0.093 A 
ATOM      8  C   UNL     1      19.526  48.708  88.792  1.00  0.00     0.123 A 
ATOM      9  C   UNL     1      20.631  47.933  88.439  1.00  0.00     0.094 A 
ATOM     10  C   UNL     1      21.853  48.538  88.136  1.00  0.00     0.146 A 
ATOM     11  O   UNL     1      22.883  47.764  87.816  1.00  0.00    -0.452 OA
ENDROOT
BRANCH   1  12
ATOM     12  C   UNL     1      25.150  47.265  87.164  1.00  0.00     0.025 A 
ATOM     13  C   UNL     1      26.018  46.780  88.154  1.00  0.00     0.016 A 
ATOM     14  C   UNL     1      27.010  45.850  87.833  1.00  0.00     0.051 A 
ATOM     15  C   UNL     1      27.137  45.380  86.519  1.00  0.00     0.157 A 
ATOM     16  C   UNL     1      25.267  46.775  85.850  1.00  0.00     0.062 A 
ATOM     17  C   UNL     1      26.261  45.839  85.528  1.00  0.00     0.158 A 
BRANCH  15  18
ATOM     18  O   UNL     1      28.125  44.453  86.194  1.00  0.00    -0.504 OA
ATOM     19  H   UNL     1      27.894  43.543  85.809  1.00  0.00     0.293 HD
ENDBRANCH  15  18
BRANCH  17  20
ATOM     20  O   UNL     1      26.381  45.360  84.225  1.00  0.00    -0.504 OA
ATOM     21  H   UNL     1      25.958  44.484  83.940  1.00  0.00     0.293 HD
ENDBRANCH  17  20
ENDBRANCH   1  12
BRANCH   2  22
ATOM     22  O   UNL     1      25.630  50.111  87.412  1.00  0.00    -0.502 OA
ATOM     23  H   UNL     1      26.137  49.963  86.547  1.00  0.00     0.293 HD
ENDBRANCH   2  22
BRANCH   6  24
ATOM     24  O   UNL     1      20.810  52.133  88.441  1.00  0.00    -0.507 OA
ATOM     25  H   UNL     1      19.979  52.689  88.303  1.00  0.00     0.293 HD
ENDBRANCH   6  24
BRANCH   8  26
ATOM     26  O   UNL     1      18.311  48.108  89.114  1.00  0.00    -0.508 OA
ATOM     27  H   UNL     1      17.600  47.938  88.412  1.00  0.00     0.293 HD
ENDBRANCH   8  26
TORSDOF 6
ENDMDL
MODEL 3
REMARK VINA RESULT:    -3.590      0.729      1.498
REMARK INTER + INTRA:          -4.633
REMARK INTER:                  -4.315
REMARK INTRA:                  -0.319
REMARK UNBOUND:                -0.309
REMARK SMILES O=c1c(O)c(-c2ccc(O)c(O)c2)oc2cc(O)cc(O)c12
REMARK SMILES IDX 5 1 3 2 2 3 1 4 22 5 20 6 19 7 17 8 16 9 15 10 14 11 6 12
REMARK SMILES IDX 7 13 8 14 9 15 13 16 11 17 10 18 12 20 4 22 21 24 18 26
REMARK H PARENT 10 19 12 21 4 23 21 25 18 27
REMARK Flexibility Score: inf
ROOT
ATOM      1  C   UNL     1      23.615  47.777  87.762  1.00  0.00     0.180 A 
ATOM      2  C   UNL     1      22.306  47.273  87.861  1.00  0.00     0.208 A 
ATOM      3  C   UNL     1      21.262  48.153  88.186  1.00  0.00     0.238 A 
ATOM      4  O   UNL     1      20.084  47.707  88.220  1.00  0.00    -0.285 OA
ATOM      5  C   UNL     1      21.539  49.521  88.423  1.00  0.00     0.111 A 
ATOM      6  C   UNL     1      20.563  50.493  88.797  1.00  0.00     0.134 A 
ATOM      7  C   UNL     1      20.930  51.842  88.878  1.00  0.00     0.093 A 
ATOM      8  C   UNL     1      22.247  52.246  88.663  1.00  0.00     0.123 A 
ATOM      9  C   UNL     1      23.220  51.295  88.355  1.00  0.00     0.094 A 
ATOM     10  C   UNL     1      22.880  49.947  88.231  1.00  0.00     0.146 A 
ATOM     11  O   UNL     1      23.834  49.076  87.925  1.00  0.00    -0.452 OA
ENDROOT
BRANCH   1  12
ATOM     12  C   UNL     1      24.772  46.907  87.449  1.00  0.00     0.025 A 
ATOM     13  C   UNL     1      25.285  46.883  86.143  1.00  0.00     0.016 A 
ATOM     14  C   UNL     1      26.389  46.086  85.829  1.00  0.00     0.051 A 
ATOM     15  C   UNL     1      27.005  45.313  86.822  1.00  0.00     0.157 A 
ATOM     16  C   UNL     1      25.407  46.145  88.447  1.00  0.00     0.062 A 
ATOM     17  C   UNL     1      26.516  45.347  88.134  1.00  0.00     0.158 A 
BRANCH  15  18
ATOM     18  O   UNL     1      28.106  44.516  86.514  1.00  0.00    -0.504 OA
ATOM     19  H   UNL     1      28.828  44.321  87.198  1.00  0.00     0.293 HD
ENDBRANCH  15  18
BRANCH  17  20
ATOM     20  O   UNL     1      27.140  44.588  89.122  1.00  0.00    -0.504 OA
ATOM     21  H   UNL     1      27.334  43.601  88.991  1.00  0.00     0.293 HD
ENDBRANCH  17  20
ENDBRANCH   1  12
BRANCH   2  22
ATOM     22  O   UNL     1      22.051  45.924  87.602  1.00  0.00    -0.502 OA
ATOM     23  H   UNL     1      21.952  45.561  86.661  1.00  0.00     0.293 HD
ENDBRANCH   2  22
BRANCH   6  24
ATOM     24  O   UNL     1      19.240  50.185  89.125  1.00  0.00    -0.507 OA
ATOM     25  H   UNL     1      18.951  49.714  89.969  1.00  0.00     0.293 HD
ENDBRANCH   6  24
BRANCH   8  26
ATOM     26  O   UNL     1      22.578  53.595  88.767  1.00  0.00    -0.508 OA
ATOM     27  H   UNL     1      22.224  54.172  89.522  1.00  0.00     0.293 HD
ENDBRANCH   8  26
TORSDOF 6
ENDMDL
MODEL 4
REMARK VINA RESULT:    -3.528      2.033      6.847
REMARK INTER + INTRA:          -4.559
REMARK INTER:                  -4.594
REMARK INTRA:                   0.035
REMARK UNBOUND:                -0.309
REMARK SMILES O=c1c(O)c(-c2ccc(O)c(O)c2)oc2cc(O)cc(O)c12
REMARK SMILES IDX 5 1 3 2 2 3 1 4 22 5 20 6 19 7 17 8 16 9 15 10 14 11 6 12
REMARK SMILES IDX 7 13 8 14 9 15 13 16 11 17 10 18 12 20 4 22 21 24 18 26
REMARK H PARENT 10 19 12 21 4 23 21 25 18 27
REMARK Flexibility Score: inf
ROOT
ATOM      1  C   UNL     1      23.074  49.425  87.775  1.00  0.00     0.180 A 
ATOM      2  C   UNL     1      23.223  48.105  88.236  1.00  0.00     0.208 A 
ATOM      3  C   UNL     1      24.344  47.365  87.825  1.00  0.00     0.238 A 
ATOM      4  O   UNL     1      24.500  46.202  88.284  1.00  0.00    -0.285 OA
ATOM      5  C   UNL     1      25.291  47.946  86.948  1.00  0.00     0.111 A 
ATOM      6  C   UNL     1      26.441  47.273  86.437  1.00  0.00     0.134 A 
ATOM      7  C   UNL     1      27.379  47.988  85.681  1.00  0.00     0.093 A 
ATOM      8  C   UNL     1      27.176  49.330  85.363  1.00  0.00     0.123 A 
ATOM      9  C   UNL     1      26.025  49.981  85.808  1.00  0.00     0.094 A 
ATOM     10  C   UNL     1      25.089  49.306  86.594  1.00  0.00     0.146 A 
ATOM     11  O   UNL     1      24.013  49.964  87.007  1.00  0.00    -0.452 OA
ENDROOT
BRANCH   1  12
ATOM     12  C   UNL     1      21.908  50.261  88.143  1.00  0.00     0.025 A 
ATOM     13  C   UNL     1      22.105  51.603  88.502  1.00  0.00     0.016 A 
ATOM     14  C   UNL     1      21.018  52.416  88.833  1.00  0.00     0.051 A 
ATOM     15  C   UNL     1      19.716  51.901  88.795  1.00  0.00     0.157 A 
ATOM     16  C   UNL     1      20.597  49.753  88.087  1.00  0.00     0.062 A 
ATOM     17  C   UNL     1      19.504  50.569  88.417  1.00  0.00     0.158 A 
BRANCH  15  18
ATOM     18  O   UNL     1      18.628  52.707  89.125  1.00  0.00    -0.504 OA
ATOM     19  H   UNL     1      18.714  53.468  89.789  1.00  0.00     0.293 HD
ENDBRANCH  15  18
BRANCH  17  20
ATOM     20  O   UNL     1      18.207  50.063  88.367  1.00  0.00    -0.504 OA
ATOM     21  H   UNL     1      17.435  50.536  88.822  1.00  0.00     0.293 HD
ENDBRANCH  17  20
ENDBRANCH   1  12
BRANCH   2  22
ATOM     22  O   UNL     1      22.288  47.559  89.118  1.00  0.00    -0.502 OA
ATOM     23  H   UNL     1      22.178  47.893  90.068  1.00  0.00     0.293 HD
ENDBRANCH   2  22
BRANCH   6  24
ATOM     24  O   UNL     1      26.694  45.910  86.617  1.00  0.00    -0.507 OA
ATOM     25  H   UNL     1      26.067  45.265  87.076  1.00  0.00     0.293 HD
ENDBRANCH   6  24
BRANCH   8  26
ATOM     26  O   UNL     1      28.123  50.005  84.595  1.00  0.00    -0.508 OA
ATOM     27  H   UNL     1      28.825  50.600  85.021  1.00  0.00     0.293 HD
ENDBRANCH   8  26
TORSDOF 6
ENDMDL
MODEL 5
REMARK VINA RESULT:    -3.485      2.132      6.487
REMARK INTER + INTRA:          -4.507
REMARK INTER:                  -4.645
REMARK INTRA:                   0.138
REMARK UNBOUND:                -0.309
REMARK SMILES O=c1c(O)c(-c2ccc(O)c(O)c2)oc2cc(O)cc(O)c12
REMARK SMILES IDX 5 1 3 2 2 3 1 4 22 5 20 6 19 7 17 8 16 9 15 10 14 11 6 12
REMARK SMILES IDX 7 13 8 14 9 15 13 16 11 17 10 18 12 20 4 22 21 24 18 26
REMARK H PARENT 10 19 12 21 4 23 21 25 18 27
REMARK Flexibility Score: inf
ROOT
ATOM      1  C   UNL     1      23.429  48.119  87.554  1.00  0.00     0.180 A 
ATOM      2  C   UNL     1      24.099  46.924  87.871  1.00  0.00     0.208 A 
ATOM      3  C   UNL     1      25.414  46.739  87.412  1.00  0.00     0.238 A 
ATOM      4  O   UNL     1      26.027  45.691  87.745  1.00  0.00    -0.285 OA
ATOM      5  C   UNL     1      26.035  47.742  86.629  1.00  0.00     0.111 A 
ATOM      6  C   UNL     1      27.348  47.641  86.078  1.00  0.00     0.134 A 
ATOM      7  C   UNL     1      27.910  48.749  85.430  1.00  0.00     0.093 A 
ATOM      8  C   UNL     1      27.186  49.926  85.256  1.00  0.00     0.123 A 
ATOM      9  C   UNL     1      25.879  50.014  85.738  1.00  0.00     0.094 A 
ATOM     10  C   UNL     1      25.304  48.940  86.421  1.00  0.00     0.146 A 
ATOM     11  O   UNL     1      24.062  49.068  86.874  1.00  0.00    -0.452 OA
ENDROOT
BRANCH   1  12
ATOM     12  C   UNL     1      22.035  48.377  87.980  1.00  0.00     0.025 A 
ATOM     13  C   UNL     1      21.650  49.679  88.332  1.00  0.00     0.016 A 
ATOM     14  C   UNL     1      20.334  49.950  88.718  1.00  0.00     0.051 A 
ATOM     15  C   UNL     1      19.381  48.924  88.741  1.00  0.00     0.157 A 
ATOM     16  C   UNL     1      21.070  47.353  87.985  1.00  0.00     0.062 A 
ATOM     17  C   UNL     1      19.748  47.624  88.369  1.00  0.00     0.158 A 
BRANCH  15  18
ATOM     18  O   UNL     1      18.068  49.188  89.125  1.00  0.00    -0.504 OA
ATOM     19  H   UNL     1      17.393  49.578  88.476  1.00  0.00     0.293 HD
ENDBRANCH  15  18
BRANCH  17  20
ATOM     20  O   UNL     1      18.794  46.608  88.380  1.00  0.00    -0.504 OA
ATOM     21  H   UNL     1      19.008  45.684  88.736  1.00  0.00     0.293 HD
ENDBRANCH  17  20
ENDBRANCH   1  12
BRANCH   2  22
ATOM     22  O   UNL     1      23.475  45.958  88.663  1.00  0.00    -0.502 OA
ATOM     23  H   UNL     1      23.176  46.144  89.613  1.00  0.00     0.293 HD
ENDBRANCH   2  22
BRANCH   6  24
ATOM     24  O   UNL     1      28.124  46.480  86.115  1.00  0.00    -0.507 OA
ATOM     25  H   UNL     1      29.077  46.414  85.789  1.00  0.00     0.293 HD
ENDBRANCH   6  24
BRANCH   8  26
ATOM     26  O   UNL     1      27.771  51.002  84.592  1.00  0.00    -0.508 OA
ATOM     27  H   UNL     1      28.448  50.863  83.850  1.00  0.00     0.293 HD
ENDBRANCH   8  26
TORSDOF 6
ENDMDL
MODEL 6
REMARK VINA RESULT:    -3.464      2.838      5.199
REMARK INTER + INTRA:          -4.482
REMARK INTER:                  -4.342
REMARK INTRA:                  -0.140
REMARK UNBOUND:                -0.309
REMARK SMILES O=c1c(O)c(-c2ccc(O)c(O)c2)oc2cc(O)cc(O)c12
REMARK SMILES IDX 5 1 3 2 2 3 1 4 22 5 20 6 19 7 17 8 16 9 15 10 14 11 6 12
REMARK SMILES IDX 7 13 8 14 9 15 13 16 11 17 10 18 12 20 4 22 21 24 18 26
REMARK H PARENT 10 19 12 21 4 23 21 25 18 27
REMARK Flexibility Score: inf
ROOT
ATOM      1  C   UNL     1      23.999  50.360  87.843  1.00  0.00     0.180 A 
ATOM      2  C   UNL     1      25.292  50.582  87.338  1.00  0.00     0.208 A 
ATOM      3  C   UNL     1      25.763  51.901  87.232  1.00  0.00     0.238 A 
ATOM      4  O   UNL     1      26.942  52.091  86.830  1.00  0.00    -0.285 OA
ATOM      5  C   UNL     1      24.932  52.980  87.617  1.00  0.00     0.111 A 
ATOM      6  C   UNL     1      25.292  54.358  87.514  1.00  0.00     0.134 A 
ATOM      7  C   UNL     1      24.441  55.334  88.046  1.00  0.00     0.093 A 
ATOM      8  C   UNL     1      23.217  54.991  88.617  1.00  0.00     0.123 A 
ATOM      9  C   UNL     1      22.828  53.652  88.668  1.00  0.00     0.094 A 
ATOM     10  C   UNL     1      23.670  52.651  88.179  1.00  0.00     0.146 A 
ATOM     11  O   UNL     1      23.268  51.388  88.256  1.00  0.00    -0.452 OA
ENDROOT
BRANCH   1  12
ATOM     12  C   UNL     1      23.423  49.001  87.961  1.00  0.00     0.025 A 
ATOM     13  C   UNL     1      23.999  48.081  88.850  1.00  0.00     0.016 A 
ATOM     14  C   UNL     1      23.459  46.800  88.993  1.00  0.00     0.051 A 
ATOM     15  C   UNL     1      22.326  46.426  88.259  1.00  0.00     0.157 A 
ATOM     16  C   UNL     1      22.272  48.628  87.241  1.00  0.00     0.062 A 
ATOM     17  C   UNL     1      21.729  47.343  87.386  1.00  0.00     0.158 A 
BRANCH  15  18
ATOM     18  O   UNL     1      21.785  45.150  88.398  1.00  0.00    -0.504 OA
ATOM     19  H   UNL     1      22.233  44.336  87.992  1.00  0.00     0.293 HD
ENDBRANCH  15  18
BRANCH  17  20
ATOM     20  O   UNL     1      20.593  46.973  86.667  1.00  0.00    -0.504 OA
ATOM     21  H   UNL     1      20.435  47.298  85.720  1.00  0.00     0.293 HD
ENDBRANCH  17  20
ENDBRANCH   1  12
BRANCH   2  22
ATOM     22  O   UNL     1      26.103  49.502  86.985  1.00  0.00    -0.502 OA
ATOM     23  H   UNL     1      26.054  48.607  87.459  1.00  0.00     0.293 HD
ENDBRANCH   2  22
BRANCH   6  24
ATOM     24  O   UNL     1      26.450  54.817  86.880  1.00  0.00    -0.507 OA
ATOM     25  H   UNL     1      27.007  54.274  86.236  1.00  0.00     0.293 HD
ENDBRANCH   6  24
BRANCH   8  26
ATOM     26  O   UNL     1      22.389  55.991  89.122  1.00  0.00    -0.508 OA
ATOM     27  H   UNL     1      21.382  55.952  89.011  1.00  0.00     0.293 HD
ENDBRANCH   8  26
TORSDOF 6
ENDMDL
MODEL 7
REMARK VINA RESULT:    -3.238      2.195      3.878
REMARK INTER + INTRA:          -4.209
REMARK INTER:                  -4.050
REMARK INTRA:                  -0.160
REMARK UNBOUND:                -0.309
REMARK SMILES O=c1c(O)c(-c2ccc(O)c(O)c2)oc2cc(O)cc(O)c12
REMARK SMILES IDX 5 1 3 2 2 3 1 4 22 5 20 6 19 7 17 8 16 9 15 10 14 11 6 12
REMARK SMILES IDX 7 13 8 14 9 15 13 16 11 17 10 18 12 20 4 22 21 24 18 26
REMARK H PARENT 10 19 12 21 4 23 21 25 18 27
REMARK Flexibility Score: inf
ROOT
ATOM      1  C   UNL     1      22.652  49.356  88.069  1.00  0.00     0.180 A 
ATOM      2  C   UNL     1      22.112  50.625  88.338  1.00  0.00     0.208 A 
ATOM      3  C   UNL     1      20.750  50.729  88.666  1.00  0.00     0.238 A 
ATOM      4  O   UNL     1      20.284  51.862  88.959  1.00  0.00    -0.285 OA
ATOM      5  C   UNL     1      19.943  49.567  88.704  1.00  0.00     0.111 A 
ATOM      6  C   UNL     1      18.543  49.562  88.985  1.00  0.00     0.134 A 
ATOM      7  C   UNL     1      17.873  48.340  89.125  1.00  0.00     0.093 A 
ATOM      8  C   UNL     1      18.534  47.129  88.931  1.00  0.00     0.123 A 
ATOM      9  C   UNL     1      19.889  47.125  88.597  1.00  0.00     0.094 A 
ATOM     10  C   UNL     1      20.594  48.325  88.486  1.00  0.00     0.146 A 
ATOM     11  O   UNL     1      21.885  48.278  88.178  1.00  0.00    -0.452 OA
ENDROOT
BRANCH   1  12
ATOM     12  C   UNL     1      24.072  49.168  87.693  1.00  0.00     0.025 A 
ATOM     13  C   UNL     1      24.893  48.348  88.482  1.00  0.00     0.016 A 
ATOM     14  C   UNL     1      26.230  48.139  88.134  1.00  0.00     0.051 A 
ATOM     15  C   UNL     1      26.761  48.736  86.983  1.00  0.00     0.157 A 
ATOM     16  C   UNL     1      24.603  49.748  86.526  1.00  0.00     0.062 A 
ATOM     17  C   UNL     1      25.944  49.537  86.175  1.00  0.00     0.158 A 
BRANCH  15  18
ATOM     18  O   UNL     1      28.094  48.532  86.633  1.00  0.00    -0.504 OA
ATOM     19  H   UNL     1      28.418  48.662  85.681  1.00  0.00     0.293 HD
ENDBRANCH  15  18
BRANCH  17  20
ATOM     20  O   UNL     1      26.471  50.118  85.023  1.00  0.00    -0.504 OA
ATOM     21  H   UNL     1      26.017  50.018  84.123  1.00  0.00     0.293 HD
ENDBRANCH  17  20
ENDBRANCH   1  12
BRANCH   2  22
ATOM     22  O   UNL     1      22.931  51.756  88.316  1.00  0.00    -0.502 OA
ATOM     23  H   UNL     1      22.692  52.591  87.792  1.00  0.00     0.293 HD
ENDBRANCH   2  22
BRANCH   6  24
ATOM     24  O   UNL     1      17.766  50.717  89.107  1.00  0.00    -0.507 OA
ATOM     25  H   UNL     1      17.899  51.428  89.811  1.00  0.00     0.293 HD
ENDBRANCH   6  24
BRANCH   8  26
ATOM     26  O   UNL     1      17.832  45.933  89.063  1.00  0.00    -0.508 OA
ATOM     27  H   UNL     1      17.435  45.459  88.259  1.00  0.00     0.293 HD
ENDBRANCH   8  26
TORSDOF 6
ENDMDL
MODEL 8
REMARK VINA RESULT:    -3.068      2.512      2.802
REMARK INTER + INTRA:          -4.005
REMARK INTER:                  -3.735
REMARK INTRA:                  -0.270
REMARK UNBOUND:                -0.309
REMARK SMILES O=c1c(O)c(-c2ccc(O)c(O)c2)oc2cc(O)cc(O)c12
REMARK SMILES IDX 5 1 3 2 2 3 1 4 22 5 20 6 19 7 17 8 16 9 15 10 14 11 6 12
REMARK SMILES IDX 7 13 8 14 9 15 13 16 11 17 10 18 12 20 4 22 21 24 18 26
REMARK H PARENT 10 19 12 21 4 23 21 25 18 27
REMARK Flexibility Score: inf
ROOT
ATOM      1  C   UNL     1      22.514  49.173  88.018  1.00  0.00     0.180 A 
ATOM      2  C   UNL     1      21.829  47.945  88.004  1.00  0.00     0.208 A 
ATOM      3  C   UNL     1      20.452  47.933  88.277  1.00  0.00     0.238 A 
ATOM      4  O   UNL     1      19.833  46.837  88.210  1.00  0.00    -0.285 OA
ATOM      5  C   UNL     1      19.780  49.142  88.575  1.00  0.00     0.111 A 
ATOM      6  C   UNL     1      18.395  49.240  88.906  1.00  0.00     0.134 A 
ATOM      7  C   UNL     1      17.809  50.504  89.055  1.00  0.00     0.093 A 
ATOM      8  C   UNL     1      18.569  51.667  88.949  1.00  0.00     0.123 A 
ATOM      9  C   UNL     1      19.936  51.580  88.686  1.00  0.00     0.094 A 
ATOM     10  C   UNL     1      20.543  50.337  88.497  1.00  0.00     0.146 A 
ATOM     11  O   UNL     1      21.844  50.298  88.236  1.00  0.00    -0.452 OA
ENDROOT
BRANCH   1  12
ATOM     12  C   UNL     1      23.971  49.264  87.765  1.00  0.00     0.025 A 
ATOM     13  C   UNL     1      24.871  48.868  88.766  1.00  0.00     0.016 A 
ATOM     14  C   UNL     1      26.249  48.927  88.542  1.00  0.00     0.051 A 
ATOM     15  C   UNL     1      26.746  49.368  87.309  1.00  0.00     0.157 A 
ATOM     16  C   UNL     1      24.473  49.687  86.521  1.00  0.00     0.062 A 
ATOM     17  C   UNL     1      25.856  49.744  86.295  1.00  0.00     0.158 A 
BRANCH  15  18
ATOM     18  O   UNL     1      28.119  49.428  87.081  1.00  0.00    -0.504 OA
ATOM     19  H   UNL     1      28.762  49.748  87.797  1.00  0.00     0.293 HD
ENDBRANCH  15  18
BRANCH  17  20
ATOM     20  O   UNL     1      26.352  50.169  85.064  1.00  0.00    -0.504 OA
ATOM     21  H   UNL     1      27.347  50.178  84.867  1.00  0.00     0.293 HD
ENDBRANCH  17  20
ENDBRANCH   1  12
BRANCH   2  22
ATOM     22  O   UNL     1      22.507  46.766  87.686  1.00  0.00    -0.502 OA
ATOM     23  H   UNL     1      23.326  46.754  87.089  1.00  0.00     0.293 HD
ENDBRANCH   2  22
BRANCH   6  24
ATOM     24  O   UNL     1      17.565  48.138  89.125  1.00  0.00    -0.507 OA
ATOM     25  H   UNL     1      16.572  48.121  88.945  1.00  0.00     0.293 HD
ENDBRANCH   6  24
BRANCH   8  26
ATOM     26  O   UNL     1      17.956  52.907  89.119  1.00  0.00    -0.508 OA
ATOM     27  H   UNL     1      18.128  53.477  89.939  1.00  0.00     0.293 HD
ENDBRANCH   8  26
TORSDOF 6
ENDMDL
MODEL 9
REMARK VINA RESULT:    -3.029      3.176      6.632
REMARK INTER + INTRA:          -3.958
REMARK INTER:                  -3.829
REMARK INTRA:                  -0.129
REMARK UNBOUND:                -0.309
REMARK SMILES O=c1c(O)c(-c2ccc(O)c(O)c2)oc2cc(O)cc(O)c12
REMARK SMILES IDX 5 1 3 2 2 3 1 4 22 5 20 6 19 7 17 8 16 9 15 10 14 11 6 12
REMARK SMILES IDX 7 13 8 14 9 15 13 16 11 17 10 18 12 20 4 22 21 24 18 26
REMARK H PARENT 10 19 12 21 4 23 21 25 18 27
REMARK Flexibility Score: inf
ROOT
ATOM      1  C   UNL     1      23.291  50.405  87.607  1.00  0.00     0.180 A 
ATOM      2  C   UNL     1      24.036  49.547  86.779  1.00  0.00     0.208 A 
ATOM      3  C   UNL     1      25.357  49.894  86.453  1.00  0.00     0.238 A 
ATOM      4  O   UNL     1      26.037  49.095  85.756  1.00  0.00    -0.285 OA
ATOM      5  C   UNL     1      25.911  51.101  86.944  1.00  0.00     0.111 A 
ATOM      6  C   UNL     1      27.225  51.570  86.644  1.00  0.00     0.134 A 
ATOM      7  C   UNL     1      27.714  52.712  87.290  1.00  0.00     0.093 A 
ATOM      8  C   UNL     1      26.916  53.437  88.174  1.00  0.00     0.123 A 
ATOM      9  C   UNL     1      25.609  53.020  88.429  1.00  0.00     0.094 A 
ATOM     10  C   UNL     1      25.105  51.865  87.828  1.00  0.00     0.146 A 
ATOM     11  O   UNL     1      23.860  51.496  88.105  1.00  0.00    -0.452 OA
ENDROOT
BRANCH   1  12
ATOM     12  C   UNL     1      21.885  50.120  87.975  1.00  0.00     0.025 A 
ATOM     13  C   UNL     1      21.589  48.984  88.743  1.00  0.00     0.016 A 
ATOM     14  C   UNL     1      20.272  48.707  89.119  1.00  0.00     0.051 A 
ATOM     15  C   UNL     1      19.235  49.571  88.745  1.00  0.00     0.157 A 
ATOM     16  C   UNL     1      20.843  50.996  87.618  1.00  0.00     0.062 A 
ATOM     17  C   UNL     1      19.522  50.720  87.997  1.00  0.00     0.158 A 
BRANCH  15  18
ATOM     18  O   UNL     1      17.920  49.298  89.116  1.00  0.00    -0.504 OA
ATOM     19  H   UNL     1      17.366  49.967  89.640  1.00  0.00     0.293 HD
ENDBRANCH  15  18
BRANCH  17  20
ATOM     20  O   UNL     1      18.490  51.585  87.638  1.00  0.00    -0.504 OA
ATOM     21  H   UNL     1      18.430  52.524  88.014  1.00  0.00     0.293 HD
ENDBRANCH  17  20
ENDBRANCH   1  12
BRANCH   2  22
ATOM     22  O   UNL     1      23.477  48.350  86.324  1.00  0.00    -0.502 OA
ATOM     23  H   UNL     1      23.802  47.444  86.639  1.00  0.00     0.293 HD
ENDBRANCH   2  22
BRANCH   6  24
ATOM     24  O   UNL     1      28.073  50.973  85.706  1.00  0.00    -0.507 OA
ATOM     25  H   UNL     1      29.081  50.979  85.756  1.00  0.00     0.293 HD
ENDBRANCH   6  24
BRANCH   8  26
ATOM     26  O   UNL     1      27.431  54.578  88.787  1.00  0.00    -0.508 OA
ATOM     27  H   UNL     1      27.822  54.547  89.721  1.00  0.00     0.293 HD
ENDBRANCH   8  26
TORSDOF 6
ENDMDL
