MODEL 1
REMARK VINA RESULT:    -4.429      0.000      0.000
REMARK INTER + INTRA:          -8.904
REMARK INTER:                  -7.536
REMARK INTRA:                  -1.369
REMARK UNBOUND:                -1.369
REMARK SMILES CCCCCCCCCCCCCC(=O)[O-]
REMARK SMILES IDX 8 1 9 2 10 3 11 4 12 5 13 6 14 7 15 8 16 9 7 10 6 11 5 12
REMARK SMILES IDX 4 13 3 14 2 15 1 16
REMARK H PARENT
REMARK Flexibility Score: inf
ROOT
ATOM      1  C   UNL     1      -9.905  -7.044 -11.462  1.00  0.00     0.000 C 
ENDROOT
BRANCH   1   2
ATOM      2  C   UNL     1      -9.927  -7.604 -12.896  1.00  0.00     0.000 C 
BRANCH   2   3
ATOM      3  C   UNL     1      -9.230  -6.684 -13.910  1.00  0.00     0.000 C 
BRANCH   3   4
ATOM      4  C   UNL     1      -7.754  -7.065 -14.075  1.00  0.00     0.000 C 
BRANCH   4   5
ATOM      5  C   UNL     1      -6.886  -5.820 -14.310  1.00  0.00     0.006 C 
BRANCH   5   6
ATOM      6  C   UNL     1      -7.574  -4.533 -13.835  1.00  0.00     0.053 C 
BRANCH   6   7
ATOM      7  C   UNL     1      -6.603  -3.587 -13.198  1.00  0.00     0.041 C 
ATOM      8  O   UNL     1      -5.366  -3.822 -13.244  1.00  0.00    -0.550 OA
ATOM      9  O   UNL     1      -7.065  -2.463 -12.525  1.00  0.00    -0.550 OA
ENDBRANCH   6   7
ENDBRANCH   5   6
ENDBRANCH   4   5
ENDBRANCH   3   4
ENDBRANCH   2   3
ENDBRANCH   1   2
BRANCH   1  10
ATOM     10  C   UNL     1      -8.856  -7.683 -10.533  1.00  0.00     0.000 C 
BRANCH  10  11
ATOM     11  C   UNL     1      -7.514  -6.932 -10.541  1.00  0.00    -0.000 C 
BRANCH  11  12
ATOM     12  C   UNL     1      -7.667  -5.451 -10.162  1.00  0.00    -0.000 C 
BRANCH  12  13
ATOM     13  C   UNL     1      -6.311  -4.744  -9.990  1.00  0.00    -0.000 C 
BRANCH  13  14
ATOM     14  C   UNL     1      -6.319  -3.722  -8.842  1.00  0.00    -0.000 C 
BRANCH  14  15
ATOM     15  C   UNL     1      -5.121  -3.888  -7.895  1.00  0.00    -0.003 C 
ATOM     16  C   UNL     1      -4.769  -5.361  -7.708  1.00  0.00     0.004 C 
ENDBRANCH  14  15
ENDBRANCH  13  14
ENDBRANCH  12  13
ENDBRANCH  11  12
ENDBRANCH  10  11
ENDBRANCH   1  10
TORSDOF 12
ENDMDL
MODEL 2
REMARK VINA RESULT:    -4.352      1.216      2.431
REMARK INTER + INTRA:          -8.774
REMARK INTER:                  -7.324
REMARK INTRA:                  -1.450
REMARK UNBOUND:                -1.369
REMARK SMILES CCCCCCCCCCCCCC(=O)[O-]
REMARK SMILES IDX 8 1 9 2 10 3 11 4 12 5 13 6 14 7 15 8 16 9 7 10 6 11 5 12
REMARK SMILES IDX 4 13 3 14 2 15 1 16
REMARK H PARENT
REMARK Flexibility Score: inf
ROOT
ATOM      1  C   UNL     1     -10.424  -7.074 -13.490  1.00  0.00     0.000 C 
ENDROOT
BRANCH   1   2
ATOM      2  C   UNL     1      -9.269  -7.264 -14.491  1.00  0.00     0.000 C 
BRANCH   2   3
ATOM      3  C   UNL     1      -8.052  -7.973 -13.876  1.00  0.00     0.000 C 
BRANCH   3   4
ATOM      4  C   UNL     1      -6.930  -6.974 -13.573  1.00  0.00     0.000 C 
BRANCH   4   5
ATOM      5  C   UNL     1      -7.070  -5.708 -14.431  1.00  0.00     0.006 C 
BRANCH   5   6
ATOM      6  C   UNL     1      -7.708  -4.548 -13.657  1.00  0.00     0.053 C 
BRANCH   6   7
ATOM      7  C   UNL     1      -6.679  -3.573 -13.169  1.00  0.00     0.041 C 
ATOM      8  O   UNL     1      -5.461  -3.892 -13.157  1.00  0.00    -0.550 OA
ATOM      9  O   UNL     1      -7.069  -2.326 -12.698  1.00  0.00    -0.550 OA
ENDBRANCH   6   7
ENDBRANCH   5   6
ENDBRANCH   4   5
ENDBRANCH   3   4
ENDBRANCH   2   3
ENDBRANCH   1   2
BRANCH   1  10
ATOM     10  C   UNL     1     -10.377  -8.006 -12.264  1.00  0.00     0.000 C 
BRANCH  10  11
ATOM     11  C   UNL     1     -10.978  -7.363 -11.003  1.00  0.00    -0.000 C 
BRANCH  11  12
ATOM     12  C   UNL     1      -9.991  -7.342  -9.825  1.00  0.00    -0.000 C 
BRANCH  12  13
ATOM     13  C   UNL     1      -8.649  -8.012 -10.170  1.00  0.00    -0.000 C 
BRANCH  13  14
ATOM     14  C   UNL     1      -7.478  -7.017 -10.174  1.00  0.00    -0.000 C 
BRANCH  14  15
ATOM     15  C   UNL     1      -7.944  -5.557 -10.272  1.00  0.00    -0.003 C 
ATOM     16  C   UNL     1      -6.832  -4.597  -9.857  1.00  0.00     0.004 C 
ENDBRANCH  14  15
ENDBRANCH  13  14
ENDBRANCH  12  13
ENDBRANCH  11  12
ENDBRANCH  10  11
ENDBRANCH   1  10
TORSDOF 12
ENDMDL
MODEL 3
REMARK VINA RESULT:    -4.284      1.743      4.174
REMARK INTER + INTRA:          -8.659
REMARK INTER:                  -6.938
REMARK INTRA:                  -1.720
REMARK UNBOUND:                -1.369
REMARK SMILES CCCCCCCCCCCCCC(=O)[O-]
REMARK SMILES IDX 8 1 9 2 10 3 11 4 12 5 13 6 14 7 15 8 16 9 7 10 6 11 5 12
REMARK SMILES IDX 4 13 3 14 2 15 1 16
REMARK H PARENT
REMARK Flexibility Score: inf
ROOT
ATOM      1  C   UNL     1     -10.236  -7.863 -12.233  1.00  0.00     0.000 C 
ENDROOT
BRANCH   1   2
ATOM      2  C   UNL     1     -10.644  -6.967 -11.049  1.00  0.00     0.000 C 
BRANCH   2   3
ATOM      3  C   UNL     1      -9.671  -7.059  -9.864  1.00  0.00     0.000 C 
BRANCH   3   4
ATOM      4  C   UNL     1      -8.343  -7.695 -10.290  1.00  0.00     0.000 C 
BRANCH   4   5
ATOM      5  C   UNL     1      -7.195  -6.679 -10.213  1.00  0.00     0.006 C 
BRANCH   5   6
ATOM      6  C   UNL     1      -7.679  -5.238 -10.412  1.00  0.00     0.053 C 
BRANCH   6   7
ATOM      7  C   UNL     1      -6.852  -4.261  -9.633  1.00  0.00     0.041 C 
ATOM      8  O   UNL     1      -5.757  -4.622  -9.126  1.00  0.00    -0.550 OA
ATOM      9  O   UNL     1      -7.305  -2.962  -9.439  1.00  0.00    -0.550 OA
ENDBRANCH   6   7
ENDBRANCH   5   6
ENDBRANCH   4   5
ENDBRANCH   3   4
ENDBRANCH   2   3
ENDBRANCH   1   2
BRANCH   1  10
ATOM     10  C   UNL     1     -10.577  -7.294 -13.623  1.00  0.00     0.000 C 
BRANCH  10  11
ATOM     11  C   UNL     1      -9.378  -6.609 -14.299  1.00  0.00    -0.000 C 
BRANCH  11  12
ATOM     12  C   UNL     1      -8.063  -7.374 -14.080  1.00  0.00    -0.000 C 
BRANCH  12  13
ATOM     13  C   UNL     1      -6.861  -6.433 -13.881  1.00  0.00    -0.000 C 
BRANCH  13  14
ATOM     14  C   UNL     1      -7.210  -4.963 -14.164  1.00  0.00    -0.000 C 
BRANCH  14  15
ATOM     15  C   UNL     1      -6.232  -3.986 -13.496  1.00  0.00    -0.003 C 
ATOM     16  C   UNL     1      -6.959  -2.745 -12.987  1.00  0.00     0.004 C 
ENDBRANCH  14  15
ENDBRANCH  13  14
ENDBRANCH  12  13
ENDBRANCH  11  12
ENDBRANCH  10  11
ENDBRANCH   1  10
TORSDOF 12
ENDMDL
MODEL 4
REMARK VINA RESULT:    -4.121      2.283      5.087
REMARK INTER + INTRA:          -8.381
REMARK INTER:                  -6.963
REMARK INTRA:                  -1.417
REMARK UNBOUND:                -1.369
REMARK SMILES CCCCCCCCCCCCCC(=O)[O-]
REMARK SMILES IDX 8 1 9 2 10 3 11 4 12 5 13 6 14 7 15 8 16 9 7 10 6 11 5 12
REMARK SMILES IDX 4 13 3 14 2 15 1 16
REMARK H PARENT
REMARK Flexibility Score: inf
ROOT
ATOM      1  C   UNL     1      -6.255  -5.292 -13.509  1.00  0.00     0.000 C 
ENDROOT
BRANCH   1   2
ATOM      2  C   UNL     1      -5.921  -3.804 -13.297  1.00  0.00     0.000 C 
BRANCH   2   3
ATOM      3  C   UNL     1      -6.719  -3.167 -12.150  1.00  0.00     0.000 C 
BRANCH   3   4
ATOM      4  C   UNL     1      -7.184  -4.229 -11.147  1.00  0.00     0.000 C 
BRANCH   4   5
ATOM      5  C   UNL     1      -6.582  -3.977  -9.758  1.00  0.00     0.006 C 
BRANCH   5   6
ATOM      6  C   UNL     1      -6.020  -5.257  -9.126  1.00  0.00     0.053 C 
BRANCH   6   7
ATOM      7  C   UNL     1      -5.035  -4.954  -8.038  1.00  0.00     0.041 C 
ATOM      8  O   UNL     1      -4.627  -5.873  -7.280  1.00  0.00    -0.550 OA
ATOM      9  O   UNL     1      -4.592  -3.652  -7.841  1.00  0.00    -0.550 OA
ENDBRANCH   6   7
ENDBRANCH   5   6
ENDBRANCH   4   5
ENDBRANCH   3   4
ENDBRANCH   2   3
ENDBRANCH   1   2
BRANCH   1  10
ATOM     10  C   UNL     1      -7.454  -5.561 -14.437  1.00  0.00     0.000 C 
BRANCH  10  11
ATOM     11  C   UNL     1      -7.830  -7.050 -14.511  1.00  0.00    -0.000 C 
BRANCH  11  12
ATOM     12  C   UNL     1      -9.257  -7.323 -14.010  1.00  0.00    -0.000 C 
BRANCH  12  13
ATOM     13  C   UNL     1      -9.455  -6.910 -12.541  1.00  0.00    -0.000 C 
BRANCH  13  14
ATOM     14  C   UNL     1      -8.698  -7.825 -11.565  1.00  0.00    -0.000 C 
BRANCH  14  15
ATOM     15  C   UNL     1      -8.823  -7.363 -10.106  1.00  0.00    -0.003 C 
ATOM     16  C   UNL     1     -10.054  -6.481  -9.913  1.00  0.00     0.004 C 
ENDBRANCH  14  15
ENDBRANCH  13  14
ENDBRANCH  12  13
ENDBRANCH  11  12
ENDBRANCH  10  11
ENDBRANCH   1  10
TORSDOF 12
ENDMDL
MODEL 5
REMARK VINA RESULT:    -4.103      2.310      4.533
REMARK INTER + INTRA:          -8.350
REMARK INTER:                  -7.170
REMARK INTRA:                  -1.179
REMARK UNBOUND:                -1.369
REMARK SMILES CCCCCCCCCCCCCC(=O)[O-]
REMARK SMILES IDX 8 1 9 2 10 3 11 4 12 5 13 6 14 7 15 8 16 9 7 10 6 11 5 12
REMARK SMILES IDX 4 13 3 14 2 15 1 16
REMARK H PARENT
REMARK Flexibility Score: inf
ROOT
ATOM      1  C   UNL     1      -6.622  -3.102 -11.236  1.00  0.00     0.000 C 
ENDROOT
BRANCH   1   2
ATOM      2  C   UNL     1      -7.165  -3.552 -12.605  1.00  0.00     0.000 C 
BRANCH   2   3
ATOM      3  C   UNL     1      -6.073  -4.112 -13.529  1.00  0.00     0.000 C 
BRANCH   3   4
ATOM      4  C   UNL     1      -6.629  -5.222 -14.428  1.00  0.00     0.000 C 
BRANCH   4   5
ATOM      5  C   UNL     1      -6.894  -6.503 -13.622  1.00  0.00     0.006 C 
BRANCH   5   6
ATOM      6  C   UNL     1      -7.712  -7.530 -14.415  1.00  0.00     0.053 C 
BRANCH   6   7
ATOM      7  C   UNL     1      -9.176  -7.212 -14.392  1.00  0.00     0.041 C 
ATOM      8  O   UNL     1     -10.019  -8.125 -14.188  1.00  0.00    -0.550 OA
ATOM      9  O   UNL     1      -9.611  -5.914 -14.629  1.00  0.00    -0.550 OA
ENDBRANCH   6   7
ENDBRANCH   5   6
ENDBRANCH   4   5
ENDBRANCH   3   4
ENDBRANCH   2   3
ENDBRANCH   1   2
BRANCH   1  10
ATOM     10  C   UNL     1      -6.754  -4.146 -10.112  1.00  0.00     0.000 C 
BRANCH  10  11
ATOM     11  C   UNL     1      -7.885  -5.156 -10.365  1.00  0.00    -0.000 C 
BRANCH  11  12
ATOM     12  C   UNL     1      -7.416  -6.613 -10.225  1.00  0.00    -0.000 C 
BRANCH  12  13
ATOM     13  C   UNL     1      -8.576  -7.618 -10.338  1.00  0.00    -0.000 C 
BRANCH  13  14
ATOM     14  C   UNL     1      -9.888  -6.956 -10.786  1.00  0.00    -0.000 C 
BRANCH  14  15
ATOM     15  C   UNL     1     -11.121  -7.574 -10.110  1.00  0.00    -0.003 C 
ATOM     16  C   UNL     1     -11.064  -7.395  -8.596  1.00  0.00     0.004 C 
ENDBRANCH  14  15
ENDBRANCH  13  14
ENDBRANCH  12  13
ENDBRANCH  11  12
ENDBRANCH  10  11
ENDBRANCH   1  10
TORSDOF 12
ENDMDL
MODEL 6
REMARK VINA RESULT:    -3.983     13.582     15.645
REMARK INTER + INTRA:          -8.146
REMARK INTER:                  -7.404
REMARK INTRA:                  -0.743
REMARK UNBOUND:                -1.369
REMARK SMILES CCCCCCCCCCCCCC(=O)[O-]
REMARK SMILES IDX 8 1 9 2 10 3 11 4 12 5 13 6 14 7 15 8 16 9 7 10 6 11 5 12
REMARK SMILES IDX 4 13 3 14 2 15 1 16
REMARK H PARENT
REMARK Flexibility Score: inf
ROOT
ATOM      1  C   UNL     1       4.810  -2.235 -14.154  1.00  0.00     0.000 C 
ENDROOT
BRANCH   1   2
ATOM      2  C   UNL     1       4.789  -3.259 -13.004  1.00  0.00     0.000 C 
BRANCH   2   3
ATOM      3  C   UNL     1       6.107  -4.037 -12.868  1.00  0.00     0.000 C 
BRANCH   3   4
ATOM      4  C   UNL     1       6.986  -3.440 -11.763  1.00  0.00     0.000 C 
BRANCH   4   5
ATOM      5  C   UNL     1       8.131  -4.395 -11.394  1.00  0.00     0.006 C 
BRANCH   5   6
ATOM      6  C   UNL     1       8.814  -4.003 -10.078  1.00  0.00     0.053 C 
BRANCH   6   7
ATOM      7  C   UNL     1       8.335  -4.840  -8.932  1.00  0.00     0.041 C 
ATOM      8  O   UNL     1       8.335  -4.372  -7.763  1.00  0.00    -0.550 OA
ATOM      9  O   UNL     1       7.920  -6.148  -9.150  1.00  0.00    -0.550 OA
ENDBRANCH   6   7
ENDBRANCH   5   6
ENDBRANCH   4   5
ENDBRANCH   3   4
ENDBRANCH   2   3
ENDBRANCH   1   2
BRANCH   1  10
ATOM     10  C   UNL     1       4.390  -0.807 -13.757  1.00  0.00     0.000 C 
BRANCH  10  11
ATOM     11  C   UNL     1       5.469   0.242 -14.073  1.00  0.00    -0.000 C 
BRANCH  11  12
ATOM     12  C   UNL     1       6.785  -0.022 -13.325  1.00  0.00    -0.000 C 
BRANCH  12  13
ATOM     13  C   UNL     1       7.820   1.096 -13.541  1.00  0.00    -0.000 C 
BRANCH  13  14
ATOM     14  C   UNL     1       8.616   1.416 -12.266  1.00  0.00    -0.000 C 
BRANCH  14  15
ATOM     15  C   UNL     1       8.309   2.815 -11.714  1.00  0.00    -0.003 C 
ATOM     16  C   UNL     1       8.912   3.002 -10.324  1.00  0.00     0.004 C 
ENDBRANCH  14  15
ENDBRANCH  13  14
ENDBRANCH  12  13
ENDBRANCH  11  12
ENDBRANCH  10  11
ENDBRANCH   1  10
TORSDOF 12
ENDMDL
MODEL 7
REMARK VINA RESULT:    -3.960      2.072      4.754
REMARK INTER + INTRA:          -8.108
REMARK INTER:                  -6.461
REMARK INTRA:                  -1.646
REMARK UNBOUND:                -1.369
REMARK SMILES CCCCCCCCCCCCCC(=O)[O-]
REMARK SMILES IDX 8 1 9 2 10 3 11 4 12 5 13 6 14 7 15 8 16 9 7 10 6 11 5 12
REMARK SMILES IDX 4 13 3 14 2 15 1 16
REMARK H PARENT
REMARK Flexibility Score: inf
ROOT
ATOM      1  C   UNL     1     -10.016  -7.031 -10.730  1.00  0.00     0.000 C 
ENDROOT
BRANCH   1   2
ATOM      2  C   UNL     1      -8.713  -7.831 -10.549  1.00  0.00     0.000 C 
BRANCH   2   3
ATOM      3  C   UNL     1      -7.486  -6.935 -10.319  1.00  0.00     0.000 C 
BRANCH   3   4
ATOM      4  C   UNL     1      -7.889  -5.458 -10.247  1.00  0.00     0.000 C 
BRANCH   4   5
ATOM      5  C   UNL     1      -6.654  -4.547 -10.279  1.00  0.00     0.006 C 
BRANCH   5   6
ATOM      6  C   UNL     1      -6.449  -3.798  -8.956  1.00  0.00     0.053 C 
BRANCH   6   7
ATOM      7  C   UNL     1      -5.269  -4.324  -8.196  1.00  0.00     0.041 C 
ATOM      8  O   UNL     1      -4.393  -3.531  -7.759  1.00  0.00    -0.550 OA
ATOM      9  O   UNL     1      -5.120  -5.690  -7.999  1.00  0.00    -0.550 OA
ENDBRANCH   6   7
ENDBRANCH   5   6
ENDBRANCH   4   5
ENDBRANCH   3   4
ENDBRANCH   2   3
ENDBRANCH   1   2
BRANCH   1  10
ATOM     10  C   UNL     1     -10.749  -7.280 -12.061  1.00  0.00     0.000 C 
BRANCH  10  11
ATOM     11  C   UNL     1      -9.852  -7.936 -13.123  1.00  0.00    -0.000 C 
BRANCH  11  12
ATOM     12  C   UNL     1      -9.709  -7.074 -14.387  1.00  0.00    -0.000 C 
BRANCH  12  13
ATOM     13  C   UNL     1      -8.595  -6.020 -14.258  1.00  0.00    -0.000 C 
BRANCH  13  14
ATOM     14  C   UNL     1      -7.200  -6.649 -14.121  1.00  0.00    -0.000 C 
BRANCH  14  15
ATOM     15  C   UNL     1      -6.159  -5.663 -13.571  1.00  0.00    -0.003 C 
ATOM     16  C   UNL     1      -6.613  -4.220 -13.767  1.00  0.00     0.004 C 
ENDBRANCH  14  15
ENDBRANCH  13  14
ENDBRANCH  12  13
ENDBRANCH  11  12
ENDBRANCH  10  11
ENDBRANCH   1  10
TORSDOF 12
ENDMDL
MODEL 8
REMARK VINA RESULT:    -3.897      2.664      4.057
REMARK INTER + INTRA:          -7.999
REMARK INTER:                  -6.850
REMARK INTRA:                  -1.149
REMARK UNBOUND:                -1.369
REMARK SMILES CCCCCCCCCCCCCC(=O)[O-]
REMARK SMILES IDX 8 1 9 2 10 3 11 4 12 5 13 6 14 7 15 8 16 9 7 10 6 11 5 12
REMARK SMILES IDX 4 13 3 14 2 15 1 16
REMARK H PARENT
REMARK Flexibility Score: inf
ROOT
ATOM      1  C   UNL     1      -6.181  -4.508 -13.822  1.00  0.00     0.000 C 
ENDROOT
BRANCH   1   2
ATOM      2  C   UNL     1      -6.983  -5.591 -14.567  1.00  0.00     0.000 C 
BRANCH   2   3
ATOM      3  C   UNL     1      -7.848  -6.448 -13.631  1.00  0.00     0.000 C 
BRANCH   3   4
ATOM      4  C   UNL     1      -6.978  -7.360 -12.760  1.00  0.00     0.000 C 
BRANCH   4   5
ATOM      5  C   UNL     1      -7.716  -7.764 -11.475  1.00  0.00     0.006 C 
BRANCH   5   6
ATOM      6  C   UNL     1      -8.838  -6.782 -11.116  1.00  0.00     0.053 C 
BRANCH   6   7
ATOM      7  C   UNL     1     -10.129  -7.491 -10.838  1.00  0.00     0.041 C 
ATOM      8  O   UNL     1     -10.571  -7.561  -9.660  1.00  0.00    -0.550 OA
ATOM      9  O   UNL     1     -10.827  -8.101 -11.872  1.00  0.00    -0.550 OA
ENDBRANCH   6   7
ENDBRANCH   5   6
ENDBRANCH   4   5
ENDBRANCH   3   4
ENDBRANCH   2   3
ENDBRANCH   1   2
BRANCH   1  10
ATOM     10  C   UNL     1      -7.029  -3.372 -13.221  1.00  0.00     0.000 C 
BRANCH  10  11
ATOM     11  C   UNL     1      -6.642  -3.042 -11.770  1.00  0.00    -0.000 C 
BRANCH  11  12
ATOM     12  C   UNL     1      -6.940  -4.198 -10.803  1.00  0.00    -0.000 C 
BRANCH  12  13
ATOM     13  C   UNL     1      -6.315  -3.980  -9.414  1.00  0.00    -0.000 C 
BRANCH  13  14
ATOM     14  C   UNL     1      -5.877  -5.295  -8.751  1.00  0.00    -0.000 C 
BRANCH  14  15
ATOM     15  C   UNL     1      -4.734  -5.097  -7.744  1.00  0.00    -0.003 C 
ATOM     16  C   UNL     1      -4.669  -3.648  -7.267  1.00  0.00     0.004 C 
ENDBRANCH  14  15
ENDBRANCH  13  14
ENDBRANCH  12  13
ENDBRANCH  11  12
ENDBRANCH  10  11
ENDBRANCH   1  10
TORSDOF 12
ENDMDL
