MODEL 1
REMARK VINA RESULT:    -5.814      0.000      0.000
REMARK INTER + INTRA:          -6.453
REMARK INTER:                  -6.324
REMARK INTRA:                  -0.129
REMARK UNBOUND:                -0.129
REMARK SMILES CC1(C)CC[C@@]2(C(=O)[O-])CC[C@]3(C)C(=CC[C@@H]4[C@]5(C)CC[C@@H](O)C(C)(C)[C@@H]5CC[C@@]43C)[C@H]2C1
REMARK SMILES IDX 6 1 5 2 10 3 32 4 4 5 11 6 14 7 33 8 2 9 12 10 15 11 1 12
REMARK SMILES IDX 3 13 13 14 30 15 16 16 17 17 29 18 31 19 18 20 28 21 27 22
REMARK SMILES IDX 20 23 19 24 24 25 21 26 22 27 25 28 26 29 7 30 8 31 9 32
REMARK SMILES IDX 23 33
REMARK H PARENT 23 34
REMARK Flexibility Score: inf
ROOT
ATOM      1  C   UNL     1      45.829  28.786  28.335  1.00  0.00     0.017 C 
ATOM      2  C   UNL     1      46.623  27.748  29.193  1.00  0.00     0.014 C 
ATOM      3  C   UNL     1      46.895  29.749  27.637  1.00  0.00     0.014 C 
ATOM      4  C   UNL     1      44.883  27.999  27.317  1.00  0.00     0.028 C 
ATOM      5  C   UNL     1      45.698  26.793  29.982  1.00  0.00     0.007 C 
ATOM      6  C   UNL     1      46.697  30.232  26.155  1.00  0.00     0.013 C 
ATOM      7  C   UNL     1      45.233  28.331  25.857  1.00  0.00    -0.064 C 
ATOM      8  C   UNL     1      44.797  26.463  27.607  1.00  0.00     0.015 C 
ATOM      9  C   UNL     1      44.606  26.099  29.101  1.00  0.00    -0.035 C 
ATOM     10  C   UNL     1      45.359  29.808  25.478  1.00  0.00    -0.006 C 
ATOM     11  C   UNL     1      45.806  27.407  25.046  1.00  0.00    -0.027 C 
ATOM     12  C   UNL     1      43.187  26.493  29.570  1.00  0.00     0.011 C 
ATOM     13  C   UNL     1      44.729  24.565  29.249  1.00  0.00     0.011 C 
ATOM     14  C   UNL     1      44.250  30.688  26.154  1.00  0.00     0.017 C 
ATOM     15  C   UNL     1      45.295  30.018  23.855  1.00  0.00    -0.020 C 
ATOM     16  C   UNL     1      46.642  27.804  23.872  1.00  0.00     0.032 C 
ATOM     17  C   UNL     1      45.877  28.809  23.000  1.00  0.00     0.006 C 
ATOM     18  C   UNL     1      46.057  31.304  23.477  1.00  0.00     0.008 C 
ATOM     19  C   UNL     1      43.795  30.185  23.415  1.00  0.00     0.012 C 
ATOM     20  C   UNL     1      46.622  29.140  21.610  1.00  0.00    -0.025 C 
ATOM     21  C   UNL     1      46.000  31.667  21.996  1.00  0.00     0.005 C 
ATOM     22  C   UNL     1      46.084  30.488  20.965  1.00  0.00     0.003 C 
ATOM     23  C   UNL     1      48.175  29.250  21.779  1.00  0.00     0.010 C 
ATOM     24  C   UNL     1      46.311  27.922  20.670  1.00  0.00     0.012 C 
ATOM     25  C   UNL     1      46.837  30.954  19.636  1.00  0.00    -0.006 C 
ATOM     26  C   UNL     1      48.931  29.698  20.510  1.00  0.00     0.033 C 
ATOM     27  C   UNL     1      48.376  31.006  19.912  1.00  0.00     0.120 C 
ATOM     28  C   UNL     1      46.355  32.375  19.199  1.00  0.00     0.014 C 
ATOM     29  C   UNL     1      46.499  30.029  18.424  1.00  0.00     0.014 C 
ENDROOT
BRANCH   1  30
ATOM     30  C   UNL     1      45.021  29.637  29.336  1.00  0.00     0.048 C 
ATOM     31  O   UNL     1      45.627  30.418  30.125  1.00  0.00    -0.550 OA
ATOM     32  O   UNL     1      43.636  29.610  29.389  1.00  0.00    -0.550 OA
ENDBRANCH   1  30
BRANCH  27  33
ATOM     33  O   UNL     1      49.111  31.380  18.771  1.00  0.00    -0.393 OA
ATOM     34  H   UNL     1      49.905  30.786  18.706  1.00  0.00     0.210 HD
ENDBRANCH  27  33
TORSDOF 2
ENDMDL
MODEL 2
REMARK VINA RESULT:    -5.589      1.934      8.520
REMARK INTER + INTRA:          -6.208
REMARK INTER:                  -6.071
REMARK INTRA:                  -0.137
REMARK UNBOUND:                -0.129
REMARK SMILES CC1(C)CC[C@@]2(C(=O)[O-])CC[C@]3(C)C(=CC[C@@H]4[C@]5(C)CC[C@@H](O)C(C)(C)[C@@H]5CC[C@@]43C)[C@H]2C1
REMARK SMILES IDX 6 1 5 2 10 3 32 4 4 5 11 6 14 7 33 8 2 9 12 10 15 11 1 12
REMARK SMILES IDX 3 13 13 14 30 15 16 16 17 17 29 18 31 19 18 20 28 21 27 22
REMARK SMILES IDX 20 23 19 24 24 25 21 26 22 27 25 28 26 29 7 30 8 31 9 32
REMARK SMILES IDX 23 33
REMARK H PARENT 23 34
REMARK Flexibility Score: inf
ROOT
ATOM      1  C   UNL     1      44.934  30.744  19.640  1.00  0.00     0.017 C 
ATOM      2  C   UNL     1      45.327  29.796  18.461  1.00  0.00     0.014 C 
ATOM      3  C   UNL     1      43.834  29.990  20.519  1.00  0.00     0.014 C 
ATOM      4  C   UNL     1      46.257  31.148  20.441  1.00  0.00     0.028 C 
ATOM      5  C   UNL     1      46.342  30.441  17.488  1.00  0.00     0.007 C 
ATOM      6  C   UNL     1      43.853  30.082  22.088  1.00  0.00     0.013 C 
ATOM      7  C   UNL     1      46.186  30.688  21.906  1.00  0.00    -0.064 C 
ATOM      8  C   UNL     1      47.577  30.727  19.714  1.00  0.00     0.015 C 
ATOM      9  C   UNL     1      47.604  31.036  18.196  1.00  0.00    -0.035 C 
ATOM     10  C   UNL     1      44.923  31.036  22.697  1.00  0.00    -0.006 C 
ATOM     11  C   UNL     1      46.979  29.688  22.365  1.00  0.00    -0.027 C 
ATOM     12  C   UNL     1      47.700  32.561  17.963  1.00  0.00     0.011 C 
ATOM     13  C   UNL     1      48.877  30.399  17.591  1.00  0.00     0.011 C 
ATOM     14  C   UNL     1      44.415  32.487  22.390  1.00  0.00     0.017 C 
ATOM     15  C   UNL     1      45.164  30.882  24.309  1.00  0.00    -0.020 C 
ATOM     16  C   UNL     1      46.589  28.856  23.544  1.00  0.00     0.032 C 
ATOM     17  C   UNL     1      46.216  29.763  24.725  1.00  0.00     0.006 C 
ATOM     18  C   UNL     1      43.819  30.578  25.000  1.00  0.00     0.008 C 
ATOM     19  C   UNL     1      45.718  32.239  24.880  1.00  0.00     0.012 C 
ATOM     20  C   UNL     1      45.974  28.953  26.097  1.00  0.00    -0.025 C 
ATOM     21  C   UNL     1      43.889  30.498  26.522  1.00  0.00     0.005 C 
ATOM     22  C   UNL     1      45.153  29.816  27.149  1.00  0.00     0.003 C 
ATOM     23  C   UNL     1      45.223  27.600  25.863  1.00  0.00     0.010 C 
ATOM     24  C   UNL     1      47.407  28.634  26.652  1.00  0.00     0.012 C 
ATOM     25  C   UNL     1      44.773  29.057  28.502  1.00  0.00    -0.006 C 
ATOM     26  C   UNL     1      44.842  26.843  27.154  1.00  0.00     0.033 C 
ATOM     27  C   UNL     1      44.052  27.715  28.150  1.00  0.00     0.120 C 
ATOM     28  C   UNL     1      43.815  29.931  29.372  1.00  0.00     0.014 C 
ATOM     29  C   UNL     1      46.025  28.820  29.404  1.00  0.00     0.014 C 
ENDROOT
BRANCH   1  30
ATOM     30  C   UNL     1      44.252  31.968  18.994  1.00  0.00     0.048 C 
ATOM     31  O   UNL     1      44.720  33.124  19.198  1.00  0.00    -0.550 OA
ATOM     32  O   UNL     1      43.151  31.852  18.160  1.00  0.00    -0.550 OA
ENDBRANCH   1  30
BRANCH  27  33
ATOM     33  O   UNL     1      43.714  26.973  29.298  1.00  0.00    -0.393 OA
ATOM     34  H   UNL     1      44.346  26.210  29.370  1.00  0.00     0.210 HD
ENDBRANCH  27  33
TORSDOF 2
ENDMDL
MODEL 3
REMARK VINA RESULT:    -5.528      9.412     13.101
REMARK INTER + INTRA:          -6.142
REMARK INTER:                  -5.978
REMARK INTRA:                  -0.164
REMARK UNBOUND:                -0.129
REMARK SMILES CC1(C)CC[C@@]2(C(=O)[O-])CC[C@]3(C)C(=CC[C@@H]4[C@]5(C)CC[C@@H](O)C(C)(C)[C@@H]5CC[C@@]43C)[C@H]2C1
REMARK SMILES IDX 6 1 5 2 10 3 32 4 4 5 11 6 14 7 33 8 2 9 12 10 15 11 1 12
REMARK SMILES IDX 3 13 13 14 30 15 16 16 17 17 29 18 31 19 18 20 28 21 27 22
REMARK SMILES IDX 20 23 19 24 24 25 21 26 22 27 25 28 26 29 7 30 8 31 9 32
REMARK SMILES IDX 23 33
REMARK H PARENT 23 34
REMARK Flexibility Score: inf
ROOT
ATOM      1  C   UNL     1      38.578  30.302  21.825  1.00  0.00     0.017 C 
ATOM      2  C   UNL     1      39.968  29.835  22.368  1.00  0.00     0.014 C 
ATOM      3  C   UNL     1      37.494  29.222  22.284  1.00  0.00     0.014 C 
ATOM      4  C   UNL     1      38.294  31.786  22.344  1.00  0.00     0.028 C 
ATOM      5  C   UNL     1      41.124  30.764  21.930  1.00  0.00     0.007 C 
ATOM      6  C   UNL     1      36.067  29.667  22.767  1.00  0.00     0.013 C 
ATOM      7  C   UNL     1      37.025  31.842  23.211  1.00  0.00    -0.064 C 
ATOM      8  C   UNL     1      39.538  32.462  23.010  1.00  0.00     0.015 C 
ATOM      9  C   UNL     1      40.866  32.278  22.232  1.00  0.00    -0.035 C 
ATOM     10  C   UNL     1      35.758  31.190  22.653  1.00  0.00    -0.006 C 
ATOM     11  C   UNL     1      37.098  32.071  24.545  1.00  0.00    -0.027 C 
ATOM     12  C   UNL     1      40.838  33.104  20.926  1.00  0.00     0.011 C 
ATOM     13  C   UNL     1      42.020  32.831  23.099  1.00  0.00     0.011 C 
ATOM     14  C   UNL     1      35.576  31.468  21.120  1.00  0.00     0.017 C 
ATOM     15  C   UNL     1      34.421  31.697  23.452  1.00  0.00    -0.020 C 
ATOM     16  C   UNL     1      36.031  31.601  25.481  1.00  0.00     0.032 C 
ATOM     17  C   UNL     1      34.655  32.064  24.982  1.00  0.00     0.006 C 
ATOM     18  C   UNL     1      33.331  30.610  23.364  1.00  0.00     0.008 C 
ATOM     19  C   UNL     1      33.874  33.002  22.766  1.00  0.00     0.012 C 
ATOM     20  C   UNL     1      33.467  31.773  26.031  1.00  0.00    -0.025 C 
ATOM     21  C   UNL     1      31.996  30.994  23.995  1.00  0.00     0.005 C 
ATOM     22  C   UNL     1      32.043  31.816  25.330  1.00  0.00     0.003 C 
ATOM     23  C   UNL     1      33.632  30.390  26.747  1.00  0.00     0.010 C 
ATOM     24  C   UNL     1      33.578  32.906  27.112  1.00  0.00     0.012 C 
ATOM     25  C   UNL     1      30.809  31.435  26.270  1.00  0.00    -0.006 C 
ATOM     26  C   UNL     1      32.455  29.995  27.664  1.00  0.00     0.033 C 
ATOM     27  C   UNL     1      31.091  30.054  26.948  1.00  0.00     0.120 C 
ATOM     28  C   UNL     1      29.493  31.328  25.435  1.00  0.00     0.014 C 
ATOM     29  C   UNL     1      30.521  32.548  27.326  1.00  0.00     0.014 C 
ENDROOT
BRANCH   1  30
ATOM     30  C   UNL     1      38.677  30.235  20.287  1.00  0.00     0.048 C 
ATOM     31  O   UNL     1      38.886  29.124  19.722  1.00  0.00    -0.550 OA
ATOM     32  O   UNL     1      38.511  31.351  19.481  1.00  0.00    -0.550 OA
ENDBRANCH   1  30
BRANCH  27  33
ATOM     33  O   UNL     1      30.056  29.666  27.820  1.00  0.00    -0.393 OA
ATOM     34  H   UNL     1      29.431  30.433  27.918  1.00  0.00     0.210 HD
ENDBRANCH  27  33
TORSDOF 2
ENDMDL
MODEL 4
REMARK VINA RESULT:    -5.439      1.343      8.524
REMARK INTER + INTRA:          -6.045
REMARK INTER:                  -5.885
REMARK INTRA:                  -0.160
REMARK UNBOUND:                -0.129
REMARK SMILES CC1(C)CC[C@@]2(C(=O)[O-])CC[C@]3(C)C(=CC[C@@H]4[C@]5(C)CC[C@@H](O)C(C)(C)[C@@H]5CC[C@@]43C)[C@H]2C1
REMARK SMILES IDX 6 1 5 2 10 3 32 4 4 5 11 6 14 7 33 8 2 9 12 10 15 11 1 12
REMARK SMILES IDX 3 13 13 14 30 15 16 16 17 17 29 18 31 19 18 20 28 21 27 22
REMARK SMILES IDX 20 23 19 24 24 25 21 26 22 27 25 28 26 29 7 30 8 31 9 32
REMARK SMILES IDX 23 33
REMARK H PARENT 23 34
REMARK Flexibility Score: inf
ROOT
ATOM      1  C   UNL     1      46.374  31.599  20.110  1.00  0.00     0.017 C 
ATOM      2  C   UNL     1      45.382  32.376  19.185  1.00  0.00     0.014 C 
ATOM      3  C   UNL     1      46.412  32.354  21.517  1.00  0.00     0.014 C 
ATOM      4  C   UNL     1      45.915  30.071  20.192  1.00  0.00     0.028 C 
ATOM      5  C   UNL     1      45.307  31.784  17.758  1.00  0.00     0.007 C 
ATOM      6  C   UNL     1      46.469  31.547  22.864  1.00  0.00     0.013 C 
ATOM      7  C   UNL     1      45.579  29.664  21.636  1.00  0.00    -0.064 C 
ATOM      8  C   UNL     1      44.798  29.701  19.160  1.00  0.00     0.015 C 
ATOM      9  C   UNL     1      45.038  30.242  17.728  1.00  0.00    -0.035 C 
ATOM     10  C   UNL     1      46.603  30.001  22.722  1.00  0.00    -0.006 C 
ATOM     11  C   UNL     1      44.303  29.406  22.012  1.00  0.00    -0.027 C 
ATOM     12  C   UNL     1      46.212  29.491  17.062  1.00  0.00     0.011 C 
ATOM     13  C   UNL     1      43.774  29.960  16.882  1.00  0.00     0.011 C 
ATOM     14  C   UNL     1      48.076  29.751  22.244  1.00  0.00     0.017 C 
ATOM     15  C   UNL     1      46.330  29.144  24.090  1.00  0.00    -0.020 C 
ATOM     16  C   UNL     1      43.857  29.555  23.431  1.00  0.00     0.032 C 
ATOM     17  C   UNL     1      44.804  28.784  24.361  1.00  0.00     0.006 C 
ATOM     18  C   UNL     1      46.877  29.927  25.301  1.00  0.00     0.008 C 
ATOM     19  C   UNL     1      47.095  27.773  24.001  1.00  0.00     0.012 C 
ATOM     20  C   UNL     1      44.288  28.725  25.887  1.00  0.00    -0.025 C 
ATOM     21  C   UNL     1      46.765  29.196  26.636  1.00  0.00     0.005 C 
ATOM     22  C   UNL     1      45.465  28.357  26.888  1.00  0.00     0.003 C 
ATOM     23  C   UNL     1      43.641  30.075  26.347  1.00  0.00     0.010 C 
ATOM     24  C   UNL     1      43.182  27.612  25.910  1.00  0.00     0.012 C 
ATOM     25  C   UNL     1      45.072  28.378  28.436  1.00  0.00    -0.006 C 
ATOM     26  C   UNL     1      43.250  30.125  27.840  1.00  0.00     0.033 C 
ATOM     27  C   UNL     1      44.417  29.757  28.778  1.00  0.00     0.120 C 
ATOM     28  C   UNL     1      46.340  28.188  29.329  1.00  0.00     0.014 C 
ATOM     29  C   UNL     1      44.138  27.186  28.813  1.00  0.00     0.014 C 
ENDROOT
BRANCH   1  30
ATOM     30  C   UNL     1      47.767  31.752  19.465  1.00  0.00     0.048 C 
ATOM     31  O   UNL     1      48.282  32.902  19.355  1.00  0.00    -0.550 OA
ATOM     32  O   UNL     1      48.506  30.666  19.022  1.00  0.00    -0.550 OA
ENDBRANCH   1  30
BRANCH  27  33
ATOM     33  O   UNL     1      44.014  29.837  30.125  1.00  0.00    -0.393 OA
ATOM     34  H   UNL     1      43.038  29.652  30.167  1.00  0.00     0.210 HD
ENDBRANCH  27  33
TORSDOF 2
ENDMDL
MODEL 5
REMARK VINA RESULT:    -5.393     11.735     15.882
REMARK INTER + INTRA:          -5.995
REMARK INTER:                  -5.838
REMARK INTRA:                  -0.157
REMARK UNBOUND:                -0.129
REMARK SMILES CC1(C)CC[C@@]2(C(=O)[O-])CC[C@]3(C)C(=CC[C@@H]4[C@]5(C)CC[C@@H](O)C(C)(C)[C@@H]5CC[C@@]43C)[C@H]2C1
REMARK SMILES IDX 6 1 5 2 10 3 32 4 4 5 11 6 14 7 33 8 2 9 12 10 15 11 1 12
REMARK SMILES IDX 3 13 13 14 30 15 16 16 17 17 29 18 31 19 18 20 28 21 27 22
REMARK SMILES IDX 20 23 19 24 24 25 21 26 22 27 25 28 26 29 7 30 8 31 9 32
REMARK SMILES IDX 23 33
REMARK H PARENT 23 34
REMARK Flexibility Score: inf
ROOT
ATOM      1  C   UNL     1      32.023  30.386  25.460  1.00  0.00     0.017 C 
ATOM      2  C   UNL     1      32.838  30.839  24.205  1.00  0.00     0.014 C 
ATOM      3  C   UNL     1      31.162  29.108  25.040  1.00  0.00     0.014 C 
ATOM      4  C   UNL     1      33.036  30.133  26.670  1.00  0.00     0.028 C 
ATOM      5  C   UNL     1      33.666  32.120  24.461  1.00  0.00     0.007 C 
ATOM      6  C   UNL     1      30.984  27.897  26.024  1.00  0.00     0.013 C 
ATOM      7  C   UNL     1      32.974  28.675  27.154  1.00  0.00    -0.064 C 
ATOM      8  C   UNL     1      34.489  30.636  26.381  1.00  0.00     0.015 C 
ATOM      9  C   UNL     1      34.568  32.045  25.738  1.00  0.00    -0.035 C 
ATOM     10  C   UNL     1      31.593  28.084  27.445  1.00  0.00    -0.006 C 
ATOM     11  C   UNL     1      34.008  27.823  26.946  1.00  0.00    -0.027 C 
ATOM     12  C   UNL     1      34.159  33.124  26.766  1.00  0.00     0.011 C 
ATOM     13  C   UNL     1      36.038  32.319  25.344  1.00  0.00     0.011 C 
ATOM     14  C   UNL     1      30.653  29.108  28.173  1.00  0.00     0.017 C 
ATOM     15  C   UNL     1      31.702  26.722  28.348  1.00  0.00    -0.020 C 
ATOM     16  C   UNL     1      33.805  26.343  26.881  1.00  0.00     0.032 C 
ATOM     17  C   UNL     1      33.024  25.868  28.114  1.00  0.00     0.006 C 
ATOM     18  C   UNL     1      30.478  25.826  28.070  1.00  0.00     0.008 C 
ATOM     19  C   UNL     1      31.695  27.110  29.872  1.00  0.00     0.012 C 
ATOM     20  C   UNL     1      32.931  24.263  28.227  1.00  0.00    -0.025 C 
ATOM     21  C   UNL     1      30.410  24.559  28.917  1.00  0.00     0.005 C 
ATOM     22  C   UNL     1      31.759  23.812  29.200  1.00  0.00     0.003 C 
ATOM     23  C   UNL     1      32.718  23.580  26.835  1.00  0.00     0.010 C 
ATOM     24  C   UNL     1      34.321  23.804  28.795  1.00  0.00     0.012 C 
ATOM     25  C   UNL     1      31.522  22.235  29.295  1.00  0.00    -0.006 C 
ATOM     26  C   UNL     1      32.486  22.055  26.894  1.00  0.00     0.033 C 
ATOM     27  C   UNL     1      31.345  21.658  27.852  1.00  0.00     0.120 C 
ATOM     28  C   UNL     1      30.237  21.920  30.125  1.00  0.00     0.014 C 
ATOM     29  C   UNL     1      32.678  21.521  30.064  1.00  0.00     0.014 C 
ENDROOT
BRANCH   1  30
ATOM     30  C   UNL     1      31.035  31.532  25.763  1.00  0.00     0.048 C 
ATOM     31  O   UNL     1      30.132  31.816  24.925  1.00  0.00    -0.550 OA
ATOM     32  O   UNL     1      31.071  32.253  26.946  1.00  0.00    -0.550 OA
ENDBRANCH   1  30
BRANCH  27  33
ATOM     33  O   UNL     1      31.163  20.262  27.854  1.00  0.00    -0.393 OA
ATOM     34  H   UNL     1      31.965  19.846  28.269  1.00  0.00     0.210 HD
ENDBRANCH  27  33
TORSDOF 2
ENDMDL
MODEL 6
REMARK VINA RESULT:    -5.259      2.593      4.227
REMARK INTER + INTRA:          -5.850
REMARK INTER:                  -5.688
REMARK INTRA:                  -0.162
REMARK UNBOUND:                -0.129
REMARK SMILES CC1(C)CC[C@@]2(C(=O)[O-])CC[C@]3(C)C(=CC[C@@H]4[C@]5(C)CC[C@@H](O)C(C)(C)[C@@H]5CC[C@@]43C)[C@H]2C1
REMARK SMILES IDX 6 1 5 2 10 3 32 4 4 5 11 6 14 7 33 8 2 9 12 10 15 11 1 12
REMARK SMILES IDX 3 13 13 14 30 15 16 16 17 17 29 18 31 19 18 20 28 21 27 22
REMARK SMILES IDX 20 23 19 24 24 25 21 26 22 27 25 28 26 29 7 30 8 31 9 32
REMARK SMILES IDX 23 33
REMARK H PARENT 23 34
REMARK Flexibility Score: inf
ROOT
ATOM      1  C   UNL     1      44.490  27.852  26.373  1.00  0.00     0.017 C 
ATOM      2  C   UNL     1      43.359  27.750  27.448  1.00  0.00     0.014 C 
ATOM      3  C   UNL     1      43.914  27.253  25.009  1.00  0.00     0.014 C 
ATOM      4  C   UNL     1      44.975  29.371  26.276  1.00  0.00     0.028 C 
ATOM      5  C   UNL     1      43.815  28.236  28.843  1.00  0.00     0.007 C 
ATOM      6  C   UNL     1      44.248  27.925  23.629  1.00  0.00     0.013 C 
ATOM      7  C   UNL     1      44.750  29.941  24.865  1.00  0.00    -0.064 C 
ATOM      8  C   UNL     1      44.407  30.280  27.416  1.00  0.00     0.015 C 
ATOM      9  C   UNL     1      44.476  29.655  28.833  1.00  0.00    -0.035 C 
ATOM     10  C   UNL     1      45.253  29.114  23.680  1.00  0.00    -0.006 C 
ATOM     11  C   UNL     1      43.810  30.891  24.635  1.00  0.00    -0.027 C 
ATOM     12  C   UNL     1      45.943  29.584  29.315  1.00  0.00     0.011 C 
ATOM     13  C   UNL     1      43.716  30.581  29.811  1.00  0.00     0.011 C 
ATOM     14  C   UNL     1      46.654  28.467  23.963  1.00  0.00     0.017 C 
ATOM     15  C   UNL     1      45.345  30.015  22.316  1.00  0.00    -0.020 C 
ATOM     16  C   UNL     1      43.183  31.065  23.289  1.00  0.00     0.032 C 
ATOM     17  C   UNL     1      44.274  31.188  22.216  1.00  0.00     0.006 C 
ATOM     18  C   UNL     1      45.192  29.097  21.087  1.00  0.00     0.008 C 
ATOM     19  C   UNL     1      46.757  30.704  22.246  1.00  0.00     0.012 C 
ATOM     20  C   UNL     1      43.694  31.576  20.762  1.00  0.00    -0.025 C 
ATOM     21  C   UNL     1      45.347  29.802  19.742  1.00  0.00     0.005 C 
ATOM     22  C   UNL     1      44.733  31.239  19.609  1.00  0.00     0.003 C 
ATOM     23  C   UNL     1      42.343  30.849  20.449  1.00  0.00     0.010 C 
ATOM     24  C   UNL     1      43.423  33.121  20.821  1.00  0.00     0.012 C 
ATOM     25  C   UNL     1      44.206  31.492  18.123  1.00  0.00    -0.006 C 
ATOM     26  C   UNL     1      41.808  31.075  19.019  1.00  0.00     0.033 C 
ATOM     27  C   UNL     1      42.847  30.742  17.929  1.00  0.00     0.120 C 
ATOM     28  C   UNL     1      45.232  30.954  17.076  1.00  0.00     0.014 C 
ATOM     29  C   UNL     1      44.075  33.015  17.807  1.00  0.00     0.014 C 
ENDROOT
BRANCH   1  30
ATOM     30  C   UNL     1      45.618  26.914  26.851  1.00  0.00     0.048 C 
ATOM     31  O   UNL     1      45.389  25.678  26.985  1.00  0.00    -0.550 OA
ATOM     32  O   UNL     1      46.902  27.367  27.114  1.00  0.00    -0.550 OA
ENDBRANCH   1  30
BRANCH  27  33
ATOM     33  O   UNL     1      42.303  30.947  16.647  1.00  0.00    -0.393 OA
ATOM     34  H   UNL     1      41.838  31.825  16.645  1.00  0.00     0.210 HD
ENDBRANCH  27  33
TORSDOF 2
ENDMDL
MODEL 7
REMARK VINA RESULT:    -5.236      3.613      7.692
REMARK INTER + INTRA:          -5.824
REMARK INTER:                  -5.666
REMARK INTRA:                  -0.158
REMARK UNBOUND:                -0.129
REMARK SMILES CC1(C)CC[C@@]2(C(=O)[O-])CC[C@]3(C)C(=CC[C@@H]4[C@]5(C)CC[C@@H](O)C(C)(C)[C@@H]5CC[C@@]43C)[C@H]2C1
REMARK SMILES IDX 6 1 5 2 10 3 32 4 4 5 11 6 14 7 33 8 2 9 12 10 15 11 1 12
REMARK SMILES IDX 3 13 13 14 30 15 16 16 17 17 29 18 31 19 18 20 28 21 27 22
REMARK SMILES IDX 20 23 19 24 24 25 21 26 22 27 25 28 26 29 7 30 8 31 9 32
REMARK SMILES IDX 23 33
REMARK H PARENT 23 34
REMARK Flexibility Score: inf
ROOT
ATOM      1  C   UNL     1      41.270  31.896  22.775  1.00  0.00     0.017 C 
ATOM      2  C   UNL     1      40.214  32.931  23.284  1.00  0.00     0.014 C 
ATOM      3  C   UNL     1      42.698  32.355  23.323  1.00  0.00     0.014 C 
ATOM      4  C   UNL     1      40.823  30.433  23.237  1.00  0.00     0.028 C 
ATOM      5  C   UNL     1      38.789  32.637  22.761  1.00  0.00     0.007 C 
ATOM      6  C   UNL     1      43.741  31.300  23.840  1.00  0.00     0.013 C 
ATOM      7  C   UNL     1      41.880  29.788  24.149  1.00  0.00    -0.064 C 
ATOM      8  C   UNL     1      39.374  30.381  23.824  1.00  0.00     0.015 C 
ATOM      9  C   UNL     1      38.317  31.165  23.004  1.00  0.00    -0.035 C 
ATOM     10  C   UNL     1      43.333  29.806  23.670  1.00  0.00    -0.006 C 
ATOM     11  C   UNL     1      41.639  29.587  25.468  1.00  0.00    -0.027 C 
ATOM     12  C   UNL     1      38.041  30.446  21.664  1.00  0.00     0.011 C 
ATOM     13  C   UNL     1      36.992  31.177  23.800  1.00  0.00     0.011 C 
ATOM     14  C   UNL     1      43.453  29.511  22.134  1.00  0.00     0.017 C 
ATOM     15  C   UNL     1      44.250  28.730  24.496  1.00  0.00    -0.020 C 
ATOM     16  C   UNL     1      42.750  29.500  26.465  1.00  0.00     0.032 C 
ATOM     17  C   UNL     1      43.792  28.474  25.999  1.00  0.00     0.006 C 
ATOM     18  C   UNL     1      45.717  29.205  24.499  1.00  0.00     0.008 C 
ATOM     19  C   UNL     1      44.184  27.334  23.774  1.00  0.00     0.012 C 
ATOM     20  C   UNL     1      44.924  28.171  27.105  1.00  0.00    -0.025 C 
ATOM     21  C   UNL     1      46.697  28.243  25.164  1.00  0.00     0.005 C 
ATOM     22  C   UNL     1      46.211  27.502  26.457  1.00  0.00     0.003 C 
ATOM     23  C   UNL     1      45.363  29.461  27.875  1.00  0.00     0.010 C 
ATOM     24  C   UNL     1      44.253  27.188  28.129  1.00  0.00     0.012 C 
ATOM     25  C   UNL     1      47.430  27.260  27.461  1.00  0.00    -0.006 C 
ATOM     26  C   UNL     1      46.539  29.258  28.854  1.00  0.00     0.033 C 
ATOM     27  C   UNL     1      47.766  28.603  28.189  1.00  0.00     0.120 C 
ATOM     28  C   UNL     1      48.696  26.777  26.683  1.00  0.00     0.014 C 
ATOM     29  C   UNL     1      47.125  26.113  28.476  1.00  0.00     0.014 C 
ENDROOT
BRANCH   1  30
ATOM     30  C   UNL     1      41.296  32.035  21.239  1.00  0.00     0.048 C 
ATOM     31  O   UNL     1      41.667  33.125  20.716  1.00  0.00    -0.550 OA
ATOM     32  O   UNL     1      40.959  30.991  20.391  1.00  0.00    -0.550 OA
ENDBRANCH   1  30
BRANCH  27  33
ATOM     33  O   UNL     1      48.815  28.458  29.117  1.00  0.00    -0.393 OA
ATOM     34  H   UNL     1      48.773  27.538  29.490  1.00  0.00     0.210 HD
ENDBRANCH  27  33
TORSDOF 2
ENDMDL
MODEL 8
REMARK VINA RESULT:    -4.982      9.629     11.449
REMARK INTER + INTRA:          -5.548
REMARK INTER:                  -5.389
REMARK INTRA:                  -0.158
REMARK UNBOUND:                -0.129
REMARK SMILES CC1(C)CC[C@@]2(C(=O)[O-])CC[C@]3(C)C(=CC[C@@H]4[C@]5(C)CC[C@@H](O)C(C)(C)[C@@H]5CC[C@@]43C)[C@H]2C1
REMARK SMILES IDX 6 1 5 2 10 3 32 4 4 5 11 6 14 7 33 8 2 9 12 10 15 11 1 12
REMARK SMILES IDX 3 13 13 14 30 15 16 16 17 17 29 18 31 19 18 20 28 21 27 22
REMARK SMILES IDX 20 23 19 24 24 25 21 26 22 27 25 28 26 29 7 30 8 31 9 32
REMARK SMILES IDX 23 33
REMARK H PARENT 23 34
REMARK Flexibility Score: inf
ROOT
ATOM      1  C   UNL     1      32.327  30.954  26.273  1.00  0.00     0.017 C 
ATOM      2  C   UNL     1      31.902  29.917  27.364  1.00  0.00     0.014 C 
ATOM      3  C   UNL     1      33.715  31.596  26.735  1.00  0.00     0.014 C 
ATOM      4  C   UNL     1      32.378  30.220  24.855  1.00  0.00     0.028 C 
ATOM      5  C   UNL     1      30.529  29.269  27.069  1.00  0.00     0.007 C 
ATOM      6  C   UNL     1      34.852  31.895  25.693  1.00  0.00     0.013 C 
ATOM      7  C   UNL     1      33.790  30.274  24.247  1.00  0.00    -0.064 C 
ATOM      8  C   UNL     1      31.760  28.783  24.875  1.00  0.00     0.015 C 
ATOM      9  C   UNL     1      30.408  28.673  25.627  1.00  0.00    -0.035 C 
ATOM     10  C   UNL     1      34.488  31.635  24.201  1.00  0.00    -0.006 C 
ATOM     11  C   UNL     1      34.549  29.156  24.141  1.00  0.00    -0.027 C 
ATOM     12  C   UNL     1      29.293  29.383  24.827  1.00  0.00     0.011 C 
ATOM     13  C   UNL     1      30.024  27.178  25.722  1.00  0.00     0.011 C 
ATOM     14  C   UNL     1      33.504  32.790  23.801  1.00  0.00     0.017 C 
ATOM     15  C   UNL     1      35.753  31.624  23.161  1.00  0.00    -0.020 C 
ATOM     16  C   UNL     1      36.043  29.224  24.094  1.00  0.00     0.032 C 
ATOM     17  C   UNL     1      36.489  30.221  23.017  1.00  0.00     0.006 C 
ATOM     18  C   UNL     1      36.785  32.682  23.602  1.00  0.00     0.008 C 
ATOM     19  C   UNL     1      35.242  32.002  21.722  1.00  0.00     0.012 C 
ATOM     20  C   UNL     1      38.080  30.211  22.761  1.00  0.00    -0.025 C 
ATOM     21  C   UNL     1      37.978  32.838  22.663  1.00  0.00     0.005 C 
ATOM     22  C   UNL     1      38.562  31.532  22.021  1.00  0.00     0.003 C 
ATOM     23  C   UNL     1      38.894  30.055  24.089  1.00  0.00     0.010 C 
ATOM     24  C   UNL     1      38.351  28.952  21.864  1.00  0.00     0.012 C 
ATOM     25  C   UNL     1      40.141  31.660  21.819  1.00  0.00    -0.006 C 
ATOM     26  C   UNL     1      40.424  30.174  23.925  1.00  0.00     0.033 C 
ATOM     27  C   UNL     1      40.851  31.465  23.199  1.00  0.00     0.120 C 
ATOM     28  C   UNL     1      40.511  33.070  21.256  1.00  0.00     0.014 C 
ATOM     29  C   UNL     1      40.671  30.653  20.750  1.00  0.00     0.014 C 
ENDROOT
BRANCH   1  30
ATOM     30  C   UNL     1      31.264  32.071  26.309  1.00  0.00     0.048 C 
ATOM     31  O   UNL     1      31.128  32.771  27.353  1.00  0.00    -0.550 OA
ATOM     32  O   UNL     1      30.460  32.369  25.219  1.00  0.00    -0.550 OA
ENDBRANCH   1  30
BRANCH  27  33
ATOM     33  O   UNL     1      42.253  31.534  23.092  1.00  0.00    -0.393 OA
ATOM     34  H   UNL     1      42.593  30.620  22.898  1.00  0.00     0.210 HD
ENDBRANCH  27  33
TORSDOF 2
ENDMDL
MODEL 9
REMARK VINA RESULT:    -4.961      2.894      8.307
REMARK INTER + INTRA:          -5.526
REMARK INTER:                  -5.363
REMARK INTRA:                  -0.162
REMARK UNBOUND:                -0.129
REMARK SMILES CC1(C)CC[C@@]2(C(=O)[O-])CC[C@]3(C)C(=CC[C@@H]4[C@]5(C)CC[C@@H](O)C(C)(C)[C@@H]5CC[C@@]43C)[C@H]2C1
REMARK SMILES IDX 6 1 5 2 10 3 32 4 4 5 11 6 14 7 33 8 2 9 12 10 15 11 1 12
REMARK SMILES IDX 3 13 13 14 30 15 16 16 17 17 29 18 31 19 18 20 28 21 27 22
REMARK SMILES IDX 20 23 19 24 24 25 21 26 22 27 25 28 26 29 7 30 8 31 9 32
REMARK SMILES IDX 23 33
REMARK H PARENT 23 34
REMARK Flexibility Score: inf
ROOT
ATOM      1  C   UNL     1      42.213  30.032  20.496  1.00  0.00     0.017 C 
ATOM      2  C   UNL     1      41.935  28.954  19.399  1.00  0.00     0.014 C 
ATOM      3  C   UNL     1      41.554  29.517  21.856  1.00  0.00     0.014 C 
ATOM      4  C   UNL     1      43.788  30.288  20.581  1.00  0.00     0.028 C 
ATOM      5  C   UNL     1      42.465  29.368  18.006  1.00  0.00     0.007 C 
ATOM      6  C   UNL     1      42.284  29.717  23.233  1.00  0.00     0.013 C 
ATOM      7  C   UNL     1      44.336  29.949  21.977  1.00  0.00    -0.064 C 
ATOM      8  C   UNL     1      44.591  29.622  19.414  1.00  0.00     0.015 C 
ATOM      9  C   UNL     1      43.965  29.815  18.009  1.00  0.00    -0.035 C 
ATOM     10  C   UNL     1      43.606  30.539  23.185  1.00  0.00    -0.006 C 
ATOM     11  C   UNL     1      45.141  28.876  22.171  1.00  0.00    -0.027 C 
ATOM     12  C   UNL     1      44.103  31.287  17.560  1.00  0.00     0.011 C 
ATOM     13  C   UNL     1      44.758  28.951  17.000  1.00  0.00     0.011 C 
ATOM     14  C   UNL     1      43.167  32.025  22.943  1.00  0.00     0.017 C 
ATOM     15  C   UNL     1      44.527  30.465  24.537  1.00  0.00    -0.020 C 
ATOM     16  C   UNL     1      45.239  28.198  23.501  1.00  0.00     0.032 C 
ATOM     17  C   UNL     1      45.532  29.233  24.596  1.00  0.00     0.006 C 
ATOM     18  C   UNL     1      43.612  30.418  25.777  1.00  0.00     0.008 C 
ATOM     19  C   UNL     1      45.416  31.760  24.627  1.00  0.00     0.012 C 
ATOM     20  C   UNL     1      45.849  28.569  26.030  1.00  0.00    -0.025 C 
ATOM     21  C   UNL     1      44.348  30.437  27.113  1.00  0.00     0.005 C 
ATOM     22  C   UNL     1      45.682  29.618  27.210  1.00  0.00     0.003 C 
ATOM     23  C   UNL     1      44.937  27.331  26.325  1.00  0.00     0.010 C 
ATOM     24  C   UNL     1      47.337  28.077  25.941  1.00  0.00     0.012 C 
ATOM     25  C   UNL     1      45.873  29.024  28.680  1.00  0.00    -0.006 C 
ATOM     26  C   UNL     1      45.100  26.734  27.739  1.00  0.00     0.033 C 
ATOM     27  C   UNL     1      44.936  27.784  28.856  1.00  0.00     0.120 C 
ATOM     28  C   UNL     1      45.504  30.092  29.759  1.00  0.00     0.014 C 
ATOM     29  C   UNL     1      47.365  28.665  28.970  1.00  0.00     0.014 C 
ENDROOT
BRANCH   1  30
ATOM     30  C   UNL     1      41.444  31.296  20.057  1.00  0.00     0.048 C 
ATOM     31  O   UNL     1      40.186  31.254  19.945  1.00  0.00    -0.550 OA
ATOM     32  O   UNL     1      42.078  32.504  19.809  1.00  0.00    -0.550 OA
ENDBRANCH   1  30
BRANCH  27  33
ATOM     33  O   UNL     1      45.074  27.185  30.123  1.00  0.00    -0.393 OA
ATOM     34  H   UNL     1      44.881  27.874  30.813  1.00  0.00     0.210 HD
ENDBRANCH  27  33
TORSDOF 2
ENDMDL
