MODEL 1
REMARK VINA RESULT:    -5.642      0.000      0.000
REMARK INTER + INTRA:         -16.172
REMARK INTER:                 -12.899
REMARK INTRA:                  -3.273
REMARK UNBOUND:                -3.273
REMARK SMILES CCCCCCCCCCCCCCCCCCCCCCCC(=O)[O-]
REMARK SMILES IDX 13 1 14 2 15 3 16 4 17 5 18 6 19 7 20 8 21 9 22 10 23 11
REMARK SMILES IDX 24 12 25 13 26 14 12 15 11 16 10 17 9 18 8 19 7 20 6 21 5 22
REMARK SMILES IDX 4 23 3 24 2 25 1 26
REMARK H PARENT
REMARK Flexibility Score: inf
ROOT
ATOM      1  C   UNL     1      20.274   0.724 -21.539  1.00  0.00     0.000 C 
ENDROOT
BRANCH   1   2
ATOM      2  C   UNL     1      20.538   1.471 -20.224  1.00  0.00     0.000 C 
BRANCH   2   3
ATOM      3  C   UNL     1      20.153   0.648 -18.982  1.00  0.00     0.000 C 
BRANCH   3   4
ATOM      4  C   UNL     1      20.223  -0.881 -19.161  1.00  0.00     0.000 C 
BRANCH   4   5
ATOM      5  C   UNL     1      20.884  -1.651 -18.004  1.00  0.00     0.000 C 
BRANCH   5   6
ATOM      6  C   UNL     1      19.892  -2.015 -16.887  1.00  0.00     0.000 C 
BRANCH   6   7
ATOM      7  C   UNL     1      20.266  -1.395 -15.527  1.00  0.00     0.000 C 
BRANCH   7   8
ATOM      8  C   UNL     1      21.583  -0.597 -15.510  1.00  0.00     0.000 C 
BRANCH   8   9
ATOM      9  C   UNL     1      21.420   0.935 -15.470  1.00  0.00     0.000 C 
BRANCH   9  10
ATOM     10  C   UNL     1      20.123   1.406 -14.778  1.00  0.00     0.006 C 
BRANCH  10  11
ATOM     11  C   UNL     1      19.219   2.222 -15.712  1.00  0.00     0.053 C 
BRANCH  11  12
ATOM     12  C   UNL     1      17.884   1.562 -15.855  1.00  0.00     0.041 C 
ATOM     13  O   UNL     1      17.476   0.763 -14.970  1.00  0.00    -0.550 OA
ATOM     14  O   UNL     1      17.068   1.867 -16.936  1.00  0.00    -0.550 OA
ENDBRANCH  11  12
ENDBRANCH  10  11
ENDBRANCH   9  10
ENDBRANCH   8   9
ENDBRANCH   7   8
ENDBRANCH   6   7
ENDBRANCH   5   6
ENDBRANCH   4   5
ENDBRANCH   3   4
ENDBRANCH   2   3
ENDBRANCH   1   2
BRANCH   1  15
ATOM     15  C   UNL     1      21.323   1.088 -22.600  1.00  0.00     0.000 C 
BRANCH  15  16
ATOM     16  C   UNL     1      20.810   0.911 -24.040  1.00  0.00     0.000 C 
BRANCH  16  17
ATOM     17  C   UNL     1      20.987  -0.505 -24.620  1.00  0.00     0.000 C 
BRANCH  17  18
ATOM     18  C   UNL     1      19.859  -0.899 -25.587  1.00  0.00    -0.000 C 
BRANCH  18  19
ATOM     19  C   UNL     1      19.008  -2.062 -25.054  1.00  0.00    -0.000 C 
BRANCH  19  20
ATOM     20  C   UNL     1      18.304  -1.718 -23.731  1.00  0.00    -0.000 C 
BRANCH  20  21
ATOM     21  C   UNL     1      17.041  -0.862 -23.930  1.00  0.00    -0.000 C 
BRANCH  21  22
ATOM     22  C   UNL     1      16.846   0.258 -22.888  1.00  0.00    -0.000 C 
BRANCH  22  23
ATOM     23  C   UNL     1      17.095   1.688 -23.411  1.00  0.00    -0.000 C 
BRANCH  23  24
ATOM     24  C   UNL     1      16.455   2.003 -24.778  1.00  0.00    -0.000 C 
BRANCH  24  25
ATOM     25  C   UNL     1      17.456   2.319 -25.903  1.00  0.00    -0.003 C 
ATOM     26  C   UNL     1      17.381   1.326 -27.063  1.00  0.00     0.004 C 
ENDBRANCH  24  25
ENDBRANCH  23  24
ENDBRANCH  22  23
ENDBRANCH  21  22
ENDBRANCH  20  21
ENDBRANCH  19  20
ENDBRANCH  18  19
ENDBRANCH  17  18
ENDBRANCH  16  17
ENDBRANCH  15  16
ENDBRANCH   1  15
TORSDOF 22
ENDMDL
MODEL 2
REMARK VINA RESULT:    -5.417      1.119      3.070
REMARK INTER + INTRA:         -15.657
REMARK INTER:                 -12.396
REMARK INTRA:                  -3.261
REMARK UNBOUND:                -3.273
REMARK SMILES CCCCCCCCCCCCCCCCCCCCCCCC(=O)[O-]
REMARK SMILES IDX 13 1 14 2 15 3 16 4 17 5 18 6 19 7 20 8 21 9 22 10 23 11
REMARK SMILES IDX 24 12 25 13 26 14 12 15 11 16 10 17 9 18 8 19 7 20 6 21 5 22
REMARK SMILES IDX 4 23 3 24 2 25 1 26
REMARK H PARENT
REMARK Flexibility Score: inf
ROOT
ATOM      1  C   UNL     1      20.574  -0.213 -19.097  1.00  0.00     0.000 C 
ENDROOT
BRANCH   1   2
ATOM      2  C   UNL     1      19.723  -0.631 -17.889  1.00  0.00     0.000 C 
BRANCH   2   3
ATOM      3  C   UNL     1      20.376  -1.747 -17.055  1.00  0.00     0.000 C 
BRANCH   3   4
ATOM      4  C   UNL     1      20.402  -1.498 -15.534  1.00  0.00     0.000 C 
BRANCH   4   5
ATOM      5  C   UNL     1      21.800  -1.495 -14.890  1.00  0.00     0.000 C 
BRANCH   5   6
ATOM      6  C   UNL     1      22.829  -0.695 -15.705  1.00  0.00     0.000 C 
BRANCH   6   7
ATOM      7  C   UNL     1      22.775   0.818 -15.419  1.00  0.00     0.000 C 
BRANCH   7   8
ATOM      8  C   UNL     1      22.363   1.697 -16.614  1.00  0.00     0.000 C 
BRANCH   8   9
ATOM      9  C   UNL     1      21.166   2.633 -16.359  1.00  0.00     0.000 C 
BRANCH   9  10
ATOM     10  C   UNL     1      20.199   2.125 -15.270  1.00  0.00     0.006 C 
BRANCH  10  11
ATOM     11  C   UNL     1      18.803   2.754 -15.380  1.00  0.00     0.053 C 
BRANCH  11  12
ATOM     12  C   UNL     1      17.798   1.726 -15.796  1.00  0.00     0.041 C 
ATOM     13  O   UNL     1      17.481   0.796 -15.006  1.00  0.00    -0.550 OA
ATOM     14  O   UNL     1      17.174   1.822 -17.032  1.00  0.00    -0.550 OA
ENDBRANCH  11  12
ENDBRANCH  10  11
ENDBRANCH   9  10
ENDBRANCH   8   9
ENDBRANCH   7   8
ENDBRANCH   6   7
ENDBRANCH   5   6
ENDBRANCH   4   5
ENDBRANCH   3   4
ENDBRANCH   2   3
ENDBRANCH   1   2
BRANCH   1  15
ATOM     15  C   UNL     1      19.750   0.622 -20.088  1.00  0.00     0.000 C 
BRANCH  15  16
ATOM     16  C   UNL     1      19.952   0.191 -21.551  1.00  0.00     0.000 C 
BRANCH  16  17
ATOM     17  C   UNL     1      20.618   1.248 -22.452  1.00  0.00     0.000 C 
BRANCH  17  18
ATOM     18  C   UNL     1      19.649   1.853 -23.480  1.00  0.00    -0.000 C 
BRANCH  18  19
ATOM     19  C   UNL     1      18.391   2.443 -22.824  1.00  0.00    -0.000 C 
BRANCH  19  20
ATOM     20  C   UNL     1      17.093   1.937 -23.478  1.00  0.00    -0.000 C 
BRANCH  20  21
ATOM     21  C   UNL     1      16.759   0.484 -23.096  1.00  0.00    -0.000 C 
BRANCH  21  22
ATOM     22  C   UNL     1      16.424  -0.438 -24.286  1.00  0.00    -0.000 C 
BRANCH  22  23
ATOM     23  C   UNL     1      17.612  -0.764 -25.214  1.00  0.00    -0.000 C 
BRANCH  23  24
ATOM     24  C   UNL     1      18.721  -1.623 -24.575  1.00  0.00    -0.000 C 
BRANCH  24  25
ATOM     25  C   UNL     1      19.906  -1.944 -25.504  1.00  0.00    -0.003 C 
ATOM     26  C   UNL     1      21.176  -1.177 -25.135  1.00  0.00     0.004 C 
ENDBRANCH  24  25
ENDBRANCH  23  24
ENDBRANCH  22  23
ENDBRANCH  21  22
ENDBRANCH  20  21
ENDBRANCH  19  20
ENDBRANCH  18  19
ENDBRANCH  17  18
ENDBRANCH  16  17
ENDBRANCH  15  16
ENDBRANCH   1  15
TORSDOF 22
ENDMDL
MODEL 3
REMARK VINA RESULT:    -5.274      3.121      8.562
REMARK INTER + INTRA:         -15.329
REMARK INTER:                 -11.952
REMARK INTRA:                  -3.377
REMARK UNBOUND:                -3.273
REMARK SMILES CCCCCCCCCCCCCCCCCCCCCCCC(=O)[O-]
REMARK SMILES IDX 13 1 14 2 15 3 16 4 17 5 18 6 19 7 20 8 21 9 22 10 23 11
REMARK SMILES IDX 24 12 25 13 26 14 12 15 11 16 10 17 9 18 8 19 7 20 6 21 5 22
REMARK SMILES IDX 4 23 3 24 2 25 1 26
REMARK H PARENT
REMARK Flexibility Score: inf
ROOT
ATOM      1  C   UNL     1      19.420   0.171 -22.507  1.00  0.00     0.000 C 
ENDROOT
BRANCH   1   2
ATOM      2  C   UNL     1      18.377   1.151 -21.950  1.00  0.00     0.000 C 
BRANCH   2   3
ATOM      3  C   UNL     1      17.076   1.172 -22.772  1.00  0.00     0.000 C 
BRANCH   3   4
ATOM      4  C   UNL     1      16.698  -0.168 -23.433  1.00  0.00     0.000 C 
BRANCH   4   5
ATOM      5  C   UNL     1      16.124  -0.061 -24.857  1.00  0.00     0.000 C 
BRANCH   5   6
ATOM      6  C   UNL     1      16.138   1.377 -25.399  1.00  0.00     0.000 C 
BRANCH   6   7
ATOM      7  C   UNL     1      17.069   1.550 -26.615  1.00  0.00     0.000 C 
BRANCH   7   8
ATOM      8  C   UNL     1      18.027   0.374 -26.880  1.00  0.00     0.000 C 
BRANCH   8   9
ATOM      9  C   UNL     1      19.415   0.498 -26.221  1.00  0.00     0.000 C 
BRANCH   9  10
ATOM     10  C   UNL     1      20.382  -0.649 -26.584  1.00  0.00     0.006 C 
BRANCH  10  11
ATOM     11  C   UNL     1      20.800  -1.476 -25.361  1.00  0.00     0.053 C 
BRANCH  11  12
ATOM     12  C   UNL     1      20.051  -2.771 -25.324  1.00  0.00     0.041 C 
ATOM     13  O   UNL     1      20.678  -3.864 -25.334  1.00  0.00    -0.550 OA
ATOM     14  O   UNL     1      18.667  -2.772 -25.227  1.00  0.00    -0.550 OA
ENDBRANCH  11  12
ENDBRANCH  10  11
ENDBRANCH   9  10
ENDBRANCH   8   9
ENDBRANCH   7   8
ENDBRANCH   6   7
ENDBRANCH   5   6
ENDBRANCH   4   5
ENDBRANCH   3   4
ENDBRANCH   2   3
ENDBRANCH   1   2
BRANCH   1  15
ATOM     15  C   UNL     1      20.811   0.819 -22.561  1.00  0.00     0.000 C 
BRANCH  15  16
ATOM     16  C   UNL     1      20.758   2.356 -22.613  1.00  0.00     0.000 C 
BRANCH  16  17
ATOM     17  C   UNL     1      21.200   3.063 -21.318  1.00  0.00     0.000 C 
BRANCH  17  18
ATOM     18  C   UNL     1      21.973   2.136 -20.367  1.00  0.00    -0.000 C 
BRANCH  18  19
ATOM     19  C   UNL     1      21.304   2.019 -18.989  1.00  0.00    -0.000 C 
BRANCH  19  20
ATOM     20  C   UNL     1      20.274   0.878 -18.930  1.00  0.00    -0.000 C 
BRANCH  20  21
ATOM     21  C   UNL     1      20.922  -0.517 -18.997  1.00  0.00    -0.000 C 
BRANCH  21  22
ATOM     22  C   UNL     1      19.934  -1.696 -18.886  1.00  0.00    -0.000 C 
BRANCH  22  23
ATOM     23  C   UNL     1      19.797  -2.302 -17.474  1.00  0.00    -0.000 C 
BRANCH  23  24
ATOM     24  C   UNL     1      20.760  -1.723 -16.420  1.00  0.00    -0.000 C 
BRANCH  24  25
ATOM     25  C   UNL     1      20.079  -1.174 -15.154  1.00  0.00    -0.003 C 
ATOM     26  C   UNL     1      19.452   0.204 -15.365  1.00  0.00     0.004 C 
ENDBRANCH  24  25
ENDBRANCH  23  24
ENDBRANCH  22  23
ENDBRANCH  21  22
ENDBRANCH  20  21
ENDBRANCH  19  20
ENDBRANCH  18  19
ENDBRANCH  17  18
ENDBRANCH  16  17
ENDBRANCH  15  16
ENDBRANCH   1  15
TORSDOF 22
ENDMDL
MODEL 4
REMARK VINA RESULT:    -5.267      1.562      3.807
REMARK INTER + INTRA:         -15.315
REMARK INTER:                 -11.786
REMARK INTRA:                  -3.529
REMARK UNBOUND:                -3.273
REMARK SMILES CCCCCCCCCCCCCCCCCCCCCCCC(=O)[O-]
REMARK SMILES IDX 13 1 14 2 15 3 16 4 17 5 18 6 19 7 20 8 21 9 22 10 23 11
REMARK SMILES IDX 24 12 25 13 26 14 12 15 11 16 10 17 9 18 8 19 7 20 6 21 5 22
REMARK SMILES IDX 4 23 3 24 2 25 1 26
REMARK H PARENT
REMARK Flexibility Score: inf
ROOT
ATOM      1  C   UNL     1      19.048  -0.106 -22.223  1.00  0.00     0.000 C 
ENDROOT
BRANCH   1   2
ATOM      2  C   UNL     1      20.433   0.295 -22.751  1.00  0.00     0.000 C 
BRANCH   2   3
ATOM      3  C   UNL     1      20.907   1.657 -22.214  1.00  0.00     0.000 C 
BRANCH   3   4
ATOM      4  C   UNL     1      21.748   1.595 -20.924  1.00  0.00     0.000 C 
BRANCH   4   5
ATOM      5  C   UNL     1      21.022   2.041 -19.642  1.00  0.00     0.000 C 
BRANCH   5   6
ATOM      6  C   UNL     1      20.213   0.907 -18.990  1.00  0.00     0.000 C 
BRANCH   6   7
ATOM      7  C   UNL     1      20.982  -0.427 -18.942  1.00  0.00     0.000 C 
BRANCH   7   8
ATOM      8  C   UNL     1      20.102  -1.691 -18.920  1.00  0.00     0.000 C 
BRANCH   8   9
ATOM      9  C   UNL     1      19.762  -2.228 -17.516  1.00  0.00     0.000 C 
BRANCH   9  10
ATOM     10  C   UNL     1      20.767  -1.802 -16.425  1.00  0.00     0.006 C 
BRANCH  10  11
ATOM     11  C   UNL     1      20.076  -1.351 -15.131  1.00  0.00     0.053 C 
BRANCH  11  12
ATOM     12  C   UNL     1      19.617   0.068 -15.250  1.00  0.00     0.041 C 
ATOM     13  O   UNL     1      18.414   0.364 -15.022  1.00  0.00    -0.550 OA
ATOM     14  O   UNL     1      20.526   1.070 -15.563  1.00  0.00    -0.550 OA
ENDBRANCH  11  12
ENDBRANCH  10  11
ENDBRANCH   9  10
ENDBRANCH   8   9
ENDBRANCH   7   8
ENDBRANCH   6   7
ENDBRANCH   5   6
ENDBRANCH   4   5
ENDBRANCH   3   4
ENDBRANCH   2   3
ENDBRANCH   1   2
BRANCH   1  15
ATOM     15  C   UNL     1      18.130   1.119 -22.099  1.00  0.00     0.000 C 
BRANCH  15  16
ATOM     16  C   UNL     1      16.745   0.901 -22.734  1.00  0.00     0.000 C 
BRANCH  16  17
ATOM     17  C   UNL     1      16.674  -0.257 -23.748  1.00  0.00     0.000 C 
BRANCH  17  18
ATOM     18  C   UNL     1      16.021   0.154 -25.077  1.00  0.00    -0.000 C 
BRANCH  18  19
ATOM     19  C   UNL     1      15.961   1.680 -25.255  1.00  0.00    -0.000 C 
BRANCH  19  20
ATOM     20  C   UNL     1      17.062   2.208 -26.190  1.00  0.00    -0.000 C 
BRANCH  20  21
ATOM     21  C   UNL     1      18.327   2.650 -25.432  1.00  0.00    -0.000 C 
BRANCH  21  22
ATOM     22  C   UNL     1      19.616   1.905 -25.834  1.00  0.00    -0.000 C 
BRANCH  22  23
ATOM     23  C   UNL     1      19.410   0.455 -26.314  1.00  0.00    -0.000 C 
BRANCH  23  24
ATOM     24  C   UNL     1      20.603  -0.156 -27.075  1.00  0.00    -0.000 C 
BRANCH  24  25
ATOM     25  C   UNL     1      20.480  -0.120 -28.608  1.00  0.00    -0.003 C 
ATOM     26  C   UNL     1      19.036  -0.252 -29.093  1.00  0.00     0.004 C 
ENDBRANCH  24  25
ENDBRANCH  23  24
ENDBRANCH  22  23
ENDBRANCH  21  22
ENDBRANCH  20  21
ENDBRANCH  19  20
ENDBRANCH  18  19
ENDBRANCH  17  18
ENDBRANCH  16  17
ENDBRANCH  15  16
ENDBRANCH   1  15
TORSDOF 22
ENDMDL
MODEL 5
REMARK VINA RESULT:    -5.264      1.072      2.876
REMARK INTER + INTRA:         -15.306
REMARK INTER:                 -12.633
REMARK INTRA:                  -2.674
REMARK UNBOUND:                -3.273
REMARK SMILES CCCCCCCCCCCCCCCCCCCCCCCC(=O)[O-]
REMARK SMILES IDX 13 1 14 2 15 3 16 4 17 5 18 6 19 7 20 8 21 9 22 10 23 11
REMARK SMILES IDX 24 12 25 13 26 14 12 15 11 16 10 17 9 18 8 19 7 20 6 21 5 22
REMARK SMILES IDX 4 23 3 24 2 25 1 26
REMARK H PARENT
REMARK Flexibility Score: inf
ROOT
ATOM      1  C   UNL     1      20.400   2.147 -21.451  1.00  0.00     0.000 C 
ENDROOT
BRANCH   1   2
ATOM      2  C   UNL     1      20.339   0.681 -21.001  1.00  0.00     0.000 C 
BRANCH   2   3
ATOM      3  C   UNL     1      20.232   0.527 -19.474  1.00  0.00     0.000 C 
BRANCH   3   4
ATOM      4  C   UNL     1      21.039  -0.642 -18.875  1.00  0.00     0.000 C 
BRANCH   4   5
ATOM      5  C   UNL     1      20.243  -1.938 -18.640  1.00  0.00     0.000 C 
BRANCH   5   6
ATOM      6  C   UNL     1      19.789  -2.103 -17.180  1.00  0.00     0.000 C 
BRANCH   6   7
ATOM      7  C   UNL     1      20.906  -1.789 -16.166  1.00  0.00     0.000 C 
BRANCH   7   8
ATOM      8  C   UNL     1      20.535  -0.764 -15.078  1.00  0.00     0.000 C 
BRANCH   8   9
ATOM      9  C   UNL     1      20.796   0.709 -15.447  1.00  0.00     0.000 C 
BRANCH   9  10
ATOM     10  C   UNL     1      20.000   1.717 -14.592  1.00  0.00     0.006 C 
BRANCH  10  11
ATOM     11  C   UNL     1      18.992   2.526 -15.420  1.00  0.00     0.053 C 
BRANCH  11  12
ATOM     12  C   UNL     1      17.800   1.686 -15.758  1.00  0.00     0.041 C 
ATOM     13  O   UNL     1      17.379   0.827 -14.938  1.00  0.00    -0.550 OA
ATOM     14  O   UNL     1      17.124   1.887 -16.953  1.00  0.00    -0.550 OA
ENDBRANCH  11  12
ENDBRANCH  10  11
ENDBRANCH   9  10
ENDBRANCH   8   9
ENDBRANCH   7   8
ENDBRANCH   6   7
ENDBRANCH   5   6
ENDBRANCH   4   5
ENDBRANCH   3   4
ENDBRANCH   2   3
ENDBRANCH   1   2
BRANCH   1  15
ATOM     15  C   UNL     1      19.930   2.297 -22.906  1.00  0.00     0.000 C 
BRANCH  15  16
ATOM     16  C   UNL     1      18.456   2.721 -23.022  1.00  0.00     0.000 C 
BRANCH  16  17
ATOM     17  C   UNL     1      17.759   2.292 -24.327  1.00  0.00     0.000 C 
BRANCH  17  18
ATOM     18  C   UNL     1      16.679   1.222 -24.103  1.00  0.00    -0.000 C 
BRANCH  18  19
ATOM     19  C   UNL     1      16.914   0.409 -22.820  1.00  0.00    -0.000 C 
BRANCH  19  20
ATOM     20  C   UNL     1      17.835  -0.801 -23.050  1.00  0.00    -0.000 C 
BRANCH  20  21
ATOM     21  C   UNL     1      17.704  -1.391 -24.465  1.00  0.00    -0.000 C 
BRANCH  21  22
ATOM     22  C   UNL     1      19.043  -1.723 -25.155  1.00  0.00    -0.000 C 
BRANCH  22  23
ATOM     23  C   UNL     1      20.069  -0.572 -25.179  1.00  0.00    -0.000 C 
BRANCH  23  24
ATOM     24  C   UNL     1      21.513  -0.978 -24.826  1.00  0.00    -0.000 C 
BRANCH  24  25
ATOM     25  C   UNL     1      22.378   0.151 -24.239  1.00  0.00    -0.003 C 
ATOM     26  C   UNL     1      23.580   0.498 -25.117  1.00  0.00     0.004 C 
ENDBRANCH  24  25
ENDBRANCH  23  24
ENDBRANCH  22  23
ENDBRANCH  21  22
ENDBRANCH  20  21
ENDBRANCH  19  20
ENDBRANCH  18  19
ENDBRANCH  17  18
ENDBRANCH  16  17
ENDBRANCH  15  16
ENDBRANCH   1  15
TORSDOF 22
ENDMDL
MODEL 6
REMARK VINA RESULT:    -5.240      3.038      8.974
REMARK INTER + INTRA:         -15.253
REMARK INTER:                 -12.108
REMARK INTRA:                  -3.145
REMARK UNBOUND:                -3.273
REMARK SMILES CCCCCCCCCCCCCCCCCCCCCCCC(=O)[O-]
REMARK SMILES IDX 13 1 14 2 15 3 16 4 17 5 18 6 19 7 20 8 21 9 22 10 23 11
REMARK SMILES IDX 24 12 25 13 26 14 12 15 11 16 10 17 9 18 8 19 7 20 6 21 5 22
REMARK SMILES IDX 4 23 3 24 2 25 1 26
REMARK H PARENT
REMARK Flexibility Score: inf
ROOT
ATOM      1  C   UNL     1      20.894   1.048 -21.718  1.00  0.00     0.000 C 
ENDROOT
BRANCH   1   2
ATOM      2  C   UNL     1      19.468   0.668 -22.143  1.00  0.00     0.000 C 
BRANCH   2   3
ATOM      3  C   UNL     1      18.702   1.839 -22.784  1.00  0.00     0.000 C 
BRANCH   3   4
ATOM      4  C   UNL     1      17.177   1.643 -22.891  1.00  0.00     0.000 C 
BRANCH   4   5
ATOM      5  C   UNL     1      16.720   0.222 -23.267  1.00  0.00     0.000 C 
BRANCH   5   6
ATOM      6  C   UNL     1      15.993   0.169 -24.620  1.00  0.00     0.000 C 
BRANCH   6   7
ATOM      7  C   UNL     1      15.950   1.534 -25.332  1.00  0.00     0.000 C 
BRANCH   7   8
ATOM      8  C   UNL     1      16.981   1.717 -26.462  1.00  0.00     0.000 C 
BRANCH   8   9
ATOM      9  C   UNL     1      17.688   0.427 -26.920  1.00  0.00     0.000 C 
BRANCH   9  10
ATOM     10  C   UNL     1      19.213   0.436 -26.686  1.00  0.00     0.006 C 
BRANCH  10  11
ATOM     11  C   UNL     1      19.645  -0.534 -25.577  1.00  0.00     0.053 C 
BRANCH  11  12
ATOM     12  C   UNL     1      19.207  -1.927 -25.902  1.00  0.00     0.041 C 
ATOM     13  O   UNL     1      18.616  -2.623 -25.033  1.00  0.00    -0.550 OA
ATOM     14  O   UNL     1      19.404  -2.440 -27.177  1.00  0.00    -0.550 OA
ENDBRANCH  11  12
ENDBRANCH  10  11
ENDBRANCH   9  10
ENDBRANCH   8   9
ENDBRANCH   7   8
ENDBRANCH   6   7
ENDBRANCH   5   6
ENDBRANCH   4   5
ENDBRANCH   3   4
ENDBRANCH   2   3
ENDBRANCH   1   2
BRANCH   1  15
ATOM     15  C   UNL     1      21.001   1.165 -20.191  1.00  0.00     0.000 C 
BRANCH  15  16
ATOM     16  C   UNL     1      19.693   0.800 -19.466  1.00  0.00     0.000 C 
BRANCH  16  17
ATOM     17  C   UNL     1      19.498   1.484 -18.100  1.00  0.00     0.000 C 
BRANCH  17  18
ATOM     18  C   UNL     1      18.094   1.258 -17.515  1.00  0.00    -0.000 C 
BRANCH  18  19
ATOM     19  C   UNL     1      18.064   1.413 -15.987  1.00  0.00    -0.000 C 
BRANCH  19  20
ATOM     20  C   UNL     1      19.419   1.861 -15.413  1.00  0.00    -0.000 C 
BRANCH  20  21
ATOM     21  C   UNL     1      20.136   0.743 -14.634  1.00  0.00    -0.000 C 
BRANCH  21  22
ATOM     22  C   UNL     1      21.458   0.260 -15.264  1.00  0.00    -0.000 C 
BRANCH  22  23
ATOM     23  C   UNL     1      21.414  -1.160 -15.864  1.00  0.00    -0.000 C 
BRANCH  23  24
ATOM     24  C   UNL     1      20.002  -1.754 -16.031  1.00  0.00    -0.000 C 
BRANCH  24  25
ATOM     25  C   UNL     1      19.710  -2.349 -17.420  1.00  0.00    -0.003 C 
ATOM     26  C   UNL     1      20.845  -2.116 -18.417  1.00  0.00     0.004 C 
ENDBRANCH  24  25
ENDBRANCH  23  24
ENDBRANCH  22  23
ENDBRANCH  21  22
ENDBRANCH  20  21
ENDBRANCH  19  20
ENDBRANCH  18  19
ENDBRANCH  17  18
ENDBRANCH  16  17
ENDBRANCH  15  16
ENDBRANCH   1  15
TORSDOF 22
ENDMDL
MODEL 7
REMARK VINA RESULT:    -5.236      3.605      8.196
REMARK INTER + INTRA:         -15.243
REMARK INTER:                 -11.550
REMARK INTRA:                  -3.693
REMARK UNBOUND:                -3.273
REMARK SMILES CCCCCCCCCCCCCCCCCCCCCCCC(=O)[O-]
REMARK SMILES IDX 13 1 14 2 15 3 16 4 17 5 18 6 19 7 20 8 21 9 22 10 23 11
REMARK SMILES IDX 24 12 25 13 26 14 12 15 11 16 10 17 9 18 8 19 7 20 6 21 5 22
REMARK SMILES IDX 4 23 3 24 2 25 1 26
REMARK H PARENT
REMARK Flexibility Score: inf
ROOT
ATOM      1  C   UNL     1      17.448   0.114 -22.928  1.00  0.00     0.000 C 
ENDROOT
BRANCH   1   2
ATOM      2  C   UNL     1      16.723  -0.606 -24.073  1.00  0.00     0.000 C 
BRANCH   2   3
ATOM      3  C   UNL     1      15.988   0.361 -25.018  1.00  0.00     0.000 C 
BRANCH   3   4
ATOM      4  C   UNL     1      16.407   0.274 -26.499  1.00  0.00     0.000 C 
BRANCH   4   5
ATOM      5  C   UNL     1      17.924   0.287 -26.756  1.00  0.00     0.000 C 
BRANCH   5   6
ATOM      6  C   UNL     1      18.357  -0.729 -27.825  1.00  0.00     0.000 C 
BRANCH   6   7
ATOM      7  C   UNL     1      19.545  -1.602 -27.377  1.00  0.00     0.000 C 
BRANCH   7   8
ATOM      8  C   UNL     1      19.598  -1.913 -25.870  1.00  0.00     0.000 C 
BRANCH   8   9
ATOM      9  C   UNL     1      20.464  -3.127 -25.481  1.00  0.00     0.000 C 
BRANCH   9  10
ATOM     10  C   UNL     1      19.647  -4.392 -25.140  1.00  0.00     0.006 C 
BRANCH  10  11
ATOM     11  C   UNL     1      18.362  -4.072 -24.365  1.00  0.00     0.053 C 
BRANCH  11  12
ATOM     12  C   UNL     1      17.458  -5.264 -24.338  1.00  0.00     0.041 C 
ATOM     13  O   UNL     1      16.378  -5.224 -23.690  1.00  0.00    -0.550 OA
ATOM     14  O   UNL     1      17.780  -6.399 -25.069  1.00  0.00    -0.550 OA
ENDBRANCH  11  12
ENDBRANCH  10  11
ENDBRANCH   9  10
ENDBRANCH   8   9
ENDBRANCH   7   8
ENDBRANCH   6   7
ENDBRANCH   5   6
ENDBRANCH   4   5
ENDBRANCH   3   4
ENDBRANCH   2   3
ENDBRANCH   1   2
BRANCH   1  15
ATOM     15  C   UNL     1      17.103   1.611 -22.913  1.00  0.00     0.000 C 
BRANCH  15  16
ATOM     16  C   UNL     1      18.346   2.516 -22.948  1.00  0.00     0.000 C 
BRANCH  16  17
ATOM     17  C   UNL     1      18.893   2.810 -24.357  1.00  0.00     0.000 C 
BRANCH  17  18
ATOM     18  C   UNL     1      20.419   2.646 -24.451  1.00  0.00    -0.000 C 
BRANCH  18  19
ATOM     19  C   UNL     1      20.839   1.185 -24.672  1.00  0.00    -0.000 C 
BRANCH  19  20
ATOM     20  C   UNL     1      21.449   0.550 -23.410  1.00  0.00    -0.000 C 
BRANCH  20  21
ATOM     21  C   UNL     1      22.074   1.589 -22.461  1.00  0.00    -0.000 C 
BRANCH  21  22
ATOM     22  C   UNL     1      21.864   1.304 -20.960  1.00  0.00    -0.000 C 
BRANCH  22  23
ATOM     23  C   UNL     1      20.392   1.173 -20.520  1.00  0.00    -0.000 C 
BRANCH  23  24
ATOM     24  C   UNL     1      19.950  -0.253 -20.139  1.00  0.00    -0.000 C 
BRANCH  24  25
ATOM     25  C   UNL     1      20.582  -0.803 -18.848  1.00  0.00    -0.003 C 
ATOM     26  C   UNL     1      20.020  -2.166 -18.444  1.00  0.00     0.004 C 
ENDBRANCH  24  25
ENDBRANCH  23  24
ENDBRANCH  22  23
ENDBRANCH  21  22
ENDBRANCH  20  21
ENDBRANCH  19  20
ENDBRANCH  18  19
ENDBRANCH  17  18
ENDBRANCH  16  17
ENDBRANCH  15  16
ENDBRANCH   1  15
TORSDOF 22
ENDMDL
MODEL 8
REMARK VINA RESULT:    -5.186      3.096      8.641
REMARK INTER + INTRA:         -15.128
REMARK INTER:                 -12.245
REMARK INTRA:                  -2.883
REMARK UNBOUND:                -3.273
REMARK SMILES CCCCCCCCCCCCCCCCCCCCCCCC(=O)[O-]
REMARK SMILES IDX 13 1 14 2 15 3 16 4 17 5 18 6 19 7 20 8 21 9 22 10 23 11
REMARK SMILES IDX 24 12 25 13 26 14 12 15 11 16 10 17 9 18 8 19 7 20 6 21 5 22
REMARK SMILES IDX 4 23 3 24 2 25 1 26
REMARK H PARENT
REMARK Flexibility Score: inf
ROOT
ATOM      1  C   UNL     1      19.079   2.076 -23.306  1.00  0.00     0.000 C 
ENDROOT
BRANCH   1   2
ATOM      2  C   UNL     1      17.557   1.986 -23.122  1.00  0.00     0.000 C 
BRANCH   2   3
ATOM      3  C   UNL     1      17.077   0.558 -22.806  1.00  0.00     0.000 C 
BRANCH   3   4
ATOM      4  C   UNL     1      16.439  -0.195 -23.990  1.00  0.00     0.000 C 
BRANCH   4   5
ATOM      5  C   UNL     1      16.042   0.682 -25.191  1.00  0.00     0.000 C 
BRANCH   5   6
ATOM      6  C   UNL     1      16.737   0.257 -26.495  1.00  0.00     0.000 C 
BRANCH   6   7
ATOM      7  C   UNL     1      18.268   0.158 -26.353  1.00  0.00     0.000 C 
BRANCH   7   8
ATOM      8  C   UNL     1      18.997  -0.486 -27.547  1.00  0.00     0.000 C 
BRANCH   8   9
ATOM      9  C   UNL     1      19.598  -1.880 -27.275  1.00  0.00     0.000 C 
BRANCH   9  10
ATOM     10  C   UNL     1      19.780  -2.198 -25.776  1.00  0.00     0.006 C 
BRANCH  10  11
ATOM     11  C   UNL     1      20.049  -3.686 -25.518  1.00  0.00     0.053 C 
BRANCH  11  12
ATOM     12  C   UNL     1      18.833  -4.346 -24.949  1.00  0.00     0.041 C 
ATOM     13  O   UNL     1      18.731  -5.602 -24.960  1.00  0.00    -0.550 OA
ATOM     14  O   UNL     1      17.836  -3.580 -24.360  1.00  0.00    -0.550 OA
ENDBRANCH  11  12
ENDBRANCH  10  11
ENDBRANCH   9  10
ENDBRANCH   8   9
ENDBRANCH   7   8
ENDBRANCH   6   7
ENDBRANCH   5   6
ENDBRANCH   4   5
ENDBRANCH   3   4
ENDBRANCH   2   3
ENDBRANCH   1   2
BRANCH   1  15
ATOM     15  C   UNL     1      19.750   0.724 -23.019  1.00  0.00     0.000 C 
BRANCH  15  16
ATOM     16  C   UNL     1      20.880   0.822 -21.979  1.00  0.00     0.000 C 
BRANCH  16  17
ATOM     17  C   UNL     1      20.527   1.626 -20.713  1.00  0.00     0.000 C 
BRANCH  17  18
ATOM     18  C   UNL     1      20.844   0.865 -19.416  1.00  0.00    -0.000 C 
BRANCH  18  19
ATOM     19  C   UNL     1      20.243  -0.549 -19.403  1.00  0.00    -0.000 C 
BRANCH  19  20
ATOM     20  C   UNL     1      20.796  -1.413 -18.257  1.00  0.00    -0.000 C 
BRANCH  20  21
ATOM     21  C   UNL     1      19.707  -1.850 -17.259  1.00  0.00    -0.000 C 
BRANCH  21  22
ATOM     22  C   UNL     1      20.032  -1.563 -15.779  1.00  0.00    -0.000 C 
BRANCH  22  23
ATOM     23  C   UNL     1      20.388  -0.097 -15.461  1.00  0.00    -0.000 C 
BRANCH  23  24
ATOM     24  C   UNL     1      19.185   0.812 -15.143  1.00  0.00    -0.000 C 
BRANCH  24  25
ATOM     25  C   UNL     1      18.912   1.912 -16.184  1.00  0.00    -0.003 C 
ATOM     26  C   UNL     1      17.919   1.477 -17.262  1.00  0.00     0.004 C 
ENDBRANCH  24  25
ENDBRANCH  23  24
ENDBRANCH  22  23
ENDBRANCH  21  22
ENDBRANCH  20  21
ENDBRANCH  19  20
ENDBRANCH  18  19
ENDBRANCH  17  18
ENDBRANCH  16  17
ENDBRANCH  15  16
ENDBRANCH   1  15
TORSDOF 22
ENDMDL
MODEL 9
REMARK VINA RESULT:    -5.096      1.244      3.046
REMARK INTER + INTRA:         -14.923
REMARK INTER:                 -11.865
REMARK INTRA:                  -3.058
REMARK UNBOUND:                -3.273
REMARK SMILES CCCCCCCCCCCCCCCCCCCCCCCC(=O)[O-]
REMARK SMILES IDX 13 1 14 2 15 3 16 4 17 5 18 6 19 7 20 8 21 9 22 10 23 11
REMARK SMILES IDX 24 12 25 13 26 14 12 15 11 16 10 17 9 18 8 19 7 20 6 21 5 22
REMARK SMILES IDX 4 23 3 24 2 25 1 26
REMARK H PARENT
REMARK Flexibility Score: inf
ROOT
ATOM      1  C   UNL     1      21.710   0.111 -23.853  1.00  0.00     0.000 C 
ENDROOT
BRANCH   1   2
ATOM      2  C   UNL     1      22.313   1.154 -22.903  1.00  0.00     0.000 C 
BRANCH   2   3
ATOM      3  C   UNL     1      21.334   1.597 -21.801  1.00  0.00     0.000 C 
BRANCH   3   4
ATOM      4  C   UNL     1      21.929   1.653 -20.380  1.00  0.00     0.000 C 
BRANCH   4   5
ATOM      5  C   UNL     1      20.953   1.304 -19.243  1.00  0.00     0.000 C 
BRANCH   5   6
ATOM      6  C   UNL     1      20.100   0.062 -19.549  1.00  0.00     0.000 C 
BRANCH   6   7
ATOM      7  C   UNL     1      20.600  -1.202 -18.823  1.00  0.00     0.000 C 
BRANCH   7   8
ATOM      8  C   UNL     1      21.601  -0.950 -17.680  1.00  0.00     0.000 C 
BRANCH   8   9
ATOM      9  C   UNL     1      21.226  -1.587 -16.327  1.00  0.00     0.000 C 
BRANCH   9  10
ATOM     10  C   UNL     1      19.799  -1.244 -15.851  1.00  0.00     0.006 C 
BRANCH  10  11
ATOM     11  C   UNL     1      19.689   0.183 -15.298  1.00  0.00     0.053 C 
BRANCH  11  12
ATOM     12  C   UNL     1      18.422   0.828 -15.766  1.00  0.00     0.041 C 
ATOM     13  O   UNL     1      18.356   1.328 -16.920  1.00  0.00    -0.550 OA
ATOM     14  O   UNL     1      17.301   0.833 -14.948  1.00  0.00    -0.550 OA
ENDBRANCH  11  12
ENDBRANCH  10  11
ENDBRANCH   9  10
ENDBRANCH   8   9
ENDBRANCH   7   8
ENDBRANCH   6   7
ENDBRANCH   5   6
ENDBRANCH   4   5
ENDBRANCH   3   4
ENDBRANCH   2   3
ENDBRANCH   1   2
BRANCH   1  15
ATOM     15  C   UNL     1      20.274   0.489 -24.247  1.00  0.00     0.000 C 
BRANCH  15  16
ATOM     16  C   UNL     1      19.340  -0.729 -24.359  1.00  0.00     0.000 C 
BRANCH  16  17
ATOM     17  C   UNL     1      18.547  -1.055 -23.080  1.00  0.00     0.000 C 
BRANCH  17  18
ATOM     18  C   UNL     1      18.044   0.202 -22.352  1.00  0.00    -0.000 C 
BRANCH  18  19
ATOM     19  C   UNL     1      16.729   0.736 -22.943  1.00  0.00    -0.000 C 
BRANCH  19  20
ATOM     20  C   UNL     1      16.945   1.958 -23.852  1.00  0.00    -0.000 C 
BRANCH  20  21
ATOM     21  C   UNL     1      16.170   1.860 -25.178  1.00  0.00    -0.000 C 
BRANCH  21  22
ATOM     22  C   UNL     1      15.681   0.443 -25.540  1.00  0.00    -0.000 C 
BRANCH  22  23
ATOM     23  C   UNL     1      16.351  -0.182 -26.781  1.00  0.00    -0.000 C 
BRANCH  23  24
ATOM     24  C   UNL     1      17.698   0.449 -27.182  1.00  0.00    -0.000 C 
BRANCH  24  25
ATOM     25  C   UNL     1      18.380  -0.200 -28.399  1.00  0.00    -0.003 C 
ATOM     26  C   UNL     1      19.656  -0.959 -28.032  1.00  0.00     0.004 C 
ENDBRANCH  24  25
ENDBRANCH  23  24
ENDBRANCH  22  23
ENDBRANCH  21  22
ENDBRANCH  20  21
ENDBRANCH  19  20
ENDBRANCH  18  19
ENDBRANCH  17  18
ENDBRANCH  16  17
ENDBRANCH  15  16
ENDBRANCH   1  15
TORSDOF 22
ENDMDL
