MODEL 1
REMARK VINA RESULT:    -6.276      0.000      0.000
REMARK INTER + INTRA:          -7.250
REMARK INTER:                  -7.560
REMARK INTRA:                   0.310
REMARK UNBOUND:                 0.310
REMARK SMILES O=c1c(O)c(-c2ccc(O)c(O)c2)oc2cc(O)cc(O)c12
REMARK SMILES IDX 5 1 3 2 2 3 1 4 22 5 20 6 19 7 17 8 16 9 15 10 14 11 6 12
REMARK SMILES IDX 7 13 8 14 9 15 13 16 11 17 10 18 12 20 4 22 21 24 18 26
REMARK H PARENT 10 19 12 21 4 23 21 25 18 27
REMARK Flexibility Score: inf
ROOT
ATOM      1  C   UNL     1       5.606  -6.647  -1.626  1.00  0.00     0.180 A 
ATOM      2  C   UNL     1       7.010  -6.645  -1.548  1.00  0.00     0.208 A 
ATOM      3  C   UNL     1       7.755  -7.051  -2.666  1.00  0.00     0.238 A 
ATOM      4  O   UNL     1       9.010  -7.099  -2.570  1.00  0.00    -0.285 OA
ATOM      5  C   UNL     1       7.090  -7.438  -3.853  1.00  0.00     0.111 A 
ATOM      6  C   UNL     1       7.746  -7.829  -5.060  1.00  0.00     0.134 A 
ATOM      7  C   UNL     1       6.988  -8.317  -6.131  1.00  0.00     0.093 A 
ATOM      8  C   UNL     1       5.596  -8.367  -6.064  1.00  0.00     0.123 A 
ATOM      9  C   UNL     1       4.940  -7.932  -4.913  1.00  0.00     0.094 A 
ATOM     10  C   UNL     1       5.671  -7.474  -3.813  1.00  0.00     0.146 A 
ATOM     11  O   UNL     1       5.011  -7.078  -2.732  1.00  0.00    -0.452 OA
ENDROOT
BRANCH   1  12
ATOM     12  C   UNL     1       4.753  -6.209  -0.499  1.00  0.00     0.025 A 
ATOM     13  C   UNL     1       3.420  -6.641  -0.432  1.00  0.00     0.016 A 
ATOM     14  C   UNL     1       2.591  -6.223   0.612  1.00  0.00     0.051 A 
ATOM     15  C   UNL     1       3.076  -5.357   1.596  1.00  0.00     0.157 A 
ATOM     16  C   UNL     1       5.234  -5.320   0.481  1.00  0.00     0.062 A 
ATOM     17  C   UNL     1       4.402  -4.899   1.529  1.00  0.00     0.158 A 
BRANCH  15  18
ATOM     18  O   UNL     1       2.226  -4.958   2.628  1.00  0.00    -0.504 OA
ATOM     19  H   UNL     1       1.802  -5.623   3.263  1.00  0.00     0.293 HD
ENDBRANCH  15  18
BRANCH  17  20
ATOM     20  O   UNL     1       4.887  -4.022   2.499  1.00  0.00    -0.504 OA
ATOM     21  H   UNL     1       4.805  -4.226   3.488  1.00  0.00     0.293 HD
ENDBRANCH  17  20
ENDBRANCH   1  12
BRANCH   2  22
ATOM     22  O   UNL     1       7.646  -6.280  -0.357  1.00  0.00    -0.502 OA
ATOM     23  H   UNL     1       8.652  -6.182  -0.286  1.00  0.00     0.293 HD
ENDBRANCH   2  22
BRANCH   6  24
ATOM     24  O   UNL     1       9.125  -7.732  -5.264  1.00  0.00    -0.507 OA
ATOM     25  H   UNL     1       9.561  -7.500  -6.143  1.00  0.00     0.293 HD
ENDBRANCH   6  24
BRANCH   8  26
ATOM     26  O   UNL     1       4.872  -8.844  -7.156  1.00  0.00    -0.508 OA
ATOM     27  H   UNL     1       4.898  -9.821  -7.422  1.00  0.00     0.293 HD
ENDBRANCH   8  26
TORSDOF 6
ENDMDL
MODEL 2
REMARK VINA RESULT:    -6.050      1.538      2.034
REMARK INTER + INTRA:          -6.978
REMARK INTER:                  -6.643
REMARK INTRA:                  -0.335
REMARK UNBOUND:                 0.310
REMARK SMILES O=c1c(O)c(-c2ccc(O)c(O)c2)oc2cc(O)cc(O)c12
REMARK SMILES IDX 5 1 3 2 2 3 1 4 22 5 20 6 19 7 17 8 16 9 15 10 14 11 6 12
REMARK SMILES IDX 7 13 8 14 9 15 13 16 11 17 10 18 12 20 4 22 21 24 18 26
REMARK H PARENT 10 19 12 21 4 23 21 25 18 27
REMARK Flexibility Score: inf
ROOT
ATOM      1  C   UNL     1       5.606  -6.497   0.299  1.00  0.00     0.180 A 
ATOM      2  C   UNL     1       7.010  -6.479   0.374  1.00  0.00     0.208 A 
ATOM      3  C   UNL     1       7.757  -6.736  -0.787  1.00  0.00     0.238 A 
ATOM      4  O   UNL     1       9.013  -6.772  -0.702  1.00  0.00    -0.285 OA
ATOM      5  C   UNL     1       7.092  -6.990  -2.010  1.00  0.00     0.111 A 
ATOM      6  C   UNL     1       7.749  -7.224  -3.257  1.00  0.00     0.134 A 
ATOM      7  C   UNL     1       6.995  -7.595  -4.376  1.00  0.00     0.093 A 
ATOM      8  C   UNL     1       5.604  -7.677  -4.312  1.00  0.00     0.123 A 
ATOM      9  C   UNL     1       4.947  -7.394  -3.114  1.00  0.00     0.094 A 
ATOM     10  C   UNL     1       5.675  -7.057  -1.971  1.00  0.00     0.146 A 
ATOM     11  O   UNL     1       5.013  -6.804  -0.848  1.00  0.00    -0.452 OA
ENDROOT
BRANCH   1  12
ATOM     12  C   UNL     1       4.752  -6.211   1.474  1.00  0.00     0.025 A 
ATOM     13  C   UNL     1       4.288  -7.273   2.266  1.00  0.00     0.016 A 
ATOM     14  C   UNL     1       3.464  -7.028   3.366  1.00  0.00     0.051 A 
ATOM     15  C   UNL     1       3.077  -5.723   3.684  1.00  0.00     0.157 A 
ATOM     16  C   UNL     1       4.344  -4.900   1.781  1.00  0.00     0.062 A 
ATOM     17  C   UNL     1       3.515  -4.653   2.886  1.00  0.00     0.158 A 
BRANCH  15  18
ATOM     18  O   UNL     1       2.255  -5.509   4.790  1.00  0.00    -0.504 OA
ATOM     19  H   UNL     1       2.488  -5.861   5.710  1.00  0.00     0.293 HD
ENDBRANCH  15  18
BRANCH  17  20
ATOM     20  O   UNL     1       3.121  -3.350   3.187  1.00  0.00    -0.504 OA
ATOM     21  H   UNL     1       3.557  -2.548   2.748  1.00  0.00     0.293 HD
ENDBRANCH  17  20
ENDBRANCH   1  12
BRANCH   2  22
ATOM     22  O   UNL     1       7.646  -6.246   1.597  1.00  0.00    -0.502 OA
ATOM     23  H   UNL     1       7.460  -6.804   2.422  1.00  0.00     0.293 HD
ENDBRANCH   2  22
BRANCH   6  24
ATOM     24  O   UNL     1       9.125  -7.078  -3.452  1.00  0.00    -0.507 OA
ATOM     25  H   UNL     1       9.814  -7.785  -3.245  1.00  0.00     0.293 HD
ENDBRANCH   6  24
BRANCH   8  26
ATOM     26  O   UNL     1       4.883  -8.035  -5.450  1.00  0.00    -0.508 OA
ATOM     27  H   UNL     1       4.404  -8.925  -5.515  1.00  0.00     0.293 HD
ENDBRANCH   8  26
TORSDOF 6
ENDMDL
MODEL 3
REMARK VINA RESULT:    -6.026      1.321      6.643
REMARK INTER + INTRA:          -6.949
REMARK INTER:                  -7.000
REMARK INTRA:                   0.051
REMARK UNBOUND:                 0.310
REMARK SMILES O=c1c(O)c(-c2ccc(O)c(O)c2)oc2cc(O)cc(O)c12
REMARK SMILES IDX 5 1 3 2 2 3 1 4 22 5 20 6 19 7 17 8 16 9 15 10 14 11 6 12
REMARK SMILES IDX 7 13 8 14 9 15 13 16 11 17 10 18 12 20 4 22 21 24 18 26
REMARK H PARENT 10 19 12 21 4 23 21 25 18 27
REMARK Flexibility Score: inf
ROOT
ATOM      1  C   UNL     1       6.215  -7.592  -3.608  1.00  0.00     0.180 A 
ATOM      2  C   UNL     1       7.571  -7.443  -3.271  1.00  0.00     0.208 A 
ATOM      3  C   UNL     1       7.907  -6.869  -2.034  1.00  0.00     0.238 A 
ATOM      4  O   UNL     1       9.124  -6.689  -1.763  1.00  0.00    -0.285 OA
ATOM      5  C   UNL     1       6.884  -6.468  -1.143  1.00  0.00     0.111 A 
ATOM      6  C   UNL     1       7.110  -5.912   0.153  1.00  0.00     0.134 A 
ATOM      7  C   UNL     1       6.026  -5.430   0.896  1.00  0.00     0.093 A 
ATOM      8  C   UNL     1       4.720  -5.541   0.419  1.00  0.00     0.123 A 
ATOM      9  C   UNL     1       4.482  -6.136  -0.820  1.00  0.00     0.094 A 
ATOM     10  C   UNL     1       5.547  -6.594  -1.600  1.00  0.00     0.146 A 
ATOM     11  O   UNL     1       5.279  -7.144  -2.778  1.00  0.00    -0.452 OA
ENDROOT
BRANCH   1  12
ATOM     12  C   UNL     1       5.782  -8.209  -4.881  1.00  0.00     0.025 A 
ATOM     13  C   UNL     1       6.361  -9.419  -5.295  1.00  0.00     0.016 A 
ATOM     14  C   UNL     1       5.983 -10.008  -6.504  1.00  0.00     0.051 A 
ATOM     15  C   UNL     1       5.034  -9.393  -7.324  1.00  0.00     0.157 A 
ATOM     16  C   UNL     1       4.842  -7.580  -5.719  1.00  0.00     0.062 A 
ATOM     17  C   UNL     1       4.463  -8.170  -6.933  1.00  0.00     0.158 A 
BRANCH  15  18
ATOM     18  O   UNL     1       4.674 -10.006  -8.524  1.00  0.00    -0.504 OA
ATOM     19  H   UNL     1       5.230 -10.743  -8.940  1.00  0.00     0.293 HD
ENDBRANCH  15  18
BRANCH  17  20
ATOM     20  O   UNL     1       3.526  -7.543  -7.754  1.00  0.00    -0.504 OA
ATOM     21  H   UNL     1       3.781  -6.767  -8.353  1.00  0.00     0.293 HD
ENDBRANCH  17  20
ENDBRANCH   1  12
BRANCH   2  22
ATOM     22  O   UNL     1       8.566  -7.827  -4.176  1.00  0.00    -0.502 OA
ATOM     23  H   UNL     1       9.472  -7.374  -4.213  1.00  0.00     0.293 HD
ENDBRANCH   2  22
BRANCH   6  24
ATOM     24  O   UNL     1       8.366  -5.838   0.762  1.00  0.00    -0.507 OA
ATOM     25  H   UNL     1       8.632  -6.342   1.594  1.00  0.00     0.293 HD
ENDBRANCH   6  24
BRANCH   8  26
ATOM     26  O   UNL     1       3.663  -5.064   1.192  1.00  0.00    -0.508 OA
ATOM     27  H   UNL     1       2.932  -4.489   0.792  1.00  0.00     0.293 HD
ENDBRANCH   8  26
TORSDOF 6
ENDMDL
MODEL 4
REMARK VINA RESULT:    -5.963      1.724      6.843
REMARK INTER + INTRA:          -6.873
REMARK INTER:                  -6.567
REMARK INTRA:                  -0.306
REMARK UNBOUND:                 0.310
REMARK SMILES O=c1c(O)c(-c2ccc(O)c(O)c2)oc2cc(O)cc(O)c12
REMARK SMILES IDX 5 1 3 2 2 3 1 4 22 5 20 6 19 7 17 8 16 9 15 10 14 11 6 12
REMARK SMILES IDX 7 13 8 14 9 15 13 16 11 17 10 18 12 20 4 22 21 24 18 26
REMARK H PARENT 10 19 12 21 4 23 21 25 18 27
REMARK Flexibility Score: inf
ROOT
ATOM      1  C   UNL     1       5.294  -6.683  -0.992  1.00  0.00     0.180 A 
ATOM      2  C   UNL     1       6.478  -6.203  -0.405  1.00  0.00     0.208 A 
ATOM      3  C   UNL     1       6.399  -5.488   0.801  1.00  0.00     0.238 A 
ATOM      4  O   UNL     1       7.457  -5.014   1.293  1.00  0.00    -0.285 OA
ATOM      5  C   UNL     1       5.141  -5.278   1.414  1.00  0.00     0.111 A 
ATOM      6  C   UNL     1       4.947  -4.602   2.658  1.00  0.00     0.134 A 
ATOM      7  C   UNL     1       3.648  -4.336   3.104  1.00  0.00     0.093 A 
ATOM      8  C   UNL     1       2.536  -4.778   2.387  1.00  0.00     0.123 A 
ATOM      9  C   UNL     1       2.713  -5.491   1.201  1.00  0.00     0.094 A 
ATOM     10  C   UNL     1       3.998  -5.739   0.711  1.00  0.00     0.146 A 
ATOM     11  O   UNL     1       4.124  -6.412  -0.426  1.00  0.00    -0.452 OA
ENDROOT
BRANCH   1  12
ATOM     12  C   UNL     1       5.299  -7.465  -2.248  1.00  0.00     0.025 A 
ATOM     13  C   UNL     1       5.304  -8.867  -2.190  1.00  0.00     0.016 A 
ATOM     14  C   UNL     1       5.330  -9.625  -3.363  1.00  0.00     0.051 A 
ATOM     15  C   UNL     1       5.366  -8.995  -4.611  1.00  0.00     0.157 A 
ATOM     16  C   UNL     1       5.357  -6.833  -3.504  1.00  0.00     0.062 A 
ATOM     17  C   UNL     1       5.384  -7.593  -4.683  1.00  0.00     0.158 A 
BRANCH  15  18
ATOM     18  O   UNL     1       5.389  -9.778  -5.765  1.00  0.00    -0.504 OA
ATOM     19  H   UNL     1       5.841 -10.683  -5.793  1.00  0.00     0.293 HD
ENDBRANCH  15  18
BRANCH  17  20
ATOM     20  O   UNL     1       5.436  -6.958  -5.924  1.00  0.00    -0.504 OA
ATOM     21  H   UNL     1       6.308  -6.850  -6.429  1.00  0.00     0.293 HD
ENDBRANCH  17  20
ENDBRANCH   1  12
BRANCH   2  22
ATOM     22  O   UNL     1       7.708  -6.404  -1.038  1.00  0.00    -0.502 OA
ATOM     23  H   UNL     1       8.184  -5.668  -1.548  1.00  0.00     0.293 HD
ENDBRANCH   2  22
BRANCH   6  24
ATOM     24  O   UNL     1       5.990  -4.200   3.497  1.00  0.00    -0.507 OA
ATOM     25  H   UNL     1       5.868  -3.803   4.416  1.00  0.00     0.293 HD
ENDBRANCH   6  24
BRANCH   8  26
ATOM     26  O   UNL     1       1.256  -4.509   2.870  1.00  0.00    -0.508 OA
ATOM     27  H   UNL     1       0.810  -3.613   2.718  1.00  0.00     0.293 HD
ENDBRANCH   8  26
TORSDOF 6
ENDMDL
MODEL 5
REMARK VINA RESULT:    -5.956      2.078      7.518
REMARK INTER + INTRA:          -6.864
REMARK INTER:                  -6.601
REMARK INTRA:                  -0.263
REMARK UNBOUND:                 0.310
REMARK SMILES O=c1c(O)c(-c2ccc(O)c(O)c2)oc2cc(O)cc(O)c12
REMARK SMILES IDX 5 1 3 2 2 3 1 4 22 5 20 6 19 7 17 8 16 9 15 10 14 11 6 12
REMARK SMILES IDX 7 13 8 14 9 15 13 16 11 17 10 18 12 20 4 22 21 24 18 26
REMARK H PARENT 10 19 12 21 4 23 21 25 18 27
REMARK Flexibility Score: inf
ROOT
ATOM      1  C   UNL     1       4.504  -6.553  -0.124  1.00  0.00     0.180 A 
ATOM      2  C   UNL     1       3.203  -6.116   0.181  1.00  0.00     0.208 A 
ATOM      3  C   UNL     1       3.003  -5.306   1.310  1.00  0.00     0.238 A 
ATOM      4  O   UNL     1       1.829  -4.963   1.607  1.00  0.00    -0.285 OA
ATOM      5  C   UNL     1       4.108  -4.929   2.110  1.00  0.00     0.111 A 
ATOM      6  C   UNL     1       4.027  -4.077   3.254  1.00  0.00     0.134 A 
ATOM      7  C   UNL     1       5.163  -3.878   4.047  1.00  0.00     0.093 A 
ATOM      8  C   UNL     1       6.391  -4.443   3.703  1.00  0.00     0.123 A 
ATOM      9  C   UNL     1       6.495  -5.228   2.554  1.00  0.00     0.094 A 
ATOM     10  C   UNL     1       5.370  -5.476   1.763  1.00  0.00     0.146 A 
ATOM     11  O   UNL     1       5.509  -6.237   0.684  1.00  0.00    -0.452 OA
ENDROOT
BRANCH   1  12
ATOM     12  C   UNL     1       4.796  -7.388  -1.310  1.00  0.00     0.025 A 
ATOM     13  C   UNL     1       4.494  -8.759  -1.283  1.00  0.00     0.016 A 
ATOM     14  C   UNL     1       4.782  -9.570  -2.383  1.00  0.00     0.051 A 
ATOM     15  C   UNL     1       5.387  -9.029  -3.521  1.00  0.00     0.157 A 
ATOM     16  C   UNL     1       5.426  -6.850  -2.448  1.00  0.00     0.062 A 
ATOM     17  C   UNL     1       5.716  -7.664  -3.553  1.00  0.00     0.158 A 
BRANCH  15  18
ATOM     18  O   UNL     1       5.660  -9.863  -4.605  1.00  0.00    -0.504 OA
ATOM     19  H   UNL     1       6.240 -10.688  -4.517  1.00  0.00     0.293 HD
ENDBRANCH  15  18
BRANCH  17  20
ATOM     20  O   UNL     1       6.334  -7.121  -4.679  1.00  0.00    -0.504 OA
ATOM     21  H   UNL     1       6.267  -6.134  -4.898  1.00  0.00     0.293 HD
ENDBRANCH  17  20
ENDBRANCH   1  12
BRANCH   2  22
ATOM     22  O   UNL     1       2.123  -6.518  -0.611  1.00  0.00    -0.502 OA
ATOM     23  H   UNL     1       1.565  -7.336  -0.396  1.00  0.00     0.293 HD
ENDBRANCH   2  22
BRANCH   6  24
ATOM     24  O   UNL     1       2.872  -3.390   3.634  1.00  0.00    -0.507 OA
ATOM     25  H   UNL     1       2.530  -3.318   4.580  1.00  0.00     0.293 HD
ENDBRANCH   6  24
BRANCH   8  26
ATOM     26  O   UNL     1       7.505  -4.211   4.507  1.00  0.00    -0.508 OA
ATOM     27  H   UNL     1       8.097  -4.969   4.824  1.00  0.00     0.293 HD
ENDBRANCH   8  26
TORSDOF 6
ENDMDL
MODEL 6
REMARK VINA RESULT:    -5.789     17.927     18.459
REMARK INTER + INTRA:          -6.664
REMARK INTER:                  -6.650
REMARK INTRA:                  -0.014
REMARK UNBOUND:                 0.310
REMARK SMILES O=c1c(O)c(-c2ccc(O)c(O)c2)oc2cc(O)cc(O)c12
REMARK SMILES IDX 5 1 3 2 2 3 1 4 22 5 20 6 19 7 17 8 16 9 15 10 14 11 6 12
REMARK SMILES IDX 7 13 8 14 9 15 13 16 11 17 10 18 12 20 4 22 21 24 18 26
REMARK H PARENT 10 19 12 21 4 23 21 25 18 27
REMARK Flexibility Score: inf
ROOT
ATOM      1  C   UNL     1       1.380   7.866 -11.776  1.00  0.00     0.180 A 
ATOM      2  C   UNL     1       1.331   6.557 -12.287  1.00  0.00     0.208 A 
ATOM      3  C   UNL     1       2.445   6.054 -12.979  1.00  0.00     0.238 A 
ATOM      4  O   UNL     1       2.374   4.901 -13.481  1.00  0.00    -0.285 OA
ATOM      5  C   UNL     1       3.599   6.858 -13.135  1.00  0.00     0.111 A 
ATOM      6  C   UNL     1       4.800   6.435 -13.783  1.00  0.00     0.134 A 
ATOM      7  C   UNL     1       5.830   7.358 -13.996  1.00  0.00     0.093 A 
ATOM      8  C   UNL     1       5.732   8.668 -13.528  1.00  0.00     0.123 A 
ATOM      9  C   UNL     1       4.588   9.076 -12.842  1.00  0.00     0.094 A 
ATOM     10  C   UNL     1       3.527   8.188 -12.646  1.00  0.00     0.146 A 
ATOM     11  O   UNL     1       2.452   8.618 -11.998  1.00  0.00    -0.452 OA
ENDROOT
BRANCH   1  12
ATOM     12  C   UNL     1       0.256   8.457 -11.016  1.00  0.00     0.025 A 
ATOM     13  C   UNL     1       0.485   8.968  -9.729  1.00  0.00     0.016 A 
ATOM     14  C   UNL     1      -0.566   9.512  -8.986  1.00  0.00     0.051 A 
ATOM     15  C   UNL     1      -1.862   9.540  -9.509  1.00  0.00     0.157 A 
ATOM     16  C   UNL     1      -1.053   8.467 -11.533  1.00  0.00     0.062 A 
ATOM     17  C   UNL     1      -2.109   9.011 -10.787  1.00  0.00     0.158 A 
BRANCH  15  18
ATOM     18  O   UNL     1      -2.890  10.091  -8.745  1.00  0.00    -0.504 OA
ATOM     19  H   UNL     1      -3.850   9.779  -8.829  1.00  0.00     0.293 HD
ENDBRANCH  15  18
BRANCH  17  20
ATOM     20  O   UNL     1      -3.402   9.022 -11.308  1.00  0.00    -0.504 OA
ATOM     21  H   UNL     1      -3.804   9.859 -11.714  1.00  0.00     0.293 HD
ENDBRANCH  17  20
ENDBRANCH   1  12
BRANCH   2  22
ATOM     22  O   UNL     1       0.173   5.788 -12.140  1.00  0.00    -0.502 OA
ATOM     23  H   UNL     1       0.035   5.156 -11.360  1.00  0.00     0.293 HD
ENDBRANCH   2  22
BRANCH   6  24
ATOM     24  O   UNL     1       5.037   5.125 -14.206  1.00  0.00    -0.507 OA
ATOM     25  H   UNL     1       5.001   4.312 -13.611  1.00  0.00     0.293 HD
ENDBRANCH   6  24
BRANCH   8  26
ATOM     26  O   UNL     1       6.785   9.556 -13.745  1.00  0.00    -0.508 OA
ATOM     27  H   UNL     1       7.750   9.251 -13.710  1.00  0.00     0.293 HD
ENDBRANCH   8  26
TORSDOF 6
ENDMDL
MODEL 7
REMARK VINA RESULT:    -5.781      1.601      7.278
REMARK INTER + INTRA:          -6.654
REMARK INTER:                  -6.759
REMARK INTRA:                   0.105
REMARK UNBOUND:                 0.310
REMARK SMILES O=c1c(O)c(-c2ccc(O)c(O)c2)oc2cc(O)cc(O)c12
REMARK SMILES IDX 5 1 3 2 2 3 1 4 22 5 20 6 19 7 17 8 16 9 15 10 14 11 6 12
REMARK SMILES IDX 7 13 8 14 9 15 13 16 11 17 10 18 12 20 4 22 21 24 18 26
REMARK H PARENT 10 19 12 21 4 23 21 25 18 27
REMARK Flexibility Score: inf
ROOT
ATOM      1  C   UNL     1       5.496  -6.503  -0.993  1.00  0.00     0.180 A 
ATOM      2  C   UNL     1       4.443  -7.150  -0.322  1.00  0.00     0.208 A 
ATOM      3  C   UNL     1       4.036  -6.667   0.932  1.00  0.00     0.238 A 
ATOM      4  O   UNL     1       3.129  -7.284   1.551  1.00  0.00    -0.285 OA
ATOM      5  C   UNL     1       4.674  -5.535   1.492  1.00  0.00     0.111 A 
ATOM      6  C   UNL     1       4.317  -4.936   2.738  1.00  0.00     0.134 A 
ATOM      7  C   UNL     1       5.102  -3.900   3.257  1.00  0.00     0.093 A 
ATOM      8  C   UNL     1       6.191  -3.397   2.546  1.00  0.00     0.123 A 
ATOM      9  C   UNL     1       6.515  -3.934   1.300  1.00  0.00     0.094 A 
ATOM     10  C   UNL     1       5.772  -4.994   0.773  1.00  0.00     0.146 A 
ATOM     11  O   UNL     1       6.118  -5.485  -0.411  1.00  0.00    -0.452 OA
ENDROOT
BRANCH   1  12
ATOM     12  C   UNL     1       5.964  -6.938  -2.328  1.00  0.00     0.025 A 
ATOM     13  C   UNL     1       5.025  -7.268  -3.317  1.00  0.00     0.016 A 
ATOM     14  C   UNL     1       5.445  -7.700  -4.577  1.00  0.00     0.051 A 
ATOM     15  C   UNL     1       6.807  -7.825  -4.864  1.00  0.00     0.157 A 
ATOM     16  C   UNL     1       7.335  -7.085  -2.611  1.00  0.00     0.062 A 
ATOM     17  C   UNL     1       7.758  -7.520  -3.876  1.00  0.00     0.158 A 
BRANCH  15  18
ATOM     18  O   UNL     1       7.196  -8.257  -6.132  1.00  0.00    -0.504 OA
ATOM     19  H   UNL     1       7.545  -9.194  -6.298  1.00  0.00     0.293 HD
ENDBRANCH  15  18
BRANCH  17  20
ATOM     20  O   UNL     1       9.118  -7.657  -4.151  1.00  0.00    -0.504 OA
ATOM     21  H   UNL     1       9.816  -7.597  -3.419  1.00  0.00     0.293 HD
ENDBRANCH  17  20
ENDBRANCH   1  12
BRANCH   2  22
ATOM     22  O   UNL     1       3.840  -8.280  -0.884  1.00  0.00    -0.502 OA
ATOM     23  H   UNL     1       4.020  -9.217  -0.544  1.00  0.00     0.293 HD
ENDBRANCH   2  22
BRANCH   6  24
ATOM     24  O   UNL     1       3.193  -5.301   3.485  1.00  0.00    -0.507 OA
ATOM     25  H   UNL     1       2.751  -4.721   4.180  1.00  0.00     0.293 HD
ENDBRANCH   6  24
BRANCH   8  26
ATOM     26  O   UNL     1       6.942  -2.354   3.085  1.00  0.00    -0.508 OA
ATOM     27  H   UNL     1       7.549  -2.496   3.883  1.00  0.00     0.293 HD
ENDBRANCH   8  26
TORSDOF 6
ENDMDL
MODEL 8
REMARK VINA RESULT:    -5.775      2.037      3.554
REMARK INTER + INTRA:          -6.647
REMARK INTER:                  -6.514
REMARK INTRA:                  -0.133
REMARK UNBOUND:                 0.310
REMARK SMILES O=c1c(O)c(-c2ccc(O)c(O)c2)oc2cc(O)cc(O)c12
REMARK SMILES IDX 5 1 3 2 2 3 1 4 22 5 20 6 19 7 17 8 16 9 15 10 14 11 6 12
REMARK SMILES IDX 7 13 8 14 9 15 13 16 11 17 10 18 12 20 4 22 21 24 18 26
REMARK H PARENT 10 19 12 21 4 23 21 25 18 27
REMARK Flexibility Score: inf
ROOT
ATOM      1  C   UNL     1       4.404  -7.258   0.256  1.00  0.00     0.180 A 
ATOM      2  C   UNL     1       3.704  -8.253  -0.449  1.00  0.00     0.208 A 
ATOM      3  C   UNL     1       4.263  -8.774  -1.627  1.00  0.00     0.238 A 
ATOM      4  O   UNL     1       3.606  -9.625  -2.282  1.00  0.00    -0.285 OA
ATOM      5  C   UNL     1       5.522  -8.309  -2.074  1.00  0.00     0.111 A 
ATOM      6  C   UNL     1       6.202  -8.797  -3.232  1.00  0.00     0.134 A 
ATOM      7  C   UNL     1       7.382  -8.172  -3.654  1.00  0.00     0.093 A 
ATOM      8  C   UNL     1       7.941  -7.123  -2.926  1.00  0.00     0.123 A 
ATOM      9  C   UNL     1       7.318  -6.677  -1.761  1.00  0.00     0.094 A 
ATOM     10  C   UNL     1       6.119  -7.256  -1.334  1.00  0.00     0.146 A 
ATOM     11  O   UNL     1       5.552  -6.796  -0.226  1.00  0.00    -0.452 OA
ENDROOT
BRANCH   1  12
ATOM     12  C   UNL     1       3.891  -6.678   1.517  1.00  0.00     0.025 A 
ATOM     13  C   UNL     1       3.692  -7.509   2.631  1.00  0.00     0.016 A 
ATOM     14  C   UNL     1       3.189  -6.986   3.824  1.00  0.00     0.051 A 
ATOM     15  C   UNL     1       2.863  -5.630   3.920  1.00  0.00     0.157 A 
ATOM     16  C   UNL     1       3.542  -5.318   1.608  1.00  0.00     0.062 A 
ATOM     17  C   UNL     1       3.035  -4.792   2.806  1.00  0.00     0.158 A 
BRANCH  15  18
ATOM     18  O   UNL     1       2.364  -5.135   5.125  1.00  0.00    -0.504 OA
ATOM     19  H   UNL     1       1.379  -5.171   5.355  1.00  0.00     0.293 HD
ENDBRANCH  15  18
BRANCH  17  20
ATOM     20  O   UNL     1       2.697  -3.441   2.890  1.00  0.00    -0.504 OA
ATOM     21  H   UNL     1       3.404  -2.723   2.993  1.00  0.00     0.293 HD
ENDBRANCH  17  20
ENDBRANCH   1  12
BRANCH   2  22
ATOM     22  O   UNL     1       2.451  -8.682  -0.001  1.00  0.00    -0.502 OA
ATOM     23  H   UNL     1       1.634  -8.083  -0.012  1.00  0.00     0.293 HD
ENDBRANCH   2  22
BRANCH   6  24
ATOM     24  O   UNL     1       5.778  -9.899  -3.978  1.00  0.00    -0.507 OA
ATOM     25  H   UNL     1       5.540 -10.799  -3.591  1.00  0.00     0.293 HD
ENDBRANCH   6  24
BRANCH   8  26
ATOM     26  O   UNL     1       9.125  -6.534  -3.367  1.00  0.00    -0.508 OA
ATOM     27  H   UNL     1       9.190  -6.093  -4.277  1.00  0.00     0.293 HD
ENDBRANCH   8  26
TORSDOF 6
ENDMDL
MODEL 9
REMARK VINA RESULT:    -5.635      4.595      5.735
REMARK INTER + INTRA:          -6.478
REMARK INTER:                  -6.150
REMARK INTRA:                  -0.329
REMARK UNBOUND:                 0.310
REMARK SMILES O=c1c(O)c(-c2ccc(O)c(O)c2)oc2cc(O)cc(O)c12
REMARK SMILES IDX 5 1 3 2 2 3 1 4 22 5 20 6 19 7 17 8 16 9 15 10 14 11 6 12
REMARK SMILES IDX 7 13 8 14 9 15 13 16 11 17 10 18 12 20 4 22 21 24 18 26
REMARK H PARENT 10 19 12 21 4 23 21 25 18 27
REMARK Flexibility Score: inf
ROOT
ATOM      1  C   UNL     1       5.055  -6.163   1.720  1.00  0.00     0.180 A 
ATOM      2  C   UNL     1       5.269  -7.546   1.586  1.00  0.00     0.208 A 
ATOM      3  C   UNL     1       4.332  -8.314   0.877  1.00  0.00     0.238 A 
ATOM      4  O   UNL     1       4.502  -9.560   0.808  1.00  0.00    -0.285 OA
ATOM      5  C   UNL     1       3.203  -7.689   0.296  1.00  0.00     0.111 A 
ATOM      6  C   UNL     1       2.212  -8.364  -0.479  1.00  0.00     0.134 A 
ATOM      7  C   UNL     1       1.069  -7.670  -0.895  1.00  0.00     0.093 A 
ATOM      8  C   UNL     1       0.913  -6.312  -0.621  1.00  0.00     0.123 A 
ATOM      9  C   UNL     1       1.903  -5.627   0.084  1.00  0.00     0.094 A 
ATOM     10  C   UNL     1       3.038  -6.302   0.544  1.00  0.00     0.146 A 
ATOM     11  O   UNL     1       3.952  -5.617   1.220  1.00  0.00    -0.452 OA
ENDROOT
BRANCH   1  12
ATOM     12  C   UNL     1       6.009  -5.283   2.432  1.00  0.00     0.025 A 
ATOM     13  C   UNL     1       5.763  -4.935   3.769  1.00  0.00     0.016 A 
ATOM     14  C   UNL     1       6.639  -4.089   4.453  1.00  0.00     0.051 A 
ATOM     15  C   UNL     1       7.764  -3.567   3.810  1.00  0.00     0.157 A 
ATOM     16  C   UNL     1       7.130  -4.739   1.779  1.00  0.00     0.062 A 
ATOM     17  C   UNL     1       8.010  -3.889   2.466  1.00  0.00     0.158 A 
BRANCH  15  18
ATOM     18  O   UNL     1       8.623  -2.727   4.520  1.00  0.00    -0.504 OA
ATOM     19  H   UNL     1       9.500  -3.054   4.904  1.00  0.00     0.293 HD
ENDBRANCH  15  18
BRANCH  17  20
ATOM     20  O   UNL     1       9.123  -3.359   1.813  1.00  0.00    -0.504 OA
ATOM     21  H   UNL     1       9.490  -2.444   2.048  1.00  0.00     0.293 HD
ENDBRANCH  17  20
ENDBRANCH   1  12
BRANCH   2  22
ATOM     22  O   UNL     1       6.379  -8.146   2.187  1.00  0.00    -0.502 OA
ATOM     23  H   UNL     1       7.178  -8.468   1.654  1.00  0.00     0.293 HD
ENDBRANCH   2  22
BRANCH   6  24
ATOM     24  O   UNL     1       2.315  -9.697  -0.886  1.00  0.00    -0.507 OA
ATOM     25  H   UNL     1       1.579 -10.220  -1.336  1.00  0.00     0.293 HD
ENDBRANCH   6  24
BRANCH   8  26
ATOM     26  O   UNL     1      -0.230  -5.648  -1.063  1.00  0.00    -0.508 OA
ATOM     27  H   UNL     1      -0.720  -4.985  -0.474  1.00  0.00     0.293 HD
ENDBRANCH   8  26
TORSDOF 6
ENDMDL
