MODEL 1
REMARK VINA RESULT:    -6.428      0.000      0.000
REMARK INTER + INTRA:          -8.074
REMARK INTER:                  -7.744
REMARK INTRA:                  -0.330
REMARK UNBOUND:                -0.330
REMARK SMILES O=c1c(O)c(-c2ccc(O)c(O)c2)oc2cc(O)cc(O)c12
REMARK SMILES IDX 5 1 3 2 2 3 1 4 22 5 20 6 19 7 17 8 16 9 15 10 14 11 6 12
REMARK SMILES IDX 7 13 8 14 9 15 13 16 11 17 10 18 12 20 4 22 21 24 18 26
REMARK H PARENT 10 19 12 21 4 23 21 25 18 27
REMARK Flexibility Score: inf
ROOT
ATOM      1  C   UNL     1      38.270   4.380   8.043  1.00  0.00     0.180 A 
ATOM      2  C   UNL     1      39.067   4.486   6.889  1.00  0.00     0.208 A 
ATOM      3  C   UNL     1      39.479   5.757   6.461  1.00  0.00     0.238 A 
ATOM      4  O   UNL     1      40.236   5.842   5.459  1.00  0.00    -0.285 OA
ATOM      5  C   UNL     1      39.075   6.909   7.179  1.00  0.00     0.111 A 
ATOM      6  C   UNL     1      39.401   8.248   6.812  1.00  0.00     0.134 A 
ATOM      7  C   UNL     1      39.059   9.301   7.669  1.00  0.00     0.093 A 
ATOM      8  C   UNL     1      38.347   9.069   8.848  1.00  0.00     0.123 A 
ATOM      9  C   UNL     1      37.972   7.770   9.186  1.00  0.00     0.094 A 
ATOM     10  C   UNL     1      38.331   6.695   8.370  1.00  0.00     0.146 A 
ATOM     11  O   UNL     1      37.964   5.472   8.733  1.00  0.00    -0.452 OA
ENDROOT
BRANCH   1  12
ATOM     12  C   UNL     1      37.777   3.077   8.543  1.00  0.00     0.025 A 
ATOM     13  C   UNL     1      38.534   2.369   9.491  1.00  0.00     0.016 A 
ATOM     14  C   UNL     1      38.077   1.147   9.992  1.00  0.00     0.051 A 
ATOM     15  C   UNL     1      36.850   0.623   9.566  1.00  0.00     0.157 A 
ATOM     16  C   UNL     1      36.535   2.557   8.133  1.00  0.00     0.062 A 
ATOM     17  C   UNL     1      36.076   1.331   8.639  1.00  0.00     0.158 A 
BRANCH  15  18
ATOM     18  O   UNL     1      36.392  -0.595  10.062  1.00  0.00    -0.504 OA
ATOM     19  H   UNL     1      36.905  -1.105  10.771  1.00  0.00     0.293 HD
ENDBRANCH  15  18
BRANCH  17  20
ATOM     20  O   UNL     1      34.849   0.815   8.226  1.00  0.00    -0.504 OA
ATOM     21  H   UNL     1      34.070   1.420   7.993  1.00  0.00     0.293 HD
ENDBRANCH  17  20
ENDBRANCH   1  12
BRANCH   2  22
ATOM     22  O   UNL     1      39.472   3.335   6.207  1.00  0.00    -0.502 OA
ATOM     23  H   UNL     1      39.951   2.570   6.667  1.00  0.00     0.293 HD
ENDBRANCH   2  22
BRANCH   6  24
ATOM     24  O   UNL     1      40.028   8.599   5.613  1.00  0.00    -0.507 OA
ATOM     25  H   UNL     1      39.706   9.322   4.986  1.00  0.00     0.293 HD
ENDBRANCH   6  24
BRANCH   8  26
ATOM     26  O   UNL     1      37.997  10.124   9.688  1.00  0.00    -0.508 OA
ATOM     27  H   UNL     1      38.595  10.413  10.453  1.00  0.00     0.293 HD
ENDBRANCH   8  26
TORSDOF 6
ENDMDL
MODEL 2
REMARK VINA RESULT:    -5.971      1.930      7.036
REMARK INTER + INTRA:          -7.523
REMARK INTER:                  -7.240
REMARK INTRA:                  -0.283
REMARK UNBOUND:                -0.330
REMARK SMILES O=c1c(O)c(-c2ccc(O)c(O)c2)oc2cc(O)cc(O)c12
REMARK SMILES IDX 5 1 3 2 2 3 1 4 22 5 20 6 19 7 17 8 16 9 15 10 14 11 6 12
REMARK SMILES IDX 7 13 8 14 9 15 13 16 11 17 10 18 12 20 4 22 21 24 18 26
REMARK H PARENT 10 19 12 21 4 23 21 25 18 27
REMARK Flexibility Score: inf
ROOT
ATOM      1  C   UNL     1      37.748   4.724   8.586  1.00  0.00     0.180 A 
ATOM      2  C   UNL     1      36.481   5.232   8.925  1.00  0.00     0.208 A 
ATOM      3  C   UNL     1      35.495   4.348   9.389  1.00  0.00     0.238 A 
ATOM      4  O   UNL     1      34.381   4.816   9.742  1.00  0.00    -0.285 OA
ATOM      5  C   UNL     1      35.780   2.965   9.492  1.00  0.00     0.111 A 
ATOM      6  C   UNL     1      34.843   1.973   9.911  1.00  0.00     0.134 A 
ATOM      7  C   UNL     1      35.273   0.654  10.101  1.00  0.00     0.093 A 
ATOM      8  C   UNL     1      36.590   0.278   9.825  1.00  0.00     0.123 A 
ATOM      9  C   UNL     1      37.497   1.227   9.358  1.00  0.00     0.094 A 
ATOM     10  C   UNL     1      37.108   2.559   9.194  1.00  0.00     0.146 A 
ATOM     11  O   UNL     1      38.005   3.433   8.757  1.00  0.00    -0.452 OA
ENDROOT
BRANCH   1  12
ATOM     12  C   UNL     1      38.831   5.590   8.068  1.00  0.00     0.025 A 
ATOM     13  C   UNL     1      39.591   6.358   8.964  1.00  0.00     0.016 A 
ATOM     14  C   UNL     1      40.632   7.166   8.499  1.00  0.00     0.051 A 
ATOM     15  C   UNL     1      40.938   7.206   7.133  1.00  0.00     0.157 A 
ATOM     16  C   UNL     1      39.155   5.617   6.699  1.00  0.00     0.062 A 
ATOM     17  C   UNL     1      40.202   6.427   6.232  1.00  0.00     0.158 A 
BRANCH  15  18
ATOM     18  O   UNL     1      41.974   8.011   6.665  1.00  0.00    -0.504 OA
ATOM     19  H   UNL     1      41.900   9.021   6.660  1.00  0.00     0.293 HD
ENDBRANCH  15  18
BRANCH  17  20
ATOM     20  O   UNL     1      40.517   6.457   4.875  1.00  0.00    -0.504 OA
ATOM     21  H   UNL     1      41.429   6.756   4.548  1.00  0.00     0.293 HD
ENDBRANCH  17  20
ENDBRANCH   1  12
BRANCH   2  22
ATOM     22  O   UNL     1      36.227   6.604   8.837  1.00  0.00    -0.502 OA
ATOM     23  H   UNL     1      36.731   7.287   9.390  1.00  0.00     0.293 HD
ENDBRANCH   2  22
BRANCH   6  24
ATOM     24  O   UNL     1      33.485   2.223  10.125  1.00  0.00    -0.507 OA
ATOM     25  H   UNL     1      32.751   2.014   9.464  1.00  0.00     0.293 HD
ENDBRANCH   6  24
BRANCH   8  26
ATOM     26  O   UNL     1      37.005  -1.040  10.001  1.00  0.00    -0.508 OA
ATOM     27  H   UNL     1      37.816  -1.268  10.564  1.00  0.00     0.293 HD
ENDBRANCH   8  26
TORSDOF 6
ENDMDL
MODEL 3
REMARK VINA RESULT:    -5.744      2.226      2.753
REMARK INTER + INTRA:          -7.249
REMARK INTER:                  -7.215
REMARK INTRA:                  -0.034
REMARK UNBOUND:                -0.330
REMARK SMILES O=c1c(O)c(-c2ccc(O)c(O)c2)oc2cc(O)cc(O)c12
REMARK SMILES IDX 5 1 3 2 2 3 1 4 22 5 20 6 19 7 17 8 16 9 15 10 14 11 6 12
REMARK SMILES IDX 7 13 8 14 9 15 13 16 11 17 10 18 12 20 4 22 21 24 18 26
REMARK H PARENT 10 19 12 21 4 23 21 25 18 27
REMARK Flexibility Score: inf
ROOT
ATOM      1  C   UNL     1      37.003   4.316   8.526  1.00  0.00     0.180 A 
ATOM      2  C   UNL     1      37.873   4.934   7.610  1.00  0.00     0.208 A 
ATOM      3  C   UNL     1      37.690   6.292   7.307  1.00  0.00     0.238 A 
ATOM      4  O   UNL     1      38.504   6.854   6.529  1.00  0.00    -0.285 OA
ATOM      5  C   UNL     1      36.628   7.012   7.908  1.00  0.00     0.111 A 
ATOM      6  C   UNL     1      36.325   8.380   7.644  1.00  0.00     0.134 A 
ATOM      7  C   UNL     1      35.334   9.025   8.394  1.00  0.00     0.093 A 
ATOM      8  C   UNL     1      34.591   8.333   9.354  1.00  0.00     0.123 A 
ATOM      9  C   UNL     1      34.840   6.981   9.578  1.00  0.00     0.094 A 
ATOM     10  C   UNL     1      35.847   6.319   8.872  1.00  0.00     0.146 A 
ATOM     11  O   UNL     1      36.059   5.033   9.123  1.00  0.00    -0.452 OA
ENDROOT
BRANCH   1  12
ATOM     12  C   UNL     1      37.119   2.882   8.877  1.00  0.00     0.025 A 
ATOM     13  C   UNL     1      36.019   2.032   8.683  1.00  0.00     0.016 A 
ATOM     14  C   UNL     1      36.113   0.671   8.988  1.00  0.00     0.051 A 
ATOM     15  C   UNL     1      37.313   0.139   9.476  1.00  0.00     0.157 A 
ATOM     16  C   UNL     1      38.329   2.339   9.348  1.00  0.00     0.062 A 
ATOM     17  C   UNL     1      38.424   0.973   9.652  1.00  0.00     0.158 A 
BRANCH  15  18
ATOM     18  O   UNL     1      37.411  -1.217   9.783  1.00  0.00    -0.504 OA
ATOM     19  H   UNL     1      36.805  -1.903   9.350  1.00  0.00     0.293 HD
ENDBRANCH  15  18
BRANCH  17  20
ATOM     20  O   UNL     1      39.621   0.438  10.125  1.00  0.00    -0.504 OA
ATOM     21  H   UNL     1      40.484   0.522   9.600  1.00  0.00     0.293 HD
ENDBRANCH  17  20
ENDBRANCH   1  12
BRANCH   2  22
ATOM     22  O   UNL     1      38.928   4.212   7.045  1.00  0.00    -0.502 OA
ATOM     23  H   UNL     1      39.763   4.659   6.685  1.00  0.00     0.293 HD
ENDBRANCH   2  22
BRANCH   6  24
ATOM     24  O   UNL     1      36.941   9.138   6.644  1.00  0.00    -0.507 OA
ATOM     25  H   UNL     1      37.708   9.776   6.797  1.00  0.00     0.293 HD
ENDBRANCH   6  24
BRANCH   8  26
ATOM     26  O   UNL     1      33.596   8.978  10.085  1.00  0.00    -0.508 OA
ATOM     27  H   UNL     1      33.619   9.979  10.242  1.00  0.00     0.293 HD
ENDBRANCH   8  26
TORSDOF 6
ENDMDL
MODEL 4
REMARK VINA RESULT:    -5.703      1.631      2.027
REMARK INTER + INTRA:          -7.200
REMARK INTER:                  -7.420
REMARK INTRA:                   0.220
REMARK UNBOUND:                -0.330
REMARK SMILES O=c1c(O)c(-c2ccc(O)c(O)c2)oc2cc(O)cc(O)c12
REMARK SMILES IDX 5 1 3 2 2 3 1 4 22 5 20 6 19 7 17 8 16 9 15 10 14 11 6 12
REMARK SMILES IDX 7 13 8 14 9 15 13 16 11 17 10 18 12 20 4 22 21 24 18 26
REMARK H PARENT 10 19 12 21 4 23 21 25 18 27
REMARK Flexibility Score: inf
ROOT
ATOM      1  C   UNL     1      38.215   4.410   8.172  1.00  0.00     0.180 A 
ATOM      2  C   UNL     1      39.569   4.062   8.019  1.00  0.00     0.208 A 
ATOM      3  C   UNL     1      40.461   5.012   7.498  1.00  0.00     0.238 A 
ATOM      4  O   UNL     1      41.681   4.714   7.413  1.00  0.00    -0.285 OA
ATOM      5  C   UNL     1      39.987   6.292   7.121  1.00  0.00     0.111 A 
ATOM      6  C   UNL     1      40.794   7.318   6.545  1.00  0.00     0.134 A 
ATOM      7  C   UNL     1      40.247   8.590   6.334  1.00  0.00     0.093 A 
ATOM      8  C   UNL     1      38.905   8.853   6.616  1.00  0.00     0.123 A 
ATOM      9  C   UNL     1      38.093   7.840   7.123  1.00  0.00     0.094 A 
ATOM     10  C   UNL     1      38.619   6.572   7.380  1.00  0.00     0.146 A 
ATOM     11  O   UNL     1      37.814   5.639   7.872  1.00  0.00    -0.452 OA
ENDROOT
BRANCH   1  12
ATOM     12  C   UNL     1      37.210   3.454   8.692  1.00  0.00     0.025 A 
ATOM     13  C   UNL     1      36.095   3.937   9.394  1.00  0.00     0.016 A 
ATOM     14  C   UNL     1      35.123   3.055   9.875  1.00  0.00     0.051 A 
ATOM     15  C   UNL     1      35.245   1.678   9.646  1.00  0.00     0.157 A 
ATOM     16  C   UNL     1      37.318   2.072   8.446  1.00  0.00     0.062 A 
ATOM     17  C   UNL     1      36.342   1.187   8.927  1.00  0.00     0.158 A 
BRANCH  15  18
ATOM     18  O   UNL     1      34.280   0.795  10.125  1.00  0.00    -0.504 OA
ATOM     19  H   UNL     1      33.847   0.106   9.522  1.00  0.00     0.293 HD
ENDBRANCH  15  18
BRANCH  17  20
ATOM     20  O   UNL     1      36.454  -0.182   8.689  1.00  0.00    -0.504 OA
ATOM     21  H   UNL     1      37.306  -0.689   8.897  1.00  0.00     0.293 HD
ENDBRANCH  17  20
ENDBRANCH   1  12
BRANCH   2  22
ATOM     22  O   UNL     1      40.020   2.801   8.417  1.00  0.00    -0.502 OA
ATOM     23  H   UNL     1      40.318   2.604   9.365  1.00  0.00     0.293 HD
ENDBRANCH   2  22
BRANCH   6  24
ATOM     24  O   UNL     1      42.119   7.134   6.141  1.00  0.00    -0.507 OA
ATOM     25  H   UNL     1      42.878   7.762   6.358  1.00  0.00     0.293 HD
ENDBRANCH   6  24
BRANCH   8  26
ATOM     26  O   UNL     1      38.364  10.117   6.387  1.00  0.00    -0.508 OA
ATOM     27  H   UNL     1      38.940  10.950   6.405  1.00  0.00     0.293 HD
ENDBRANCH   8  26
TORSDOF 6
ENDMDL
MODEL 5
REMARK VINA RESULT:    -5.592      1.338      2.759
REMARK INTER + INTRA:          -7.066
REMARK INTER:                  -6.942
REMARK INTRA:                  -0.125
REMARK UNBOUND:                -0.330
REMARK SMILES O=c1c(O)c(-c2ccc(O)c(O)c2)oc2cc(O)cc(O)c12
REMARK SMILES IDX 5 1 3 2 2 3 1 4 22 5 20 6 19 7 17 8 16 9 15 10 14 11 6 12
REMARK SMILES IDX 7 13 8 14 9 15 13 16 11 17 10 18 12 20 4 22 21 24 18 26
REMARK H PARENT 10 19 12 21 4 23 21 25 18 27
REMARK Flexibility Score: inf
ROOT
ATOM      1  C   UNL     1      37.753   4.735   8.261  1.00  0.00     0.180 A 
ATOM      2  C   UNL     1      36.896   5.812   8.550  1.00  0.00     0.208 A 
ATOM      3  C   UNL     1      37.282   7.108   8.174  1.00  0.00     0.238 A 
ATOM      4  O   UNL     1      36.488   8.062   8.387  1.00  0.00    -0.285 OA
ATOM      5  C   UNL     1      38.526   7.315   7.530  1.00  0.00     0.111 A 
ATOM      6  C   UNL     1      39.035   8.589   7.141  1.00  0.00     0.134 A 
ATOM      7  C   UNL     1      40.217   8.662   6.393  1.00  0.00     0.093 A 
ATOM      8  C   UNL     1      40.941   7.510   6.076  1.00  0.00     0.123 A 
ATOM      9  C   UNL     1      40.482   6.265   6.502  1.00  0.00     0.094 A 
ATOM     10  C   UNL     1      39.288   6.158   7.218  1.00  0.00     0.146 A 
ATOM     11  O   UNL     1      38.881   4.952   7.597  1.00  0.00    -0.452 OA
ENDROOT
BRANCH   1  12
ATOM     12  C   UNL     1      37.426   3.344   8.647  1.00  0.00     0.025 A 
ATOM     13  C   UNL     1      38.235   2.677   9.581  1.00  0.00     0.016 A 
ATOM     14  C   UNL     1      37.933   1.371   9.976  1.00  0.00     0.051 A 
ATOM     15  C   UNL     1      36.808   0.719   9.455  1.00  0.00     0.157 A 
ATOM     16  C   UNL     1      36.285   2.692   8.143  1.00  0.00     0.062 A 
ATOM     17  C   UNL     1      35.980   1.382   8.541  1.00  0.00     0.158 A 
BRANCH  15  18
ATOM     18  O   UNL     1      36.504  -0.584   9.845  1.00  0.00    -0.504 OA
ATOM     19  H   UNL     1      37.123  -1.358   9.636  1.00  0.00     0.293 HD
ENDBRANCH  15  18
BRANCH  17  20
ATOM     20  O   UNL     1      34.854   0.736   8.035  1.00  0.00    -0.504 OA
ATOM     21  H   UNL     1      34.797   0.450   7.064  1.00  0.00     0.293 HD
ENDBRANCH  17  20
ENDBRANCH   1  12
BRANCH   2  22
ATOM     22  O   UNL     1      35.663   5.584   9.167  1.00  0.00    -0.502 OA
ATOM     23  H   UNL     1      34.794   5.547   8.649  1.00  0.00     0.293 HD
ENDBRANCH   2  22
BRANCH   6  24
ATOM     24  O   UNL     1      38.441   9.807   7.485  1.00  0.00    -0.507 OA
ATOM     25  H   UNL     1      37.606  10.179   7.058  1.00  0.00     0.293 HD
ENDBRANCH   6  24
BRANCH   8  26
ATOM     26  O   UNL     1      42.124   7.592   5.345  1.00  0.00    -0.508 OA
ATOM     27  H   UNL     1      42.670   6.767   5.126  1.00  0.00     0.293 HD
ENDBRANCH   8  26
TORSDOF 6
ENDMDL
MODEL 6
REMARK VINA RESULT:    -5.139      2.578      6.595
REMARK INTER + INTRA:          -6.521
REMARK INTER:                  -6.307
REMARK INTRA:                  -0.214
REMARK UNBOUND:                -0.330
REMARK SMILES O=c1c(O)c(-c2ccc(O)c(O)c2)oc2cc(O)cc(O)c12
REMARK SMILES IDX 5 1 3 2 2 3 1 4 22 5 20 6 19 7 17 8 16 9 15 10 14 11 6 12
REMARK SMILES IDX 7 13 8 14 9 15 13 16 11 17 10 18 12 20 4 22 21 24 18 26
REMARK H PARENT 10 19 12 21 4 23 21 25 18 27
REMARK Flexibility Score: inf
ROOT
ATOM      1  C   UNL     1      36.916   5.391   8.709  1.00  0.00     0.180 A 
ATOM      2  C   UNL     1      38.319   5.434   8.627  1.00  0.00     0.208 A 
ATOM      3  C   UNL     1      39.054   4.275   8.921  1.00  0.00     0.238 A 
ATOM      4  O   UNL     1      40.306   4.304   8.794  1.00  0.00    -0.285 OA
ATOM      5  C   UNL     1      38.380   3.092   9.310  1.00  0.00     0.111 A 
ATOM      6  C   UNL     1      39.026   1.872   9.669  1.00  0.00     0.134 A 
ATOM      7  C   UNL     1      38.256   0.728   9.910  1.00  0.00     0.093 A 
ATOM      8  C   UNL     1      36.860   0.776   9.868  1.00  0.00     0.123 A 
ATOM      9  C   UNL     1      36.218   1.978   9.577  1.00  0.00     0.094 A 
ATOM     10  C   UNL     1      36.960   3.127   9.295  1.00  0.00     0.146 A 
ATOM     11  O   UNL     1      36.310   4.249   9.012  1.00  0.00    -0.452 OA
ENDROOT
BRANCH   1  12
ATOM     12  C   UNL     1      36.074   6.578   8.438  1.00  0.00     0.025 A 
ATOM     13  C   UNL     1      35.439   7.234   9.504  1.00  0.00     0.016 A 
ATOM     14  C   UNL     1      34.657   8.369   9.273  1.00  0.00     0.051 A 
ATOM     15  C   UNL     1      34.513   8.874   7.975  1.00  0.00     0.157 A 
ATOM     16  C   UNL     1      35.943   7.101   7.138  1.00  0.00     0.062 A 
ATOM     17  C   UNL     1      35.160   8.242   6.906  1.00  0.00     0.158 A 
BRANCH  15  18
ATOM     18  O   UNL     1      33.733  10.005   7.740  1.00  0.00    -0.504 OA
ATOM     19  H   UNL     1      34.001  10.916   8.091  1.00  0.00     0.293 HD
ENDBRANCH  15  18
BRANCH  17  20
ATOM     20  O   UNL     1      35.025   8.754   5.617  1.00  0.00    -0.504 OA
ATOM     21  H   UNL     1      35.770   8.674   4.934  1.00  0.00     0.293 HD
ENDBRANCH  17  20
ENDBRANCH   1  12
BRANCH   2  22
ATOM     22  O   UNL     1      38.964   6.605   8.220  1.00  0.00    -0.502 OA
ATOM     23  H   UNL     1      39.093   7.398   8.838  1.00  0.00     0.293 HD
ENDBRANCH   2  22
BRANCH   6  24
ATOM     24  O   UNL     1      40.408   1.738   9.830  1.00  0.00    -0.507 OA
ATOM     25  H   UNL     1      41.016   2.454  10.199  1.00  0.00     0.293 HD
ENDBRANCH   6  24
BRANCH   8  26
ATOM     26  O   UNL     1      36.101  -0.363  10.125  1.00  0.00    -0.508 OA
ATOM     27  H   UNL     1      35.819  -0.991   9.381  1.00  0.00     0.293 HD
ENDBRANCH   8  26
TORSDOF 6
ENDMDL
MODEL 7
REMARK VINA RESULT:    -4.879      1.924      6.776
REMARK INTER + INTRA:          -6.207
REMARK INTER:                  -5.884
REMARK INTRA:                  -0.323
REMARK UNBOUND:                -0.330
REMARK SMILES O=c1c(O)c(-c2ccc(O)c(O)c2)oc2cc(O)cc(O)c12
REMARK SMILES IDX 5 1 3 2 2 3 1 4 22 5 20 6 19 7 17 8 16 9 15 10 14 11 6 12
REMARK SMILES IDX 7 13 8 14 9 15 13 16 11 17 10 18 12 20 4 22 21 24 18 26
REMARK H PARENT 10 19 12 21 4 23 21 25 18 27
REMARK Flexibility Score: inf
ROOT
ATOM      1  C   UNL     1      38.038   4.589   9.072  1.00  0.00     0.180 A 
ATOM      2  C   UNL     1      38.723   3.361   9.050  1.00  0.00     0.208 A 
ATOM      3  C   UNL     1      38.011   2.179   9.307  1.00  0.00     0.238 A 
ATOM      4  O   UNL     1      38.618   1.079   9.233  1.00  0.00    -0.285 OA
ATOM      5  C   UNL     1      36.627   2.239   9.600  1.00  0.00     0.111 A 
ATOM      6  C   UNL     1      35.816   1.109   9.915  1.00  0.00     0.134 A 
ATOM      7  C   UNL     1      34.432   1.271  10.058  1.00  0.00     0.093 A 
ATOM      8  C   UNL     1      33.840   2.532   9.962  1.00  0.00     0.123 A 
ATOM      9  C   UNL     1      34.633   3.651   9.714  1.00  0.00     0.094 A 
ATOM     10  C   UNL     1      36.010   3.517   9.529  1.00  0.00     0.146 A 
ATOM     11  O   UNL     1      36.727   4.606   9.284  1.00  0.00    -0.452 OA
ENDROOT
BRANCH   1  12
ATOM     12  C   UNL     1      38.724   5.879   8.835  1.00  0.00     0.025 A 
ATOM     13  C   UNL     1      39.319   6.555   9.913  1.00  0.00     0.016 A 
ATOM     14  C   UNL     1      39.991   7.763   9.708  1.00  0.00     0.051 A 
ATOM     15  C   UNL     1      40.091   8.304   8.420  1.00  0.00     0.157 A 
ATOM     16  C   UNL     1      38.846   6.416   7.540  1.00  0.00     0.062 A 
ATOM     17  C   UNL     1      39.523   7.628   7.334  1.00  0.00     0.158 A 
BRANCH  15  18
ATOM     18  O   UNL     1      40.759   9.509   8.211  1.00  0.00    -0.504 OA
ATOM     19  H   UNL     1      41.540   9.790   8.792  1.00  0.00     0.293 HD
ENDBRANCH  15  18
BRANCH  17  20
ATOM     20  O   UNL     1      39.636   8.162   6.052  1.00  0.00    -0.504 OA
ATOM     21  H   UNL     1      39.857   9.139   5.901  1.00  0.00     0.293 HD
ENDBRANCH  17  20
ENDBRANCH   1  12
BRANCH   2  22
ATOM     22  O   UNL     1      40.085   3.322   8.738  1.00  0.00    -0.502 OA
ATOM     23  H   UNL     1      40.776   3.862   9.246  1.00  0.00     0.293 HD
ENDBRANCH   2  22
BRANCH   6  24
ATOM     24  O   UNL     1      36.317  -0.179  10.125  1.00  0.00    -0.507 OA
ATOM     25  H   UNL     1      37.239  -0.385  10.479  1.00  0.00     0.293 HD
ENDBRANCH   6  24
BRANCH   8  26
ATOM     26  O   UNL     1      32.465   2.687  10.122  1.00  0.00    -0.508 OA
ATOM     27  H   UNL     1      31.990   2.371  10.960  1.00  0.00     0.293 HD
ENDBRANCH   8  26
TORSDOF 6
ENDMDL
MODEL 8
REMARK VINA RESULT:    -4.642     11.237     13.625
REMARK INTER + INTRA:          -5.921
REMARK INTER:                  -6.442
REMARK INTRA:                   0.521
REMARK UNBOUND:                -0.330
REMARK SMILES O=c1c(O)c(-c2ccc(O)c(O)c2)oc2cc(O)cc(O)c12
REMARK SMILES IDX 5 1 3 2 2 3 1 4 22 5 20 6 19 7 17 8 16 9 15 10 14 11 6 12
REMARK SMILES IDX 7 13 8 14 9 15 13 16 11 17 10 18 12 20 4 22 21 24 18 26
REMARK H PARENT 10 19 12 21 4 23 21 25 18 27
REMARK Flexibility Score: inf
ROOT
ATOM      1  C   UNL     1      24.753   1.842   9.378  1.00  0.00     0.180 A 
ATOM      2  C   UNL     1      23.654   2.634   8.998  1.00  0.00     0.208 A 
ATOM      3  C   UNL     1      23.836   4.016   8.833  1.00  0.00     0.238 A 
ATOM      4  O   UNL     1      22.863   4.712   8.441  1.00  0.00    -0.285 OA
ATOM      5  C   UNL     1      25.108   4.593   9.066  1.00  0.00     0.111 A 
ATOM      6  C   UNL     1      25.396   5.986   8.969  1.00  0.00     0.134 A 
ATOM      7  C   UNL     1      26.719   6.428   9.093  1.00  0.00     0.093 A 
ATOM      8  C   UNL     1      27.755   5.534   9.376  1.00  0.00     0.123 A 
ATOM      9  C   UNL     1      27.474   4.178   9.532  1.00  0.00     0.094 A 
ATOM     10  C   UNL     1      26.170   3.702   9.378  1.00  0.00     0.146 A 
ATOM     11  O   UNL     1      25.947   2.402   9.525  1.00  0.00    -0.452 OA
ENDROOT
BRANCH   1  12
ATOM     12  C   UNL     1      24.634   0.383   9.594  1.00  0.00     0.025 A 
ATOM     13  C   UNL     1      23.364  -0.217   9.582  1.00  0.00     0.016 A 
ATOM     14  C   UNL     1      23.230  -1.597   9.763  1.00  0.00     0.051 A 
ATOM     15  C   UNL     1      24.365  -2.398   9.943  1.00  0.00     0.157 A 
ATOM     16  C   UNL     1      25.772  -0.429   9.754  1.00  0.00     0.062 A 
ATOM     17  C   UNL     1      25.638  -1.815   9.934  1.00  0.00     0.158 A 
BRANCH  15  18
ATOM     18  O   UNL     1      24.236  -3.773  10.125  1.00  0.00    -0.504 OA
ATOM     19  H   UNL     1      23.638  -4.333   9.529  1.00  0.00     0.293 HD
ENDBRANCH  15  18
BRANCH  17  20
ATOM     20  O   UNL     1      26.766  -2.616  10.099  1.00  0.00    -0.504 OA
ATOM     21  H   UNL     1      27.490  -2.665   9.392  1.00  0.00     0.293 HD
ENDBRANCH  17  20
ENDBRANCH   1  12
BRANCH   2  22
ATOM     22  O   UNL     1      22.413   2.042   8.752  1.00  0.00    -0.502 OA
ATOM     23  H   UNL     1      21.977   2.051   7.837  1.00  0.00     0.293 HD
ENDBRANCH   2  22
BRANCH   6  24
ATOM     24  O   UNL     1      24.425   6.974   8.781  1.00  0.00    -0.507 OA
ATOM     25  H   UNL     1      23.860   7.371   9.516  1.00  0.00     0.293 HD
ENDBRANCH   6  24
BRANCH   8  26
ATOM     26  O   UNL     1      29.066   5.984   9.514  1.00  0.00    -0.508 OA
ATOM     27  H   UNL     1      29.835   5.339   9.649  1.00  0.00     0.293 HD
ENDBRANCH   8  26
TORSDOF 6
ENDMDL
MODEL 9
REMARK VINA RESULT:    -4.358      2.888      5.453
REMARK INTER + INTRA:          -5.580
REMARK INTER:                  -5.641
REMARK INTRA:                   0.061
REMARK UNBOUND:                -0.330
REMARK SMILES O=c1c(O)c(-c2ccc(O)c(O)c2)oc2cc(O)cc(O)c12
REMARK SMILES IDX 5 1 3 2 2 3 1 4 22 5 20 6 19 7 17 8 16 9 15 10 14 11 6 12
REMARK SMILES IDX 7 13 8 14 9 15 13 16 11 17 10 18 12 20 4 22 21 24 18 26
REMARK H PARENT 10 19 12 21 4 23 21 25 18 27
REMARK Flexibility Score: inf
ROOT
ATOM      1  C   UNL     1      36.887   6.163   7.861  1.00  0.00     0.180 A 
ATOM      2  C   UNL     1      37.032   4.768   7.975  1.00  0.00     0.208 A 
ATOM      3  C   UNL     1      38.196   4.162   7.476  1.00  0.00     0.238 A 
ATOM      4  O   UNL     1      38.344   2.921   7.628  1.00  0.00    -0.285 OA
ATOM      5  C   UNL     1      39.192   4.953   6.854  1.00  0.00     0.111 A 
ATOM      6  C   UNL     1      40.391   4.439   6.277  1.00  0.00     0.134 A 
ATOM      7  C   UNL     1      41.366   5.328   5.806  1.00  0.00     0.093 A 
ATOM      8  C   UNL     1      41.157   6.708   5.832  1.00  0.00     0.123 A 
ATOM      9  C   UNL     1      39.963   7.217   6.339  1.00  0.00     0.094 A 
ATOM     10  C   UNL     1      38.987   6.358   6.850  1.00  0.00     0.146 A 
ATOM     11  O   UNL     1      37.868   6.885   7.333  1.00  0.00    -0.452 OA
ENDROOT
BRANCH   1  12
ATOM     12  C   UNL     1      35.680   6.870   8.342  1.00  0.00     0.025 A 
ATOM     13  C   UNL     1      35.203   6.623   9.640  1.00  0.00     0.016 A 
ATOM     14  C   UNL     1      34.077   7.296  10.122  1.00  0.00     0.051 A 
ATOM     15  C   UNL     1      33.421   8.238   9.319  1.00  0.00     0.157 A 
ATOM     16  C   UNL     1      35.029   7.833   7.547  1.00  0.00     0.062 A 
ATOM     17  C   UNL     1      33.900   8.510   8.032  1.00  0.00     0.158 A 
BRANCH  15  18
ATOM     18  O   UNL     1      32.297   8.910   9.795  1.00  0.00    -0.504 OA
ATOM     19  H   UNL     1      32.350   9.533  10.592  1.00  0.00     0.293 HD
ENDBRANCH  15  18
BRANCH  17  20
ATOM     20  O   UNL     1      33.254   9.458   7.241  1.00  0.00    -0.504 OA
ATOM     21  H   UNL     1      32.587  10.112   7.634  1.00  0.00     0.293 HD
ENDBRANCH  17  20
ENDBRANCH   1  12
BRANCH   2  22
ATOM     22  O   UNL     1      36.047   4.009   8.612  1.00  0.00    -0.502 OA
ATOM     23  H   UNL     1      35.066   4.262   8.590  1.00  0.00     0.293 HD
ENDBRANCH   2  22
BRANCH   6  24
ATOM     24  O   UNL     1      40.660   3.077   6.117  1.00  0.00    -0.507 OA
ATOM     25  H   UNL     1      40.765   2.420   6.876  1.00  0.00     0.293 HD
ENDBRANCH   6  24
BRANCH   8  26
ATOM     26  O   UNL     1      42.125   7.584   5.347  1.00  0.00    -0.508 OA
ATOM     27  H   UNL     1      41.893   8.317   4.686  1.00  0.00     0.293 HD
ENDBRANCH   8  26
TORSDOF 6
ENDMDL
