MODEL 1
REMARK VINA RESULT:    -3.323      0.000      0.000
REMARK INTER + INTRA:          -5.720
REMARK INTER:                  -5.265
REMARK INTRA:                  -0.454
REMARK UNBOUND:                -0.454
REMARK SMILES CCCCCCCCCCCC(=O)[O-]
REMARK SMILES IDX 7 1 8 2 9 3 10 4 11 5 12 6 13 7 14 8 6 9 5 10 4 11 3 12 2 13
REMARK SMILES IDX 1 14
REMARK H PARENT
REMARK Flexibility Score: inf
ROOT
ATOM      1  C   UNL     1      36.390 105.508 264.068  1.00  0.00     0.000 C 
ENDROOT
BRANCH   1   2
ATOM      2  C   UNL     1      35.302 104.429 264.193  1.00  0.00     0.000 C 
BRANCH   2   3
ATOM      3  C   UNL     1      34.898 104.222 265.660  1.00  0.00     0.000 C 
BRANCH   3   4
ATOM      4  C   UNL     1      34.875 105.531 266.470  1.00  0.00     0.006 C 
BRANCH   4   5
ATOM      5  C   UNL     1      34.875 105.322 267.994  1.00  0.00     0.053 C 
BRANCH   5   6
ATOM      6  C   UNL     1      35.245 106.565 268.745  1.00  0.00     0.041 C 
ATOM      7  O   UNL     1      35.405 107.652 268.130  1.00  0.00    -0.550 OA
ATOM      8  O   UNL     1      35.380 106.533 270.127  1.00  0.00    -0.550 OA
ENDBRANCH   5   6
ENDBRANCH   4   5
ENDBRANCH   3   4
ENDBRANCH   2   3
ENDBRANCH   1   2
BRANCH   1   9
ATOM      9  C   UNL     1      36.207 106.395 262.826  1.00  0.00     0.000 C 
BRANCH   9  10
ATOM     10  C   UNL     1      37.290 106.152 261.760  1.00  0.00    -0.000 C 
BRANCH  10  11
ATOM     11  C   UNL     1      36.860 105.117 260.707  1.00  0.00    -0.000 C 
BRANCH  11  12
ATOM     12  C   UNL     1      37.798 105.091 259.488  1.00  0.00    -0.000 C 
BRANCH  12  13
ATOM     13  C   UNL     1      37.034 105.160 258.156  1.00  0.00    -0.003 C 
ATOM     14  C   UNL     1      36.047 106.325 258.099  1.00  0.00     0.004 C 
ENDBRANCH  12  13
ENDBRANCH  11  12
ENDBRANCH  10  11
ENDBRANCH   9  10
ENDBRANCH   1   9
TORSDOF 10
ENDMDL
MODEL 2
REMARK VINA RESULT:    -2.860      3.996      7.675
REMARK INTER + INTRA:          -4.986
REMARK INTER:                  -4.495
REMARK INTRA:                  -0.491
REMARK UNBOUND:                -0.454
REMARK SMILES CCCCCCCCCCCC(=O)[O-]
REMARK SMILES IDX 7 1 8 2 9 3 10 4 11 5 12 6 13 7 14 8 6 9 5 10 4 11 3 12 2 13
REMARK SMILES IDX 1 14
REMARK H PARENT
REMARK Flexibility Score: inf
ROOT
ATOM      1  C   UNL     1      34.875 106.102 263.590  1.00  0.00     0.000 C 
ENDROOT
BRANCH   1   2
ATOM      2  C   UNL     1      34.914 104.664 263.050  1.00  0.00     0.000 C 
BRANCH   2   3
ATOM      3  C   UNL     1      36.032 104.496 262.011  1.00  0.00     0.000 C 
BRANCH   3   4
ATOM      4  C   UNL     1      36.912 105.751 261.865  1.00  0.00     0.006 C 
BRANCH   4   5
ATOM      5  C   UNL     1      37.882 105.698 260.671  1.00  0.00     0.053 C 
BRANCH   5   6
ATOM      6  C   UNL     1      37.175 105.781 259.352  1.00  0.00     0.041 C 
ATOM      7  O   UNL     1      36.270 106.638 259.172  1.00  0.00    -0.550 OA
ATOM      8  O   UNL     1      37.538 104.937 258.310  1.00  0.00    -0.550 OA
ENDBRANCH   5   6
ENDBRANCH   4   5
ENDBRANCH   3   4
ENDBRANCH   2   3
ENDBRANCH   1   2
BRANCH   1   9
ATOM      9  C   UNL     1      34.903 106.160 265.126  1.00  0.00     0.000 C 
BRANCH   9  10
ATOM     10  C   UNL     1      34.886 107.602 265.665  1.00  0.00    -0.000 C 
BRANCH  10  11
ATOM     11  C   UNL     1      35.693 107.756 266.965  1.00  0.00    -0.000 C 
BRANCH  11  12
ATOM     12  C   UNL     1      34.876 107.382 268.214  1.00  0.00    -0.000 C 
BRANCH  12  13
ATOM     13  C   UNL     1      35.488 106.202 268.986  1.00  0.00    -0.003 C 
ATOM     14  C   UNL     1      35.205 104.852 268.328  1.00  0.00     0.004 C 
ENDBRANCH  12  13
ENDBRANCH  11  12
ENDBRANCH  10  11
ENDBRANCH   9  10
ENDBRANCH   1   9
TORSDOF 10
ENDMDL
MODEL 3
REMARK VINA RESULT:    -2.724      1.467      2.495
REMARK INTER + INTRA:          -4.771
REMARK INTER:                  -4.287
REMARK INTRA:                  -0.484
REMARK UNBOUND:                -0.454
REMARK SMILES CCCCCCCCCCCC(=O)[O-]
REMARK SMILES IDX 7 1 8 2 9 3 10 4 11 5 12 6 13 7 14 8 6 9 5 10 4 11 3 12 2 13
REMARK SMILES IDX 1 14
REMARK H PARENT
REMARK Flexibility Score: inf
ROOT
ATOM      1  C   UNL     1      34.877 106.022 265.709  1.00  0.00     0.000 C 
ENDROOT
BRANCH   1   2
ATOM      2  C   UNL     1      34.941 107.541 265.485  1.00  0.00     0.000 C 
BRANCH   2   3
ATOM      3  C   UNL     1      34.875 108.298 266.820  1.00  0.00     0.000 C 
BRANCH   3   4
ATOM      4  C   UNL     1      35.792 107.696 267.900  1.00  0.00     0.006 C 
BRANCH   4   5
ATOM      5  C   UNL     1      35.044 107.206 269.152  1.00  0.00     0.053 C 
BRANCH   5   6
ATOM      6  C   UNL     1      35.583 105.909 269.673  1.00  0.00     0.041 C 
ATOM      7  O   UNL     1      34.925 104.845 269.527  1.00  0.00    -0.550 OA
ATOM      8  O   UNL     1      36.828 105.865 270.289  1.00  0.00    -0.550 OA
ENDBRANCH   5   6
ENDBRANCH   4   5
ENDBRANCH   3   4
ENDBRANCH   2   3
ENDBRANCH   1   2
BRANCH   1   9
ATOM      9  C   UNL     1      35.428 105.222 264.517  1.00  0.00     0.000 C 
BRANCH   9  10
ATOM     10  C   UNL     1      35.179 105.921 263.169  1.00  0.00    -0.000 C 
BRANCH  10  11
ATOM     11  C   UNL     1      36.380 105.808 262.215  1.00  0.00    -0.000 C 
BRANCH  11  12
ATOM     12  C   UNL     1      36.282 104.584 261.287  1.00  0.00    -0.000 C 
BRANCH  12  13
ATOM     13  C   UNL     1      37.101 104.757 259.997  1.00  0.00    -0.003 C 
ATOM     14  C   UNL     1      36.877 106.114 259.331  1.00  0.00     0.004 C 
ENDBRANCH  12  13
ENDBRANCH  11  12
ENDBRANCH  10  11
ENDBRANCH   9  10
ENDBRANCH   1   9
TORSDOF 10
ENDMDL
MODEL 4
REMARK VINA RESULT:    -2.362      1.382      2.202
REMARK INTER + INTRA:          -4.197
REMARK INTER:                  -3.683
REMARK INTRA:                  -0.514
REMARK UNBOUND:                -0.454
REMARK SMILES CCCCCCCCCCCC(=O)[O-]
REMARK SMILES IDX 7 1 8 2 9 3 10 4 11 5 12 6 13 7 14 8 6 9 5 10 4 11 3 12 2 13
REMARK SMILES IDX 1 14
REMARK H PARENT
REMARK Flexibility Score: inf
ROOT
ATOM      1  C   UNL     1      37.995 106.483 262.548  1.00  0.00     0.000 C 
ENDROOT
BRANCH   1   2
ATOM      2  C   UNL     1      36.858 106.772 263.540  1.00  0.00     0.000 C 
BRANCH   2   3
ATOM      3  C   UNL     1      35.913 105.568 263.660  1.00  0.00     0.000 C 
BRANCH   3   4
ATOM      4  C   UNL     1      34.875 105.726 264.785  1.00  0.00     0.006 C 
BRANCH   4   5
ATOM      5  C   UNL     1      34.912 107.098 265.482  1.00  0.00     0.053 C 
BRANCH   5   6
ATOM      6  C   UNL     1      34.971 106.983 266.974  1.00  0.00     0.041 C 
ATOM      7  O   UNL     1      35.042 105.851 267.521  1.00  0.00    -0.550 OA
ATOM      8  O   UNL     1      34.985 108.127 267.764  1.00  0.00    -0.550 OA
ENDBRANCH   5   6
ENDBRANCH   4   5
ENDBRANCH   3   4
ENDBRANCH   2   3
ENDBRANCH   1   2
BRANCH   1   9
ATOM      9  C   UNL     1      37.494 105.860 261.235  1.00  0.00     0.000 C 
BRANCH   9  10
ATOM     10  C   UNL     1      38.642 105.379 260.330  1.00  0.00    -0.000 C 
BRANCH  10  11
ATOM     11  C   UNL     1      38.173 105.060 258.901  1.00  0.00    -0.000 C 
BRANCH  11  12
ATOM     12  C   UNL     1      36.640 104.982 258.786  1.00  0.00    -0.000 C 
BRANCH  12  13
ATOM     13  C   UNL     1      36.062 106.079 257.877  1.00  0.00    -0.003 C 
ATOM     14  C   UNL     1      35.961 107.435 258.576  1.00  0.00     0.004 C 
ENDBRANCH  12  13
ENDBRANCH  11  12
ENDBRANCH  10  11
ENDBRANCH   9  10
ENDBRANCH   1   9
TORSDOF 10
ENDMDL
MODEL 5
REMARK VINA RESULT:    -2.289      4.450      7.902
REMARK INTER + INTRA:          -4.082
REMARK INTER:                  -4.128
REMARK INTRA:                   0.046
REMARK UNBOUND:                -0.454
REMARK SMILES CCCCCCCCCCCC(=O)[O-]
REMARK SMILES IDX 7 1 8 2 9 3 10 4 11 5 12 6 13 7 14 8 6 9 5 10 4 11 3 12 2 13
REMARK SMILES IDX 1 14
REMARK H PARENT
REMARK Flexibility Score: inf
ROOT
ATOM      1  C   UNL     1      35.710 106.033 262.939  1.00  0.00     0.000 C 
ENDROOT
BRANCH   1   2
ATOM      2  C   UNL     1      37.186 106.205 263.332  1.00  0.00     0.000 C 
BRANCH   2   3
ATOM      3  C   UNL     1      38.038 106.591 262.114  1.00  0.00     0.000 C 
BRANCH   3   4
ATOM      4  C   UNL     1      37.813 105.667 260.904  1.00  0.00     0.006 C 
BRANCH   4   5
ATOM      5  C   UNL     1      36.902 106.269 259.819  1.00  0.00     0.053 C 
BRANCH   5   6
ATOM      6  C   UNL     1      36.934 105.486 258.542  1.00  0.00     0.041 C 
ATOM      7  O   UNL     1      35.878 105.319 257.875  1.00  0.00    -0.550 OA
ATOM      8  O   UNL     1      38.133 104.970 258.067  1.00  0.00    -0.550 OA
ENDBRANCH   5   6
ENDBRANCH   4   5
ENDBRANCH   3   4
ENDBRANCH   2   3
ENDBRANCH   1   2
BRANCH   1   9
ATOM      9  C   UNL     1      34.956 105.068 263.869  1.00  0.00     0.000 C 
BRANCH   9  10
ATOM     10  C   UNL     1      34.963 105.533 265.336  1.00  0.00    -0.000 C 
BRANCH  10  11
ATOM     11  C   UNL     1      35.138 107.055 265.473  1.00  0.00    -0.000 C 
BRANCH  11  12
ATOM     12  C   UNL     1      34.876 107.552 266.906  1.00  0.00    -0.000 C 
BRANCH  12  13
ATOM     13  C   UNL     1      35.597 106.702 267.964  1.00  0.00    -0.003 C 
ATOM     14  C   UNL     1      34.966 106.821 269.351  1.00  0.00     0.004 C 
ENDBRANCH  12  13
ENDBRANCH  11  12
ENDBRANCH  10  11
ENDBRANCH   9  10
ENDBRANCH   1   9
TORSDOF 10
ENDMDL
MODEL 6
REMARK VINA RESULT:    -2.069      3.927      7.982
REMARK INTER + INTRA:          -3.734
REMARK INTER:                  -3.280
REMARK INTRA:                  -0.453
REMARK UNBOUND:                -0.454
REMARK SMILES CCCCCCCCCCCC(=O)[O-]
REMARK SMILES IDX 7 1 8 2 9 3 10 4 11 5 12 6 13 7 14 8 6 9 5 10 4 11 3 12 2 13
REMARK SMILES IDX 1 14
REMARK H PARENT
REMARK Flexibility Score: inf
ROOT
ATOM      1  C   UNL     1      35.181 105.522 266.128  1.00  0.00     0.000 C 
ENDROOT
BRANCH   1   2
ATOM      2  C   UNL     1      35.193 105.005 264.680  1.00  0.00     0.000 C 
BRANCH   2   3
ATOM      3  C   UNL     1      35.488 106.143 263.692  1.00  0.00     0.000 C 
BRANCH   3   4
ATOM      4  C   UNL     1      35.929 105.639 262.307  1.00  0.00     0.006 C 
BRANCH   4   5
ATOM      5  C   UNL     1      37.305 106.163 261.860  1.00  0.00     0.053 C 
BRANCH   5   6
ATOM      6  C   UNL     1      37.640 105.775 260.452  1.00  0.00     0.041 C 
ATOM      7  O   UNL     1      38.602 104.995 260.222  1.00  0.00    -0.550 OA
ATOM      8  O   UNL     1      36.869 106.244 259.395  1.00  0.00    -0.550 OA
ENDBRANCH   5   6
ENDBRANCH   4   5
ENDBRANCH   3   4
ENDBRANCH   2   3
ENDBRANCH   1   2
BRANCH   1   9
ATOM      9  C   UNL     1      35.079 107.054 266.211  1.00  0.00     0.000 C 
BRANCH   9  10
ATOM     10  C   UNL     1      35.579 107.609 267.556  1.00  0.00    -0.000 C 
BRANCH  10  11
ATOM     11  C   UNL     1      34.875 106.961 268.760  1.00  0.00    -0.000 C 
BRANCH  11  12
ATOM     12  C   UNL     1      35.825 106.088 269.599  1.00  0.00    -0.000 C 
BRANCH  12  13
ATOM     13  C   UNL     1      37.142 106.806 269.935  1.00  0.00    -0.003 C 
ATOM     14  C   UNL     1      37.962 106.074 270.996  1.00  0.00     0.004 C 
ENDBRANCH  12  13
ENDBRANCH  11  12
ENDBRANCH  10  11
ENDBRANCH   9  10
ENDBRANCH   1   9
TORSDOF 10
ENDMDL
MODEL 7
REMARK VINA RESULT:    -0.665      2.693      3.671
REMARK INTER + INTRA:          -1.508
REMARK INTER:                  -0.812
REMARK INTRA:                  -0.696
REMARK UNBOUND:                -0.454
REMARK SMILES CCCCCCCCCCCC(=O)[O-]
REMARK SMILES IDX 7 1 8 2 9 3 10 4 11 5 12 6 13 7 14 8 6 9 5 10 4 11 3 12 2 13
REMARK SMILES IDX 1 14
REMARK H PARENT
REMARK Flexibility Score: inf
ROOT
ATOM      1  C   UNL     1      38.738 106.442 262.612  1.00  0.00     0.000 C 
ENDROOT
BRANCH   1   2
ATOM      2  C   UNL     1      37.235 106.732 262.754  1.00  0.00     0.000 C 
BRANCH   2   3
ATOM      3  C   UNL     1      36.837 106.866 264.231  1.00  0.00     0.000 C 
BRANCH   3   4
ATOM      4  C   UNL     1      35.400 106.393 264.514  1.00  0.00     0.006 C 
BRANCH   4   5
ATOM      5  C   UNL     1      34.875 105.355 263.508  1.00  0.00     0.053 C 
BRANCH   5   6
ATOM      6  C   UNL     1      35.091 103.946 263.970  1.00  0.00     0.041 C 
ATOM      7  O   UNL     1      35.016 102.992 263.151  1.00  0.00    -0.550 OA
ATOM      8  O   UNL     1      35.409 103.686 265.297  1.00  0.00    -0.550 OA
ENDBRANCH   5   6
ENDBRANCH   4   5
ENDBRANCH   3   4
ENDBRANCH   2   3
ENDBRANCH   1   2
BRANCH   1   9
ATOM      9  C   UNL     1      39.104 105.862 261.236  1.00  0.00     0.000 C 
BRANCH   9  10
ATOM     10  C   UNL     1      37.874 105.361 260.458  1.00  0.00    -0.000 C 
BRANCH  10  11
ATOM     11  C   UNL     1      38.245 104.756 259.094  1.00  0.00    -0.000 C 
BRANCH  11  12
ATOM     12  C   UNL     1      37.510 105.438 257.926  1.00  0.00    -0.000 C 
BRANCH  12  13
ATOM     13  C   UNL     1      36.059 105.802 258.278  1.00  0.00    -0.003 C 
ATOM     14  C   UNL     1      35.748 107.281 258.051  1.00  0.00     0.004 C 
ENDBRANCH  12  13
ENDBRANCH  11  12
ENDBRANCH  10  11
ENDBRANCH   9  10
ENDBRANCH   1   9
TORSDOF 10
ENDMDL
