MODEL 1
REMARK VINA RESULT:    -2.742      0.000      0.000
REMARK INTER + INTRA:          -5.357
REMARK INTER:                  -4.345
REMARK INTRA:                  -1.012
REMARK UNBOUND:                -1.012
REMARK SMILES CCCCCCCCCCCC(=O)[O-]
REMARK SMILES IDX 7 1 8 2 9 3 10 4 11 5 12 6 13 7 14 8 6 9 5 10 4 11 3 12 2 13
REMARK SMILES IDX 1 14
REMARK H PARENT
REMARK Flexibility Score: inf
ROOT
ATOM      1  C   UNL     1      14.417  27.619  20.251  1.00  0.00     0.000 C 
ENDROOT
BRANCH   1   2
ATOM      2  C   UNL     1      14.424  29.091  20.702  1.00  0.00     0.000 C 
BRANCH   2   3
ATOM      3  C   UNL     1      13.011  29.690  20.777  1.00  0.00     0.000 C 
BRANCH   3   4
ATOM      4  C   UNL     1      12.471  30.107  19.398  1.00  0.00     0.006 C 
BRANCH   4   5
ATOM      5  C   UNL     1      13.586  30.601  18.466  1.00  0.00     0.053 C 
BRANCH   5   6
ATOM      6  C   UNL     1      13.513  29.947  17.121  1.00  0.00     0.041 C 
ATOM      7  O   UNL     1      14.072  28.835  16.925  1.00  0.00    -0.550 OA
ATOM      8  O   UNL     1      12.798  30.548  16.092  1.00  0.00    -0.550 OA
ENDBRANCH   5   6
ENDBRANCH   4   5
ENDBRANCH   3   4
ENDBRANCH   2   3
ENDBRANCH   1   2
BRANCH   1   9
ATOM      9  C   UNL     1      14.062  26.651  21.392  1.00  0.00     0.000 C 
BRANCH   9  10
ATOM     10  C   UNL     1      14.971  26.832  22.621  1.00  0.00    -0.000 C 
BRANCH  10  11
ATOM     11  C   UNL     1      14.206  26.686  23.946  1.00  0.00    -0.000 C 
BRANCH  11  12
ATOM     12  C   UNL     1      12.767  27.225  23.862  1.00  0.00    -0.000 C 
BRANCH  12  13
ATOM     13  C   UNL     1      12.681  28.722  24.201  1.00  0.00    -0.003 C 
ATOM     14  C   UNL     1      13.138  29.032  25.626  1.00  0.00     0.004 C 
ENDBRANCH  12  13
ENDBRANCH  11  12
ENDBRANCH  10  11
ENDBRANCH   9  10
ENDBRANCH   1   9
TORSDOF 10
ENDMDL
MODEL 2
REMARK VINA RESULT:    -2.709     22.630     23.661
REMARK INTER + INTRA:          -5.305
REMARK INTER:                  -4.907
REMARK INTRA:                  -0.398
REMARK UNBOUND:                -1.012
REMARK SMILES CCCCCCCCCCCC(=O)[O-]
REMARK SMILES IDX 7 1 8 2 9 3 10 4 11 5 12 6 13 7 14 8 6 9 5 10 4 11 3 12 2 13
REMARK SMILES IDX 1 14
REMARK H PARENT
REMARK Flexibility Score: inf
ROOT
ATOM      1  C   UNL     1      -3.647  17.082   8.847  1.00  0.00     0.000 C 
ENDROOT
BRANCH   1   2
ATOM      2  C   UNL     1      -4.111  15.622   8.999  1.00  0.00     0.000 C 
BRANCH   2   3
ATOM      3  C   UNL     1      -3.316  14.656   8.109  1.00  0.00     0.000 C 
BRANCH   3   4
ATOM      4  C   UNL     1      -3.053  13.303   8.793  1.00  0.00     0.006 C 
BRANCH   4   5
ATOM      5  C   UNL     1      -2.785  13.457  10.296  1.00  0.00     0.053 C 
BRANCH   5   6
ATOM      6  C   UNL     1      -1.322  13.389  10.609  1.00  0.00     0.041 C 
ATOM      7  O   UNL     1      -0.687  12.314  10.443  1.00  0.00    -0.550 OA
ATOM      8  O   UNL     1      -0.651  14.523  11.049  1.00  0.00    -0.550 OA
ENDBRANCH   5   6
ENDBRANCH   4   5
ENDBRANCH   3   4
ENDBRANCH   2   3
ENDBRANCH   1   2
BRANCH   1   9
ATOM      9  C   UNL     1      -4.696  18.093   9.343  1.00  0.00     0.000 C 
BRANCH   9  10
ATOM     10  C   UNL     1      -4.907  18.023  10.866  1.00  0.00    -0.000 C 
BRANCH  10  11
ATOM     11  C   UNL     1      -4.813  19.402  11.537  1.00  0.00    -0.000 C 
BRANCH  11  12
ATOM     12  C   UNL     1      -4.669  19.309  13.067  1.00  0.00    -0.000 C 
BRANCH  12  13
ATOM     13  C   UNL     1      -4.447  20.682  13.720  1.00  0.00    -0.003 C 
ATOM     14  C   UNL     1      -3.155  20.745  14.536  1.00  0.00     0.004 C 
ENDBRANCH  12  13
ENDBRANCH  11  12
ENDBRANCH  10  11
ENDBRANCH   9  10
ENDBRANCH   1   9
TORSDOF 10
ENDMDL
MODEL 3
REMARK VINA RESULT:    -2.561      1.313      2.090
REMARK INTER + INTRA:          -5.070
REMARK INTER:                  -4.231
REMARK INTRA:                  -0.839
REMARK UNBOUND:                -1.012
REMARK SMILES CCCCCCCCCCCC(=O)[O-]
REMARK SMILES IDX 7 1 8 2 9 3 10 4 11 5 12 6 13 7 14 8 6 9 5 10 4 11 3 12 2 13
REMARK SMILES IDX 1 14
REMARK H PARENT
REMARK Flexibility Score: inf
ROOT
ATOM      1  C   UNL     1      13.955  26.662  21.644  1.00  0.00     0.000 C 
ENDROOT
BRANCH   1   2
ATOM      2  C   UNL     1      14.763  26.646  20.334  1.00  0.00     0.000 C 
BRANCH   2   3
ATOM      3  C   UNL     1      14.927  28.048  19.726  1.00  0.00     0.000 C 
BRANCH   3   4
ATOM      4  C   UNL     1      13.808  29.012  20.156  1.00  0.00     0.006 C 
BRANCH   4   5
ATOM      5  C   UNL     1      13.840  30.326  19.363  1.00  0.00     0.053 C 
BRANCH   5   6
ATOM      6  C   UNL     1      12.564  30.550  18.611  1.00  0.00     0.041 C 
ATOM      7  O   UNL     1      12.468  30.199  17.405  1.00  0.00    -0.550 OA
ATOM      8  O   UNL     1      11.468  31.114  19.252  1.00  0.00    -0.550 OA
ENDBRANCH   5   6
ENDBRANCH   4   5
ENDBRANCH   3   4
ENDBRANCH   2   3
ENDBRANCH   1   2
BRANCH   1   9
ATOM      9  C   UNL     1      14.849  26.583  22.893  1.00  0.00     0.000 C 
BRANCH   9  10
ATOM     10  C   UNL     1      14.070  26.158  24.150  1.00  0.00    -0.000 C 
BRANCH  10  11
ATOM     11  C   UNL     1      14.356  27.067  25.356  1.00  0.00    -0.000 C 
BRANCH  11  12
ATOM     12  C   UNL     1      14.149  28.558  25.037  1.00  0.00    -0.000 C 
BRANCH  12  13
ATOM     13  C   UNL     1      12.663  28.939  24.953  1.00  0.00    -0.003 C 
ATOM     14  C   UNL     1      12.204  29.215  23.521  1.00  0.00     0.004 C 
ENDBRANCH  12  13
ENDBRANCH  11  12
ENDBRANCH  10  11
ENDBRANCH   9  10
ENDBRANCH   1   9
TORSDOF 10
ENDMDL
MODEL 4
REMARK VINA RESULT:    -2.472      3.027      6.450
REMARK INTER + INTRA:          -4.928
REMARK INTER:                  -4.100
REMARK INTRA:                  -0.828
REMARK UNBOUND:                -1.012
REMARK SMILES CCCCCCCCCCCC(=O)[O-]
REMARK SMILES IDX 7 1 8 2 9 3 10 4 11 5 12 6 13 7 14 8 6 9 5 10 4 11 3 12 2 13
REMARK SMILES IDX 1 14
REMARK H PARENT
REMARK Flexibility Score: inf
ROOT
ATOM      1  C   UNL     1      13.802  29.806  20.937  1.00  0.00     0.000 C 
ENDROOT
BRANCH   1   2
ATOM      2  C   UNL     1      13.540  30.182  22.407  1.00  0.00     0.000 C 
BRANCH   2   3
ATOM      3  C   UNL     1      12.225  29.593  22.939  1.00  0.00     0.000 C 
BRANCH   3   4
ATOM      4  C   UNL     1      12.401  28.884  24.294  1.00  0.00     0.006 C 
BRANCH   4   5
ATOM      5  C   UNL     1      13.751  28.162  24.398  1.00  0.00     0.053 C 
BRANCH   5   6
ATOM      6  C   UNL     1      13.666  26.753  23.895  1.00  0.00     0.041 C 
ATOM      7  O   UNL     1      13.706  26.518  22.659  1.00  0.00    -0.550 OA
ATOM      8  O   UNL     1      13.579  25.698  24.794  1.00  0.00    -0.550 OA
ENDBRANCH   5   6
ENDBRANCH   4   5
ENDBRANCH   3   4
ENDBRANCH   2   3
ENDBRANCH   1   2
BRANCH   1   9
ATOM      9  C   UNL     1      12.532  29.876  20.072  1.00  0.00     0.000 C 
BRANCH   9  10
ATOM     10  C   UNL     1      12.639  30.926  18.952  1.00  0.00    -0.000 C 
BRANCH  10  11
ATOM     11  C   UNL     1      12.538  30.303  17.550  1.00  0.00    -0.000 C 
BRANCH  11  12
ATOM     12  C   UNL     1      13.709  30.705  16.637  1.00  0.00    -0.000 C 
BRANCH  12  13
ATOM     13  C   UNL     1      15.002  29.945  16.972  1.00  0.00    -0.003 C 
ATOM     14  C   UNL     1      14.771  28.448  17.178  1.00  0.00     0.004 C 
ENDBRANCH  12  13
ENDBRANCH  11  12
ENDBRANCH  10  11
ENDBRANCH   9  10
ENDBRANCH   1   9
TORSDOF 10
ENDMDL
MODEL 5
REMARK VINA RESULT:    -2.315      3.713      6.474
REMARK INTER + INTRA:          -4.680
REMARK INTER:                  -3.999
REMARK INTRA:                  -0.681
REMARK UNBOUND:                -1.012
REMARK SMILES CCCCCCCCCCCC(=O)[O-]
REMARK SMILES IDX 7 1 8 2 9 3 10 4 11 5 12 6 13 7 14 8 6 9 5 10 4 11 3 12 2 13
REMARK SMILES IDX 1 14
REMARK H PARENT
REMARK Flexibility Score: inf
ROOT
ATOM      1  C   UNL     1      14.018  27.568  21.294  1.00  0.00     0.000 C 
ENDROOT
BRANCH   1   2
ATOM      2  C   UNL     1      13.636  26.748  22.539  1.00  0.00     0.000 C 
BRANCH   2   3
ATOM      3  C   UNL     1      14.740  26.750  23.607  1.00  0.00     0.000 C 
BRANCH   3   4
ATOM      4  C   UNL     1      14.179  26.664  25.037  1.00  0.00     0.006 C 
BRANCH   4   5
ATOM      5  C   UNL     1      14.613  27.856  25.901  1.00  0.00     0.053 C 
BRANCH   5   6
ATOM      6  C   UNL     1      13.508  28.854  26.064  1.00  0.00     0.041 C 
ATOM      7  O   UNL     1      13.079  29.494  25.068  1.00  0.00    -0.550 OA
ATOM      8  O   UNL     1      12.927  29.052  27.311  1.00  0.00    -0.550 OA
ENDBRANCH   5   6
ENDBRANCH   4   5
ENDBRANCH   3   4
ENDBRANCH   2   3
ENDBRANCH   1   2
BRANCH   1   9
ATOM      9  C   UNL     1      14.784  26.738  20.249  1.00  0.00     0.000 C 
BRANCH   9  10
ATOM     10  C   UNL     1      15.035  27.517  18.946  1.00  0.00    -0.000 C 
BRANCH  10  11
ATOM     11  C   UNL     1      14.676  29.007  19.073  1.00  0.00    -0.000 C 
BRANCH  11  12
ATOM     12  C   UNL     1      14.029  29.571  17.795  1.00  0.00    -0.000 C 
BRANCH  12  13
ATOM     13  C   UNL     1      12.604  30.092  18.040  1.00  0.00    -0.003 C 
ATOM     14  C   UNL     1      12.341  30.426  19.508  1.00  0.00     0.004 C 
ENDBRANCH  12  13
ENDBRANCH  11  12
ENDBRANCH  10  11
ENDBRANCH   9  10
ENDBRANCH   1   9
TORSDOF 10
ENDMDL
MODEL 6
REMARK VINA RESULT:    -2.292      1.350      2.211
REMARK INTER + INTRA:          -4.644
REMARK INTER:                  -4.046
REMARK INTRA:                  -0.598
REMARK UNBOUND:                -1.012
REMARK SMILES CCCCCCCCCCCC(=O)[O-]
REMARK SMILES IDX 7 1 8 2 9 3 10 4 11 5 12 6 13 7 14 8 6 9 5 10 4 11 3 12 2 13
REMARK SMILES IDX 1 14
REMARK H PARENT
REMARK Flexibility Score: inf
ROOT
ATOM      1  C   UNL     1      13.593  28.851  21.162  1.00  0.00     0.000 C 
ENDROOT
BRANCH   1   2
ATOM      2  C   UNL     1      14.238  27.496  20.818  1.00  0.00     0.000 C 
BRANCH   2   3
ATOM      3  C   UNL     1      14.896  27.493  19.430  1.00  0.00     0.000 C 
BRANCH   3   4
ATOM      4  C   UNL     1      14.878  28.880  18.764  1.00  0.00     0.006 C 
BRANCH   4   5
ATOM      5  C   UNL     1      14.299  28.833  17.344  1.00  0.00     0.053 C 
BRANCH   5   6
ATOM      6  C   UNL     1      13.226  29.859  17.149  1.00  0.00     0.041 C 
ATOM      7  O   UNL     1      12.323  30.005  18.015  1.00  0.00    -0.550 OA
ATOM      8  O   UNL     1      13.243  30.680  16.028  1.00  0.00    -0.550 OA
ENDBRANCH   5   6
ENDBRANCH   4   5
ENDBRANCH   3   4
ENDBRANCH   2   3
ENDBRANCH   1   2
BRANCH   1   9
ATOM      9  C   UNL     1      13.329  29.017  22.668  1.00  0.00     0.000 C 
BRANCH   9  10
ATOM     10  C   UNL     1      13.415  27.683  23.431  1.00  0.00    -0.000 C 
BRANCH  10  11
ATOM     11  C   UNL     1      13.572  27.882  24.947  1.00  0.00    -0.000 C 
BRANCH  11  12
ATOM     12  C   UNL     1      12.927  29.188  25.444  1.00  0.00    -0.000 C 
BRANCH  12  13
ATOM     13  C   UNL     1      12.996  29.332  26.973  1.00  0.00    -0.003 C 
ATOM     14  C   UNL     1      14.364  28.951  27.540  1.00  0.00     0.004 C 
ENDBRANCH  12  13
ENDBRANCH  11  12
ENDBRANCH  10  11
ENDBRANCH   9  10
ENDBRANCH   1   9
TORSDOF 10
ENDMDL
MODEL 7
REMARK VINA RESULT:    -2.273      3.342      5.722
REMARK INTER + INTRA:          -4.613
REMARK INTER:                  -3.677
REMARK INTRA:                  -0.936
REMARK UNBOUND:                -1.012
REMARK SMILES CCCCCCCCCCCC(=O)[O-]
REMARK SMILES IDX 7 1 8 2 9 3 10 4 11 5 12 6 13 7 14 8 6 9 5 10 4 11 3 12 2 13
REMARK SMILES IDX 1 14
REMARK H PARENT
REMARK Flexibility Score: inf
ROOT
ATOM      1  C   UNL     1      12.340  30.001  19.102  1.00  0.00     0.000 C 
ENDROOT
BRANCH   1   2
ATOM      2  C   UNL     1      12.109  30.432  20.562  1.00  0.00     0.000 C 
BRANCH   2   3
ATOM      3  C   UNL     1      13.394  30.935  21.237  1.00  0.00     0.000 C 
BRANCH   3   4
ATOM      4  C   UNL     1      13.666  30.238  22.582  1.00  0.00     0.006 C 
BRANCH   4   5
ATOM      5  C   UNL     1      12.567  29.231  22.945  1.00  0.00     0.053 C 
BRANCH   5   6
ATOM      6  C   UNL     1      12.889  28.490  24.206  1.00  0.00     0.041 C 
ATOM      7  O   UNL     1      13.136  29.122  25.268  1.00  0.00    -0.550 OA
ATOM      8  O   UNL     1      12.881  27.101  24.218  1.00  0.00    -0.550 OA
ENDBRANCH   5   6
ENDBRANCH   4   5
ENDBRANCH   3   4
ENDBRANCH   2   3
ENDBRANCH   1   2
BRANCH   1   9
ATOM      9  C   UNL     1      13.116  31.052  18.290  1.00  0.00     0.000 C 
BRANCH   9  10
ATOM     10  C   UNL     1      14.334  30.454  17.565  1.00  0.00    -0.000 C 
BRANCH  10  11
ATOM     11  C   UNL     1      14.441  28.932  17.750  1.00  0.00    -0.000 C 
BRANCH  11  12
ATOM     12  C   UNL     1      15.123  28.542  19.074  1.00  0.00    -0.000 C 
BRANCH  12  13
ATOM     13  C   UNL     1      14.907  27.064  19.433  1.00  0.00    -0.003 C 
ATOM     14  C   UNL     1      14.303  26.877  20.825  1.00  0.00     0.004 C 
ENDBRANCH  12  13
ENDBRANCH  11  12
ENDBRANCH  10  11
ENDBRANCH   9  10
ENDBRANCH   1   9
TORSDOF 10
ENDMDL
MODEL 8
REMARK VINA RESULT:    -2.137      2.385      3.007
REMARK INTER + INTRA:          -4.398
REMARK INTER:                  -3.687
REMARK INTRA:                  -0.711
REMARK UNBOUND:                -1.012
REMARK SMILES CCCCCCCCCCCC(=O)[O-]
REMARK SMILES IDX 7 1 8 2 9 3 10 4 11 5 12 6 13 7 14 8 6 9 5 10 4 11 3 12 2 13
REMARK SMILES IDX 1 14
REMARK H PARENT
REMARK Flexibility Score: inf
ROOT
ATOM      1  C   UNL     1      13.990  26.900  21.201  1.00  0.00     0.000 C 
ENDROOT
BRANCH   1   2
ATOM      2  C   UNL     1      14.991  27.443  20.165  1.00  0.00     0.000 C 
BRANCH   2   3
ATOM      3  C   UNL     1      14.475  28.703  19.452  1.00  0.00     0.000 C 
BRANCH   3   4
ATOM      4  C   UNL     1      15.106  29.994  20.002  1.00  0.00     0.006 C 
BRANCH   4   5
ATOM      5  C   UNL     1      14.051  31.056  20.339  1.00  0.00     0.053 C 
BRANCH   5   6
ATOM      6  C   UNL     1      13.127  30.594  21.424  1.00  0.00     0.041 C 
ATOM      7  O   UNL     1      13.573  30.349  22.575  1.00  0.00    -0.550 OA
ATOM      8  O   UNL     1      11.766  30.470  21.172  1.00  0.00    -0.550 OA
ENDBRANCH   5   6
ENDBRANCH   4   5
ENDBRANCH   3   4
ENDBRANCH   2   3
ENDBRANCH   1   2
BRANCH   1   9
ATOM      9  C   UNL     1      14.523  26.984  22.641  1.00  0.00     0.000 C 
BRANCH   9  10
ATOM     10  C   UNL     1      13.454  26.620  23.687  1.00  0.00    -0.000 C 
BRANCH  10  11
ATOM     11  C   UNL     1      13.918  26.901  25.125  1.00  0.00    -0.000 C 
BRANCH  11  12
ATOM     12  C   UNL     1      14.208  28.392  25.374  1.00  0.00    -0.000 C 
BRANCH  12  13
ATOM     13  C   UNL     1      14.195  28.752  26.868  1.00  0.00    -0.003 C 
ATOM     14  C   UNL     1      12.839  29.281  27.336  1.00  0.00     0.004 C 
ENDBRANCH  12  13
ENDBRANCH  11  12
ENDBRANCH  10  11
ENDBRANCH   9  10
ENDBRANCH   1   9
TORSDOF 10
ENDMDL
