MODEL 1
REMARK VINA RESULT:    10.498      0.000      0.000
REMARK INTER + INTRA:          26.508
REMARK INTER:                  27.681
REMARK INTRA:                  -1.174
REMARK UNBOUND:                -1.174
REMARK SMILES CCCCCCCCCCCCCCCCCCCCCCCCCCCCCC(=O)[O-]
REMARK SMILES IDX 16 1 17 2 18 3 19 4 20 5 21 6 22 7 23 8 24 9 25 10 26 11
REMARK SMILES IDX 27 12 28 13 29 14 30 15 31 16 32 17 15 18 14 19 13 20 12 21
REMARK SMILES IDX 11 22 10 23 9 24 8 25 7 26 6 27 5 28 4 29 3 30 2 31 1 32
REMARK H PARENT
REMARK Flexibility Score: inf
ROOT
ATOM      1  C   UNL     1      14.046   6.813  22.160  1.00  0.00     0.000 C 
ENDROOT
BRANCH   1   2
ATOM      2  C   UNL     1      13.459   5.611  22.919  1.00  0.00     0.000 C 
BRANCH   2   3
ATOM      3  C   UNL     1      13.865   4.267  22.295  1.00  0.00     0.000 C 
BRANCH   3   4
ATOM      4  C   UNL     1      13.553   3.104  23.250  1.00  0.00     0.000 C 
BRANCH   4   5
ATOM      5  C   UNL     1      13.631   3.508  24.730  1.00  0.00     0.000 C 
BRANCH   5   6
ATOM      6  C   UNL     1      13.880   2.311  25.666  1.00  0.00     0.000 C 
BRANCH   6   7
ATOM      7  C   UNL     1      15.377   1.965  25.807  1.00  0.00     0.000 C 
BRANCH   7   8
ATOM      8  C   UNL     1      16.334   3.126  25.468  1.00  0.00     0.000 C 
BRANCH   8   9
ATOM      9  C   UNL     1      17.587   2.741  24.662  1.00  0.00     0.000 C 
BRANCH   9  10
ATOM     10  C   UNL     1      18.219   1.418  25.130  1.00  0.00     0.000 C 
BRANCH  10  11
ATOM     11  C   UNL     1      18.145   1.231  26.655  1.00  0.00     0.000 C 
BRANCH  11  12
ATOM     12  C   UNL     1      19.504   1.224  27.384  1.00  0.00     0.000 C 
BRANCH  12  13
ATOM     13  C   UNL     1      19.721   2.387  28.370  1.00  0.00     0.006 C 
BRANCH  13  14
ATOM     14  C   UNL     1      18.409   3.055  28.805  1.00  0.00     0.053 C 
BRANCH  14  15
ATOM     15  C   UNL     1      18.518   3.597  30.196  1.00  0.00     0.041 C 
ATOM     16  O   UNL     1      17.560   4.237  30.705  1.00  0.00    -0.550 OA
ATOM     17  O   UNL     1      19.692   3.426  30.919  1.00  0.00    -0.550 OA
ENDBRANCH  14  15
ENDBRANCH  13  14
ENDBRANCH  12  13
ENDBRANCH  11  12
ENDBRANCH  10  11
ENDBRANCH   9  10
ENDBRANCH   8   9
ENDBRANCH   7   8
ENDBRANCH   6   7
ENDBRANCH   5   6
ENDBRANCH   4   5
ENDBRANCH   3   4
ENDBRANCH   2   3
ENDBRANCH   1   2
BRANCH   1  18
ATOM     18  C   UNL     1      14.244   8.034  23.074  1.00  0.00     0.000 C 
BRANCH  18  19
ATOM     19  C   UNL     1      13.619   9.316  22.501  1.00  0.00     0.000 C 
BRANCH  19  20
ATOM     20  C   UNL     1      14.477  10.566  22.767  1.00  0.00     0.000 C 
BRANCH  20  21
ATOM     21  C   UNL     1      13.632  11.800  23.119  1.00  0.00     0.000 C 
BRANCH  21  22
ATOM     22  C   UNL     1      12.262  11.801  22.424  1.00  0.00     0.000 C 
BRANCH  22  23
ATOM     23  C   UNL     1      11.561  13.153  22.607  1.00  0.00     0.000 C 
BRANCH  23  24
ATOM     24  C   UNL     1      11.297  13.830  21.253  1.00  0.00    -0.000 C 
BRANCH  24  25
ATOM     25  C   UNL     1      10.893  15.312  21.405  1.00  0.00    -0.000 C 
BRANCH  25  26
ATOM     26  C   UNL     1      11.939  16.304  20.862  1.00  0.00    -0.000 C 
BRANCH  26  27
ATOM     27  C   UNL     1      12.022  17.643  21.614  1.00  0.00    -0.000 C 
BRANCH  27  28
ATOM     28  C   UNL     1      12.265  17.467  23.121  1.00  0.00    -0.000 C 
BRANCH  28  29
ATOM     29  C   UNL     1      10.941  17.241  23.865  1.00  0.00    -0.000 C 
BRANCH  29  30
ATOM     30  C   UNL     1      11.085  16.290  25.066  1.00  0.00    -0.000 C 
BRANCH  30  31
ATOM     31  C   UNL     1      11.596  16.984  26.345  1.00  0.00    -0.003 C 
ATOM     32  C   UNL     1      10.896  16.469  27.603  1.00  0.00     0.004 C 
ENDBRANCH  30  31
ENDBRANCH  29  30
ENDBRANCH  28  29
ENDBRANCH  27  28
ENDBRANCH  26  27
ENDBRANCH  25  26
ENDBRANCH  24  25
ENDBRANCH  23  24
ENDBRANCH  22  23
ENDBRANCH  21  22
ENDBRANCH  20  21
ENDBRANCH  19  20
ENDBRANCH  18  19
ENDBRANCH   1  18
TORSDOF 28
ENDMDL
MODEL 2
REMARK VINA RESULT:    11.567      4.884     13.385
REMARK INTER + INTRA:          29.326
REMARK INTER:                  30.907
REMARK INTRA:                  -1.580
REMARK UNBOUND:                -1.174
REMARK SMILES CCCCCCCCCCCCCCCCCCCCCCCCCCCCCC(=O)[O-]
REMARK SMILES IDX 16 1 17 2 18 3 19 4 20 5 21 6 22 7 23 8 24 9 25 10 26 11
REMARK SMILES IDX 27 12 28 13 29 14 30 15 31 16 32 17 15 18 14 19 13 20 12 21
REMARK SMILES IDX 11 22 10 23 9 24 8 25 7 26 6 27 5 28 4 29 3 30 2 31 1 32
REMARK H PARENT
REMARK Flexibility Score: inf
ROOT
ATOM      1  C   UNL     1      13.603   4.083  22.423  1.00  0.00     0.000 C 
ENDROOT
BRANCH   1   2
ATOM      2  C   UNL     1      13.167   5.180  23.409  1.00  0.00     0.000 C 
BRANCH   2   3
ATOM      3  C   UNL     1      12.897   6.523  22.713  1.00  0.00     0.000 C 
BRANCH   3   4
ATOM      4  C   UNL     1      14.181   7.364  22.630  1.00  0.00     0.000 C 
BRANCH   4   5
ATOM      5  C   UNL     1      13.903   8.870  22.507  1.00  0.00     0.000 C 
BRANCH   5   6
ATOM      6  C   UNL     1      14.965   9.735  23.211  1.00  0.00     0.000 C 
BRANCH   6   7
ATOM      7  C   UNL     1      14.775  11.244  22.950  1.00  0.00     0.000 C 
BRANCH   7   8
ATOM      8  C   UNL     1      13.472  11.602  22.206  1.00  0.00     0.000 C 
BRANCH   8   9
ATOM      9  C   UNL     1      12.380  12.267  23.060  1.00  0.00     0.000 C 
BRANCH   9  10
ATOM     10  C   UNL     1      11.012  12.319  22.354  1.00  0.00     0.000 C 
BRANCH  10  11
ATOM     11  C   UNL     1      10.942  13.418  21.279  1.00  0.00     0.000 C 
BRANCH  11  12
ATOM     12  C   UNL     1      11.135  14.857  21.796  1.00  0.00     0.000 C 
BRANCH  12  13
ATOM     13  C   UNL     1      11.064  15.953  20.716  1.00  0.00     0.006 C 
BRANCH  13  14
ATOM     14  C   UNL     1      12.409  16.188  20.014  1.00  0.00     0.053 C 
BRANCH  14  15
ATOM     15  C   UNL     1      13.029  17.476  20.459  1.00  0.00     0.041 C 
ATOM     16  O   UNL     1      12.646  18.032  21.522  1.00  0.00    -0.550 OA
ATOM     17  O   UNL     1      14.008  18.082  19.681  1.00  0.00    -0.550 OA
ENDBRANCH  14  15
ENDBRANCH  13  14
ENDBRANCH  12  13
ENDBRANCH  11  12
ENDBRANCH  10  11
ENDBRANCH   9  10
ENDBRANCH   8   9
ENDBRANCH   7   8
ENDBRANCH   6   7
ENDBRANCH   5   6
ENDBRANCH   4   5
ENDBRANCH   3   4
ENDBRANCH   2   3
ENDBRANCH   1   2
BRANCH   1  18
ATOM     18  C   UNL     1      14.073   2.809  23.145  1.00  0.00     0.000 C 
BRANCH  18  19
ATOM     19  C   UNL     1      13.402   2.620  24.515  1.00  0.00     0.000 C 
BRANCH  19  20
ATOM     20  C   UNL     1      14.405   2.246  25.621  1.00  0.00     0.000 C 
BRANCH  20  21
ATOM     21  C   UNL     1      14.769   3.439  26.518  1.00  0.00     0.000 C 
BRANCH  21  22
ATOM     22  C   UNL     1      16.285   3.603  26.705  1.00  0.00     0.000 C 
BRANCH  22  23
ATOM     23  C   UNL     1      17.030   3.289  25.402  1.00  0.00     0.000 C 
BRANCH  23  24
ATOM     24  C   UNL     1      17.004   1.783  25.096  1.00  0.00    -0.000 C 
BRANCH  24  25
ATOM     25  C   UNL     1      18.422   1.186  24.966  1.00  0.00    -0.000 C 
BRANCH  25  26
ATOM     26  C   UNL     1      19.524   2.044  25.616  1.00  0.00    -0.000 C 
BRANCH  26  27
ATOM     27  C   UNL     1      20.318   1.349  26.735  1.00  0.00    -0.000 C 
BRANCH  27  28
ATOM     28  C   UNL     1      19.414   0.648  27.761  1.00  0.00    -0.000 C 
BRANCH  28  29
ATOM     29  C   UNL     1      18.755   1.671  28.697  1.00  0.00    -0.000 C 
BRANCH  29  30
ATOM     30  C   UNL     1      19.777   2.556  29.431  1.00  0.00    -0.000 C 
BRANCH  30  31
ATOM     31  C   UNL     1      19.172   3.358  30.601  1.00  0.00    -0.003 C 
ATOM     32  C   UNL     1      18.209   4.444  30.123  1.00  0.00     0.004 C 
ENDBRANCH  30  31
ENDBRANCH  29  30
ENDBRANCH  28  29
ENDBRANCH  27  28
ENDBRANCH  26  27
ENDBRANCH  25  26
ENDBRANCH  24  25
ENDBRANCH  23  24
ENDBRANCH  22  23
ENDBRANCH  21  22
ENDBRANCH  20  21
ENDBRANCH  19  20
ENDBRANCH  18  19
ENDBRANCH   1  18
TORSDOF 28
ENDMDL
MODEL 3
REMARK VINA RESULT:    11.852      4.148     12.963
REMARK INTER + INTRA:          30.078
REMARK INTER:                  31.846
REMARK INTRA:                  -1.768
REMARK UNBOUND:                -1.174
REMARK SMILES CCCCCCCCCCCCCCCCCCCCCCCCCCCCCC(=O)[O-]
REMARK SMILES IDX 16 1 17 2 18 3 19 4 20 5 21 6 22 7 23 8 24 9 25 10 26 11
REMARK SMILES IDX 27 12 28 13 29 14 30 15 31 16 32 17 15 18 14 19 13 20 12 21
REMARK SMILES IDX 11 22 10 23 9 24 8 25 7 26 6 27 5 28 4 29 3 30 2 31 1 32
REMARK H PARENT
REMARK Flexibility Score: inf
ROOT
ATOM      1  C   UNL     1      13.812   4.124  22.536  1.00  0.00     0.000 C 
ENDROOT
BRANCH   1   2
ATOM      2  C   UNL     1      13.143   5.180  23.431  1.00  0.00     0.000 C 
BRANCH   2   3
ATOM      3  C   UNL     1      12.941   6.521  22.708  1.00  0.00     0.000 C 
BRANCH   3   4
ATOM      4  C   UNL     1      14.168   7.429  22.886  1.00  0.00     0.000 C 
BRANCH   4   5
ATOM      5  C   UNL     1      13.861   8.909  22.615  1.00  0.00     0.000 C 
BRANCH   5   6
ATOM      6  C   UNL     1      14.549   9.858  23.615  1.00  0.00     0.000 C 
BRANCH   6   7
ATOM      7  C   UNL     1      14.784  11.268  23.036  1.00  0.00     0.000 C 
BRANCH   7   8
ATOM      8  C   UNL     1      13.665  11.766  22.098  1.00  0.00     0.000 C 
BRANCH   8   9
ATOM      9  C   UNL     1      12.277  11.922  22.743  1.00  0.00     0.000 C 
BRANCH   9  10
ATOM     10  C   UNL     1      11.510  13.153  22.229  1.00  0.00     0.000 C 
BRANCH  10  11
ATOM     11  C   UNL     1      10.893  13.986  23.366  1.00  0.00     0.000 C 
BRANCH  11  12
ATOM     12  C   UNL     1      11.493  13.735  24.764  1.00  0.00     0.000 C 
BRANCH  12  13
ATOM     13  C   UNL     1      11.343  14.902  25.757  1.00  0.00     0.006 C 
BRANCH  13  14
ATOM     14  C   UNL     1      10.877  16.202  25.086  1.00  0.00     0.053 C 
BRANCH  14  15
ATOM     15  C   UNL     1      12.030  17.126  24.846  1.00  0.00     0.041 C 
ATOM     16  O   UNL     1      12.794  17.448  25.794  1.00  0.00    -0.550 OA
ATOM     17  O   UNL     1      12.240  17.663  23.582  1.00  0.00    -0.550 OA
ENDBRANCH  14  15
ENDBRANCH  13  14
ENDBRANCH  12  13
ENDBRANCH  11  12
ENDBRANCH  10  11
ENDBRANCH   9  10
ENDBRANCH   8   9
ENDBRANCH   7   8
ENDBRANCH   6   7
ENDBRANCH   5   6
ENDBRANCH   4   5
ENDBRANCH   3   4
ENDBRANCH   2   3
ENDBRANCH   1   2
BRANCH   1  18
ATOM     18  C   UNL     1      14.201   2.861  23.325  1.00  0.00     0.000 C 
BRANCH  18  19
ATOM     19  C   UNL     1      13.280   2.602  24.528  1.00  0.00     0.000 C 
BRANCH  19  20
ATOM     20  C   UNL     1      14.057   2.424  25.844  1.00  0.00     0.000 C 
BRANCH  20  21
ATOM     21  C   UNL     1      14.874   3.669  26.222  1.00  0.00     0.000 C 
BRANCH  21  22
ATOM     22  C   UNL     1      16.388   3.410  26.225  1.00  0.00     0.000 C 
BRANCH  22  23
ATOM     23  C   UNL     1      16.817   2.679  24.947  1.00  0.00     0.000 C 
BRANCH  23  24
ATOM     24  C   UNL     1      17.525   1.355  25.275  1.00  0.00    -0.000 C 
BRANCH  24  25
ATOM     25  C   UNL     1      18.991   1.337  24.790  1.00  0.00    -0.000 C 
BRANCH  25  26
ATOM     26  C   UNL     1      20.020   1.614  25.902  1.00  0.00    -0.000 C 
BRANCH  26  27
ATOM     27  C   UNL     1      20.250   0.452  26.883  1.00  0.00    -0.000 C 
BRANCH  27  28
ATOM     28  C   UNL     1      19.753   0.762  28.303  1.00  0.00    -0.000 C 
BRANCH  28  29
ATOM     29  C   UNL     1      19.289   2.221  28.413  1.00  0.00    -0.000 C 
BRANCH  29  30
ATOM     30  C   UNL     1      19.249   2.729  29.865  1.00  0.00    -0.000 C 
BRANCH  30  31
ATOM     31  C   UNL     1      18.776   4.191  29.995  1.00  0.00    -0.003 C 
ATOM     32  C   UNL     1      17.499   4.316  30.827  1.00  0.00     0.004 C 
ENDBRANCH  30  31
ENDBRANCH  29  30
ENDBRANCH  28  29
ENDBRANCH  27  28
ENDBRANCH  26  27
ENDBRANCH  25  26
ENDBRANCH  24  25
ENDBRANCH  23  24
ENDBRANCH  22  23
ENDBRANCH  21  22
ENDBRANCH  20  21
ENDBRANCH  19  20
ENDBRANCH  18  19
ENDBRANCH   1  18
TORSDOF 28
ENDMDL
MODEL 4
REMARK VINA RESULT:    12.163      1.897      3.847
REMARK INTER + INTRA:          30.899
REMARK INTER:                  31.791
REMARK INTRA:                  -0.892
REMARK UNBOUND:                -1.174
REMARK SMILES CCCCCCCCCCCCCCCCCCCCCCCCCCCCCC(=O)[O-]
REMARK SMILES IDX 16 1 17 2 18 3 19 4 20 5 21 6 22 7 23 8 24 9 25 10 26 11
REMARK SMILES IDX 27 12 28 13 29 14 30 15 31 16 32 17 15 18 14 19 13 20 12 21
REMARK SMILES IDX 11 22 10 23 9 24 8 25 7 26 6 27 5 28 4 29 3 30 2 31 1 32
REMARK H PARENT
REMARK Flexibility Score: inf
ROOT
ATOM      1  C   UNL     1      12.967   3.106  24.165  1.00  0.00     0.000 C 
ENDROOT
BRANCH   1   2
ATOM      2  C   UNL     1      13.968   2.411  25.105  1.00  0.00     0.000 C 
BRANCH   2   3
ATOM      3  C   UNL     1      14.784   3.412  25.937  1.00  0.00     0.000 C 
BRANCH   3   4
ATOM      4  C   UNL     1      16.285   3.277  25.637  1.00  0.00     0.000 C 
BRANCH   4   5
ATOM      5  C   UNL     1      16.803   1.841  25.806  1.00  0.00     0.000 C 
BRANCH   5   6
ATOM      6  C   UNL     1      17.684   1.378  24.631  1.00  0.00     0.000 C 
BRANCH   6   7
ATOM      7  C   UNL     1      18.750   2.421  24.236  1.00  0.00     0.000 C 
BRANCH   7   8
ATOM      8  C   UNL     1      19.813   2.687  25.321  1.00  0.00     0.000 C 
BRANCH   8   9
ATOM      9  C   UNL     1      20.888   1.598  25.479  1.00  0.00     0.000 C 
BRANCH   9  10
ATOM     10  C   UNL     1      20.484   0.495  26.475  1.00  0.00     0.000 C 
BRANCH  10  11
ATOM     11  C   UNL     1      19.470   0.985  27.523  1.00  0.00     0.000 C 
BRANCH  11  12
ATOM     12  C   UNL     1      19.912   0.825  28.992  1.00  0.00     0.000 C 
BRANCH  12  13
ATOM     13  C   UNL     1      19.830   2.107  29.841  1.00  0.00     0.006 C 
BRANCH  13  14
ATOM     14  C   UNL     1      18.755   3.085  29.344  1.00  0.00     0.053 C 
BRANCH  14  15
ATOM     15  C   UNL     1      18.250   3.941  30.464  1.00  0.00     0.041 C 
ATOM     16  O   UNL     1      18.826   3.928  31.583  1.00  0.00    -0.550 OA
ATOM     17  O   UNL     1      17.119   4.728  30.283  1.00  0.00    -0.550 OA
ENDBRANCH  14  15
ENDBRANCH  13  14
ENDBRANCH  12  13
ENDBRANCH  11  12
ENDBRANCH  10  11
ENDBRANCH   9  10
ENDBRANCH   8   9
ENDBRANCH   7   8
ENDBRANCH   6   7
ENDBRANCH   5   6
ENDBRANCH   4   5
ENDBRANCH   3   4
ENDBRANCH   2   3
ENDBRANCH   1   2
BRANCH   1  18
ATOM     18  C   UNL     1      13.672   3.994  23.126  1.00  0.00     0.000 C 
BRANCH  18  19
ATOM     19  C   UNL     1      12.966   5.343  22.918  1.00  0.00     0.000 C 
BRANCH  19  20
ATOM     20  C   UNL     1      13.770   6.528  23.481  1.00  0.00     0.000 C 
BRANCH  20  21
ATOM     21  C   UNL     1      14.033   7.618  22.430  1.00  0.00     0.000 C 
BRANCH  21  22
ATOM     22  C   UNL     1      14.272   9.001  23.054  1.00  0.00     0.000 C 
BRANCH  22  23
ATOM     23  C   UNL     1      13.872  10.115  22.078  1.00  0.00     0.000 C 
BRANCH  23  24
ATOM     24  C   UNL     1      13.381  11.362  22.829  1.00  0.00    -0.000 C 
BRANCH  24  25
ATOM     25  C   UNL     1      12.122  11.979  22.182  1.00  0.00    -0.000 C 
BRANCH  25  26
ATOM     26  C   UNL     1      12.181  13.512  22.040  1.00  0.00    -0.000 C 
BRANCH  26  27
ATOM     27  C   UNL     1      10.878  14.173  21.558  1.00  0.00    -0.000 C 
BRANCH  27  28
ATOM     28  C   UNL     1      11.121  15.304  20.547  1.00  0.00    -0.000 C 
BRANCH  28  29
ATOM     29  C   UNL     1      11.200  16.663  21.257  1.00  0.00    -0.000 C 
BRANCH  29  30
ATOM     30  C   UNL     1      12.542  17.381  21.027  1.00  0.00    -0.000 C 
BRANCH  30  31
ATOM     31  C   UNL     1      12.718  17.916  19.592  1.00  0.00    -0.003 C 
ATOM     32  C   UNL     1      11.831  17.182  18.586  1.00  0.00     0.004 C 
ENDBRANCH  30  31
ENDBRANCH  29  30
ENDBRANCH  28  29
ENDBRANCH  27  28
ENDBRANCH  26  27
ENDBRANCH  25  26
ENDBRANCH  24  25
ENDBRANCH  23  24
ENDBRANCH  22  23
ENDBRANCH  21  22
ENDBRANCH  20  21
ENDBRANCH  19  20
ENDBRANCH  18  19
ENDBRANCH   1  18
TORSDOF 28
ENDMDL
MODEL 5
REMARK VINA RESULT:    12.771      4.892     13.246
REMARK INTER + INTRA:          32.502
REMARK INTER:                  32.025
REMARK INTRA:                   0.477
REMARK UNBOUND:                -1.174
REMARK SMILES CCCCCCCCCCCCCCCCCCCCCCCCCCCCCC(=O)[O-]
REMARK SMILES IDX 16 1 17 2 18 3 19 4 20 5 21 6 22 7 23 8 24 9 25 10 26 11
REMARK SMILES IDX 27 12 28 13 29 14 30 15 31 16 32 17 15 18 14 19 13 20 12 21
REMARK SMILES IDX 11 22 10 23 9 24 8 25 7 26 6 27 5 28 4 29 3 30 2 31 1 32
REMARK H PARENT
REMARK Flexibility Score: inf
ROOT
ATOM      1  C   UNL     1      13.449   2.664  24.085  1.00  0.00     0.000 C 
ENDROOT
BRANCH   1   2
ATOM      2  C   UNL     1      13.770   3.798  23.098  1.00  0.00     0.000 C 
BRANCH   2   3
ATOM      3  C   UNL     1      13.221   5.156  23.564  1.00  0.00     0.000 C 
BRANCH   3   4
ATOM      4  C   UNL     1      13.669   6.281  22.618  1.00  0.00     0.000 C 
BRANCH   4   5
ATOM      5  C   UNL     1      14.073   7.563  23.363  1.00  0.00     0.000 C 
BRANCH   5   6
ATOM      6  C   UNL     1      14.039   8.814  22.465  1.00  0.00     0.000 C 
BRANCH   6   7
ATOM      7  C   UNL     1      14.941   9.950  22.989  1.00  0.00     0.000 C 
BRANCH   7   8
ATOM      8  C   UNL     1      14.229  11.310  23.140  1.00  0.00     0.000 C 
BRANCH   8   9
ATOM      9  C   UNL     1      12.945  11.484  22.311  1.00  0.00     0.000 C 
BRANCH   9  10
ATOM     10  C   UNL     1      12.004  12.563  22.878  1.00  0.00     0.000 C 
BRANCH  10  11
ATOM     11  C   UNL     1      10.875  12.937  21.902  1.00  0.00     0.000 C 
BRANCH  11  12
ATOM     12  C   UNL     1      11.146  14.178  21.028  1.00  0.00     0.000 C 
BRANCH  12  13
ATOM     13  C   UNL     1      11.521  15.454  21.805  1.00  0.00     0.006 C 
BRANCH  13  14
ATOM     14  C   UNL     1      11.396  16.728  20.957  1.00  0.00     0.053 C 
BRANCH  14  15
ATOM     15  C   UNL     1      11.650  16.438  19.511  1.00  0.00     0.041 C 
ATOM     16  O   UNL     1      11.161  15.409  18.975  1.00  0.00    -0.550 OA
ATOM     17  O   UNL     1      12.456  17.286  18.761  1.00  0.00    -0.550 OA
ENDBRANCH  14  15
ENDBRANCH  13  14
ENDBRANCH  12  13
ENDBRANCH  11  12
ENDBRANCH  10  11
ENDBRANCH   9  10
ENDBRANCH   8   9
ENDBRANCH   7   8
ENDBRANCH   6   7
ENDBRANCH   5   6
ENDBRANCH   4   5
ENDBRANCH   3   4
ENDBRANCH   2   3
ENDBRANCH   1   2
BRANCH   1  18
ATOM     18  C   UNL     1      14.253   2.788  25.391  1.00  0.00     0.000 C 
BRANCH  18  19
ATOM     19  C   UNL     1      15.627   3.444  25.184  1.00  0.00     0.000 C 
BRANCH  19  20
ATOM     20  C   UNL     1      16.497   2.690  24.162  1.00  0.00     0.000 C 
BRANCH  20  21
ATOM     21  C   UNL     1      17.287   1.534  24.796  1.00  0.00     0.000 C 
BRANCH  21  22
ATOM     22  C   UNL     1      18.015   1.945  26.083  1.00  0.00     0.000 C 
BRANCH  22  23
ATOM     23  C   UNL     1      19.513   2.144  25.821  1.00  0.00     0.000 C 
BRANCH  23  24
ATOM     24  C   UNL     1      20.331   0.951  26.339  1.00  0.00    -0.000 C 
BRANCH  24  25
ATOM     25  C   UNL     1      20.213   0.777  27.868  1.00  0.00    -0.000 C 
BRANCH  25  26
ATOM     26  C   UNL     1      19.506   1.948  28.577  1.00  0.00    -0.000 C 
BRANCH  26  27
ATOM     27  C   UNL     1      19.733   2.024  30.096  1.00  0.00    -0.000 C 
BRANCH  27  28
ATOM     28  C   UNL     1      18.846   3.076  30.781  1.00  0.00    -0.000 C 
BRANCH  28  29
ATOM     29  C   UNL     1      18.359   4.122  29.769  1.00  0.00    -0.000 C 
BRANCH  29  30
ATOM     30  C   UNL     1      17.206   4.986  30.309  1.00  0.00    -0.000 C 
BRANCH  30  31
ATOM     31  C   UNL     1      15.850   4.699  29.633  1.00  0.00    -0.003 C 
ATOM     32  C   UNL     1      14.884   5.879  29.746  1.00  0.00     0.004 C 
ENDBRANCH  30  31
ENDBRANCH  29  30
ENDBRANCH  28  29
ENDBRANCH  27  28
ENDBRANCH  26  27
ENDBRANCH  25  26
ENDBRANCH  24  25
ENDBRANCH  23  24
ENDBRANCH  22  23
ENDBRANCH  21  22
ENDBRANCH  20  21
ENDBRANCH  19  20
ENDBRANCH  18  19
ENDBRANCH   1  18
TORSDOF 28
ENDMDL
MODEL 6
REMARK VINA RESULT:    12.955      1.489      3.712
REMARK INTER + INTRA:          32.987
REMARK INTER:                  33.008
REMARK INTRA:                  -0.021
REMARK UNBOUND:                -1.174
REMARK SMILES CCCCCCCCCCCCCCCCCCCCCCCCCCCCCC(=O)[O-]
REMARK SMILES IDX 16 1 17 2 18 3 19 4 20 5 21 6 22 7 23 8 24 9 25 10 26 11
REMARK SMILES IDX 27 12 28 13 29 14 30 15 31 16 32 17 15 18 14 19 13 20 12 21
REMARK SMILES IDX 11 22 10 23 9 24 8 25 7 26 6 27 5 28 4 29 3 30 2 31 1 32
REMARK H PARENT
REMARK Flexibility Score: inf
ROOT
ATOM      1  C   UNL     1      13.316   2.961  24.453  1.00  0.00     0.000 C 
ENDROOT
BRANCH   1   2
ATOM      2  C   UNL     1      14.317   2.396  25.475  1.00  0.00     0.000 C 
BRANCH   2   3
ATOM      3  C   UNL     1      15.226   3.483  26.070  1.00  0.00     0.000 C 
BRANCH   3   4
ATOM      4  C   UNL     1      16.693   3.242  25.684  1.00  0.00     0.000 C 
BRANCH   4   5
ATOM      5  C   UNL     1      17.020   1.755  25.476  1.00  0.00     0.000 C 
BRANCH   5   6
ATOM      6  C   UNL     1      18.131   1.525  24.434  1.00  0.00     0.000 C 
BRANCH   6   7
ATOM      7  C   UNL     1      19.284   2.543  24.555  1.00  0.00     0.000 C 
BRANCH   7   8
ATOM      8  C   UNL     1      20.317   2.208  25.650  1.00  0.00     0.000 C 
BRANCH   8   9
ATOM      9  C   UNL     1      21.094   0.895  25.451  1.00  0.00     0.000 C 
BRANCH   9  10
ATOM     10  C   UNL     1      21.111   0.009  26.710  1.00  0.00     0.000 C 
BRANCH  10  11
ATOM     11  C   UNL     1      19.834   0.155  27.555  1.00  0.00     0.000 C 
BRANCH  11  12
ATOM     12  C   UNL     1      19.315   1.598  27.719  1.00  0.00     0.000 C 
BRANCH  12  13
ATOM     13  C   UNL     1      19.216   2.094  29.174  1.00  0.00     0.006 C 
BRANCH  13  14
ATOM     14  C   UNL     1      18.671   3.526  29.281  1.00  0.00     0.053 C 
BRANCH  14  15
ATOM     15  C   UNL     1      18.671   3.995  30.703  1.00  0.00     0.041 C 
ATOM     16  O   UNL     1      19.616   4.704  31.138  1.00  0.00    -0.550 OA
ATOM     17  O   UNL     1      17.642   3.619  31.559  1.00  0.00    -0.550 OA
ENDBRANCH  14  15
ENDBRANCH  13  14
ENDBRANCH  12  13
ENDBRANCH  11  12
ENDBRANCH  10  11
ENDBRANCH   9  10
ENDBRANCH   8   9
ENDBRANCH   7   8
ENDBRANCH   6   7
ENDBRANCH   5   6
ENDBRANCH   4   5
ENDBRANCH   3   4
ENDBRANCH   2   3
ENDBRANCH   1   2
BRANCH   1  18
ATOM     18  C   UNL     1      14.019   3.713  23.310  1.00  0.00     0.000 C 
BRANCH  18  19
ATOM     19  C   UNL     1      13.183   4.881  22.762  1.00  0.00     0.000 C 
BRANCH  19  20
ATOM     20  C   UNL     1      13.485   6.212  23.472  1.00  0.00     0.000 C 
BRANCH  20  21
ATOM     21  C   UNL     1      13.938   7.313  22.499  1.00  0.00     0.000 C 
BRANCH  21  22
ATOM     22  C   UNL     1      13.821   8.722  23.098  1.00  0.00     0.000 C 
BRANCH  22  23
ATOM     23  C   UNL     1      15.157   9.467  23.001  1.00  0.00     0.000 C 
BRANCH  23  24
ATOM     24  C   UNL     1      14.940  10.971  22.773  1.00  0.00    -0.000 C 
BRANCH  24  25
ATOM     25  C   UNL     1      13.522  11.428  23.179  1.00  0.00    -0.000 C 
BRANCH  25  26
ATOM     26  C   UNL     1      12.517  11.457  22.012  1.00  0.00    -0.000 C 
BRANCH  26  27
ATOM     27  C   UNL     1      11.410  12.518  22.130  1.00  0.00    -0.000 C 
BRANCH  27  28
ATOM     28  C   UNL     1      11.044  12.839  23.588  1.00  0.00    -0.000 C 
BRANCH  28  29
ATOM     29  C   UNL     1      10.885  14.352  23.790  1.00  0.00    -0.000 C 
BRANCH  29  30
ATOM     30  C   UNL     1      10.876  14.761  25.273  1.00  0.00    -0.000 C 
BRANCH  30  31
ATOM     31  C   UNL     1      11.345  16.209  25.517  1.00  0.00    -0.003 C 
ATOM     32  C   UNL     1      11.150  16.645  26.970  1.00  0.00     0.004 C 
ENDBRANCH  30  31
ENDBRANCH  29  30
ENDBRANCH  28  29
ENDBRANCH  27  28
ENDBRANCH  26  27
ENDBRANCH  25  26
ENDBRANCH  24  25
ENDBRANCH  23  24
ENDBRANCH  22  23
ENDBRANCH  21  22
ENDBRANCH  20  21
ENDBRANCH  19  20
ENDBRANCH  18  19
ENDBRANCH   1  18
TORSDOF 28
ENDMDL
MODEL 7
REMARK VINA RESULT:    13.040      1.810      3.592
REMARK INTER + INTRA:          33.211
REMARK INTER:                  34.462
REMARK INTRA:                  -1.251
REMARK UNBOUND:                -1.174
REMARK SMILES CCCCCCCCCCCCCCCCCCCCCCCCCCCCCC(=O)[O-]
REMARK SMILES IDX 16 1 17 2 18 3 19 4 20 5 21 6 22 7 23 8 24 9 25 10 26 11
REMARK SMILES IDX 27 12 28 13 29 14 30 15 31 16 32 17 15 18 14 19 13 20 12 21
REMARK SMILES IDX 11 22 10 23 9 24 8 25 7 26 6 27 5 28 4 29 3 30 2 31 1 32
REMARK H PARENT
REMARK Flexibility Score: inf
ROOT
ATOM      1  C   UNL     1      14.913  11.172  23.244  1.00  0.00     0.000 C 
ENDROOT
BRANCH   1   2
ATOM      2  C   UNL     1      14.073  10.137  24.011  1.00  0.00     0.000 C 
BRANCH   2   3
ATOM      3  C   UNL     1      14.385   8.694  23.584  1.00  0.00     0.000 C 
BRANCH   3   4
ATOM      4  C   UNL     1      14.186   7.721  24.757  1.00  0.00     0.000 C 
BRANCH   4   5
ATOM      5  C   UNL     1      13.287   6.529  24.400  1.00  0.00     0.000 C 
BRANCH   5   6
ATOM      6  C   UNL     1      13.839   5.690  23.232  1.00  0.00     0.000 C 
BRANCH   6   7
ATOM      7  C   UNL     1      12.855   4.599  22.761  1.00  0.00     0.000 C 
BRANCH   7   8
ATOM      8  C   UNL     1      12.781   3.367  23.686  1.00  0.00     0.000 C 
BRANCH   8   9
ATOM      9  C   UNL     1      14.133   2.745  24.075  1.00  0.00     0.000 C 
BRANCH   9  10
ATOM     10  C   UNL     1      14.007   1.668  25.168  1.00  0.00     0.000 C 
BRANCH  10  11
ATOM     11  C   UNL     1      15.278   1.544  26.028  1.00  0.00     0.000 C 
BRANCH  11  12
ATOM     12  C   UNL     1      16.607   1.726  25.267  1.00  0.00     0.000 C 
BRANCH  12  13
ATOM     13  C   UNL     1      17.286   3.095  25.458  1.00  0.00     0.006 C 
BRANCH  13  14
ATOM     14  C   UNL     1      18.792   2.982  25.730  1.00  0.00     0.053 C 
BRANCH  14  15
ATOM     15  C   UNL     1      19.173   1.574  26.067  1.00  0.00     0.041 C 
ATOM     16  O   UNL     1      19.158   1.180  27.262  1.00  0.00    -0.550 OA
ATOM     17  O   UNL     1      19.579   0.704  25.062  1.00  0.00    -0.550 OA
ENDBRANCH  14  15
ENDBRANCH  13  14
ENDBRANCH  12  13
ENDBRANCH  11  12
ENDBRANCH  10  11
ENDBRANCH   9  10
ENDBRANCH   8   9
ENDBRANCH   7   8
ENDBRANCH   6   7
ENDBRANCH   5   6
ENDBRANCH   4   5
ENDBRANCH   3   4
ENDBRANCH   2   3
ENDBRANCH   1   2
BRANCH   1  18
ATOM     18  C   UNL     1      14.107  11.859  22.129  1.00  0.00     0.000 C 
BRANCH  18  19
ATOM     19  C   UNL     1      12.625  11.449  22.125  1.00  0.00     0.000 C 
BRANCH  19  20
ATOM     20  C   UNL     1      11.724  12.483  21.427  1.00  0.00     0.000 C 
BRANCH  20  21
ATOM     21  C   UNL     1      11.159  13.528  22.401  1.00  0.00     0.000 C 
BRANCH  21  22
ATOM     22  C   UNL     1      10.973  14.908  21.752  1.00  0.00     0.000 C 
BRANCH  22  23
ATOM     23  C   UNL     1      11.477  14.900  20.304  1.00  0.00     0.000 C 
BRANCH  23  24
ATOM     24  C   UNL     1      11.688  16.329  19.781  1.00  0.00    -0.000 C 
BRANCH  24  25
ATOM     25  C   UNL     1      12.163  17.295  20.887  1.00  0.00    -0.000 C 
BRANCH  25  26
ATOM     26  C   UNL     1      11.019  18.042  21.598  1.00  0.00    -0.000 C 
BRANCH  26  27
ATOM     27  C   UNL     1      11.047  17.969  23.134  1.00  0.00    -0.000 C 
BRANCH  27  28
ATOM     28  C   UNL     1      12.346  17.354  23.679  1.00  0.00    -0.000 C 
BRANCH  28  29
ATOM     29  C   UNL     1      12.069  16.527  24.942  1.00  0.00    -0.000 C 
BRANCH  29  30
ATOM     30  C   UNL     1      11.937  17.393  26.207  1.00  0.00    -0.000 C 
BRANCH  30  31
ATOM     31  C   UNL     1      11.317  16.646  27.405  1.00  0.00    -0.003 C 
ATOM     32  C   UNL     1      10.876  15.228  27.039  1.00  0.00     0.004 C 
ENDBRANCH  30  31
ENDBRANCH  29  30
ENDBRANCH  28  29
ENDBRANCH  27  28
ENDBRANCH  26  27
ENDBRANCH  25  26
ENDBRANCH  24  25
ENDBRANCH  23  24
ENDBRANCH  22  23
ENDBRANCH  21  22
ENDBRANCH  20  21
ENDBRANCH  19  20
ENDBRANCH  18  19
ENDBRANCH   1  18
TORSDOF 28
ENDMDL
MODEL 8
REMARK VINA RESULT:    13.109      4.402     13.369
REMARK INTER + INTRA:          33.392
REMARK INTER:                  35.062
REMARK INTRA:                  -1.670
REMARK UNBOUND:                -1.174
REMARK SMILES CCCCCCCCCCCCCCCCCCCCCCCCCCCCCC(=O)[O-]
REMARK SMILES IDX 16 1 17 2 18 3 19 4 20 5 21 6 22 7 23 8 24 9 25 10 26 11
REMARK SMILES IDX 27 12 28 13 29 14 30 15 31 16 32 17 15 18 14 19 13 20 12 21
REMARK SMILES IDX 11 22 10 23 9 24 8 25 7 26 6 27 5 28 4 29 3 30 2 31 1 32
REMARK H PARENT
REMARK Flexibility Score: inf
ROOT
ATOM      1  C   UNL     1      13.156   2.758  24.468  1.00  0.00     0.000 C 
ENDROOT
BRANCH   1   2
ATOM      2  C   UNL     1      13.952   3.695  23.544  1.00  0.00     0.000 C 
BRANCH   2   3
ATOM      3  C   UNL     1      13.044   4.645  22.747  1.00  0.00     0.000 C 
BRANCH   3   4
ATOM      4  C   UNL     1      13.026   6.045  23.381  1.00  0.00     0.000 C 
BRANCH   4   5
ATOM      5  C   UNL     1      14.235   6.901  22.976  1.00  0.00     0.000 C 
BRANCH   5   6
ATOM      6  C   UNL     1      13.833   8.268  22.392  1.00  0.00     0.000 C 
BRANCH   6   7
ATOM      7  C   UNL     1      14.546   9.447  23.085  1.00  0.00     0.000 C 
BRANCH   7   8
ATOM      8  C   UNL     1      14.269  10.824  22.447  1.00  0.00     0.000 C 
BRANCH   8   9
ATOM      9  C   UNL     1      13.313  11.740  23.231  1.00  0.00     0.000 C 
BRANCH   9  10
ATOM     10  C   UNL     1      11.900  11.797  22.623  1.00  0.00     0.000 C 
BRANCH  10  11
ATOM     11  C   UNL     1      11.718  12.981  21.657  1.00  0.00     0.000 C 
BRANCH  11  12
ATOM     12  C   UNL     1      11.105  14.251  22.281  1.00  0.00     0.000 C 
BRANCH  12  13
ATOM     13  C   UNL     1      11.505  15.572  21.598  1.00  0.00     0.006 C 
BRANCH  13  14
ATOM     14  C   UNL     1      11.158  16.808  22.439  1.00  0.00     0.053 C 
BRANCH  14  15
ATOM     15  C   UNL     1      12.387  17.599  22.764  1.00  0.00     0.041 C 
ATOM     16  O   UNL     1      13.074  18.112  21.842  1.00  0.00    -0.550 OA
ATOM     17  O   UNL     1      12.795  17.741  24.085  1.00  0.00    -0.550 OA
ENDBRANCH  14  15
ENDBRANCH  13  14
ENDBRANCH  12  13
ENDBRANCH  11  12
ENDBRANCH  10  11
ENDBRANCH   9  10
ENDBRANCH   8   9
ENDBRANCH   7   8
ENDBRANCH   6   7
ENDBRANCH   5   6
ENDBRANCH   4   5
ENDBRANCH   3   4
ENDBRANCH   2   3
ENDBRANCH   1   2
BRANCH   1  18
ATOM     18  C   UNL     1      13.910   2.459  25.775  1.00  0.00     0.000 C 
BRANCH  18  19
ATOM     19  C   UNL     1      15.257   3.193  25.868  1.00  0.00     0.000 C 
BRANCH  19  20
ATOM     20  C   UNL     1      16.457   2.268  25.601  1.00  0.00     0.000 C 
BRANCH  20  21
ATOM     21  C   UNL     1      17.665   3.019  25.019  1.00  0.00     0.000 C 
BRANCH  21  22
ATOM     22  C   UNL     1      18.644   2.093  24.284  1.00  0.00     0.000 C 
BRANCH  22  23
ATOM     23  C   UNL     1      20.011   2.082  24.979  1.00  0.00     0.000 C 
BRANCH  23  24
ATOM     24  C   UNL     1      20.456   0.649  25.308  1.00  0.00    -0.000 C 
BRANCH  24  25
ATOM     25  C   UNL     1      21.610   0.614  26.334  1.00  0.00    -0.000 C 
BRANCH  25  26
ATOM     26  C   UNL     1      21.154   0.803  27.793  1.00  0.00    -0.000 C 
BRANCH  26  27
ATOM     27  C   UNL     1      19.631   0.773  28.010  1.00  0.00    -0.000 C 
BRANCH  27  28
ATOM     28  C   UNL     1      19.154   1.801  29.047  1.00  0.00    -0.000 C 
BRANCH  28  29
ATOM     29  C   UNL     1      18.776   3.125  28.368  1.00  0.00    -0.000 C 
BRANCH  29  30
ATOM     30  C   UNL     1      18.322   4.202  29.369  1.00  0.00    -0.000 C 
BRANCH  30  31
ATOM     31  C   UNL     1      18.179   3.682  30.814  1.00  0.00    -0.003 C 
ATOM     32  C   UNL     1      19.498   3.740  31.584  1.00  0.00     0.004 C 
ENDBRANCH  30  31
ENDBRANCH  29  30
ENDBRANCH  28  29
ENDBRANCH  27  28
ENDBRANCH  26  27
ENDBRANCH  25  26
ENDBRANCH  24  25
ENDBRANCH  23  24
ENDBRANCH  22  23
ENDBRANCH  21  22
ENDBRANCH  20  21
ENDBRANCH  19  20
ENDBRANCH  18  19
ENDBRANCH   1  18
TORSDOF 28
ENDMDL
MODEL 9
REMARK VINA RESULT:    13.274      4.937     14.008
REMARK INTER + INTRA:          33.829
REMARK INTER:                  32.606
REMARK INTRA:                   1.223
REMARK UNBOUND:                -1.174
REMARK SMILES CCCCCCCCCCCCCCCCCCCCCCCCCCCCCC(=O)[O-]
REMARK SMILES IDX 16 1 17 2 18 3 19 4 20 5 21 6 22 7 23 8 24 9 25 10 26 11
REMARK SMILES IDX 27 12 28 13 29 14 30 15 31 16 32 17 15 18 14 19 13 20 12 21
REMARK SMILES IDX 11 22 10 23 9 24 8 25 7 26 6 27 5 28 4 29 3 30 2 31 1 32
REMARK H PARENT
REMARK Flexibility Score: inf
ROOT
ATOM      1  C   UNL     1      13.105   6.113  23.855  1.00  0.00     0.000 C 
ENDROOT
BRANCH   1   2
ATOM      2  C   UNL     1      13.822   7.473  23.824  1.00  0.00     0.000 C 
BRANCH   2   3
ATOM      3  C   UNL     1      14.388   7.807  22.435  1.00  0.00     0.000 C 
BRANCH   3   4
ATOM      4  C   UNL     1      14.086   9.266  22.057  1.00  0.00     0.000 C 
BRANCH   4   5
ATOM      5  C   UNL     1      14.621  10.273  23.086  1.00  0.00     0.000 C 
BRANCH   5   6
ATOM      6  C   UNL     1      14.143  11.713  22.821  1.00  0.00     0.000 C 
BRANCH   6   7
ATOM      7  C   UNL     1      12.650  11.918  23.154  1.00  0.00     0.000 C 
BRANCH   7   8
ATOM      8  C   UNL     1      11.868  12.731  22.102  1.00  0.00     0.000 C 
BRANCH   8   9
ATOM      9  C   UNL     1      11.196  14.014  22.620  1.00  0.00     0.000 C 
BRANCH   9  10
ATOM     10  C   UNL     1      10.875  15.019  21.498  1.00  0.00     0.000 C 
BRANCH  10  11
ATOM     11  C   UNL     1      11.805  14.868  20.282  1.00  0.00     0.000 C 
BRANCH  11  12
ATOM     12  C   UNL     1      12.269  16.191  19.640  1.00  0.00     0.000 C 
BRANCH  12  13
ATOM     13  C   UNL     1      12.203  17.422  20.563  1.00  0.00     0.006 C 
BRANCH  13  14
ATOM     14  C   UNL     1      13.562  18.117  20.730  1.00  0.00     0.053 C 
BRANCH  14  15
ATOM     15  C   UNL     1      14.371  18.022  19.474  1.00  0.00     0.041 C 
ATOM     16  O   UNL     1      15.629  18.006  19.528  1.00  0.00    -0.550 OA
ATOM     17  O   UNL     1      13.737  17.986  18.238  1.00  0.00    -0.550 OA
ENDBRANCH  14  15
ENDBRANCH  13  14
ENDBRANCH  12  13
ENDBRANCH  11  12
ENDBRANCH  10  11
ENDBRANCH   9  10
ENDBRANCH   8   9
ENDBRANCH   7   8
ENDBRANCH   6   7
ENDBRANCH   5   6
ENDBRANCH   4   5
ENDBRANCH   3   4
ENDBRANCH   2   3
ENDBRANCH   1   2
BRANCH   1  18
ATOM     18  C   UNL     1      13.465   5.241  22.640  1.00  0.00     0.000 C 
BRANCH  18  19
ATOM     19  C   UNL     1      13.516   3.742  22.976  1.00  0.00     0.000 C 
BRANCH  19  20
ATOM     20  C   UNL     1      12.653   3.377  24.196  1.00  0.00     0.000 C 
BRANCH  20  21
ATOM     21  C   UNL     1      13.459   2.681  25.304  1.00  0.00     0.000 C 
BRANCH  21  22
ATOM     22  C   UNL     1      14.433   1.627  24.759  1.00  0.00     0.000 C 
BRANCH  22  23
ATOM     23  C   UNL     1      15.738   1.624  25.563  1.00  0.00     0.000 C 
BRANCH  23  24
ATOM     24  C   UNL     1      16.790   2.541  24.920  1.00  0.00    -0.000 C 
BRANCH  24  25
ATOM     25  C   UNL     1      17.690   3.229  25.969  1.00  0.00    -0.000 C 
BRANCH  25  26
ATOM     26  C   UNL     1      18.803   2.321  26.528  1.00  0.00    -0.000 C 
BRANCH  26  27
ATOM     27  C   UNL     1      19.476   1.402  25.494  1.00  0.00    -0.000 C 
BRANCH  27  28
ATOM     28  C   UNL     1      20.912   1.019  25.881  1.00  0.00    -0.000 C 
BRANCH  28  29
ATOM     29  C   UNL     1      20.970   0.506  27.327  1.00  0.00    -0.000 C 
BRANCH  29  30
ATOM     30  C   UNL     1      19.695   0.827  28.127  1.00  0.00    -0.000 C 
BRANCH  30  31
ATOM     31  C   UNL     1      19.944   1.737  29.346  1.00  0.00    -0.003 C 
ATOM     32  C   UNL     1      18.997   2.937  29.377  1.00  0.00     0.004 C 
ENDBRANCH  30  31
ENDBRANCH  29  30
ENDBRANCH  28  29
ENDBRANCH  27  28
ENDBRANCH  26  27
ENDBRANCH  25  26
ENDBRANCH  24  25
ENDBRANCH  23  24
ENDBRANCH  22  23
ENDBRANCH  21  22
ENDBRANCH  20  21
ENDBRANCH  19  20
ENDBRANCH  18  19
ENDBRANCH   1  18
TORSDOF 28
ENDMDL
