MODEL 1
REMARK VINA RESULT:    -3.993      0.000      0.000
REMARK INTER + INTRA:         -14.707
REMARK INTER:                 -10.063
REMARK INTRA:                  -4.643
REMARK UNBOUND:                -4.643
REMARK SMILES CCCCCCCCCCCCCCCCCCCCCCCCCCCC(=O)[O-]
REMARK SMILES IDX 15 1 16 2 17 3 18 4 19 5 20 6 21 7 22 8 23 9 24 10 25 11
REMARK SMILES IDX 26 12 27 13 28 14 29 15 30 16 14 17 13 18 12 19 11 20 10 21
REMARK SMILES IDX 9 22 8 23 7 24 6 25 5 26 4 27 3 28 2 29 1 30
REMARK H PARENT
REMARK Flexibility Score: inf
ROOT
ATOM      1  C   UNL     1      41.939  19.117 225.314  1.00  0.00     0.000 C 
ENDROOT
BRANCH   1   2
ATOM      2  C   UNL     1      42.817  19.285 224.062  1.00  0.00     0.000 C 
BRANCH   2   3
ATOM      3  C   UNL     1      42.106  19.890 222.834  1.00  0.00     0.000 C 
BRANCH   3   4
ATOM      4  C   UNL     1      42.392  21.391 222.619  1.00  0.00     0.000 C 
BRANCH   4   5
ATOM      5  C   UNL     1      41.270  22.283 223.170  1.00  0.00     0.000 C 
BRANCH   5   6
ATOM      6  C   UNL     1      41.559  22.713 224.614  1.00  0.00     0.000 C 
BRANCH   6   7
ATOM      7  C   UNL     1      41.665  24.241 224.720  1.00  0.00     0.000 C 
BRANCH   7   8
ATOM      8  C   UNL     1      40.342  24.907 225.142  1.00  0.00     0.000 C 
BRANCH   8   9
ATOM      9  C   UNL     1      39.223  24.868 224.078  1.00  0.00     0.000 C 
BRANCH   9  10
ATOM     10  C   UNL     1      37.863  25.432 224.538  1.00  0.00     0.000 C 
BRANCH  10  11
ATOM     11  C   UNL     1      36.804  25.571 223.425  1.00  0.00     0.000 C 
BRANCH  11  12
ATOM     12  C   UNL     1      36.023  24.280 223.107  1.00  0.00     0.006 C 
BRANCH  12  13
ATOM     13  C   UNL     1      36.782  23.280 222.218  1.00  0.00     0.053 C 
BRANCH  13  14
ATOM     14  C   UNL     1      36.768  23.676 220.774  1.00  0.00     0.041 C 
ATOM     15  O   UNL     1      35.821  24.369 220.313  1.00  0.00    -0.550 OA
ATOM     16  O   UNL     1      37.800  23.274 219.931  1.00  0.00    -0.550 OA
ENDBRANCH  13  14
ENDBRANCH  12  13
ENDBRANCH  11  12
ENDBRANCH  10  11
ENDBRANCH   9  10
ENDBRANCH   8   9
ENDBRANCH   7   8
ENDBRANCH   6   7
ENDBRANCH   5   6
ENDBRANCH   4   5
ENDBRANCH   3   4
ENDBRANCH   2   3
ENDBRANCH   1   2
BRANCH   1  17
ATOM     17  C   UNL     1      40.472  18.800 224.979  1.00  0.00     0.000 C 
BRANCH  17  18
ATOM     18  C   UNL     1      39.761  18.016 226.098  1.00  0.00     0.000 C 
BRANCH  18  19
ATOM     19  C   UNL     1      38.223  18.011 226.014  1.00  0.00     0.000 C 
BRANCH  19  20
ATOM     20  C   UNL     1      37.559  18.673 227.233  1.00  0.00     0.000 C 
BRANCH  20  21
ATOM     21  C   UNL     1      36.757  19.916 226.817  1.00  0.00     0.000 C 
BRANCH  21  22
ATOM     22  C   UNL     1      37.218  20.503 225.470  1.00  0.00    -0.000 C 
BRANCH  22  23
ATOM     23  C   UNL     1      38.099  21.764 225.577  1.00  0.00    -0.000 C 
BRANCH  23  24
ATOM     24  C   UNL     1      37.959  22.547 226.897  1.00  0.00    -0.000 C 
BRANCH  24  25
ATOM     25  C   UNL     1      39.251  22.647 227.732  1.00  0.00    -0.000 C 
BRANCH  25  26
ATOM     26  C   UNL     1      40.123  21.375 227.730  1.00  0.00    -0.000 C 
BRANCH  26  27
ATOM     27  C   UNL     1      39.895  20.423 228.921  1.00  0.00    -0.000 C 
BRANCH  27  28
ATOM     28  C   UNL     1      38.962  20.965 230.018  1.00  0.00    -0.000 C 
BRANCH  28  29
ATOM     29  C   UNL     1      39.424  20.587 231.433  1.00  0.00    -0.003 C 
ATOM     30  C   UNL     1      38.274  20.003 232.250  1.00  0.00     0.004 C 
ENDBRANCH  28  29
ENDBRANCH  27  28
ENDBRANCH  26  27
ENDBRANCH  25  26
ENDBRANCH  24  25
ENDBRANCH  23  24
ENDBRANCH  22  23
ENDBRANCH  21  22
ENDBRANCH  20  21
ENDBRANCH  19  20
ENDBRANCH  18  19
ENDBRANCH  17  18
ENDBRANCH   1  17
TORSDOF 26
ENDMDL
MODEL 2
REMARK VINA RESULT:    -3.879      1.801      5.207
REMARK INTER + INTRA:         -14.417
REMARK INTER:                 -10.043
REMARK INTRA:                  -4.374
REMARK UNBOUND:                -4.643
REMARK SMILES CCCCCCCCCCCCCCCCCCCCCCCCCCCC(=O)[O-]
REMARK SMILES IDX 15 1 16 2 17 3 18 4 19 5 20 6 21 7 22 8 23 9 24 10 25 11
REMARK SMILES IDX 26 12 27 13 28 14 29 15 30 16 14 17 13 18 12 19 11 20 10 21
REMARK SMILES IDX 9 22 8 23 7 24 6 25 5 26 4 27 3 28 2 29 1 30
REMARK H PARENT
REMARK Flexibility Score: inf
ROOT
ATOM      1  C   UNL     1      41.604  25.013 225.753  1.00  0.00     0.000 C 
ENDROOT
BRANCH   1   2
ATOM      2  C   UNL     1      40.173  25.543 225.558  1.00  0.00     0.000 C 
BRANCH   2   3
ATOM      3  C   UNL     1      39.889  26.923 226.183  1.00  0.00     0.000 C 
BRANCH   3   4
ATOM      4  C   UNL     1      39.212  26.859 227.568  1.00  0.00     0.000 C 
BRANCH   4   5
ATOM      5  C   UNL     1      38.073  25.829 227.612  1.00  0.00     0.000 C 
BRANCH   5   6
ATOM      6  C   UNL     1      38.081  25.049 228.933  1.00  0.00     0.000 C 
BRANCH   6   7
ATOM      7  C   UNL     1      38.076  23.536 228.675  1.00  0.00     0.000 C 
BRANCH   7   8
ATOM      8  C   UNL     1      38.836  23.142 227.394  1.00  0.00     0.000 C 
BRANCH   8   9
ATOM      9  C   UNL     1      38.465  21.760 226.813  1.00  0.00     0.000 C 
BRANCH   9  10
ATOM     10  C   UNL     1      38.211  21.737 225.291  1.00  0.00     0.000 C 
BRANCH  10  11
ATOM     11  C   UNL     1      37.682  23.059 224.698  1.00  0.00     0.000 C 
BRANCH  11  12
ATOM     12  C   UNL     1      36.798  22.902 223.444  1.00  0.00     0.006 C 
BRANCH  12  13
ATOM     13  C   UNL     1      37.095  23.913 222.325  1.00  0.00     0.053 C 
BRANCH  13  14
ATOM     14  C   UNL     1      35.993  23.982 221.312  1.00  0.00     0.041 C 
ATOM     15  O   UNL     1      36.259  24.157 220.093  1.00  0.00    -0.550 OA
ATOM     16  O   UNL     1      34.668  23.859 221.717  1.00  0.00    -0.550 OA
ENDBRANCH  13  14
ENDBRANCH  12  13
ENDBRANCH  11  12
ENDBRANCH  10  11
ENDBRANCH   9  10
ENDBRANCH   8   9
ENDBRANCH   7   8
ENDBRANCH   6   7
ENDBRANCH   5   6
ENDBRANCH   4   5
ENDBRANCH   3   4
ENDBRANCH   2   3
ENDBRANCH   1   2
BRANCH   1  17
ATOM     17  C   UNL     1      41.904  23.769 224.900  1.00  0.00     0.000 C 
BRANCH  17  18
ATOM     18  C   UNL     1      41.224  23.816 223.519  1.00  0.00     0.000 C 
BRANCH  18  19
ATOM     19  C   UNL     1      40.865  22.442 222.922  1.00  0.00     0.000 C 
BRANCH  19  20
ATOM     20  C   UNL     1      42.101  21.564 222.666  1.00  0.00     0.000 C 
BRANCH  20  21
ATOM     21  C   UNL     1      41.918  20.164 223.272  1.00  0.00     0.000 C 
BRANCH  21  22
ATOM     22  C   UNL     1      42.324  20.095 224.755  1.00  0.00    -0.000 C 
BRANCH  22  23
ATOM     23  C   UNL     1      41.205  19.643 225.715  1.00  0.00    -0.000 C 
BRANCH  23  24
ATOM     24  C   UNL     1      40.334  18.480 225.200  1.00  0.00    -0.000 C 
BRANCH  24  25
ATOM     25  C   UNL     1      40.037  17.383 226.241  1.00  0.00    -0.000 C 
BRANCH  25  26
ATOM     26  C   UNL     1      39.746  17.901 227.664  1.00  0.00    -0.000 C 
BRANCH  26  27
ATOM     27  C   UNL     1      38.306  17.671 228.164  1.00  0.00    -0.000 C 
BRANCH  27  28
ATOM     28  C   UNL     1      37.247  18.602 227.548  1.00  0.00    -0.000 C 
BRANCH  28  29
ATOM     29  C   UNL     1      36.446  17.931 226.422  1.00  0.00    -0.003 C 
ATOM     30  C   UNL     1      35.993  18.954 225.383  1.00  0.00     0.004 C 
ENDBRANCH  28  29
ENDBRANCH  27  28
ENDBRANCH  26  27
ENDBRANCH  25  26
ENDBRANCH  24  25
ENDBRANCH  23  24
ENDBRANCH  22  23
ENDBRANCH  21  22
ENDBRANCH  20  21
ENDBRANCH  19  20
ENDBRANCH  18  19
ENDBRANCH  17  18
ENDBRANCH   1  17
TORSDOF 26
ENDMDL
MODEL 3
REMARK VINA RESULT:    -3.810      3.162      6.385
REMARK INTER + INTRA:         -14.243
REMARK INTER:                  -9.102
REMARK INTRA:                  -5.142
REMARK UNBOUND:                -4.643
REMARK SMILES CCCCCCCCCCCCCCCCCCCCCCCCCCCC(=O)[O-]
REMARK SMILES IDX 15 1 16 2 17 3 18 4 19 5 20 6 21 7 22 8 23 9 24 10 25 11
REMARK SMILES IDX 26 12 27 13 28 14 29 15 30 16 14 17 13 18 12 19 11 20 10 21
REMARK SMILES IDX 9 22 8 23 7 24 6 25 5 26 4 27 3 28 2 29 1 30
REMARK H PARENT
REMARK Flexibility Score: inf
ROOT
ATOM      1  C   UNL     1      42.203  26.709 226.437  1.00  0.00     0.000 C 
ENDROOT
BRANCH   1   2
ATOM      2  C   UNL     1      40.795  26.479 227.011  1.00  0.00     0.000 C 
BRANCH   2   3
ATOM      3  C   UNL     1      39.631  26.911 226.097  1.00  0.00     0.000 C 
BRANCH   3   4
ATOM      4  C   UNL     1      38.525  25.846 225.941  1.00  0.00     0.000 C 
BRANCH   4   5
ATOM      5  C   UNL     1      38.042  25.716 224.489  1.00  0.00     0.000 C 
BRANCH   5   6
ATOM      6  C   UNL     1      36.557  25.335 224.429  1.00  0.00     0.000 C 
BRANCH   6   7
ATOM      7  C   UNL     1      36.275  24.413 223.234  1.00  0.00     0.000 C 
BRANCH   7   8
ATOM      8  C   UNL     1      37.278  23.249 223.124  1.00  0.00     0.000 C 
BRANCH   8   9
ATOM      9  C   UNL     1      37.113  22.142 224.189  1.00  0.00     0.000 C 
BRANCH   9  10
ATOM     10  C   UNL     1      38.332  21.936 225.112  1.00  0.00     0.000 C 
BRANCH  10  11
ATOM     11  C   UNL     1      37.991  21.658 226.590  1.00  0.00     0.000 C 
BRANCH  11  12
ATOM     12  C   UNL     1      38.781  22.505 227.610  1.00  0.00     0.006 C 
BRANCH  12  13
ATOM     13  C   UNL     1      37.926  23.101 228.740  1.00  0.00     0.053 C 
BRANCH  13  14
ATOM     14  C   UNL     1      38.747  23.489 229.932  1.00  0.00     0.041 C 
ATOM     15  O   UNL     1      39.850  22.921 230.157  1.00  0.00    -0.550 OA
ATOM     16  O   UNL     1      38.290  24.474 230.801  1.00  0.00    -0.550 OA
ENDBRANCH  13  14
ENDBRANCH  12  13
ENDBRANCH  11  12
ENDBRANCH  10  11
ENDBRANCH   9  10
ENDBRANCH   8   9
ENDBRANCH   7   8
ENDBRANCH   6   7
ENDBRANCH   5   6
ENDBRANCH   4   5
ENDBRANCH   3   4
ENDBRANCH   2   3
ENDBRANCH   1   2
BRANCH   1  17
ATOM     17  C   UNL     1      42.835  25.427 225.868  1.00  0.00     0.000 C 
BRANCH  17  18
ATOM     18  C   UNL     1      42.147  24.146 226.377  1.00  0.00     0.000 C 
BRANCH  18  19
ATOM     19  C   UNL     1      41.849  23.093 225.294  1.00  0.00     0.000 C 
BRANCH  19  20
ATOM     20  C   UNL     1      41.286  23.710 224.003  1.00  0.00     0.000 C 
BRANCH  20  21
ATOM     21  C   UNL     1      41.153  22.651 222.898  1.00  0.00     0.000 C 
BRANCH  21  22
ATOM     22  C   UNL     1      42.320  21.648 222.885  1.00  0.00    -0.000 C 
BRANCH  22  23
ATOM     23  C   UNL     1      41.907  20.170 222.730  1.00  0.00    -0.000 C 
BRANCH  23  24
ATOM     24  C   UNL     1      41.090  19.596 223.904  1.00  0.00    -0.000 C 
BRANCH  24  25
ATOM     25  C   UNL     1      41.897  19.341 225.192  1.00  0.00    -0.000 C 
BRANCH  25  26
ATOM     26  C   UNL     1      41.178  19.737 226.497  1.00  0.00    -0.000 C 
BRANCH  26  27
ATOM     27  C   UNL     1      40.794  18.560 227.417  1.00  0.00    -0.000 C 
BRANCH  27  28
ATOM     28  C   UNL     1      39.822  17.540 226.796  1.00  0.00    -0.000 C 
BRANCH  28  29
ATOM     29  C   UNL     1      38.555  18.195 226.229  1.00  0.00    -0.003 C 
ATOM     30  C   UNL     1      37.367  17.999 227.167  1.00  0.00     0.004 C 
ENDBRANCH  28  29
ENDBRANCH  27  28
ENDBRANCH  26  27
ENDBRANCH  25  26
ENDBRANCH  24  25
ENDBRANCH  23  24
ENDBRANCH  22  23
ENDBRANCH  21  22
ENDBRANCH  20  21
ENDBRANCH  19  20
ENDBRANCH  18  19
ENDBRANCH  17  18
ENDBRANCH   1  17
TORSDOF 26
ENDMDL
MODEL 4
REMARK VINA RESULT:    -3.795      3.048      6.808
REMARK INTER + INTRA:         -14.207
REMARK INTER:                  -8.753
REMARK INTRA:                  -5.454
REMARK UNBOUND:                -4.643
REMARK SMILES CCCCCCCCCCCCCCCCCCCCCCCCCCCC(=O)[O-]
REMARK SMILES IDX 15 1 16 2 17 3 18 4 19 5 20 6 21 7 22 8 23 9 24 10 25 11
REMARK SMILES IDX 26 12 27 13 28 14 29 15 30 16 14 17 13 18 12 19 11 20 10 21
REMARK SMILES IDX 9 22 8 23 7 24 6 25 5 26 4 27 3 28 2 29 1 30
REMARK H PARENT
REMARK Flexibility Score: inf
ROOT
ATOM      1  C   UNL     1      41.919  20.918 228.036  1.00  0.00     0.000 C 
ENDROOT
BRANCH   1   2
ATOM      2  C   UNL     1      41.018  19.678 228.168  1.00  0.00     0.000 C 
BRANCH   2   3
ATOM      3  C   UNL     1      40.423  19.441 229.570  1.00  0.00     0.000 C 
BRANCH   3   4
ATOM      4  C   UNL     1      39.134  20.243 229.850  1.00  0.00     0.000 C 
BRANCH   4   5
ATOM      5  C   UNL     1      39.423  21.598 230.514  1.00  0.00     0.000 C 
BRANCH   5   6
ATOM      6  C   UNL     1      38.927  22.759 229.644  1.00  0.00     0.000 C 
BRANCH   6   7
ATOM      7  C   UNL     1      37.749  22.320 228.762  1.00  0.00     0.000 C 
BRANCH   7   8
ATOM      8  C   UNL     1      37.879  22.798 227.304  1.00  0.00     0.000 C 
BRANCH   8   9
ATOM      9  C   UNL     1      38.419  21.741 226.315  1.00  0.00     0.000 C 
BRANCH   9  10
ATOM     10  C   UNL     1      37.498  20.523 226.093  1.00  0.00     0.000 C 
BRANCH  10  11
ATOM     11  C   UNL     1      38.224  19.217 225.713  1.00  0.00     0.000 C 
BRANCH  11  12
ATOM     12  C   UNL     1      37.541  17.925 226.209  1.00  0.00     0.006 C 
BRANCH  12  13
ATOM     13  C   UNL     1      37.922  17.513 227.641  1.00  0.00     0.053 C 
BRANCH  13  14
ATOM     14  C   UNL     1      39.021  16.495 227.666  1.00  0.00     0.041 C 
ATOM     15  O   UNL     1      39.068  15.632 228.584  1.00  0.00    -0.550 OA
ATOM     16  O   UNL     1      40.001  16.504 226.679  1.00  0.00    -0.550 OA
ENDBRANCH  13  14
ENDBRANCH  12  13
ENDBRANCH  11  12
ENDBRANCH  10  11
ENDBRANCH   9  10
ENDBRANCH   8   9
ENDBRANCH   7   8
ENDBRANCH   6   7
ENDBRANCH   5   6
ENDBRANCH   4   5
ENDBRANCH   3   4
ENDBRANCH   2   3
ENDBRANCH   1   2
BRANCH   1  17
ATOM     17  C   UNL     1      41.911  21.516 226.619  1.00  0.00     0.000 C 
BRANCH  17  18
ATOM     18  C   UNL     1      42.170  20.464 225.525  1.00  0.00     0.000 C 
BRANCH  18  19
ATOM     19  C   UNL     1      41.373  20.667 224.223  1.00  0.00     0.000 C 
BRANCH  19  20
ATOM     20  C   UNL     1      41.839  21.897 223.427  1.00  0.00     0.000 C 
BRANCH  20  21
ATOM     21  C   UNL     1      40.641  22.720 222.930  1.00  0.00     0.000 C 
BRANCH  21  22
ATOM     22  C   UNL     1      40.633  24.158 223.481  1.00  0.00    -0.000 C 
BRANCH  22  23
ATOM     23  C   UNL     1      40.380  24.273 224.998  1.00  0.00    -0.000 C 
BRANCH  23  24
ATOM     24  C   UNL     1      39.952  25.672 225.483  1.00  0.00    -0.000 C 
BRANCH  24  25
ATOM     25  C   UNL     1      38.667  26.219 224.830  1.00  0.00    -0.000 C 
BRANCH  25  26
ATOM     26  C   UNL     1      37.355  25.754 225.493  1.00  0.00    -0.000 C 
BRANCH  26  27
ATOM     27  C   UNL     1      36.451  24.872 224.608  1.00  0.00    -0.000 C 
BRANCH  27  28
ATOM     28  C   UNL     1      36.642  25.060 223.092  1.00  0.00    -0.000 C 
BRANCH  28  29
ATOM     29  C   UNL     1      37.113  23.779 222.389  1.00  0.00    -0.003 C 
ATOM     30  C   UNL     1      36.681  22.536 223.162  1.00  0.00     0.004 C 
ENDBRANCH  28  29
ENDBRANCH  27  28
ENDBRANCH  26  27
ENDBRANCH  25  26
ENDBRANCH  24  25
ENDBRANCH  23  24
ENDBRANCH  22  23
ENDBRANCH  21  22
ENDBRANCH  20  21
ENDBRANCH  19  20
ENDBRANCH  18  19
ENDBRANCH  17  18
ENDBRANCH   1  17
TORSDOF 26
ENDMDL
MODEL 5
REMARK VINA RESULT:    -3.762      3.695      7.652
REMARK INTER + INTRA:         -14.124
REMARK INTER:                  -9.293
REMARK INTRA:                  -4.831
REMARK UNBOUND:                -4.643
REMARK SMILES CCCCCCCCCCCCCCCCCCCCCCCCCCCC(=O)[O-]
REMARK SMILES IDX 15 1 16 2 17 3 18 4 19 5 20 6 21 7 22 8 23 9 24 10 25 11
REMARK SMILES IDX 26 12 27 13 28 14 29 15 30 16 14 17 13 18 12 19 11 20 10 21
REMARK SMILES IDX 9 22 8 23 7 24 6 25 5 26 4 27 3 28 2 29 1 30
REMARK H PARENT
REMARK Flexibility Score: inf
ROOT
ATOM      1  C   UNL     1      41.903  20.775 226.046  1.00  0.00     0.000 C 
ENDROOT
BRANCH   1   2
ATOM      2  C   UNL     1      41.515  20.474 227.504  1.00  0.00     0.000 C 
BRANCH   2   3
ATOM      3  C   UNL     1      40.312  21.273 228.045  1.00  0.00     0.000 C 
BRANCH   3   4
ATOM      4  C   UNL     1      39.234  21.580 226.985  1.00  0.00     0.000 C 
BRANCH   4   5
ATOM      5  C   UNL     1      37.871  20.971 227.346  1.00  0.00     0.000 C 
BRANCH   5   6
ATOM      6  C   UNL     1      37.274  20.203 226.160  1.00  0.00     0.000 C 
BRANCH   6   7
ATOM      7  C   UNL     1      37.418  18.687 226.360  1.00  0.00     0.000 C 
BRANCH   7   8
ATOM      8  C   UNL     1      38.773  18.143 225.867  1.00  0.00     0.000 C 
BRANCH   8   9
ATOM      9  C   UNL     1      39.555  17.305 226.902  1.00  0.00     0.000 C 
BRANCH   9  10
ATOM     10  C   UNL     1      39.073  17.451 228.361  1.00  0.00     0.000 C 
BRANCH  10  11
ATOM     11  C   UNL     1      40.187  17.385 229.425  1.00  0.00     0.000 C 
BRANCH  11  12
ATOM     12  C   UNL     1      40.196  18.554 230.431  1.00  0.00     0.006 C 
BRANCH  12  13
ATOM     13  C   UNL     1      38.799  19.050 230.843  1.00  0.00     0.053 C 
BRANCH  13  14
ATOM     14  C   UNL     1      38.798  19.689 232.198  1.00  0.00     0.041 C 
ATOM     15  O   UNL     1      39.855  19.728 232.884  1.00  0.00    -0.550 OA
ATOM     16  O   UNL     1      37.626  20.237 232.708  1.00  0.00    -0.550 OA
ENDBRANCH  13  14
ENDBRANCH  12  13
ENDBRANCH  11  12
ENDBRANCH  10  11
ENDBRANCH   9  10
ENDBRANCH   8   9
ENDBRANCH   7   8
ENDBRANCH   6   7
ENDBRANCH   5   6
ENDBRANCH   4   5
ENDBRANCH   3   4
ENDBRANCH   2   3
ENDBRANCH   1   2
BRANCH   1  17
ATOM     17  C   UNL     1      41.884  19.525 225.151  1.00  0.00     0.000 C 
BRANCH  17  18
ATOM     18  C   UNL     1      42.021  19.861 223.654  1.00  0.00     0.000 C 
BRANCH  18  19
ATOM     19  C   UNL     1      42.297  21.344 223.341  1.00  0.00     0.000 C 
BRANCH  19  20
ATOM     20  C   UNL     1      41.122  22.030 222.626  1.00  0.00     0.000 C 
BRANCH  20  21
ATOM     21  C   UNL     1      40.314  22.899 223.601  1.00  0.00     0.000 C 
BRANCH  21  22
ATOM     22  C   UNL     1      40.939  24.288 223.824  1.00  0.00    -0.000 C 
BRANCH  22  23
ATOM     23  C   UNL     1      41.230  24.642 225.297  1.00  0.00    -0.000 C 
BRANCH  23  24
ATOM     24  C   UNL     1      39.986  24.737 226.202  1.00  0.00    -0.000 C 
BRANCH  24  25
ATOM     25  C   UNL     1      39.049  25.921 225.892  1.00  0.00    -0.000 C 
BRANCH  25  26
ATOM     26  C   UNL     1      37.551  25.562 225.828  1.00  0.00    -0.000 C 
BRANCH  26  27
ATOM     27  C   UNL     1      37.228  24.213 225.154  1.00  0.00    -0.000 C 
BRANCH  27  28
ATOM     28  C   UNL     1      36.422  24.316 223.847  1.00  0.00    -0.000 C 
BRANCH  28  29
ATOM     29  C   UNL     1      36.689  23.145 222.890  1.00  0.00    -0.003 C 
ATOM     30  C   UNL     1      36.648  23.604 221.435  1.00  0.00     0.004 C 
ENDBRANCH  28  29
ENDBRANCH  27  28
ENDBRANCH  26  27
ENDBRANCH  25  26
ENDBRANCH  24  25
ENDBRANCH  23  24
ENDBRANCH  22  23
ENDBRANCH  21  22
ENDBRANCH  20  21
ENDBRANCH  19  20
ENDBRANCH  18  19
ENDBRANCH  17  18
ENDBRANCH   1  17
TORSDOF 26
ENDMDL
MODEL 6
REMARK VINA RESULT:    -3.756      1.885      4.541
REMARK INTER + INTRA:         -14.107
REMARK INTER:                  -8.424
REMARK INTRA:                  -5.683
REMARK UNBOUND:                -4.643
REMARK SMILES CCCCCCCCCCCCCCCCCCCCCCCCCCCC(=O)[O-]
REMARK SMILES IDX 15 1 16 2 17 3 18 4 19 5 20 6 21 7 22 8 23 9 24 10 25 11
REMARK SMILES IDX 26 12 27 13 28 14 29 15 30 16 14 17 13 18 12 19 11 20 10 21
REMARK SMILES IDX 9 22 8 23 7 24 6 25 5 26 4 27 3 28 2 29 1 30
REMARK H PARENT
REMARK Flexibility Score: inf
ROOT
ATOM      1  C   UNL     1      40.412  26.163 226.956  1.00  0.00     0.000 C 
ENDROOT
BRANCH   1   2
ATOM      2  C   UNL     1      41.773  26.039 226.251  1.00  0.00     0.000 C 
BRANCH   2   3
ATOM      3  C   UNL     1      42.624  24.824 226.668  1.00  0.00     0.000 C 
BRANCH   3   4
ATOM      4  C   UNL     1      42.346  24.324 228.101  1.00  0.00     0.000 C 
BRANCH   4   5
ATOM      5  C   UNL     1      42.218  22.794 228.171  1.00  0.00     0.000 C 
BRANCH   5   6
ATOM      6  C   UNL     1      42.710  22.136 226.876  1.00  0.00     0.000 C 
BRANCH   6   7
ATOM      7  C   UNL     1      41.858  20.908 226.527  1.00  0.00     0.000 C 
BRANCH   7   8
ATOM      8  C   UNL     1      41.041  21.091 225.235  1.00  0.00     0.000 C 
BRANCH   8   9
ATOM      9  C   UNL     1      41.851  20.966 223.926  1.00  0.00     0.000 C 
BRANCH   9  10
ATOM     10  C   UNL     1      41.715  22.159 222.956  1.00  0.00     0.000 C 
BRANCH  10  11
ATOM     11  C   UNL     1      41.177  23.457 223.591  1.00  0.00     0.000 C 
BRANCH  11  12
ATOM     12  C   UNL     1      39.936  24.055 222.897  1.00  0.00     0.006 C 
BRANCH  12  13
ATOM     13  C   UNL     1      38.675  23.179 222.985  1.00  0.00     0.053 C 
BRANCH  13  14
ATOM     14  C   UNL     1      37.458  23.880 222.463  1.00  0.00     0.041 C 
ATOM     15  O   UNL     1      37.051  24.941 223.009  1.00  0.00    -0.550 OA
ATOM     16  O   UNL     1      36.766  23.356 221.375  1.00  0.00    -0.550 OA
ENDBRANCH  13  14
ENDBRANCH  12  13
ENDBRANCH  11  12
ENDBRANCH  10  11
ENDBRANCH   9  10
ENDBRANCH   8   9
ENDBRANCH   7   8
ENDBRANCH   6   7
ENDBRANCH   5   6
ENDBRANCH   4   5
ENDBRANCH   3   4
ENDBRANCH   2   3
ENDBRANCH   1   2
BRANCH   1  17
ATOM     17  C   UNL     1      39.226  26.152 225.977  1.00  0.00     0.000 C 
BRANCH  17  18
ATOM     18  C   UNL     1      38.297  24.941 226.178  1.00  0.00     0.000 C 
BRANCH  18  19
ATOM     19  C   UNL     1      38.998  23.652 226.647  1.00  0.00     0.000 C 
BRANCH  19  20
ATOM     20  C   UNL     1      38.361  23.056 227.913  1.00  0.00     0.000 C 
BRANCH  20  21
ATOM     21  C   UNL     1      38.585  21.538 227.982  1.00  0.00     0.000 C 
BRANCH  21  22
ATOM     22  C   UNL     1      37.378  20.731 227.470  1.00  0.00    -0.000 C 
BRANCH  22  23
ATOM     23  C   UNL     1      37.556  20.112 226.069  1.00  0.00    -0.000 C 
BRANCH  23  24
ATOM     24  C   UNL     1      37.686  18.576 226.046  1.00  0.00    -0.000 C 
BRANCH  24  25
ATOM     25  C   UNL     1      39.133  18.049 225.976  1.00  0.00    -0.000 C 
BRANCH  25  26
ATOM     26  C   UNL     1      39.583  17.223 227.197  1.00  0.00    -0.000 C 
BRANCH  26  27
ATOM     27  C   UNL     1      40.805  17.782 227.953  1.00  0.00    -0.000 C 
BRANCH  27  28
ATOM     28  C   UNL     1      40.515  18.283 229.379  1.00  0.00    -0.000 C 
BRANCH  28  29
ATOM     29  C   UNL     1      39.019  18.254 229.727  1.00  0.00    -0.003 C 
ATOM     30  C   UNL     1      38.713  19.164 230.914  1.00  0.00     0.004 C 
ENDBRANCH  28  29
ENDBRANCH  27  28
ENDBRANCH  26  27
ENDBRANCH  25  26
ENDBRANCH  24  25
ENDBRANCH  23  24
ENDBRANCH  22  23
ENDBRANCH  21  22
ENDBRANCH  20  21
ENDBRANCH  19  20
ENDBRANCH  18  19
ENDBRANCH  17  18
ENDBRANCH   1  17
TORSDOF 26
ENDMDL
MODEL 7
REMARK VINA RESULT:    -3.726      1.489      2.884
REMARK INTER + INTRA:         -14.033
REMARK INTER:                  -9.598
REMARK INTRA:                  -4.435
REMARK UNBOUND:                -4.643
REMARK SMILES CCCCCCCCCCCCCCCCCCCCCCCCCCCC(=O)[O-]
REMARK SMILES IDX 15 1 16 2 17 3 18 4 19 5 20 6 21 7 22 8 23 9 24 10 25 11
REMARK SMILES IDX 26 12 27 13 28 14 29 15 30 16 14 17 13 18 12 19 11 20 10 21
REMARK SMILES IDX 9 22 8 23 7 24 6 25 5 26 4 27 3 28 2 29 1 30
REMARK H PARENT
REMARK Flexibility Score: inf
ROOT
ATOM      1  C   UNL     1      41.960  19.558 225.054  1.00  0.00     0.000 C 
ENDROOT
BRANCH   1   2
ATOM      2  C   UNL     1      41.756  20.147 223.648  1.00  0.00     0.000 C 
BRANCH   2   3
ATOM      3  C   UNL     1      42.035  21.657 223.518  1.00  0.00     0.000 C 
BRANCH   3   4
ATOM      4  C   UNL     1      40.854  22.467 222.941  1.00  0.00     0.000 C 
BRANCH   4   5
ATOM      5  C   UNL     1      39.923  23.003 224.038  1.00  0.00     0.000 C 
BRANCH   5   6
ATOM      6  C   UNL     1      40.718  23.689 225.156  1.00  0.00     0.000 C 
BRANCH   6   7
ATOM      7  C   UNL     1      39.802  24.566 226.022  1.00  0.00     0.000 C 
BRANCH   7   8
ATOM      8  C   UNL     1      39.253  25.791 225.266  1.00  0.00     0.000 C 
BRANCH   8   9
ATOM      9  C   UNL     1      37.720  25.809 225.078  1.00  0.00     0.000 C 
BRANCH   9  10
ATOM     10  C   UNL     1      37.233  25.489 223.649  1.00  0.00     0.000 C 
BRANCH  10  11
ATOM     11  C   UNL     1      36.000  24.566 223.572  1.00  0.00     0.000 C 
BRANCH  11  12
ATOM     12  C   UNL     1      36.056  23.498 222.461  1.00  0.00     0.006 C 
BRANCH  12  13
ATOM     13  C   UNL     1      37.281  23.605 221.537  1.00  0.00     0.053 C 
BRANCH  13  14
ATOM     14  C   UNL     1      36.900  23.636 220.088  1.00  0.00     0.041 C 
ATOM     15  O   UNL     1      37.614  23.051 219.229  1.00  0.00    -0.550 OA
ATOM     16  O   UNL     1      35.757  24.318 219.684  1.00  0.00    -0.550 OA
ENDBRANCH  13  14
ENDBRANCH  12  13
ENDBRANCH  11  12
ENDBRANCH  10  11
ENDBRANCH   9  10
ENDBRANCH   8   9
ENDBRANCH   7   8
ENDBRANCH   6   7
ENDBRANCH   5   6
ENDBRANCH   4   5
ENDBRANCH   3   4
ENDBRANCH   2   3
ENDBRANCH   1   2
BRANCH   1  17
ATOM     17  C   UNL     1      40.925  20.065 226.072  1.00  0.00     0.000 C 
BRANCH  17  18
ATOM     18  C   UNL     1      39.477  19.731 225.668  1.00  0.00     0.000 C 
BRANCH  18  19
ATOM     19  C   UNL     1      38.968  18.357 226.142  1.00  0.00     0.000 C 
BRANCH  19  20
ATOM     20  C   UNL     1      37.847  18.468 227.189  1.00  0.00     0.000 C 
BRANCH  20  21
ATOM     21  C   UNL     1      37.609  17.122 227.889  1.00  0.00     0.000 C 
BRANCH  21  22
ATOM     22  C   UNL     1      38.841  16.200 227.848  1.00  0.00    -0.000 C 
BRANCH  22  23
ATOM     23  C   UNL     1      39.714  16.225 229.119  1.00  0.00    -0.000 C 
BRANCH  23  24
ATOM     24  C   UNL     1      40.687  17.416 229.219  1.00  0.00    -0.000 C 
BRANCH  24  25
ATOM     25  C   UNL     1      40.306  18.479 230.269  1.00  0.00    -0.000 C 
BRANCH  25  26
ATOM     26  C   UNL     1      40.557  19.937 229.836  1.00  0.00    -0.000 C 
BRANCH  26  27
ATOM     27  C   UNL     1      39.324  20.861 229.900  1.00  0.00    -0.000 C 
BRANCH  27  28
ATOM     28  C   UNL     1      39.180  21.835 228.717  1.00  0.00    -0.000 C 
BRANCH  28  29
ATOM     29  C   UNL     1      37.719  22.045 228.293  1.00  0.00    -0.003 C 
ATOM     30  C   UNL     1      37.316  23.512 228.412  1.00  0.00     0.004 C 
ENDBRANCH  28  29
ENDBRANCH  27  28
ENDBRANCH  26  27
ENDBRANCH  25  26
ENDBRANCH  24  25
ENDBRANCH  23  24
ENDBRANCH  22  23
ENDBRANCH  21  22
ENDBRANCH  20  21
ENDBRANCH  19  20
ENDBRANCH  18  19
ENDBRANCH  17  18
ENDBRANCH   1  17
TORSDOF 26
ENDMDL
MODEL 8
REMARK VINA RESULT:    -3.702      3.308      6.633
REMARK INTER + INTRA:         -13.972
REMARK INTER:                  -9.016
REMARK INTRA:                  -4.956
REMARK UNBOUND:                -4.643
REMARK SMILES CCCCCCCCCCCCCCCCCCCCCCCCCCCC(=O)[O-]
REMARK SMILES IDX 15 1 16 2 17 3 18 4 19 5 20 6 21 7 22 8 23 9 24 10 25 11
REMARK SMILES IDX 26 12 27 13 28 14 29 15 30 16 14 17 13 18 12 19 11 20 10 21
REMARK SMILES IDX 9 22 8 23 7 24 6 25 5 26 4 27 3 28 2 29 1 30
REMARK H PARENT
REMARK Flexibility Score: inf
ROOT
ATOM      1  C   UNL     1      38.095  22.219 225.436  1.00  0.00     0.000 C 
ENDROOT
BRANCH   1   2
ATOM      2  C   UNL     1      37.305  23.064 224.421  1.00  0.00     0.000 C 
BRANCH   2   3
ATOM      3  C   UNL     1      38.129  23.622 223.244  1.00  0.00     0.000 C 
BRANCH   3   4
ATOM      4  C   UNL     1      39.163  24.693 223.651  1.00  0.00     0.000 C 
BRANCH   4   5
ATOM      5  C   UNL     1      40.608  24.219 223.437  1.00  0.00     0.000 C 
BRANCH   5   6
ATOM      6  C   UNL     1      40.648  22.844 222.759  1.00  0.00     0.000 C 
BRANCH   6   7
ATOM      7  C   UNL     1      41.970  22.123 223.059  1.00  0.00     0.000 C 
BRANCH   7   8
ATOM      8  C   UNL     1      42.021  20.697 222.479  1.00  0.00     0.000 C 
BRANCH   8   9
ATOM      9  C   UNL     1      41.752  19.567 223.497  1.00  0.00     0.000 C 
BRANCH   9  10
ATOM     10  C   UNL     1      40.841  19.956 224.679  1.00  0.00     0.000 C 
BRANCH  10  11
ATOM     11  C   UNL     1      41.389  19.589 226.074  1.00  0.00     0.000 C 
BRANCH  11  12
ATOM     12  C   UNL     1      40.693  18.392 226.752  1.00  0.00     0.006 C 
BRANCH  12  13
ATOM     13  C   UNL     1      39.243  18.156 226.296  1.00  0.00     0.053 C 
BRANCH  13  14
ATOM     14  C   UNL     1      38.250  18.456 227.377  1.00  0.00     0.041 C 
ATOM     15  O   UNL     1      37.360  19.330 227.200  1.00  0.00    -0.550 OA
ATOM     16  O   UNL     1      38.312  17.771 228.587  1.00  0.00    -0.550 OA
ENDBRANCH  13  14
ENDBRANCH  12  13
ENDBRANCH  11  12
ENDBRANCH  10  11
ENDBRANCH   9  10
ENDBRANCH   8   9
ENDBRANCH   7   8
ENDBRANCH   6   7
ENDBRANCH   5   6
ENDBRANCH   4   5
ENDBRANCH   3   4
ENDBRANCH   2   3
ENDBRANCH   1   2
BRANCH   1  17
ATOM     17  C   UNL     1      38.188  22.880 226.822  1.00  0.00     0.000 C 
BRANCH  17  18
ATOM     18  C   UNL     1      39.366  22.348 227.658  1.00  0.00     0.000 C 
BRANCH  18  19
ATOM     19  C   UNL     1      40.534  23.334 227.842  1.00  0.00     0.000 C 
BRANCH  19  20
ATOM     20  C   UNL     1      41.635  23.156 226.784  1.00  0.00     0.000 C 
BRANCH  20  21
ATOM     21  C   UNL     1      42.989  22.850 227.442  1.00  0.00     0.000 C 
BRANCH  21  22
ATOM     22  C   UNL     1      43.561  24.047 228.222  1.00  0.00    -0.000 C 
BRANCH  22  23
ATOM     23  C   UNL     1      44.954  24.520 227.760  1.00  0.00    -0.000 C 
BRANCH  23  24
ATOM     24  C   UNL     1      44.976  25.887 227.048  1.00  0.00    -0.000 C 
BRANCH  24  25
ATOM     25  C   UNL     1      43.695  26.227 226.260  1.00  0.00    -0.000 C 
BRANCH  25  26
ATOM     26  C   UNL     1      42.900  27.430 226.806  1.00  0.00    -0.000 C 
BRANCH  26  27
ATOM     27  C   UNL     1      41.495  27.096 227.346  1.00  0.00    -0.000 C 
BRANCH  27  28
ATOM     28  C   UNL     1      40.470  26.677 226.277  1.00  0.00    -0.000 C 
BRANCH  28  29
ATOM     29  C   UNL     1      39.039  26.584 226.829  1.00  0.00    -0.003 C 
ATOM     30  C   UNL     1      39.027  26.712 228.350  1.00  0.00     0.004 C 
ENDBRANCH  28  29
ENDBRANCH  27  28
ENDBRANCH  26  27
ENDBRANCH  25  26
ENDBRANCH  24  25
ENDBRANCH  23  24
ENDBRANCH  22  23
ENDBRANCH  21  22
ENDBRANCH  20  21
ENDBRANCH  19  20
ENDBRANCH  18  19
ENDBRANCH  17  18
ENDBRANCH   1  17
TORSDOF 26
ENDMDL
MODEL 9
REMARK VINA RESULT:    -3.690      3.380      5.902
REMARK INTER + INTRA:         -13.943
REMARK INTER:                  -8.988
REMARK INTRA:                  -4.955
REMARK UNBOUND:                -4.643
REMARK SMILES CCCCCCCCCCCCCCCCCCCCCCCCCCCC(=O)[O-]
REMARK SMILES IDX 15 1 16 2 17 3 18 4 19 5 20 6 21 7 22 8 23 9 24 10 25 11
REMARK SMILES IDX 26 12 27 13 28 14 29 15 30 16 14 17 13 18 12 19 11 20 10 21
REMARK SMILES IDX 9 22 8 23 7 24 6 25 5 26 4 27 3 28 2 29 1 30
REMARK H PARENT
REMARK Flexibility Score: inf
ROOT
ATOM      1  C   UNL     1      40.593  23.809 223.984  1.00  0.00     0.000 C 
ENDROOT
BRANCH   1   2
ATOM      2  C   UNL     1      39.971  24.012 222.592  1.00  0.00     0.000 C 
BRANCH   2   3
ATOM      3  C   UNL     1      38.486  23.616 222.469  1.00  0.00     0.000 C 
BRANCH   3   4
ATOM      4  C   UNL     1      37.893  22.995 223.751  1.00  0.00     0.000 C 
BRANCH   4   5
ATOM      5  C   UNL     1      36.505  23.563 224.085  1.00  0.00     0.000 C 
BRANCH   5   6
ATOM      6  C   UNL     1      36.591  25.042 224.481  1.00  0.00     0.000 C 
BRANCH   6   7
ATOM      7  C   UNL     1      36.727  25.195 226.003  1.00  0.00     0.000 C 
BRANCH   7   8
ATOM      8  C   UNL     1      38.184  25.402 226.457  1.00  0.00     0.000 C 
BRANCH   8   9
ATOM      9  C   UNL     1      38.971  26.469 225.664  1.00  0.00     0.000 C 
BRANCH   9  10
ATOM     10  C   UNL     1      40.259  26.974 226.346  1.00  0.00     0.000 C 
BRANCH  10  11
ATOM     11  C   UNL     1      41.113  25.880 227.018  1.00  0.00     0.000 C 
BRANCH  11  12
ATOM     12  C   UNL     1      42.544  25.738 226.458  1.00  0.00     0.006 C 
BRANCH  12  13
ATOM     13  C   UNL     1      43.423  24.724 227.209  1.00  0.00     0.053 C 
BRANCH  13  14
ATOM     14  C   UNL     1      44.749  25.300 227.600  1.00  0.00     0.041 C 
ATOM     15  O   UNL     1      44.902  26.548 227.687  1.00  0.00    -0.550 OA
ATOM     16  O   UNL     1      45.824  24.456 227.863  1.00  0.00    -0.550 OA
ENDBRANCH  13  14
ENDBRANCH  12  13
ENDBRANCH  11  12
ENDBRANCH  10  11
ENDBRANCH   9  10
ENDBRANCH   8   9
ENDBRANCH   7   8
ENDBRANCH   6   7
ENDBRANCH   5   6
ENDBRANCH   4   5
ENDBRANCH   3   4
ENDBRANCH   2   3
ENDBRANCH   1   2
BRANCH   1  17
ATOM     17  C   UNL     1      41.721  22.764 223.990  1.00  0.00     0.000 C 
BRANCH  17  18
ATOM     18  C   UNL     1      41.681  21.836 222.761  1.00  0.00     0.000 C 
BRANCH  18  19
ATOM     19  C   UNL     1      42.794  20.773 222.710  1.00  0.00     0.000 C 
BRANCH  19  20
ATOM     20  C   UNL     1      42.430  19.494 223.483  1.00  0.00     0.000 C 
BRANCH  20  21
ATOM     21  C   UNL     1      42.458  19.739 224.999  1.00  0.00     0.000 C 
BRANCH  21  22
ATOM     22  C   UNL     1      41.352  18.976 225.749  1.00  0.00    -0.000 C 
BRANCH  22  23
ATOM     23  C   UNL     1      39.962  19.021 225.081  1.00  0.00    -0.000 C 
BRANCH  23  24
ATOM     24  C   UNL     1      38.823  18.385 225.903  1.00  0.00    -0.000 C 
BRANCH  24  25
ATOM     25  C   UNL     1      38.425  19.166 227.171  1.00  0.00    -0.000 C 
BRANCH  25  26
ATOM     26  C   UNL     1      37.604  20.444 226.913  1.00  0.00    -0.000 C 
BRANCH  26  27
ATOM     27  C   UNL     1      38.225  21.744 227.462  1.00  0.00    -0.000 C 
BRANCH  27  28
ATOM     28  C   UNL     1      39.579  22.131 226.840  1.00  0.00    -0.000 C 
BRANCH  28  29
ATOM     29  C   UNL     1      40.686  22.311 227.889  1.00  0.00    -0.003 C 
ATOM     30  C   UNL     1      40.118  22.842 229.203  1.00  0.00     0.004 C 
ENDBRANCH  28  29
ENDBRANCH  27  28
ENDBRANCH  26  27
ENDBRANCH  25  26
ENDBRANCH  24  25
ENDBRANCH  23  24
ENDBRANCH  22  23
ENDBRANCH  21  22
ENDBRANCH  20  21
ENDBRANCH  19  20
ENDBRANCH  18  19
ENDBRANCH  17  18
ENDBRANCH   1  17
TORSDOF 26
ENDMDL
