MODEL 1
REMARK VINA RESULT:    -2.319      0.000      0.000
REMARK INTER + INTRA:          -5.850
REMARK INTER:                  -6.116
REMARK INTRA:                   0.265
REMARK UNBOUND:                 0.265
REMARK SMILES CCCCCCCCCCCCCCCCCCCCCCCCCCCCCC(=O)[O-]
REMARK SMILES IDX 16 1 17 2 18 3 19 4 20 5 21 6 22 7 23 8 24 9 25 10 26 11
REMARK SMILES IDX 27 12 28 13 29 14 30 15 31 16 32 17 15 18 14 19 13 20 12 21
REMARK SMILES IDX 11 22 10 23 9 24 8 25 7 26 6 27 5 28 4 29 3 30 2 31 1 32
REMARK H PARENT
REMARK Flexibility Score: inf
ROOT
ATOM      1  C   UNL     1      -5.278   2.910 -11.824  1.00  0.00     0.000 C 
ENDROOT
BRANCH   1   2
ATOM      2  C   UNL     1      -4.814   4.377 -11.843  1.00  0.00     0.000 C 
BRANCH   2   3
ATOM      3  C   UNL     1      -6.008   5.356 -11.804  1.00  0.00     0.000 C 
BRANCH   3   4
ATOM      4  C   UNL     1      -6.027   6.258 -10.560  1.00  0.00     0.000 C 
BRANCH   4   5
ATOM      5  C   UNL     1      -5.976   7.758 -10.903  1.00  0.00     0.000 C 
BRANCH   5   6
ATOM      6  C   UNL     1      -6.951   8.138 -12.038  1.00  0.00     0.000 C 
BRANCH   6   7
ATOM      7  C   UNL     1      -8.430   8.159 -11.613  1.00  0.00     0.000 C 
BRANCH   7   8
ATOM      8  C   UNL     1      -8.711   9.123 -10.453  1.00  0.00     0.000 C 
BRANCH   8   9
ATOM      9  C   UNL     1      -9.040   8.357  -9.163  1.00  0.00     0.000 C 
BRANCH   9  10
ATOM     10  C   UNL     1      -8.846   6.837  -9.302  1.00  0.00     0.000 C 
BRANCH  10  11
ATOM     11  C   UNL     1     -10.125   6.039  -9.632  1.00  0.00     0.000 C 
BRANCH  11  12
ATOM     12  C   UNL     1     -10.084   4.551  -9.243  1.00  0.00     0.000 C 
BRANCH  12  13
ATOM     13  C   UNL     1     -11.125   3.708  -9.991  1.00  0.00     0.006 C 
BRANCH  13  14
ATOM     14  C   UNL     1     -10.971   3.872 -11.508  1.00  0.00     0.053 C 
BRANCH  14  15
ATOM     15  C   UNL     1      -9.533   3.775 -11.909  1.00  0.00     0.041 C 
ATOM     16  O   UNL     1      -9.007   2.649 -12.124  1.00  0.00    -0.550 OA
ATOM     17  O   UNL     1      -8.772   4.929 -12.049  1.00  0.00    -0.550 OA
ENDBRANCH  14  15
ENDBRANCH  13  14
ENDBRANCH  12  13
ENDBRANCH  11  12
ENDBRANCH  10  11
ENDBRANCH   9  10
ENDBRANCH   8   9
ENDBRANCH   7   8
ENDBRANCH   6   7
ENDBRANCH   5   6
ENDBRANCH   4   5
ENDBRANCH   3   4
ENDBRANCH   2   3
ENDBRANCH   1   2
BRANCH   1  18
ATOM     18  C   UNL     1      -4.160   1.932 -11.431  1.00  0.00     0.000 C 
BRANCH  18  19
ATOM     19  C   UNL     1      -2.809   2.293 -12.075  1.00  0.00     0.000 C 
BRANCH  19  20
ATOM     20  C   UNL     1      -1.836   1.104 -12.120  1.00  0.00     0.000 C 
BRANCH  20  21
ATOM     21  C   UNL     1      -2.544  -0.270 -12.101  1.00  0.00     0.000 C 
BRANCH  21  22
ATOM     22  C   UNL     1      -3.135  -0.597 -10.719  1.00  0.00     0.000 C 
BRANCH  22  23
ATOM     23  C   UNL     1      -3.252  -2.115 -10.465  1.00  0.00     0.000 C 
BRANCH  23  24
ATOM     24  C   UNL     1      -4.522  -2.751 -11.061  1.00  0.00    -0.000 C 
BRANCH  24  25
ATOM     25  C   UNL     1      -4.652  -4.269 -10.840  1.00  0.00    -0.000 C 
BRANCH  25  26
ATOM     26  C   UNL     1      -5.952  -4.901 -11.381  1.00  0.00    -0.000 C 
BRANCH  26  27
ATOM     27  C   UNL     1      -7.213  -4.631 -10.540  1.00  0.00    -0.000 C 
BRANCH  27  28
ATOM     28  C   UNL     1      -8.471  -4.422 -11.398  1.00  0.00    -0.000 C 
BRANCH  28  29
ATOM     29  C   UNL     1      -8.838  -2.936 -11.555  1.00  0.00    -0.000 C 
BRANCH  29  30
ATOM     30  C   UNL     1      -9.745  -2.410 -10.421  1.00  0.00    -0.000 C 
BRANCH  30  31
ATOM     31  C   UNL     1     -10.994  -1.701 -10.965  1.00  0.00    -0.003 C 
ATOM     32  C   UNL     1     -10.618  -0.481 -11.799  1.00  0.00     0.004 C 
ENDBRANCH  30  31
ENDBRANCH  29  30
ENDBRANCH  28  29
ENDBRANCH  27  28
ENDBRANCH  26  27
ENDBRANCH  25  26
ENDBRANCH  24  25
ENDBRANCH  23  24
ENDBRANCH  22  23
ENDBRANCH  21  22
ENDBRANCH  20  21
ENDBRANCH  19  20
ENDBRANCH  18  19
ENDBRANCH   1  18
TORSDOF 28
ENDMDL
MODEL 2
REMARK VINA RESULT:    -2.159     15.112     19.870
REMARK INTER + INTRA:          -5.427
REMARK INTER:                  -4.678
REMARK INTRA:                  -0.749
REMARK UNBOUND:                 0.265
REMARK SMILES CCCCCCCCCCCCCCCCCCCCCCCCCCCCCC(=O)[O-]
REMARK SMILES IDX 16 1 17 2 18 3 19 4 20 5 21 6 22 7 23 8 24 9 25 10 26 11
REMARK SMILES IDX 27 12 28 13 29 14 30 15 31 16 32 17 15 18 14 19 13 20 12 21
REMARK SMILES IDX 11 22 10 23 9 24 8 25 7 26 6 27 5 28 4 29 3 30 2 31 1 32
REMARK H PARENT
REMARK Flexibility Score: inf
ROOT
ATOM      1  C   UNL     1       8.657  -5.530  -4.028  1.00  0.00     0.000 C 
ENDROOT
BRANCH   1   2
ATOM      2  C   UNL     1       8.780  -4.174  -4.744  1.00  0.00     0.000 C 
BRANCH   2   3
ATOM      3  C   UNL     1       9.040  -4.345  -6.257  1.00  0.00     0.000 C 
BRANCH   3   4
ATOM      4  C   UNL     1       7.941  -5.135  -6.987  1.00  0.00     0.000 C 
BRANCH   4   5
ATOM      5  C   UNL     1       8.461  -5.883  -8.227  1.00  0.00     0.000 C 
BRANCH   5   6
ATOM      6  C   UNL     1       7.486  -6.978  -8.709  1.00  0.00     0.000 C 
BRANCH   6   7
ATOM      7  C   UNL     1       7.679  -8.339  -8.017  1.00  0.00     0.000 C 
BRANCH   7   8
ATOM      8  C   UNL     1       8.627  -9.274  -8.778  1.00  0.00     0.000 C 
BRANCH   8   9
ATOM      9  C   UNL     1       7.845 -10.338  -9.562  1.00  0.00     0.000 C 
BRANCH   9  10
ATOM     10  C   UNL     1       7.075  -9.756 -10.761  1.00  0.00     0.000 C 
BRANCH  10  11
ATOM     11  C   UNL     1       5.550  -9.632 -10.564  1.00  0.00     0.000 C 
BRANCH  11  12
ATOM     12  C   UNL     1       4.751 -10.920 -10.828  1.00  0.00     0.000 C 
BRANCH  12  13
ATOM     13  C   UNL     1       3.234 -10.712 -10.738  1.00  0.00     0.006 C 
BRANCH  13  14
ATOM     14  C   UNL     1       2.709  -9.981 -11.980  1.00  0.00     0.053 C 
BRANCH  14  15
ATOM     15  C   UNL     1       2.041  -8.698 -11.599  1.00  0.00     0.041 C 
ATOM     16  O   UNL     1       0.824  -8.510 -11.870  1.00  0.00    -0.550 OA
ATOM     17  O   UNL     1       2.762  -7.709 -10.941  1.00  0.00    -0.550 OA
ENDBRANCH  14  15
ENDBRANCH  13  14
ENDBRANCH  12  13
ENDBRANCH  11  12
ENDBRANCH  10  11
ENDBRANCH   9  10
ENDBRANCH   8   9
ENDBRANCH   7   8
ENDBRANCH   6   7
ENDBRANCH   5   6
ENDBRANCH   4   5
ENDBRANCH   3   4
ENDBRANCH   2   3
ENDBRANCH   1   2
BRANCH   1  18
ATOM     18  C   UNL     1       9.124  -6.710  -4.894  1.00  0.00     0.000 C 
BRANCH  18  19
ATOM     19  C   UNL     1       8.667  -8.068  -4.334  1.00  0.00     0.000 C 
BRANCH  19  20
ATOM     20  C   UNL     1       8.241  -7.990  -2.858  1.00  0.00     0.000 C 
BRANCH  20  21
ATOM     21  C   UNL     1       8.155  -9.370  -2.170  1.00  0.00     0.000 C 
BRANCH  21  22
ATOM     22  C   UNL     1       8.736  -9.344  -0.746  1.00  0.00     0.000 C 
BRANCH  22  23
ATOM     23  C   UNL     1       7.843 -10.080   0.277  1.00  0.00     0.000 C 
BRANCH  23  24
ATOM     24  C   UNL     1       8.279  -9.883   1.740  1.00  0.00    -0.000 C 
BRANCH  24  25
ATOM     25  C   UNL     1       7.980 -11.073   2.671  1.00  0.00    -0.000 C 
BRANCH  25  26
ATOM     26  C   UNL     1       6.689 -10.944   3.505  1.00  0.00    -0.000 C 
BRANCH  26  27
ATOM     27  C   UNL     1       5.379 -11.124   2.718  1.00  0.00    -0.000 C 
BRANCH  27  28
ATOM     28  C   UNL     1       5.004  -9.884   1.889  1.00  0.00    -0.000 C 
BRANCH  28  29
ATOM     29  C   UNL     1       3.635  -9.303   2.280  1.00  0.00    -0.000 C 
BRANCH  29  30
ATOM     30  C   UNL     1       3.299  -9.490   3.776  1.00  0.00    -0.000 C 
BRANCH  30  31
ATOM     31  C   UNL     1       2.651  -8.238   4.382  1.00  0.00    -0.003 C 
ATOM     32  C   UNL     1       3.311  -7.857   5.703  1.00  0.00     0.004 C 
ENDBRANCH  30  31
ENDBRANCH  29  30
ENDBRANCH  28  29
ENDBRANCH  27  28
ENDBRANCH  26  27
ENDBRANCH  25  26
ENDBRANCH  24  25
ENDBRANCH  23  24
ENDBRANCH  22  23
ENDBRANCH  21  22
ENDBRANCH  20  21
ENDBRANCH  19  20
ENDBRANCH  18  19
ENDBRANCH   1  18
TORSDOF 28
ENDMDL
MODEL 3
REMARK VINA RESULT:    -1.841     17.727     20.281
REMARK INTER + INTRA:          -4.588
REMARK INTER:                  -1.240
REMARK INTRA:                  -3.348
REMARK UNBOUND:                 0.265
REMARK SMILES CCCCCCCCCCCCCCCCCCCCCCCCCCCCCC(=O)[O-]
REMARK SMILES IDX 16 1 17 2 18 3 19 4 20 5 21 6 22 7 23 8 24 9 25 10 26 11
REMARK SMILES IDX 27 12 28 13 29 14 30 15 31 16 32 17 15 18 14 19 13 20 12 21
REMARK SMILES IDX 11 22 10 23 9 24 8 25 7 26 6 27 5 28 4 29 3 30 2 31 1 32
REMARK H PARENT
REMARK Flexibility Score: inf
ROOT
ATOM      1  C   UNL     1       7.908  -5.576  -6.484  1.00  0.00     0.000 C 
ENDROOT
BRANCH   1   2
ATOM      2  C   UNL     1       8.334  -4.442  -5.535  1.00  0.00     0.000 C 
BRANCH   2   3
ATOM      3  C   UNL     1       9.111  -4.979  -4.313  1.00  0.00     0.000 C 
BRANCH   3   4
ATOM      4  C   UNL     1       8.211  -5.364  -3.128  1.00  0.00     0.000 C 
BRANCH   4   5
ATOM      5  C   UNL     1       8.926  -6.252  -2.093  1.00  0.00     0.000 C 
BRANCH   5   6
ATOM      6  C   UNL     1       8.301  -7.660  -1.990  1.00  0.00     0.000 C 
BRANCH   6   7
ATOM      7  C   UNL     1       9.047  -8.609  -1.037  1.00  0.00     0.000 C 
BRANCH   7   8
ATOM      8  C   UNL     1       8.214  -9.829  -0.625  1.00  0.00     0.000 C 
BRANCH   8   9
ATOM      9  C   UNL     1       7.521  -9.597   0.726  1.00  0.00     0.000 C 
BRANCH   9  10
ATOM     10  C   UNL     1       6.020  -9.287   0.585  1.00  0.00     0.000 C 
BRANCH  10  11
ATOM     11  C   UNL     1       5.079 -10.230   1.363  1.00  0.00     0.000 C 
BRANCH  11  12
ATOM     12  C   UNL     1       5.640 -10.757   2.696  1.00  0.00     0.000 C 
BRANCH  12  13
ATOM     13  C   UNL     1       5.299  -9.852   3.887  1.00  0.00     0.006 C 
BRANCH  13  14
ATOM     14  C   UNL     1       3.868 -10.107   4.376  1.00  0.00     0.053 C 
BRANCH  14  15
ATOM     15  C   UNL     1       3.063  -8.847   4.345  1.00  0.00     0.041 C 
ATOM     16  O   UNL     1       2.740  -8.325   3.243  1.00  0.00    -0.550 OA
ATOM     17  O   UNL     1       2.667  -8.247   5.533  1.00  0.00    -0.550 OA
ENDBRANCH  14  15
ENDBRANCH  13  14
ENDBRANCH  12  13
ENDBRANCH  11  12
ENDBRANCH  10  11
ENDBRANCH   9  10
ENDBRANCH   8   9
ENDBRANCH   7   8
ENDBRANCH   6   7
ENDBRANCH   5   6
ENDBRANCH   4   5
ENDBRANCH   3   4
ENDBRANCH   2   3
ENDBRANCH   1   2
BRANCH   1  18
ATOM     18  C   UNL     1       8.774  -5.655  -7.750  1.00  0.00     0.000 C 
BRANCH  18  19
ATOM     19  C   UNL     1       8.106  -6.470  -8.871  1.00  0.00     0.000 C 
BRANCH  19  20
ATOM     20  C   UNL     1       9.125  -7.152  -9.799  1.00  0.00     0.000 C 
BRANCH  20  21
ATOM     21  C   UNL     1       8.473  -8.066 -10.860  1.00  0.00     0.000 C 
BRANCH  21  22
ATOM     22  C   UNL     1       9.094  -9.473 -10.873  1.00  0.00     0.000 C 
BRANCH  22  23
ATOM     23  C   UNL     1       8.153 -10.536 -11.481  1.00  0.00     0.000 C 
BRANCH  23  24
ATOM     24  C   UNL     1       6.884  -9.948 -12.125  1.00  0.00    -0.000 C 
BRANCH  24  25
ATOM     25  C   UNL     1       5.562 -10.387 -11.469  1.00  0.00    -0.000 C 
BRANCH  25  26
ATOM     26  C   UNL     1       5.034  -9.446 -10.365  1.00  0.00    -0.000 C 
BRANCH  26  27
ATOM     27  C   UNL     1       4.667 -10.133  -9.038  1.00  0.00    -0.000 C 
BRANCH  27  28
ATOM     28  C   UNL     1       5.897 -10.620  -8.255  1.00  0.00    -0.000 C 
BRANCH  28  29
ATOM     29  C   UNL     1       6.862  -9.476  -7.900  1.00  0.00    -0.000 C 
BRANCH  29  30
ATOM     30  C   UNL     1       8.228  -9.972  -7.377  1.00  0.00    -0.000 C 
BRANCH  30  31
ATOM     31  C   UNL     1       8.658  -9.235  -6.101  1.00  0.00    -0.003 C 
ATOM     32  C   UNL     1       7.750  -9.588  -4.926  1.00  0.00     0.004 C 
ENDBRANCH  30  31
ENDBRANCH  29  30
ENDBRANCH  28  29
ENDBRANCH  27  28
ENDBRANCH  26  27
ENDBRANCH  25  26
ENDBRANCH  24  25
ENDBRANCH  23  24
ENDBRANCH  22  23
ENDBRANCH  21  22
ENDBRANCH  20  21
ENDBRANCH  19  20
ENDBRANCH  18  19
ENDBRANCH   1  18
TORSDOF 28
ENDMDL
MODEL 4
REMARK VINA RESULT:    -1.667      2.575     10.565
REMARK INTER + INTRA:          -4.129
REMARK INTER:                  -1.661
REMARK INTRA:                  -2.468
REMARK UNBOUND:                 0.265
REMARK SMILES CCCCCCCCCCCCCCCCCCCCCCCCCCCCCC(=O)[O-]
REMARK SMILES IDX 16 1 17 2 18 3 19 4 20 5 21 6 22 7 23 8 24 9 25 10 26 11
REMARK SMILES IDX 27 12 28 13 29 14 30 15 31 16 32 17 15 18 14 19 13 20 12 21
REMARK SMILES IDX 11 22 10 23 9 24 8 25 7 26 6 27 5 28 4 29 3 30 2 31 1 32
REMARK H PARENT
REMARK Flexibility Score: inf
ROOT
ATOM      1  C   UNL     1      -9.919   1.531 -11.379  1.00  0.00     0.000 C 
ENDROOT
BRANCH   1   2
ATOM      2  C   UNL     1      -9.744   0.025 -11.119  1.00  0.00     0.000 C 
BRANCH   2   3
ATOM      3  C   UNL     1     -11.098  -0.676 -10.874  1.00  0.00     0.000 C 
BRANCH   3   4
ATOM      4  C   UNL     1     -11.125  -2.144 -11.329  1.00  0.00     0.000 C 
BRANCH   4   5
ATOM      5  C   UNL     1      -9.737  -2.674 -11.735  1.00  0.00     0.000 C 
BRANCH   5   6
ATOM      6  C   UNL     1      -8.781  -2.811 -10.531  1.00  0.00     0.000 C 
BRANCH   6   7
ATOM      7  C   UNL     1      -8.446  -4.265 -10.158  1.00  0.00     0.000 C 
BRANCH   7   8
ATOM      8  C   UNL     1      -7.882  -5.075 -11.332  1.00  0.00     0.000 C 
BRANCH   8   9
ATOM      9  C   UNL     1      -6.742  -5.997 -10.872  1.00  0.00     0.000 C 
BRANCH   9  10
ATOM     10  C   UNL     1      -5.654  -6.187 -11.945  1.00  0.00     0.000 C 
BRANCH  10  11
ATOM     11  C   UNL     1      -4.655  -5.020 -12.080  1.00  0.00     0.000 C 
BRANCH  11  12
ATOM     12  C   UNL     1      -4.333  -4.280 -10.769  1.00  0.00     0.000 C 
BRANCH  12  13
ATOM     13  C   UNL     1      -4.270  -2.757 -10.942  1.00  0.00     0.006 C 
BRANCH  13  14
ATOM     14  C   UNL     1      -2.897  -2.325 -11.472  1.00  0.00     0.053 C 
BRANCH  14  15
ATOM     15  C   UNL     1      -2.468  -1.037 -10.844  1.00  0.00     0.041 C 
ATOM     16  O   UNL     1      -1.671  -0.269 -11.449  1.00  0.00    -0.550 OA
ATOM     17  O   UNL     1      -2.949  -0.681  -9.590  1.00  0.00    -0.550 OA
ENDBRANCH  14  15
ENDBRANCH  13  14
ENDBRANCH  12  13
ENDBRANCH  11  12
ENDBRANCH  10  11
ENDBRANCH   9  10
ENDBRANCH   8   9
ENDBRANCH   7   8
ENDBRANCH   6   7
ENDBRANCH   5   6
ENDBRANCH   4   5
ENDBRANCH   3   4
ENDBRANCH   2   3
ENDBRANCH   1   2
BRANCH   1  18
ATOM     18  C   UNL     1     -11.020   2.165 -10.515  1.00  0.00     0.000 C 
BRANCH  18  19
ATOM     19  C   UNL     1     -10.850   3.687 -10.367  1.00  0.00     0.000 C 
BRANCH  19  20
ATOM     20  C   UNL     1      -9.755   4.255 -11.285  1.00  0.00     0.000 C 
BRANCH  20  21
ATOM     21  C   UNL     1      -8.328   4.083 -10.717  1.00  0.00     0.000 C 
BRANCH  21  22
ATOM     22  C   UNL     1      -7.412   5.262 -11.086  1.00  0.00     0.000 C 
BRANCH  22  23
ATOM     23  C   UNL     1      -8.202   6.522 -11.505  1.00  0.00     0.000 C 
BRANCH  23  24
ATOM     24  C   UNL     1      -7.709   7.817 -10.834  1.00  0.00    -0.000 C 
BRANCH  24  25
ATOM     25  C   UNL     1      -8.734   8.967 -10.814  1.00  0.00    -0.000 C 
BRANCH  25  26
ATOM     26  C   UNL     1     -10.113   8.625 -11.416  1.00  0.00    -0.000 C 
BRANCH  26  27
ATOM     27  C   UNL     1     -11.124   8.009 -10.432  1.00  0.00    -0.000 C 
BRANCH  27  28
ATOM     28  C   UNL     1     -11.082   8.664  -9.042  1.00  0.00    -0.000 C 
BRANCH  28  29
ATOM     29  C   UNL     1     -10.902   7.638  -7.910  1.00  0.00    -0.000 C 
BRANCH  29  30
ATOM     30  C   UNL     1      -9.936   6.490  -8.277  1.00  0.00    -0.000 C 
BRANCH  30  31
ATOM     31  C   UNL     1      -8.806   6.339  -7.249  1.00  0.00    -0.003 C 
ATOM     32  C   UNL     1      -7.976   7.614  -7.148  1.00  0.00     0.004 C 
ENDBRANCH  30  31
ENDBRANCH  29  30
ENDBRANCH  28  29
ENDBRANCH  27  28
ENDBRANCH  26  27
ENDBRANCH  25  26
ENDBRANCH  24  25
ENDBRANCH  23  24
ENDBRANCH  22  23
ENDBRANCH  21  22
ENDBRANCH  20  21
ENDBRANCH  19  20
ENDBRANCH  18  19
ENDBRANCH   1  18
TORSDOF 28
ENDMDL
MODEL 5
REMARK VINA RESULT:    -1.398     13.607     18.119
REMARK INTER + INTRA:          -3.422
REMARK INTER:                  -5.490
REMARK INTRA:                   2.068
REMARK UNBOUND:                 0.265
REMARK SMILES CCCCCCCCCCCCCCCCCCCCCCCCCCCCCC(=O)[O-]
REMARK SMILES IDX 16 1 17 2 18 3 19 4 20 5 21 6 22 7 23 8 24 9 25 10 26 11
REMARK SMILES IDX 27 12 28 13 29 14 30 15 31 16 32 17 15 18 14 19 13 20 12 21
REMARK SMILES IDX 11 22 10 23 9 24 8 25 7 26 6 27 5 28 4 29 3 30 2 31 1 32
REMARK H PARENT
REMARK Flexibility Score: inf
ROOT
ATOM      1  C   UNL     1       6.915  -8.915  -7.719  1.00  0.00     0.000 C 
ENDROOT
BRANCH   1   2
ATOM      2  C   UNL     1       7.571  -8.915  -6.328  1.00  0.00     0.000 C 
BRANCH   2   3
ATOM      3  C   UNL     1       9.019  -8.380  -6.377  1.00  0.00     0.000 C 
BRANCH   3   4
ATOM      4  C   UNL     1       9.125  -6.925  -6.863  1.00  0.00     0.000 C 
BRANCH   4   5
ATOM      5  C   UNL     1       8.574  -5.910  -5.846  1.00  0.00     0.000 C 
BRANCH   5   6
ATOM      6  C   UNL     1       9.031  -4.466  -6.145  1.00  0.00     0.000 C 
BRANCH   6   7
ATOM      7  C   UNL     1       8.222  -3.386  -5.406  1.00  0.00     0.000 C 
BRANCH   7   8
ATOM      8  C   UNL     1       8.242  -3.554  -3.882  1.00  0.00     0.000 C 
BRANCH   8   9
ATOM      9  C   UNL     1       8.042  -5.024  -3.483  1.00  0.00     0.000 C 
BRANCH   9  10
ATOM     10  C   UNL     1       9.124  -5.536  -2.515  1.00  0.00     0.000 C 
BRANCH  10  11
ATOM     11  C   UNL     1       8.595  -6.295  -1.281  1.00  0.00     0.000 C 
BRANCH  11  12
ATOM     12  C   UNL     1       9.101  -7.741  -1.138  1.00  0.00     0.000 C 
BRANCH  12  13
ATOM     13  C   UNL     1       8.153  -8.771  -1.767  1.00  0.00     0.006 C 
BRANCH  13  14
ATOM     14  C   UNL     1       6.889  -8.941  -0.914  1.00  0.00     0.053 C 
BRANCH  14  15
ATOM     15  C   UNL     1       7.202  -9.658   0.361  1.00  0.00     0.041 C 
ATOM     16  O   UNL     1       6.336  -9.737   1.275  1.00  0.00    -0.550 OA
ATOM     17  O   UNL     1       8.449 -10.242   0.541  1.00  0.00    -0.550 OA
ENDBRANCH  14  15
ENDBRANCH  13  14
ENDBRANCH  12  13
ENDBRANCH  11  12
ENDBRANCH  10  11
ENDBRANCH   9  10
ENDBRANCH   8   9
ENDBRANCH   7   8
ENDBRANCH   6   7
ENDBRANCH   5   6
ENDBRANCH   4   5
ENDBRANCH   3   4
ENDBRANCH   2   3
ENDBRANCH   1   2
BRANCH   1  18
ATOM     18  C   UNL     1       7.571  -7.925  -8.693  1.00  0.00     0.000 C 
BRANCH  18  19
ATOM     19  C   UNL     1       6.570  -7.350  -9.711  1.00  0.00     0.000 C 
BRANCH  19  20
ATOM     20  C   UNL     1       5.950  -8.432 -10.611  1.00  0.00     0.000 C 
BRANCH  20  21
ATOM     21  C   UNL     1       6.436  -9.861 -10.276  1.00  0.00     0.000 C 
BRANCH  21  22
ATOM     22  C   UNL     1       5.425 -10.933 -10.715  1.00  0.00     0.000 C 
BRANCH  22  23
ATOM     23  C   UNL     1       3.968 -10.422 -10.698  1.00  0.00     0.000 C 
BRANCH  23  24
ATOM     24  C   UNL     1       3.521  -9.768 -12.018  1.00  0.00    -0.000 C 
BRANCH  24  25
ATOM     25  C   UNL     1       3.122  -8.285 -11.904  1.00  0.00    -0.000 C 
BRANCH  25  26
ATOM     26  C   UNL     1       1.666  -8.030 -11.460  1.00  0.00    -0.000 C 
BRANCH  26  27
ATOM     27  C   UNL     1       0.627  -9.014 -12.026  1.00  0.00    -0.000 C 
BRANCH  27  28
ATOM     28  C   UNL     1      -0.637  -9.116 -11.156  1.00  0.00    -0.000 C 
BRANCH  28  29
ATOM     29  C   UNL     1      -1.930  -9.115 -11.989  1.00  0.00    -0.000 C 
BRANCH  29  30
ATOM     30  C   UNL     1      -2.567 -10.516 -12.125  1.00  0.00    -0.000 C 
BRANCH  30  31
ATOM     31  C   UNL     1      -4.096 -10.467 -11.994  1.00  0.00    -0.003 C 
ATOM     32  C   UNL     1      -4.595  -9.031 -11.868  1.00  0.00     0.004 C 
ENDBRANCH  30  31
ENDBRANCH  29  30
ENDBRANCH  28  29
ENDBRANCH  27  28
ENDBRANCH  26  27
ENDBRANCH  25  26
ENDBRANCH  24  25
ENDBRANCH  23  24
ENDBRANCH  22  23
ENDBRANCH  21  22
ENDBRANCH  20  21
ENDBRANCH  19  20
ENDBRANCH  18  19
ENDBRANCH   1  18
TORSDOF 28
ENDMDL
MODEL 6
REMARK VINA RESULT:    -1.324      1.906      3.630
REMARK INTER + INTRA:          -3.225
REMARK INTER:                  -2.241
REMARK INTRA:                  -0.984
REMARK UNBOUND:                 0.265
REMARK SMILES CCCCCCCCCCCCCCCCCCCCCCCCCCCCCC(=O)[O-]
REMARK SMILES IDX 16 1 17 2 18 3 19 4 20 5 21 6 22 7 23 8 24 9 25 10 26 11
REMARK SMILES IDX 27 12 28 13 29 14 30 15 31 16 32 17 15 18 14 19 13 20 12 21
REMARK SMILES IDX 11 22 10 23 9 24 8 25 7 26 6 27 5 28 4 29 3 30 2 31 1 32
REMARK H PARENT
REMARK Flexibility Score: inf
ROOT
ATOM      1  C   UNL     1      -5.804   3.188 -11.217  1.00  0.00     0.000 C 
ENDROOT
BRANCH   1   2
ATOM      2  C   UNL     1      -5.414   4.669 -11.370  1.00  0.00     0.000 C 
BRANCH   2   3
ATOM      3  C   UNL     1      -6.597   5.609 -11.051  1.00  0.00     0.000 C 
BRANCH   3   4
ATOM      4  C   UNL     1      -6.200   6.844 -10.225  1.00  0.00     0.000 C 
BRANCH   4   5
ATOM      5  C   UNL     1      -6.262   8.153 -11.032  1.00  0.00     0.000 C 
BRANCH   5   6
ATOM      6  C   UNL     1      -7.352   8.123 -12.124  1.00  0.00     0.000 C 
BRANCH   6   7
ATOM      7  C   UNL     1      -8.768   7.852 -11.590  1.00  0.00     0.000 C 
BRANCH   7   8
ATOM      8  C   UNL     1      -9.500   9.124 -11.145  1.00  0.00     0.000 C 
BRANCH   8   9
ATOM      9  C   UNL     1     -10.036   8.984  -9.713  1.00  0.00     0.000 C 
BRANCH   9  10
ATOM     10  C   UNL     1      -9.636   7.653  -9.050  1.00  0.00     0.000 C 
BRANCH  10  11
ATOM     11  C   UNL     1     -10.440   6.421  -9.514  1.00  0.00     0.000 C 
BRANCH  11  12
ATOM     12  C   UNL     1     -10.601   5.312  -8.460  1.00  0.00     0.000 C 
BRANCH  12  13
ATOM     13  C   UNL     1     -10.570   3.902  -9.065  1.00  0.00     0.006 C 
BRANCH  13  14
ATOM     14  C   UNL     1     -11.089   3.917 -10.508  1.00  0.00     0.053 C 
BRANCH  14  15
ATOM     15  C   UNL     1     -10.100   3.285 -11.435  1.00  0.00     0.041 C 
ATOM     16  O   UNL     1     -10.097   2.035 -11.606  1.00  0.00    -0.550 OA
ATOM     17  O   UNL     1      -9.182   4.075 -12.114  1.00  0.00    -0.550 OA
ENDBRANCH  14  15
ENDBRANCH  13  14
ENDBRANCH  12  13
ENDBRANCH  11  12
ENDBRANCH  10  11
ENDBRANCH   9  10
ENDBRANCH   8   9
ENDBRANCH   7   8
ENDBRANCH   6   7
ENDBRANCH   5   6
ENDBRANCH   4   5
ENDBRANCH   3   4
ENDBRANCH   2   3
ENDBRANCH   1   2
BRANCH   1  18
ATOM     18  C   UNL     1      -4.641   2.309 -10.734  1.00  0.00     0.000 C 
BRANCH  18  19
ATOM     19  C   UNL     1      -3.290   2.738 -11.333  1.00  0.00     0.000 C 
BRANCH  19  20
ATOM     20  C   UNL     1      -2.556   1.583 -12.034  1.00  0.00     0.000 C 
BRANCH  20  21
ATOM     21  C   UNL     1      -3.397   0.289 -12.125  1.00  0.00     0.000 C 
BRANCH  21  22
ATOM     22  C   UNL     1      -3.464  -0.454 -10.779  1.00  0.00     0.000 C 
BRANCH  22  23
ATOM     23  C   UNL     1      -3.243  -1.975 -10.925  1.00  0.00     0.000 C 
BRANCH  23  24
ATOM     24  C   UNL     1      -4.537  -2.804 -10.824  1.00  0.00    -0.000 C 
BRANCH  24  25
ATOM     25  C   UNL     1      -4.441  -4.228 -11.402  1.00  0.00    -0.000 C 
BRANCH  25  26
ATOM     26  C   UNL     1      -5.788  -4.863 -11.806  1.00  0.00    -0.000 C 
BRANCH  26  27
ATOM     27  C   UNL     1      -6.445  -5.748 -10.731  1.00  0.00    -0.000 C 
BRANCH  27  28
ATOM     28  C   UNL     1      -5.432  -6.623  -9.976  1.00  0.00    -0.000 C 
BRANCH  28  29
ATOM     29  C   UNL     1      -5.189  -7.976 -10.667  1.00  0.00    -0.000 C 
BRANCH  29  30
ATOM     30  C   UNL     1      -3.733  -8.474 -10.536  1.00  0.00    -0.000 C 
BRANCH  30  31
ATOM     31  C   UNL     1      -3.096  -8.755 -11.904  1.00  0.00    -0.003 C 
ATOM     32  C   UNL     1      -2.613 -10.198 -12.003  1.00  0.00     0.004 C 
ENDBRANCH  30  31
ENDBRANCH  29  30
ENDBRANCH  28  29
ENDBRANCH  27  28
ENDBRANCH  26  27
ENDBRANCH  25  26
ENDBRANCH  24  25
ENDBRANCH  23  24
ENDBRANCH  22  23
ENDBRANCH  21  22
ENDBRANCH  20  21
ENDBRANCH  19  20
ENDBRANCH  18  19
ENDBRANCH   1  18
TORSDOF 28
ENDMDL
MODEL 7
REMARK VINA RESULT:    -0.867      1.434      2.121
REMARK INTER + INTRA:          -2.020
REMARK INTER:                  -3.061
REMARK INTRA:                   1.040
REMARK UNBOUND:                 0.265
REMARK SMILES CCCCCCCCCCCCCCCCCCCCCCCCCCCCCC(=O)[O-]
REMARK SMILES IDX 16 1 17 2 18 3 19 4 20 5 21 6 22 7 23 8 24 9 25 10 26 11
REMARK SMILES IDX 27 12 28 13 29 14 30 15 31 16 32 17 15 18 14 19 13 20 12 21
REMARK SMILES IDX 11 22 10 23 9 24 8 25 7 26 6 27 5 28 4 29 3 30 2 31 1 32
REMARK H PARENT
REMARK Flexibility Score: inf
ROOT
ATOM      1  C   UNL     1      -5.777   3.174 -11.140  1.00  0.00     0.000 C 
ENDROOT
BRANCH   1   2
ATOM      2  C   UNL     1      -5.384   4.643 -11.372  1.00  0.00     0.000 C 
BRANCH   2   3
ATOM      3  C   UNL     1      -6.539   5.607 -11.024  1.00  0.00     0.000 C 
BRANCH   3   4
ATOM      4  C   UNL     1      -6.078   6.897 -10.326  1.00  0.00     0.000 C 
BRANCH   4   5
ATOM      5  C   UNL     1      -6.351   8.163 -11.159  1.00  0.00     0.000 C 
BRANCH   5   6
ATOM      6  C   UNL     1      -7.542   7.989 -12.125  1.00  0.00     0.000 C 
BRANCH   6   7
ATOM      7  C   UNL     1      -8.906   7.867 -11.424  1.00  0.00     0.000 C 
BRANCH   7   8
ATOM      8  C   UNL     1      -9.839   9.052 -11.705  1.00  0.00     0.000 C 
BRANCH   8   9
ATOM      9  C   UNL     1     -11.046   9.045 -10.756  1.00  0.00     0.000 C 
BRANCH   9  10
ATOM     10  C   UNL     1     -10.869   8.085  -9.566  1.00  0.00     0.000 C 
BRANCH  10  11
ATOM     11  C   UNL     1     -10.509   8.761  -8.226  1.00  0.00     0.000 C 
BRANCH  11  12
ATOM     12  C   UNL     1      -9.356   8.099  -7.451  1.00  0.00     0.000 C 
BRANCH  12  13
ATOM     13  C   UNL     1      -9.130   6.635  -7.850  1.00  0.00     0.006 C 
BRANCH  13  14
ATOM     14  C   UNL     1     -10.082   6.225  -8.980  1.00  0.00     0.053 C 
BRANCH  14  15
ATOM     15  C   UNL     1     -10.395   4.763  -8.907  1.00  0.00     0.041 C 
ATOM     16  O   UNL     1     -10.107   4.102  -7.873  1.00  0.00    -0.550 OA
ATOM     17  O   UNL     1     -11.006   4.130  -9.982  1.00  0.00    -0.550 OA
ENDBRANCH  14  15
ENDBRANCH  13  14
ENDBRANCH  12  13
ENDBRANCH  11  12
ENDBRANCH  10  11
ENDBRANCH   9  10
ENDBRANCH   8   9
ENDBRANCH   7   8
ENDBRANCH   6   7
ENDBRANCH   5   6
ENDBRANCH   4   5
ENDBRANCH   3   4
ENDBRANCH   2   3
ENDBRANCH   1   2
BRANCH   1  18
ATOM     18  C   UNL     1      -4.590   2.295 -10.719  1.00  0.00     0.000 C 
BRANCH  18  19
ATOM     19  C   UNL     1      -3.301   2.640 -11.485  1.00  0.00     0.000 C 
BRANCH  19  20
ATOM     20  C   UNL     1      -2.642   1.407 -12.125  1.00  0.00     0.000 C 
BRANCH  20  21
ATOM     21  C   UNL     1      -3.504   0.128 -12.023  1.00  0.00     0.000 C 
BRANCH  21  22
ATOM     22  C   UNL     1      -3.572  -0.410 -10.583  1.00  0.00     0.000 C 
BRANCH  22  23
ATOM     23  C   UNL     1      -3.271  -1.923 -10.497  1.00  0.00     0.000 C 
BRANCH  23  24
ATOM     24  C   UNL     1      -4.523  -2.796 -10.293  1.00  0.00    -0.000 C 
BRANCH  24  25
ATOM     25  C   UNL     1      -4.353  -4.274 -10.690  1.00  0.00    -0.000 C 
BRANCH  25  26
ATOM     26  C   UNL     1      -4.909  -4.647 -12.081  1.00  0.00    -0.000 C 
BRANCH  26  27
ATOM     27  C   UNL     1      -6.416  -4.952 -12.125  1.00  0.00    -0.000 C 
BRANCH  27  28
ATOM     28  C   UNL     1      -6.951  -5.519 -10.800  1.00  0.00    -0.000 C 
BRANCH  28  29
ATOM     29  C   UNL     1      -8.164  -4.737 -10.269  1.00  0.00    -0.000 C 
BRANCH  29  30
ATOM     30  C   UNL     1      -8.504  -3.491 -11.117  1.00  0.00    -0.000 C 
BRANCH  30  31
ATOM     31  C   UNL     1     -10.005  -3.169 -11.091  1.00  0.00    -0.003 C 
ATOM     32  C   UNL     1     -10.249  -1.665 -11.166  1.00  0.00     0.004 C 
ENDBRANCH  30  31
ENDBRANCH  29  30
ENDBRANCH  28  29
ENDBRANCH  27  28
ENDBRANCH  26  27
ENDBRANCH  25  26
ENDBRANCH  24  25
ENDBRANCH  23  24
ENDBRANCH  22  23
ENDBRANCH  21  22
ENDBRANCH  20  21
ENDBRANCH  19  20
ENDBRANCH  18  19
ENDBRANCH   1  18
TORSDOF 28
ENDMDL
MODEL 8
REMARK VINA RESULT:    -0.719     13.949     19.008
REMARK INTER + INTRA:          -1.632
REMARK INTER:                  -1.930
REMARK INTRA:                   0.298
REMARK UNBOUND:                 0.265
REMARK SMILES CCCCCCCCCCCCCCCCCCCCCCCCCCCCCC(=O)[O-]
REMARK SMILES IDX 16 1 17 2 18 3 19 4 20 5 21 6 22 7 23 8 24 9 25 10 26 11
REMARK SMILES IDX 27 12 28 13 29 14 30 15 31 16 32 17 15 18 14 19 13 20 12 21
REMARK SMILES IDX 11 22 10 23 9 24 8 25 7 26 6 27 5 28 4 29 3 30 2 31 1 32
REMARK H PARENT
REMARK Flexibility Score: inf
ROOT
ATOM      1  C   UNL     1       7.009  -9.117  -8.009  1.00  0.00     0.000 C 
ENDROOT
BRANCH   1   2
ATOM      2  C   UNL     1       8.000  -9.186  -6.834  1.00  0.00     0.000 C 
BRANCH   2   3
ATOM      3  C   UNL     1       8.878  -7.918  -6.749  1.00  0.00     0.000 C 
BRANCH   3   4
ATOM      4  C   UNL     1       8.338  -6.858  -5.775  1.00  0.00     0.000 C 
BRANCH   4   5
ATOM      5  C   UNL     1       8.981  -6.940  -4.379  1.00  0.00     0.000 C 
BRANCH   5   6
ATOM      6  C   UNL     1       8.496  -5.817  -3.437  1.00  0.00     0.000 C 
BRANCH   6   7
ATOM      7  C   UNL     1       8.372  -6.244  -1.964  1.00  0.00     0.000 C 
BRANCH   7   8
ATOM      8  C   UNL     1       9.125  -7.542  -1.646  1.00  0.00     0.000 C 
BRANCH   8   9
ATOM      9  C   UNL     1       8.233  -8.771  -1.876  1.00  0.00     0.000 C 
BRANCH   9  10
ATOM     10  C   UNL     1       8.993 -10.101  -1.727  1.00  0.00     0.000 C 
BRANCH  10  11
ATOM     11  C   UNL     1       8.447 -11.051  -0.641  1.00  0.00     0.000 C 
BRANCH  11  12
ATOM     12  C   UNL     1       8.751 -10.630   0.808  1.00  0.00     0.000 C 
BRANCH  12  13
ATOM     13  C   UNL     1       7.567  -9.927   1.486  1.00  0.00     0.006 C 
BRANCH  13  14
ATOM     14  C   UNL     1       7.073 -10.734   2.693  1.00  0.00     0.053 C 
BRANCH  14  15
ATOM     15  C   UNL     1       5.582 -10.669   2.801  1.00  0.00     0.041 C 
ATOM     16  O   UNL     1       4.888 -10.314   1.810  1.00  0.00    -0.550 OA
ATOM     17  O   UNL     1       4.958 -11.003   3.996  1.00  0.00    -0.550 OA
ENDBRANCH  14  15
ENDBRANCH  13  14
ENDBRANCH  12  13
ENDBRANCH  11  12
ENDBRANCH  10  11
ENDBRANCH   9  10
ENDBRANCH   8   9
ENDBRANCH   7   8
ENDBRANCH   6   7
ENDBRANCH   5   6
ENDBRANCH   4   5
ENDBRANCH   3   4
ENDBRANCH   2   3
ENDBRANCH   1   2
BRANCH   1  18
ATOM     18  C   UNL     1       7.126  -7.816  -8.817  1.00  0.00     0.000 C 
BRANCH  18  19
ATOM     19  C   UNL     1       5.842  -7.491  -9.600  1.00  0.00     0.000 C 
BRANCH  19  20
ATOM     20  C   UNL     1       5.702  -8.327 -10.884  1.00  0.00     0.000 C 
BRANCH  20  21
ATOM     21  C   UNL     1       6.623  -9.567 -10.912  1.00  0.00     0.000 C 
BRANCH  21  22
ATOM     22  C   UNL     1       6.199 -10.577 -11.992  1.00  0.00     0.000 C 
BRANCH  22  23
ATOM     23  C   UNL     1       4.709 -10.970 -11.890  1.00  0.00     0.000 C 
BRANCH  23  24
ATOM     24  C   UNL     1       3.740  -9.784 -12.051  1.00  0.00    -0.000 C 
BRANCH  24  25
ATOM     25  C   UNL     1       2.419  -9.917 -11.272  1.00  0.00    -0.000 C 
BRANCH  25  26
ATOM     26  C   UNL     1       1.139  -9.747 -12.118  1.00  0.00    -0.000 C 
BRANCH  26  27
ATOM     27  C   UNL     1       0.045  -8.870 -11.485  1.00  0.00    -0.000 C 
BRANCH  27  28
ATOM     28  C   UNL     1      -1.375  -9.307 -11.879  1.00  0.00    -0.000 C 
BRANCH  28  29
ATOM     29  C   UNL     1      -2.388  -8.152 -11.814  1.00  0.00    -0.000 C 
BRANCH  29  30
ATOM     30  C   UNL     1      -3.762  -8.578 -11.248  1.00  0.00    -0.000 C 
BRANCH  30  31
ATOM     31  C   UNL     1      -4.380  -7.490 -10.359  1.00  0.00    -0.003 C 
ATOM     32  C   UNL     1      -5.791  -7.870  -9.922  1.00  0.00     0.004 C 
ENDBRANCH  30  31
ENDBRANCH  29  30
ENDBRANCH  28  29
ENDBRANCH  27  28
ENDBRANCH  26  27
ENDBRANCH  25  26
ENDBRANCH  24  25
ENDBRANCH  23  24
ENDBRANCH  22  23
ENDBRANCH  21  22
ENDBRANCH  20  21
ENDBRANCH  19  20
ENDBRANCH  18  19
ENDBRANCH   1  18
TORSDOF 28
ENDMDL
