MODEL 1
REMARK VINA RESULT:    21.766      0.000      0.000
REMARK INTER + INTRA:          32.886
REMARK INTER:                  31.945
REMARK INTRA:                   0.941
REMARK UNBOUND:                 0.941
REMARK SMILES O=c1c(O[C@@H]2O[C@H](CO)[C@@H](O)[C@@H](O)[C@H]2O)c(-c2ccc(O)c(O)c2)oc2cc(O)cc(O)c12
REMARK SMILES IDX 4 1 3 2 16 3 25 4 2 5 26 6 1 7 33 8 27 9 31 10 28 11 30 12
REMARK SMILES IDX 17 13 18 14 19 15 20 16 24 17 22 18 21 19 23 21 32 23 29 25
REMARK SMILES IDX 5 27 14 28 6 29 12 30 7 31 10 32 15 33 13 35 8 37 9 38 11 40
REMARK H PARENT 21 20 23 22 32 24 29 26 15 34 13 36 9 39 11 41
REMARK Flexibility Score: inf
ROOT
ATOM      1  O   UNL     1       3.841   9.753  13.473  1.00  0.00    -0.454 OA
ENDROOT
BRANCH   1   2
ATOM      2  C   UNL     1       3.844   9.468  14.849  1.00  0.00     0.214 A 
ATOM      3  C   UNL     1       4.705   8.467  15.337  1.00  0.00     0.180 A 
ATOM      4  O   UNL     1       4.739   8.197  16.636  1.00  0.00    -0.452 OA
ATOM      5  C   UNL     1       3.021  10.153  15.765  1.00  0.00     0.239 A 
ATOM      6  C   UNL     1       3.997   8.829  17.535  1.00  0.00     0.146 A 
ATOM      7  O   UNL     1       2.169  10.969  15.331  1.00  0.00    -0.285 OA
ATOM      8  C   UNL     1       3.121   9.875  17.149  1.00  0.00     0.111 A 
ATOM      9  C   UNL     1       4.090   8.436  18.872  1.00  0.00     0.094 A 
ATOM     10  C   UNL     1       2.378  10.548  18.165  1.00  0.00     0.134 A 
ATOM     11  C   UNL     1       3.315   9.059  19.848  1.00  0.00     0.123 A 
ATOM     12  C   UNL     1       2.461  10.106  19.491  1.00  0.00     0.093 A 
BRANCH   3  13
ATOM     13  C   UNL     1       5.622   7.719  14.448  1.00  0.00     0.025 A 
ATOM     14  C   UNL     1       5.167   6.656  13.652  1.00  0.00     0.016 A 
ATOM     15  C   UNL     1       6.054   5.964  12.823  1.00  0.00     0.051 A 
ATOM     16  C   UNL     1       7.407   6.312  12.788  1.00  0.00     0.157 A 
ATOM     17  C   UNL     1       6.986   8.052  14.428  1.00  0.00     0.062 A 
ATOM     18  C   UNL     1       7.878   7.359  13.596  1.00  0.00     0.158 A 
BRANCH  16  19
ATOM     19  O   UNL     1       8.268   5.605  11.949  1.00  0.00    -0.504 OA
ATOM     20  H   UNL     1       7.955   4.814  11.400  1.00  0.00     0.293 HD
ENDBRANCH  16  19
BRANCH  18  21
ATOM     21  O   UNL     1       9.228   7.707  13.572  1.00  0.00    -0.504 OA
ATOM     22  H   UNL     1       9.584   8.409  12.934  1.00  0.00     0.293 HD
ENDBRANCH  18  21
ENDBRANCH   3  13
BRANCH  10  23
ATOM     23  O   UNL     1       1.574  11.668  17.932  1.00  0.00    -0.507 OA
ATOM     24  H   UNL     1       1.283  12.323  18.643  1.00  0.00     0.293 HD
ENDBRANCH  10  23
BRANCH  11  25
ATOM     25  O   UNL     1       3.408   8.636  21.172  1.00  0.00    -0.508 OA
ATOM     26  H   UNL     1       3.818   9.224  21.888  1.00  0.00     0.293 HD
ENDBRANCH  11  25
ENDBRANCH   1   2
BRANCH   1  27
ATOM     27  C   UNL     1       2.849   9.312  12.542  1.00  0.00     0.339 C 
ATOM     28  C   UNL     1       1.446   9.589  13.097  1.00  0.00     0.214 C 
ATOM     29  O   UNL     1       3.043   9.873  11.251  1.00  0.00    -0.332 OA
ATOM     30  C   UNL     1       1.193  11.100  13.147  1.00  0.00     0.180 C 
ATOM     31  C   UNL     1       2.805  11.274  11.164  1.00  0.00     0.179 C 
ATOM     32  C   UNL     1       1.449  11.733  11.764  1.00  0.00     0.177 C 
BRANCH  28  33
ATOM     33  O   UNL     1       0.493   8.947  12.286  1.00  0.00    -0.384 OA
ATOM     34  H   UNL     1       0.369   8.033  12.652  1.00  0.00     0.211 HD
ENDBRANCH  28  33
BRANCH  30  35
ATOM     35  O   UNL     1      -0.123  11.348  13.571  1.00  0.00    -0.387 OA
ATOM     36  H   UNL     1      -0.520  10.468  13.802  1.00  0.00     0.211 HD
ENDBRANCH  30  35
BRANCH  31  37
ATOM     37  C   UNL     1       4.029  12.117  11.589  1.00  0.00     0.191 C 
BRANCH  37  38
ATOM     38  O   UNL     1       4.037  12.372  12.963  1.00  0.00    -0.394 OA
ATOM     39  H   UNL     1       4.562  13.205  13.087  1.00  0.00     0.210 HD
ENDBRANCH  37  38
ENDBRANCH  31  37
BRANCH  32  40
ATOM     40  O   UNL     1       0.418  11.381  10.875  1.00  0.00    -0.387 OA
ATOM     41  H   UNL     1       0.489  10.403  10.716  1.00  0.00     0.211 HD
ENDBRANCH  32  40
ENDBRANCH   1  27
TORSDOF 12
ENDMDL
MODEL 2
REMARK VINA RESULT:    23.583      1.547      6.668
REMARK INTER + INTRA:          35.554
REMARK INTER:                  31.448
REMARK INTRA:                   4.106
REMARK UNBOUND:                 0.941
REMARK SMILES O=c1c(O[C@@H]2O[C@H](CO)[C@@H](O)[C@@H](O)[C@H]2O)c(-c2ccc(O)c(O)c2)oc2cc(O)cc(O)c12
REMARK SMILES IDX 4 1 3 2 16 3 25 4 2 5 26 6 1 7 33 8 27 9 31 10 28 11 30 12
REMARK SMILES IDX 17 13 18 14 19 15 20 16 24 17 22 18 21 19 23 21 32 23 29 25
REMARK SMILES IDX 5 27 14 28 6 29 12 30 7 31 10 32 15 33 13 35 8 37 9 38 11 40
REMARK H PARENT 21 20 23 22 32 24 29 26 15 34 13 36 9 39 11 41
REMARK Flexibility Score: inf
ROOT
ATOM      1  O   UNL     1       5.727   8.115  15.520  1.00  0.00    -0.454 OA
ENDROOT
BRANCH   1   2
ATOM      2  C   UNL     1       4.615   8.786  14.983  1.00  0.00     0.214 A 
ATOM      3  C   UNL     1       3.523   9.079  15.821  1.00  0.00     0.180 A 
ATOM      4  O   UNL     1       2.472   9.730  15.339  1.00  0.00    -0.452 OA
ATOM      5  C   UNL     1       4.553   9.185  13.633  1.00  0.00     0.239 A 
ATOM      6  C   UNL     1       2.379  10.141  14.082  1.00  0.00     0.146 A 
ATOM      7  O   UNL     1       5.469   8.834  12.847  1.00  0.00    -0.285 OA
ATOM      8  C   UNL     1       3.439   9.923  13.165  1.00  0.00     0.111 A 
ATOM      9  C   UNL     1       1.209  10.787  13.675  1.00  0.00     0.094 A 
ATOM     10  C   UNL     1       3.301  10.424  11.836  1.00  0.00     0.134 A 
ATOM     11  C   UNL     1       1.059  11.218  12.359  1.00  0.00     0.123 A 
ATOM     12  C   UNL     1       2.101  11.032  11.446  1.00  0.00     0.093 A 
BRANCH   3  13
ATOM     13  C   UNL     1       3.518   8.720  17.257  1.00  0.00     0.025 A 
ATOM     14  C   UNL     1       4.595   9.044  18.098  1.00  0.00     0.016 A 
ATOM     15  C   UNL     1       4.566   8.693  19.450  1.00  0.00     0.051 A 
ATOM     16  C   UNL     1       3.472   8.001  19.979  1.00  0.00     0.157 A 
ATOM     17  C   UNL     1       2.430   8.006  17.785  1.00  0.00     0.062 A 
ATOM     18  C   UNL     1       2.399   7.652  19.142  1.00  0.00     0.158 A 
BRANCH  16  19
ATOM     19  O   UNL     1       3.471   7.666  21.332  1.00  0.00    -0.504 OA
ATOM     20  H   UNL     1       3.611   6.716  21.651  1.00  0.00     0.293 HD
ENDBRANCH  16  19
BRANCH  18  21
ATOM     21  O   UNL     1       1.308   6.956  19.660  1.00  0.00    -0.504 OA
ATOM     22  H   UNL     1       1.342   6.522  20.575  1.00  0.00     0.293 HD
ENDBRANCH  18  21
ENDBRANCH   3  13
BRANCH  10  23
ATOM     23  O   UNL     1       4.317  10.380  10.876  1.00  0.00    -0.507 OA
ATOM     24  H   UNL     1       4.322  10.919  10.022  1.00  0.00     0.293 HD
ENDBRANCH  10  23
BRANCH  11  25
ATOM     25  O   UNL     1      -0.125  11.840  11.970  1.00  0.00    -0.508 OA
ATOM     26  H   UNL     1      -0.125  12.764  11.554  1.00  0.00     0.293 HD
ENDBRANCH  11  25
ENDBRANCH   1   2
BRANCH   1  27
ATOM     27  C   UNL     1       6.077   6.756  15.254  1.00  0.00     0.339 C 
ATOM     28  C   UNL     1       5.368   6.267  13.985  1.00  0.00     0.214 C 
ATOM     29  O   UNL     1       7.485   6.569  15.196  1.00  0.00    -0.332 OA
ATOM     30  C   UNL     1       5.934   6.992  12.758  1.00  0.00     0.180 C 
ATOM     31  C   UNL     1       8.123   7.173  14.076  1.00  0.00     0.179 C 
ATOM     32  C   UNL     1       7.468   6.843  12.708  1.00  0.00     0.177 C 
BRANCH  28  33
ATOM     33  O   UNL     1       5.536   4.876  13.868  1.00  0.00    -0.384 OA
ATOM     34  H   UNL     1       5.108   4.603  13.014  1.00  0.00     0.211 HD
ENDBRANCH  28  33
BRANCH  30  35
ATOM     35  O   UNL     1       5.346   6.480  11.590  1.00  0.00    -0.387 OA
ATOM     36  H   UNL     1       6.017   5.878  11.172  1.00  0.00     0.211 HD
ENDBRANCH  30  35
BRANCH  31  37
ATOM     37  C   UNL     1       8.445   8.667  14.305  1.00  0.00     0.191 C 
BRANCH  37  38
ATOM     38  O   UNL     1       9.741   8.855  14.795  1.00  0.00    -0.394 OA
ATOM     39  H   UNL     1       9.696   9.640  15.402  1.00  0.00     0.210 HD
ENDBRANCH  37  38
ENDBRANCH  31  37
BRANCH  32  40
ATOM     40  O   UNL     1       7.812   5.528  12.348  1.00  0.00    -0.387 OA
ATOM     41  H   UNL     1       7.667   4.956  13.147  1.00  0.00     0.211 HD
ENDBRANCH  32  40
ENDBRANCH   1  27
TORSDOF 12
ENDMDL
