MODEL 1
REMARK VINA RESULT:    28.913      0.000      0.000
REMARK INTER + INTRA:          33.718
REMARK INTER:                  33.984
REMARK INTRA:                  -0.266
REMARK UNBOUND:                -0.266
REMARK SMILES O=c1cc(-c2ccc(O)c(O)c2)oc2cc(O)cc(O)c12
REMARK SMILES IDX 4 1 3 2 2 3 1 4 21 5 19 6 18 7 16 8 15 9 14 10 13 11 5 12
REMARK SMILES IDX 6 13 7 14 8 15 12 16 10 17 9 18 11 20 20 22 17 24
REMARK H PARENT 9 19 11 21 20 23 17 25
REMARK Flexibility Score: inf
ROOT
ATOM      1  C   UNL     1      19.984 -12.727 -16.207  1.00  0.00     0.138 A 
ATOM      2  C   UNL     1      19.855 -13.081 -17.558  1.00  0.00     0.100 A 
ATOM      3  C   UNL     1      20.882 -12.776 -18.452  1.00  0.00     0.197 A 
ATOM      4  O   UNL     1      20.765 -13.159 -19.644  1.00  0.00    -0.289 OA
ATOM      5  C   UNL     1      22.030 -12.086 -17.995  1.00  0.00     0.107 A 
ATOM      6  C   UNL     1      23.121 -11.687 -18.824  1.00  0.00     0.134 A 
ATOM      7  C   UNL     1      24.258 -11.112 -18.240  1.00  0.00     0.093 A 
ATOM      8  C   UNL     1      24.318 -10.868 -16.869  1.00  0.00     0.123 A 
ATOM      9  C   UNL     1      23.234 -11.205 -16.056  1.00  0.00     0.094 A 
ATOM     10  C   UNL     1      22.101 -11.811 -16.603  1.00  0.00     0.146 A 
ATOM     11  O   UNL     1      21.096 -12.130 -15.794  1.00  0.00    -0.456 OA
ENDROOT
BRANCH   1  12
ATOM     12  C   UNL     1      18.922 -13.027 -15.214  1.00  0.00     0.021 A 
ATOM     13  C   UNL     1      18.206 -11.970 -14.626  1.00  0.00     0.016 A 
ATOM     14  C   UNL     1      17.197 -12.226 -13.695  1.00  0.00     0.051 A 
ATOM     15  C   UNL     1      16.876 -13.544 -13.343  1.00  0.00     0.157 A 
ATOM     16  C   UNL     1      18.585 -14.350 -14.866  1.00  0.00     0.062 A 
ATOM     17  C   UNL     1      17.573 -14.610 -13.936  1.00  0.00     0.158 A 
BRANCH  15  18
ATOM     18  O   UNL     1      15.870 -13.796 -12.413  1.00  0.00    -0.504 OA
ATOM     19  H   UNL     1      16.057 -14.294 -11.550  1.00  0.00     0.293 HD
ENDBRANCH  15  18
BRANCH  17  20
ATOM     20  O   UNL     1      17.270 -15.933 -13.615  1.00  0.00    -0.504 OA
ATOM     21  H   UNL     1      16.366 -16.343 -13.819  1.00  0.00     0.293 HD
ENDBRANCH  17  20
ENDBRANCH   1  12
BRANCH   6  22
ATOM     22  O   UNL     1      23.130 -11.807 -20.216  1.00  0.00    -0.507 OA
ATOM     23  H   UNL     1      22.812 -12.618 -20.727  1.00  0.00     0.293 HD
ENDBRANCH   6  22
BRANCH   8  24
ATOM     24  O   UNL     1      25.458 -10.281 -16.324  1.00  0.00    -0.508 OA
ATOM     25  H   UNL     1      26.218  -9.955 -16.911  1.00  0.00     0.293 HD
ENDBRANCH   8  24
TORSDOF 5
ENDMDL
MODEL 2
REMARK VINA RESULT:    29.355      1.074      2.618
REMARK INTER + INTRA:          34.238
REMARK INTER:                  34.506
REMARK INTRA:                  -0.268
REMARK UNBOUND:                -0.266
REMARK SMILES O=c1cc(-c2ccc(O)c(O)c2)oc2cc(O)cc(O)c12
REMARK SMILES IDX 4 1 3 2 2 3 1 4 21 5 19 6 18 7 16 8 15 9 14 10 13 11 5 12
REMARK SMILES IDX 6 13 7 14 8 15 12 16 10 17 9 18 11 20 20 22 17 24
REMARK H PARENT 9 19 11 21 20 23 17 25
REMARK Flexibility Score: inf
ROOT
ATOM      1  C   UNL     1      20.276 -12.604 -15.586  1.00  0.00     0.138 A 
ATOM      2  C   UNL     1      21.428 -12.139 -14.934  1.00  0.00     0.100 A 
ATOM      3  C   UNL     1      22.558 -11.809 -15.682  1.00  0.00     0.197 A 
ATOM      4  O   UNL     1      23.555 -11.337 -15.077  1.00  0.00    -0.289 OA
ATOM      5  C   UNL     1      22.545 -11.976 -17.087  1.00  0.00     0.107 A 
ATOM      6  C   UNL     1      23.653 -11.711 -17.947  1.00  0.00     0.134 A 
ATOM      7  C   UNL     1      23.486 -11.801 -19.335  1.00  0.00     0.093 A 
ATOM      8  C   UNL     1      22.272 -12.204 -19.891  1.00  0.00     0.123 A 
ATOM      9  C   UNL     1      21.198 -12.517 -19.057  1.00  0.00     0.094 A 
ATOM     10  C   UNL     1      21.322 -12.404 -17.670  1.00  0.00     0.146 A 
ATOM     11  O   UNL     1      20.272 -12.699 -16.911  1.00  0.00    -0.456 OA
ENDROOT
BRANCH   1  12
ATOM     12  C   UNL     1      19.047 -12.969 -14.838  1.00  0.00     0.021 A 
ATOM     13  C   UNL     1      18.207 -11.953 -14.351  1.00  0.00     0.016 A 
ATOM     14  C   UNL     1      17.040 -12.270 -13.652  1.00  0.00     0.051 A 
ATOM     15  C   UNL     1      16.685 -13.608 -13.436  1.00  0.00     0.157 A 
ATOM     16  C   UNL     1      18.678 -14.312 -14.631  1.00  0.00     0.062 A 
ATOM     17  C   UNL     1      17.508 -14.633 -13.933  1.00  0.00     0.158 A 
BRANCH  15  18
ATOM     18  O   UNL     1      15.521 -13.922 -12.738  1.00  0.00    -0.504 OA
ATOM     19  H   UNL     1      15.527 -14.577 -11.963  1.00  0.00     0.293 HD
ENDBRANCH  15  18
BRANCH  17  20
ATOM     20  O   UNL     1      17.177 -15.975 -13.745  1.00  0.00    -0.504 OA
ATOM     21  H   UNL     1      17.634 -16.719 -14.259  1.00  0.00     0.293 HD
ENDBRANCH  17  20
ENDBRANCH   1  12
BRANCH   6  22
ATOM     22  O   UNL     1      24.934 -11.383 -17.494  1.00  0.00    -0.507 OA
ATOM     23  H   UNL     1      25.306 -10.446 -17.448  1.00  0.00     0.293 HD
ENDBRANCH   6  22
BRANCH   8  24
ATOM     24  O   UNL     1      22.147 -12.297 -21.275  1.00  0.00    -0.508 OA
ATOM     25  H   UNL     1      22.230 -13.185 -21.757  1.00  0.00     0.293 HD
ENDBRANCH   8  24
TORSDOF 5
ENDMDL
MODEL 3
REMARK VINA RESULT:    30.116      1.267      3.028
REMARK INTER + INTRA:          35.132
REMARK INTER:                  35.395
REMARK INTRA:                  -0.263
REMARK UNBOUND:                -0.266
REMARK SMILES O=c1cc(-c2ccc(O)c(O)c2)oc2cc(O)cc(O)c12
REMARK SMILES IDX 4 1 3 2 2 3 1 4 21 5 19 6 18 7 16 8 15 9 14 10 13 11 5 12
REMARK SMILES IDX 6 13 7 14 8 15 12 16 10 17 9 18 11 20 20 22 17 24
REMARK H PARENT 9 19 11 21 20 23 17 25
REMARK Flexibility Score: inf
ROOT
ATOM      1  C   UNL     1      20.247 -12.530 -15.675  1.00  0.00     0.138 A 
ATOM      2  C   UNL     1      21.397 -12.079 -15.012  1.00  0.00     0.100 A 
ATOM      3  C   UNL     1      22.553 -11.808 -15.744  1.00  0.00     0.197 A 
ATOM      4  O   UNL     1      23.550 -11.346 -15.130  1.00  0.00    -0.289 OA
ATOM      5  C   UNL     1      22.566 -12.018 -17.143  1.00  0.00     0.107 A 
ATOM      6  C   UNL     1      23.700 -11.813 -17.985  1.00  0.00     0.134 A 
ATOM      7  C   UNL     1      23.562 -11.942 -19.373  1.00  0.00     0.093 A 
ATOM      8  C   UNL     1      22.348 -12.326 -19.944  1.00  0.00     0.123 A 
ATOM      9  C   UNL     1      21.247 -12.581 -19.125  1.00  0.00     0.094 A 
ATOM     10  C   UNL     1      21.344 -12.427 -17.740  1.00  0.00     0.146 A 
ATOM     11  O   UNL     1      20.268 -12.666 -16.996  1.00  0.00    -0.456 OA
ENDROOT
BRANCH   1  12
ATOM     12  C   UNL     1      18.991 -12.834 -14.946  1.00  0.00     0.021 A 
ATOM     13  C   UNL     1      18.725 -14.155 -14.547  1.00  0.00     0.016 A 
ATOM     14  C   UNL     1      17.554 -14.467 -13.852  1.00  0.00     0.051 A 
ATOM     15  C   UNL     1      16.632 -13.462 -13.533  1.00  0.00     0.157 A 
ATOM     16  C   UNL     1      18.066 -11.826 -14.610  1.00  0.00     0.062 A 
ATOM     17  C   UNL     1      16.893 -12.134 -13.911  1.00  0.00     0.158 A 
BRANCH  15  18
ATOM     18  O   UNL     1      15.464 -13.775 -12.841  1.00  0.00    -0.504 OA
ATOM     19  H   UNL     1      14.988 -14.660 -12.976  1.00  0.00     0.293 HD
ENDBRANCH  15  18
BRANCH  17  20
ATOM     20  O   UNL     1      16.001 -11.109 -13.599  1.00  0.00    -0.504 OA
ATOM     21  H   UNL     1      14.998 -11.254 -13.580  1.00  0.00     0.293 HD
ENDBRANCH  17  20
ENDBRANCH   1  12
BRANCH   6  22
ATOM     22  O   UNL     1      24.980 -11.509 -17.513  1.00  0.00    -0.507 OA
ATOM     23  H   UNL     1      25.786 -11.347 -18.098  1.00  0.00     0.293 HD
ENDBRANCH   6  22
BRANCH   8  24
ATOM     24  O   UNL     1      22.251 -12.459 -21.327  1.00  0.00    -0.508 OA
ATOM     25  H   UNL     1      22.302 -11.653 -21.941  1.00  0.00     0.293 HD
ENDBRANCH   8  24
TORSDOF 5
ENDMDL
MODEL 4
REMARK VINA RESULT:    30.223      4.565      7.917
REMARK INTER + INTRA:          35.258
REMARK INTER:                  35.521
REMARK INTRA:                  -0.263
REMARK UNBOUND:                -0.266
REMARK SMILES O=c1cc(-c2ccc(O)c(O)c2)oc2cc(O)cc(O)c12
REMARK SMILES IDX 4 1 3 2 2 3 1 4 21 5 19 6 18 7 16 8 15 9 14 10 13 11 5 12
REMARK SMILES IDX 6 13 7 14 8 15 12 16 10 17 9 18 11 20 20 22 17 24
REMARK H PARENT 9 19 11 21 20 23 17 25
REMARK Flexibility Score: inf
ROOT
ATOM      1  C   UNL     1      22.470  -8.225 -18.456  1.00  0.00     0.138 A 
ATOM      2  C   UNL     1      23.158  -8.499 -17.266  1.00  0.00     0.100 A 
ATOM      3  C   UNL     1      23.433  -9.821 -16.916  1.00  0.00     0.197 A 
ATOM      4  O   UNL     1      24.106 -10.032 -15.873  1.00  0.00    -0.289 OA
ATOM      5  C   UNL     1      22.988 -10.875 -17.747  1.00  0.00     0.107 A 
ATOM      6  C   UNL     1      23.176 -12.263 -17.471  1.00  0.00     0.134 A 
ATOM      7  C   UNL     1      22.796 -13.215 -18.425  1.00  0.00     0.093 A 
ATOM      8  C   UNL     1      22.181 -12.834 -19.618  1.00  0.00     0.123 A 
ATOM      9  C   UNL     1      21.944 -11.483 -19.875  1.00  0.00     0.094 A 
ATOM     10  C   UNL     1      22.343 -10.508 -18.959  1.00  0.00     0.146 A 
ATOM     11  O   UNL     1      22.112  -9.231 -19.247  1.00  0.00    -0.456 OA
ENDROOT
BRANCH   1  12
ATOM     12  C   UNL     1      22.151  -6.837 -18.876  1.00  0.00     0.021 A 
ATOM     13  C   UNL     1      20.854  -6.335 -18.677  1.00  0.00     0.016 A 
ATOM     14  C   UNL     1      20.530  -5.030 -19.056  1.00  0.00     0.051 A 
ATOM     15  C   UNL     1      21.501  -4.199 -19.630  1.00  0.00     0.157 A 
ATOM     16  C   UNL     1      23.126  -5.992 -19.442  1.00  0.00     0.062 A 
ATOM     17  C   UNL     1      22.806  -4.683 -19.820  1.00  0.00     0.158 A 
BRANCH  15  18
ATOM     18  O   UNL     1      21.176  -2.898 -20.008  1.00  0.00    -0.504 OA
ATOM     19  H   UNL     1      20.257  -2.664 -20.369  1.00  0.00     0.293 HD
ENDBRANCH  15  18
BRANCH  17  20
ATOM     20  O   UNL     1      23.798  -3.877 -20.378  1.00  0.00    -0.504 OA
ATOM     21  H   UNL     1      23.581  -3.010 -20.855  1.00  0.00     0.293 HD
ENDBRANCH  17  20
ENDBRANCH   1  12
BRANCH   6  22
ATOM     22  O   UNL     1      23.703 -12.757 -16.274  1.00  0.00    -0.507 OA
ATOM     23  H   UNL     1      23.716 -12.255 -15.399  1.00  0.00     0.293 HD
ENDBRANCH   6  22
BRANCH   8  24
ATOM     24  O   UNL     1      21.802 -13.809 -20.538  1.00  0.00    -0.508 OA
ATOM     25  H   UNL     1      22.017 -13.719 -21.525  1.00  0.00     0.293 HD
ENDBRANCH   8  24
TORSDOF 5
ENDMDL
