MODEL 1
REMARK VINA RESULT:    -3.542      0.000      0.000
REMARK INTER + INTRA:         -15.297
REMARK INTER:                  -9.339
REMARK INTRA:                  -5.958
REMARK UNBOUND:                -5.958
REMARK SMILES CCCCCCCCCCCCCCCCCCCCCCCCCCCCCC(=O)[O-]
REMARK SMILES IDX 16 1 17 2 18 3 19 4 20 5 21 6 22 7 23 8 24 9 25 10 26 11
REMARK SMILES IDX 27 12 28 13 29 14 30 15 31 16 32 17 15 18 14 19 13 20 12 21
REMARK SMILES IDX 11 22 10 23 9 24 8 25 7 26 6 27 5 28 4 29 3 30 2 31 1 32
REMARK H PARENT
REMARK Flexibility Score: inf
ROOT
ATOM      1  C   UNL     1     125.554 126.526 125.356  1.00  0.00     0.000 C 
ENDROOT
BRANCH   1   2
ATOM      2  C   UNL     1     126.313 127.823 125.706  1.00  0.00     0.000 C 
BRANCH   2   3
ATOM      3  C   UNL     1     127.410 127.673 126.776  1.00  0.00     0.000 C 
BRANCH   3   4
ATOM      4  C   UNL     1     127.816 128.977 127.495  1.00  0.00     0.000 C 
BRANCH   4   5
ATOM      5  C   UNL     1     128.929 129.784 126.804  1.00  0.00     0.000 C 
BRANCH   5   6
ATOM      6  C   UNL     1     128.606 131.282 126.701  1.00  0.00     0.000 C 
BRANCH   6   7
ATOM      7  C   UNL     1     128.165 131.645 125.278  1.00  0.00     0.000 C 
BRANCH   7   8
ATOM      8  C   UNL     1     128.744 130.664 124.254  1.00  0.00     0.000 C 
BRANCH   8   9
ATOM      9  C   UNL     1     127.661 130.180 123.280  1.00  0.00     0.000 C 
BRANCH   9  10
ATOM     10  C   UNL     1     126.283 130.802 123.559  1.00  0.00     0.000 C 
BRANCH  10  11
ATOM     11  C   UNL     1     125.448 131.049 122.283  1.00  0.00     0.000 C 
BRANCH  11  12
ATOM     12  C   UNL     1     125.596 132.488 121.759  1.00  0.00     0.000 C 
BRANCH  12  13
ATOM     13  C   UNL     1     125.948 132.550 120.261  1.00  0.00     0.006 C 
BRANCH  13  14
ATOM     14  C   UNL     1     127.299 131.901 119.911  1.00  0.00     0.053 C 
BRANCH  14  15
ATOM     15  C   UNL     1     127.229 131.032 118.691  1.00  0.00     0.041 C 
ATOM     16  O   UNL     1     127.124 131.547 117.547  1.00  0.00    -0.550 OA
ATOM     17  O   UNL     1     127.320 129.651 118.818  1.00  0.00    -0.550 OA
ENDBRANCH  14  15
ENDBRANCH  13  14
ENDBRANCH  12  13
ENDBRANCH  11  12
ENDBRANCH  10  11
ENDBRANCH   9  10
ENDBRANCH   8   9
ENDBRANCH   7   8
ENDBRANCH   6   7
ENDBRANCH   5   6
ENDBRANCH   4   5
ENDBRANCH   3   4
ENDBRANCH   2   3
ENDBRANCH   1   2
BRANCH   1  18
ATOM     18  C   UNL     1     124.035 126.717 125.145  1.00  0.00     0.000 C 
BRANCH  18  19
ATOM     19  C   UNL     1     123.603 128.158 124.817  1.00  0.00     0.000 C 
BRANCH  19  20
ATOM     20  C   UNL     1     122.295 128.565 125.518  1.00  0.00     0.000 C 
BRANCH  20  21
ATOM     21  C   UNL     1     121.632 129.792 124.869  1.00  0.00     0.000 C 
BRANCH  21  22
ATOM     22  C   UNL     1     122.584 130.970 124.578  1.00  0.00     0.000 C 
BRANCH  22  23
ATOM     23  C   UNL     1     122.765 131.971 125.739  1.00  0.00     0.000 C 
BRANCH  23  24
ATOM     24  C   UNL     1     124.217 132.170 126.214  1.00  0.00    -0.000 C 
BRANCH  24  25
ATOM     25  C   UNL     1     124.782 130.936 126.939  1.00  0.00    -0.000 C 
BRANCH  25  26
ATOM     26  C   UNL     1     123.858 130.436 128.061  1.00  0.00    -0.000 C 
BRANCH  26  27
ATOM     27  C   UNL     1     124.581 129.521 129.065  1.00  0.00    -0.000 C 
BRANCH  27  28
ATOM     28  C   UNL     1     123.638 128.985 130.156  1.00  0.00    -0.000 C 
BRANCH  28  29
ATOM     29  C   UNL     1     123.517 127.450 130.132  1.00  0.00    -0.000 C 
BRANCH  29  30
ATOM     30  C   UNL     1     123.954 126.848 128.787  1.00  0.00    -0.000 C 
BRANCH  30  31
ATOM     31  C   UNL     1     124.995 125.729 128.949  1.00  0.00    -0.003 C 
ATOM     32  C   UNL     1     126.097 126.144 129.919  1.00  0.00     0.004 C 
ENDBRANCH  30  31
ENDBRANCH  29  30
ENDBRANCH  28  29
ENDBRANCH  27  28
ENDBRANCH  26  27
ENDBRANCH  25  26
ENDBRANCH  24  25
ENDBRANCH  23  24
ENDBRANCH  22  23
ENDBRANCH  21  22
ENDBRANCH  20  21
ENDBRANCH  19  20
ENDBRANCH  18  19
ENDBRANCH   1  18
TORSDOF 28
ENDMDL
MODEL 2
REMARK VINA RESULT:    -3.434      1.981      6.340
REMARK INTER + INTRA:         -15.013
REMARK INTER:                 -10.004
REMARK INTRA:                  -5.009
REMARK UNBOUND:                -5.958
REMARK SMILES CCCCCCCCCCCCCCCCCCCCCCCCCCCCCC(=O)[O-]
REMARK SMILES IDX 16 1 17 2 18 3 19 4 20 5 21 6 22 7 23 8 24 9 25 10 26 11
REMARK SMILES IDX 27 12 28 13 29 14 30 15 31 16 32 17 15 18 14 19 13 20 12 21
REMARK SMILES IDX 11 22 10 23 9 24 8 25 7 26 6 27 5 28 4 29 3 30 2 31 1 32
REMARK H PARENT
REMARK Flexibility Score: inf
ROOT
ATOM      1  C   UNL     1     126.516 125.991 127.824  1.00  0.00     0.000 C 
ENDROOT
BRANCH   1   2
ATOM      2  C   UNL     1     126.077 126.099 129.298  1.00  0.00     0.000 C 
BRANCH   2   3
ATOM      3  C   UNL     1     124.633 125.648 129.588  1.00  0.00     0.000 C 
BRANCH   3   4
ATOM      4  C   UNL     1     123.559 126.750 129.469  1.00  0.00     0.000 C 
BRANCH   4   5
ATOM      5  C   UNL     1     123.356 127.603 130.733  1.00  0.00     0.000 C 
BRANCH   5   6
ATOM      6  C   UNL     1     123.429 129.112 130.454  1.00  0.00     0.000 C 
BRANCH   6   7
ATOM      7  C   UNL     1     123.867 129.375 129.008  1.00  0.00     0.000 C 
BRANCH   7   8
ATOM      8  C   UNL     1     125.192 130.143 128.965  1.00  0.00     0.000 C 
BRANCH   8   9
ATOM      9  C   UNL     1     125.209 131.151 127.809  1.00  0.00     0.000 C 
BRANCH   9  10
ATOM     10  C   UNL     1     126.613 131.709 127.520  1.00  0.00     0.000 C 
BRANCH  10  11
ATOM     11  C   UNL     1     127.754 130.804 128.035  1.00  0.00     0.000 C 
BRANCH  11  12
ATOM     12  C   UNL     1     129.088 131.085 127.321  1.00  0.00     0.000 C 
BRANCH  12  13
ATOM     13  C   UNL     1     129.377 130.097 126.176  1.00  0.00     0.006 C 
BRANCH  13  14
ATOM     14  C   UNL     1     128.863 130.567 124.804  1.00  0.00     0.053 C 
BRANCH  14  15
ATOM     15  C   UNL     1     129.784 131.548 124.141  1.00  0.00     0.041 C 
ATOM     16  O   UNL     1     131.008 131.574 124.438  1.00  0.00    -0.550 OA
ATOM     17  O   UNL     1     129.295 132.408 123.165  1.00  0.00    -0.550 OA
ENDBRANCH  14  15
ENDBRANCH  13  14
ENDBRANCH  12  13
ENDBRANCH  11  12
ENDBRANCH  10  11
ENDBRANCH   9  10
ENDBRANCH   8   9
ENDBRANCH   7   8
ENDBRANCH   6   7
ENDBRANCH   5   6
ENDBRANCH   4   5
ENDBRANCH   3   4
ENDBRANCH   2   3
ENDBRANCH   1   2
BRANCH   1  18
ATOM     18  C   UNL     1     127.153 127.280 127.256  1.00  0.00     0.000 C 
BRANCH  18  19
ATOM     19  C   UNL     1     126.730 127.632 125.818  1.00  0.00     0.000 C 
BRANCH  19  20
ATOM     20  C   UNL     1     125.340 128.287 125.747  1.00  0.00     0.000 C 
BRANCH  20  21
ATOM     21  C   UNL     1     124.251 127.313 125.263  1.00  0.00     0.000 C 
BRANCH  21  22
ATOM     22  C   UNL     1     122.884 127.465 125.961  1.00  0.00     0.000 C 
BRANCH  22  23
ATOM     23  C   UNL     1     122.197 128.835 125.772  1.00  0.00     0.000 C 
BRANCH  23  24
ATOM     24  C   UNL     1     122.116 129.334 124.317  1.00  0.00    -0.000 C 
BRANCH  24  25
ATOM     25  C   UNL     1     122.757 130.720 124.125  1.00  0.00    -0.000 C 
BRANCH  25  26
ATOM     26  C   UNL     1     123.642 130.792 122.870  1.00  0.00    -0.000 C 
BRANCH  26  27
ATOM     27  C   UNL     1     125.094 131.188 123.188  1.00  0.00    -0.000 C 
BRANCH  27  28
ATOM     28  C   UNL     1     125.826 131.769 121.965  1.00  0.00    -0.000 C 
BRANCH  28  29
ATOM     29  C   UNL     1     126.863 130.794 121.377  1.00  0.00    -0.000 C 
BRANCH  29  30
ATOM     30  C   UNL     1     126.639 130.534 119.879  1.00  0.00    -0.000 C 
BRANCH  30  31
ATOM     31  C   UNL     1     125.152 130.389 119.518  1.00  0.00    -0.003 C 
ATOM     32  C   UNL     1     124.983 129.812 118.116  1.00  0.00     0.004 C 
ENDBRANCH  30  31
ENDBRANCH  29  30
ENDBRANCH  28  29
ENDBRANCH  27  28
ENDBRANCH  26  27
ENDBRANCH  25  26
ENDBRANCH  24  25
ENDBRANCH  23  24
ENDBRANCH  22  23
ENDBRANCH  21  22
ENDBRANCH  20  21
ENDBRANCH  19  20
ENDBRANCH  18  19
ENDBRANCH   1  18
TORSDOF 28
ENDMDL
MODEL 3
REMARK VINA RESULT:    -3.421      9.612     12.775
REMARK INTER + INTRA:         -14.979
REMARK INTER:                  -9.881
REMARK INTRA:                  -5.098
REMARK UNBOUND:                -5.958
REMARK SMILES CCCCCCCCCCCCCCCCCCCCCCCCCCCCCC(=O)[O-]
REMARK SMILES IDX 16 1 17 2 18 3 19 4 20 5 21 6 22 7 23 8 24 9 25 10 26 11
REMARK SMILES IDX 27 12 28 13 29 14 30 15 31 16 32 17 15 18 14 19 13 20 12 21
REMARK SMILES IDX 11 22 10 23 9 24 8 25 7 26 6 27 5 28 4 29 3 30 2 31 1 32
REMARK H PARENT
REMARK Flexibility Score: inf
ROOT
ATOM      1  C   UNL     1     131.996 122.315 121.157  1.00  0.00     0.000 C 
ENDROOT
BRANCH   1   2
ATOM      2  C   UNL     1     130.757 122.662 120.306  1.00  0.00     0.000 C 
BRANCH   2   3
ATOM      3  C   UNL     1     129.400 122.396 120.983  1.00  0.00     0.000 C 
BRANCH   3   4
ATOM      4  C   UNL     1     128.488 121.380 120.262  1.00  0.00     0.000 C 
BRANCH   4   5
ATOM      5  C   UNL     1     128.920 121.016 118.831  1.00  0.00     0.000 C 
BRANCH   5   6
ATOM      6  C   UNL     1     127.739 120.634 117.928  1.00  0.00     0.000 C 
BRANCH   6   7
ATOM      7  C   UNL     1     126.408 120.823 118.667  1.00  0.00     0.000 C 
BRANCH   7   8
ATOM      8  C   UNL     1     125.220 120.659 117.714  1.00  0.00     0.000 C 
BRANCH   8   9
ATOM      9  C   UNL     1     124.862 121.991 117.044  1.00  0.00     0.000 C 
BRANCH   9  10
ATOM     10  C   UNL     1     123.413 122.429 117.317  1.00  0.00     0.000 C 
BRANCH  10  11
ATOM     11  C   UNL     1     123.142 122.773 118.797  1.00  0.00     0.000 C 
BRANCH  11  12
ATOM     12  C   UNL     1     122.316 121.685 119.506  1.00  0.00     0.000 C 
BRANCH  12  13
ATOM     13  C   UNL     1     122.959 121.201 120.819  1.00  0.00     0.006 C 
BRANCH  13  14
ATOM     14  C   UNL     1     123.637 122.319 121.630  1.00  0.00     0.053 C 
BRANCH  14  15
ATOM     15  C   UNL     1     122.900 122.653 122.892  1.00  0.00     0.041 C 
ATOM     16  O   UNL     1     121.665 122.425 122.989  1.00  0.00    -0.550 OA
ATOM     17  O   UNL     1     123.588 123.182 123.978  1.00  0.00    -0.550 OA
ENDBRANCH  14  15
ENDBRANCH  13  14
ENDBRANCH  12  13
ENDBRANCH  11  12
ENDBRANCH  10  11
ENDBRANCH   9  10
ENDBRANCH   8   9
ENDBRANCH   7   8
ENDBRANCH   6   7
ENDBRANCH   5   6
ENDBRANCH   4   5
ENDBRANCH   3   4
ENDBRANCH   2   3
ENDBRANCH   1   2
BRANCH   1  18
ATOM     18  C   UNL     1     132.823 121.126 120.618  1.00  0.00     0.000 C 
BRANCH  18  19
ATOM     19  C   UNL     1     132.089 119.773 120.617  1.00  0.00     0.000 C 
BRANCH  19  20
ATOM     20  C   UNL     1     132.318 118.969 119.326  1.00  0.00     0.000 C 
BRANCH  20  21
ATOM     21  C   UNL     1     132.468 119.868 118.086  1.00  0.00     0.000 C 
BRANCH  21  22
ATOM     22  C   UNL     1     131.719 119.378 116.831  1.00  0.00     0.000 C 
BRANCH  22  23
ATOM     23  C   UNL     1     131.141 117.950 116.925  1.00  0.00     0.000 C 
BRANCH  23  24
ATOM     24  C   UNL     1     129.605 117.866 116.993  1.00  0.00    -0.000 C 
BRANCH  24  25
ATOM     25  C   UNL     1     129.104 117.060 118.205  1.00  0.00    -0.000 C 
BRANCH  25  26
ATOM     26  C   UNL     1     127.578 116.871 118.197  1.00  0.00    -0.000 C 
BRANCH  26  27
ATOM     27  C   UNL     1     127.018 116.489 119.578  1.00  0.00    -0.000 C 
BRANCH  27  28
ATOM     28  C   UNL     1     126.130 117.593 120.178  1.00  0.00    -0.000 C 
BRANCH  28  29
ATOM     29  C   UNL     1     126.758 118.252 121.419  1.00  0.00    -0.000 C 
BRANCH  29  30
ATOM     30  C   UNL     1     125.737 119.062 122.233  1.00  0.00    -0.000 C 
BRANCH  30  31
ATOM     31  C   UNL     1     126.365 120.280 122.928  1.00  0.00    -0.003 C 
ATOM     32  C   UNL     1     125.806 120.454 124.337  1.00  0.00     0.004 C 
ENDBRANCH  30  31
ENDBRANCH  29  30
ENDBRANCH  28  29
ENDBRANCH  27  28
ENDBRANCH  26  27
ENDBRANCH  25  26
ENDBRANCH  24  25
ENDBRANCH  23  24
ENDBRANCH  22  23
ENDBRANCH  21  22
ENDBRANCH  20  21
ENDBRANCH  19  20
ENDBRANCH  18  19
ENDBRANCH   1  18
TORSDOF 28
ENDMDL
MODEL 4
REMARK VINA RESULT:    -3.396      9.669     13.214
REMARK INTER + INTRA:         -14.914
REMARK INTER:                 -10.028
REMARK INTRA:                  -4.886
REMARK UNBOUND:                -5.958
REMARK SMILES CCCCCCCCCCCCCCCCCCCCCCCCCCCCCC(=O)[O-]
REMARK SMILES IDX 16 1 17 2 18 3 19 4 20 5 21 6 22 7 23 8 24 9 25 10 26 11
REMARK SMILES IDX 27 12 28 13 29 14 30 15 31 16 32 17 15 18 14 19 13 20 12 21
REMARK SMILES IDX 11 22 10 23 9 24 8 25 7 26 6 27 5 28 4 29 3 30 2 31 1 32
REMARK H PARENT
REMARK Flexibility Score: inf
ROOT
ATOM      1  C   UNL     1     128.402 121.782 121.129  1.00  0.00     0.000 C 
ENDROOT
BRANCH   1   2
ATOM      2  C   UNL     1     127.298 120.888 120.527  1.00  0.00     0.000 C 
BRANCH   2   3
ATOM      3  C   UNL     1     127.348 120.723 118.997  1.00  0.00     0.000 C 
BRANCH   3   4
ATOM      4  C   UNL     1     126.000 120.392 118.322  1.00  0.00     0.000 C 
BRANCH   4   5
ATOM      5  C   UNL     1     125.534 121.406 117.262  1.00  0.00     0.000 C 
BRANCH   5   6
ATOM      6  C   UNL     1     124.008 121.445 117.102  1.00  0.00     0.000 C 
BRANCH   6   7
ATOM      7  C   UNL     1     123.452 122.809 117.529  1.00  0.00     0.000 C 
BRANCH   7   8
ATOM      8  C   UNL     1     122.593 122.683 118.791  1.00  0.00     0.000 C 
BRANCH   8   9
ATOM      9  C   UNL     1     122.356 121.212 119.153  1.00  0.00     0.000 C 
BRANCH   9  10
ATOM     10  C   UNL     1     122.885 120.846 120.550  1.00  0.00     0.000 C 
BRANCH  10  11
ATOM     11  C   UNL     1     123.798 121.927 121.167  1.00  0.00     0.000 C 
BRANCH  11  12
ATOM     12  C   UNL     1     123.119 122.668 122.333  1.00  0.00     0.000 C 
BRANCH  12  13
ATOM     13  C   UNL     1     123.564 122.152 123.714  1.00  0.00     0.006 C 
BRANCH  13  14
ATOM     14  C   UNL     1     124.658 121.072 123.652  1.00  0.00     0.053 C 
BRANCH  14  15
ATOM     15  C   UNL     1     125.008 120.518 125.001  1.00  0.00     0.041 C 
ATOM     16  O   UNL     1     124.416 119.498 125.444  1.00  0.00    -0.550 OA
ATOM     17  O   UNL     1     126.017 121.109 125.753  1.00  0.00    -0.550 OA
ENDBRANCH  14  15
ENDBRANCH  13  14
ENDBRANCH  12  13
ENDBRANCH  11  12
ENDBRANCH  10  11
ENDBRANCH   9  10
ENDBRANCH   8   9
ENDBRANCH   7   8
ENDBRANCH   6   7
ENDBRANCH   5   6
ENDBRANCH   4   5
ENDBRANCH   3   4
ENDBRANCH   2   3
ENDBRANCH   1   2
BRANCH   1  18
ATOM     18  C   UNL     1     129.661 121.918 120.243  1.00  0.00     0.000 C 
BRANCH  18  19
ATOM     19  C   UNL     1     130.677 122.972 120.720  1.00  0.00     0.000 C 
BRANCH  19  20
ATOM     20  C   UNL     1     132.111 122.422 120.810  1.00  0.00     0.000 C 
BRANCH  20  21
ATOM     21  C   UNL     1     132.159 120.884 120.776  1.00  0.00     0.000 C 
BRANCH  21  22
ATOM     22  C   UNL     1     133.219 120.286 119.829  1.00  0.00     0.000 C 
BRANCH  22  23
ATOM     23  C   UNL     1     132.658 119.570 118.582  1.00  0.00     0.000 C 
BRANCH  23  24
ATOM     24  C   UNL     1     131.569 120.344 117.814  1.00  0.00    -0.000 C 
BRANCH  24  25
ATOM     25  C   UNL     1     130.392 119.450 117.386  1.00  0.00    -0.000 C 
BRANCH  25  26
ATOM     26  C   UNL     1     130.839 118.032 116.993  1.00  0.00    -0.000 C 
BRANCH  26  27
ATOM     27  C   UNL     1     129.847 116.947 117.448  1.00  0.00    -0.000 C 
BRANCH  27  28
ATOM     28  C   UNL     1     128.767 117.499 118.394  1.00  0.00    -0.000 C 
BRANCH  28  29
ATOM     29  C   UNL     1     128.979 117.062 119.855  1.00  0.00    -0.000 C 
BRANCH  29  30
ATOM     30  C   UNL     1     129.626 118.164 120.709  1.00  0.00    -0.000 C 
BRANCH  30  31
ATOM     31  C   UNL     1     130.836 117.659 121.510  1.00  0.00    -0.003 C 
ATOM     32  C   UNL     1     131.647 116.652 120.700  1.00  0.00     0.004 C 
ENDBRANCH  30  31
ENDBRANCH  29  30
ENDBRANCH  28  29
ENDBRANCH  27  28
ENDBRANCH  26  27
ENDBRANCH  25  26
ENDBRANCH  24  25
ENDBRANCH  23  24
ENDBRANCH  22  23
ENDBRANCH  21  22
ENDBRANCH  20  21
ENDBRANCH  19  20
ENDBRANCH  18  19
ENDBRANCH   1  18
TORSDOF 28
ENDMDL
MODEL 5
REMARK VINA RESULT:    -3.394      9.459     13.072
REMARK INTER + INTRA:         -14.908
REMARK INTER:                 -10.074
REMARK INTRA:                  -4.835
REMARK UNBOUND:                -5.958
REMARK SMILES CCCCCCCCCCCCCCCCCCCCCCCCCCCCCC(=O)[O-]
REMARK SMILES IDX 16 1 17 2 18 3 19 4 20 5 21 6 22 7 23 8 24 9 25 10 26 11
REMARK SMILES IDX 27 12 28 13 29 14 30 15 31 16 32 17 15 18 14 19 13 20 12 21
REMARK SMILES IDX 11 22 10 23 9 24 8 25 7 26 6 27 5 28 4 29 3 30 2 31 1 32
REMARK H PARENT
REMARK Flexibility Score: inf
ROOT
ATOM      1  C   UNL     1     125.720 121.079 117.902  1.00  0.00     0.000 C 
ENDROOT
BRANCH   1   2
ATOM      2  C   UNL     1     124.941 121.948 116.893  1.00  0.00     0.000 C 
BRANCH   2   3
ATOM      3  C   UNL     1     123.418 122.001 117.111  1.00  0.00     0.000 C 
BRANCH   3   4
ATOM      4  C   UNL     1     122.939 122.982 118.202  1.00  0.00     0.000 C 
BRANCH   4   5
ATOM      5  C   UNL     1     122.639 122.343 119.570  1.00  0.00     0.000 C 
BRANCH   5   6
ATOM      6  C   UNL     1     122.080 120.917 119.454  1.00  0.00     0.000 C 
BRANCH   6   7
ATOM      7  C   UNL     1     122.966 119.924 120.217  1.00  0.00     0.000 C 
BRANCH   7   8
ATOM      8  C   UNL     1     124.041 120.654 121.028  1.00  0.00     0.000 C 
BRANCH   8   9
ATOM      9  C   UNL     1     124.113 120.113 122.461  1.00  0.00     0.000 C 
BRANCH   9  10
ATOM     10  C   UNL     1     123.918 121.205 123.526  1.00  0.00     0.000 C 
BRANCH  10  11
ATOM     11  C   UNL     1     123.212 122.469 122.990  1.00  0.00     0.000 C 
BRANCH  11  12
ATOM     12  C   UNL     1     121.779 122.610 123.532  1.00  0.00     0.000 C 
BRANCH  12  13
ATOM     13  C   UNL     1     120.731 121.899 122.655  1.00  0.00     0.006 C 
BRANCH  13  14
ATOM     14  C   UNL     1     120.238 120.562 123.234  1.00  0.00     0.053 C 
BRANCH  14  15
ATOM     15  C   UNL     1     118.829 120.631 123.743  1.00  0.00     0.041 C 
ATOM     16  O   UNL     1     118.197 119.576 124.014  1.00  0.00    -0.550 OA
ATOM     17  O   UNL     1     118.229 121.866 123.956  1.00  0.00    -0.550 OA
ENDBRANCH  14  15
ENDBRANCH  13  14
ENDBRANCH  12  13
ENDBRANCH  11  12
ENDBRANCH  10  11
ENDBRANCH   9  10
ENDBRANCH   8   9
ENDBRANCH   7   8
ENDBRANCH   6   7
ENDBRANCH   5   6
ENDBRANCH   4   5
ENDBRANCH   3   4
ENDBRANCH   2   3
ENDBRANCH   1   2
BRANCH   1  18
ATOM     18  C   UNL     1     125.619 119.559 117.642  1.00  0.00     0.000 C 
BRANCH  18  19
ATOM     19  C   UNL     1     126.956 118.799 117.718  1.00  0.00     0.000 C 
BRANCH  19  20
ATOM     20  C   UNL     1     128.068 119.611 118.405  1.00  0.00     0.000 C 
BRANCH  20  21
ATOM     21  C   UNL     1     128.666 118.883 119.622  1.00  0.00     0.000 C 
BRANCH  21  22
ATOM     22  C   UNL     1     128.869 119.763 120.872  1.00  0.00     0.000 C 
BRANCH  22  23
ATOM     23  C   UNL     1     128.207 121.156 120.811  1.00  0.00     0.000 C 
BRANCH  23  24
ATOM     24  C   UNL     1     129.183 122.346 120.767  1.00  0.00    -0.000 C 
BRANCH  24  25
ATOM     25  C   UNL     1     130.499 122.012 120.044  1.00  0.00    -0.000 C 
BRANCH  25  26
ATOM     26  C   UNL     1     131.718 122.072 120.979  1.00  0.00    -0.000 C 
BRANCH  26  27
ATOM     27  C   UNL     1     132.843 121.113 120.555  1.00  0.00    -0.000 C 
BRANCH  27  28
ATOM     28  C   UNL     1     132.392 119.641 120.557  1.00  0.00    -0.000 C 
BRANCH  28  29
ATOM     29  C   UNL     1     132.961 118.845 119.369  1.00  0.00    -0.000 C 
BRANCH  29  30
ATOM     30  C   UNL     1     132.992 119.669 118.072  1.00  0.00    -0.000 C 
BRANCH  30  31
ATOM     31  C   UNL     1     131.653 119.640 117.320  1.00  0.00    -0.003 C 
ATOM     32  C   UNL     1     131.200 118.206 117.062  1.00  0.00     0.004 C 
ENDBRANCH  30  31
ENDBRANCH  29  30
ENDBRANCH  28  29
ENDBRANCH  27  28
ENDBRANCH  26  27
ENDBRANCH  25  26
ENDBRANCH  24  25
ENDBRANCH  23  24
ENDBRANCH  22  23
ENDBRANCH  21  22
ENDBRANCH  20  21
ENDBRANCH  19  20
ENDBRANCH  18  19
ENDBRANCH   1  18
TORSDOF 28
ENDMDL
MODEL 6
REMARK VINA RESULT:    -3.379      1.421      4.054
REMARK INTER + INTRA:         -14.869
REMARK INTER:                  -9.390
REMARK INTRA:                  -5.479
REMARK UNBOUND:                -5.958
REMARK SMILES CCCCCCCCCCCCCCCCCCCCCCCCCCCCCC(=O)[O-]
REMARK SMILES IDX 16 1 17 2 18 3 19 4 20 5 21 6 22 7 23 8 24 9 25 10 26 11
REMARK SMILES IDX 27 12 28 13 29 14 30 15 31 16 32 17 15 18 14 19 13 20 12 21
REMARK SMILES IDX 11 22 10 23 9 24 8 25 7 26 6 27 5 28 4 29 3 30 2 31 1 32
REMARK H PARENT
REMARK Flexibility Score: inf
ROOT
ATOM      1  C   UNL     1     127.282 128.989 125.753  1.00  0.00     0.000 C 
ENDROOT
BRANCH   1   2
ATOM      2  C   UNL     1     126.037 128.502 124.985  1.00  0.00     0.000 C 
BRANCH   2   3
ATOM      3  C   UNL     1     125.679 127.018 125.188  1.00  0.00     0.000 C 
BRANCH   3   4
ATOM      4  C   UNL     1     124.172 126.715 125.338  1.00  0.00     0.000 C 
BRANCH   4   5
ATOM      5  C   UNL     1     123.421 127.614 126.335  1.00  0.00     0.000 C 
BRANCH   5   6
ATOM      6  C   UNL     1     122.091 128.143 125.778  1.00  0.00     0.000 C 
BRANCH   6   7
ATOM      7  C   UNL     1     122.187 129.644 125.478  1.00  0.00     0.000 C 
BRANCH   7   8
ATOM      8  C   UNL     1     122.721 129.890 124.063  1.00  0.00     0.000 C 
BRANCH   8   9
ATOM      9  C   UNL     1     123.038 131.375 123.844  1.00  0.00     0.000 C 
BRANCH   9  10
ATOM     10  C   UNL     1     124.512 131.720 124.113  1.00  0.00     0.000 C 
BRANCH  10  11
ATOM     11  C   UNL     1     125.299 132.096 122.839  1.00  0.00     0.000 C 
BRANCH  11  12
ATOM     12  C   UNL     1     125.764 130.857 122.054  1.00  0.00     0.000 C 
BRANCH  12  13
ATOM     13  C   UNL     1     126.512 131.213 120.756  1.00  0.00     0.006 C 
BRANCH  13  14
ATOM     14  C   UNL     1     125.592 131.397 119.537  1.00  0.00     0.053 C 
BRANCH  14  15
ATOM     15  C   UNL     1     125.010 130.105 119.046  1.00  0.00     0.041 C 
ATOM     16  O   UNL     1     125.516 129.514 118.056  1.00  0.00    -0.550 OA
ATOM     17  O   UNL     1     123.930 129.535 119.709  1.00  0.00    -0.550 OA
ENDBRANCH  14  15
ENDBRANCH  13  14
ENDBRANCH  12  13
ENDBRANCH  11  12
ENDBRANCH  10  11
ENDBRANCH   9  10
ENDBRANCH   8   9
ENDBRANCH   7   8
ENDBRANCH   6   7
ENDBRANCH   5   6
ENDBRANCH   4   5
ENDBRANCH   3   4
ENDBRANCH   2   3
ENDBRANCH   1   2
BRANCH   1  18
ATOM     18  C   UNL     1     128.074 130.106 125.037  1.00  0.00     0.000 C 
BRANCH  18  19
ATOM     19  C   UNL     1     129.347 130.569 125.767  1.00  0.00     0.000 C 
BRANCH  19  20
ATOM     20  C   UNL     1     129.163 130.661 127.292  1.00  0.00     0.000 C 
BRANCH  20  21
ATOM     21  C   UNL     1     128.473 131.967 127.726  1.00  0.00     0.000 C 
BRANCH  21  22
ATOM     22  C   UNL     1     127.096 131.785 128.395  1.00  0.00     0.000 C 
BRANCH  22  23
ATOM     23  C   UNL     1     125.883 131.909 127.448  1.00  0.00     0.000 C 
BRANCH  23  24
ATOM     24  C   UNL     1     124.719 130.944 127.740  1.00  0.00    -0.000 C 
BRANCH  24  25
ATOM     25  C   UNL     1     125.083 129.866 128.776  1.00  0.00    -0.000 C 
BRANCH  25  26
ATOM     26  C   UNL     1     124.007 129.704 129.862  1.00  0.00    -0.000 C 
BRANCH  26  27
ATOM     27  C   UNL     1     123.550 128.245 130.034  1.00  0.00    -0.000 C 
BRANCH  27  28
ATOM     28  C   UNL     1     124.211 127.561 131.243  1.00  0.00    -0.000 C 
BRANCH  28  29
ATOM     29  C   UNL     1     125.045 126.329 130.844  1.00  0.00    -0.000 C 
BRANCH  29  30
ATOM     30  C   UNL     1     124.571 125.705 129.522  1.00  0.00    -0.000 C 
BRANCH  30  31
ATOM     31  C   UNL     1     125.709 125.545 128.501  1.00  0.00    -0.003 C 
ATOM     32  C   UNL     1     126.767 126.628 128.688  1.00  0.00     0.004 C 
ENDBRANCH  30  31
ENDBRANCH  29  30
ENDBRANCH  28  29
ENDBRANCH  27  28
ENDBRANCH  26  27
ENDBRANCH  25  26
ENDBRANCH  24  25
ENDBRANCH  23  24
ENDBRANCH  22  23
ENDBRANCH  21  22
ENDBRANCH  20  21
ENDBRANCH  19  20
ENDBRANCH  18  19
ENDBRANCH   1  18
TORSDOF 28
ENDMDL
MODEL 7
REMARK VINA RESULT:    -3.363     10.660     13.128
REMARK INTER + INTRA:         -14.827
REMARK INTER:                  -8.790
REMARK INTRA:                  -6.036
REMARK UNBOUND:                -5.958
REMARK SMILES CCCCCCCCCCCCCCCCCCCCCCCCCCCCCC(=O)[O-]
REMARK SMILES IDX 16 1 17 2 18 3 19 4 20 5 21 6 22 7 23 8 24 9 25 10 26 11
REMARK SMILES IDX 27 12 28 13 29 14 30 15 31 16 32 17 15 18 14 19 13 20 12 21
REMARK SMILES IDX 11 22 10 23 9 24 8 25 7 26 6 27 5 28 4 29 3 30 2 31 1 32
REMARK H PARENT
REMARK Flexibility Score: inf
ROOT
ATOM      1  C   UNL     1     128.909 121.912 120.760  1.00  0.00     0.000 C 
ENDROOT
BRANCH   1   2
ATOM      2  C   UNL     1     130.195 121.902 119.908  1.00  0.00     0.000 C 
BRANCH   2   3
ATOM      3  C   UNL     1     131.491 122.236 120.670  1.00  0.00     0.000 C 
BRANCH   3   4
ATOM      4  C   UNL     1     132.522 121.090 120.757  1.00  0.00     0.000 C 
BRANCH   4   5
ATOM      5  C   UNL     1     131.923 119.673 120.775  1.00  0.00     0.000 C 
BRANCH   5   6
ATOM      6  C   UNL     1     132.782 118.651 120.016  1.00  0.00     0.000 C 
BRANCH   6   7
ATOM      7  C   UNL     1     133.428 119.295 118.783  1.00  0.00     0.000 C 
BRANCH   7   8
ATOM      8  C   UNL     1     132.692 118.892 117.501  1.00  0.00     0.000 C 
BRANCH   8   9
ATOM      9  C   UNL     1     131.737 120.000 117.042  1.00  0.00     0.000 C 
BRANCH   9  10
ATOM     10  C   UNL     1     130.265 119.696 117.369  1.00  0.00     0.000 C 
BRANCH  10  11
ATOM     11  C   UNL     1     129.950 118.187 117.447  1.00  0.00     0.000 C 
BRANCH  11  12
ATOM     12  C   UNL     1     129.312 117.793 118.791  1.00  0.00     0.000 C 
BRANCH  12  13
ATOM     13  C   UNL     1     129.817 116.438 119.322  1.00  0.00     0.006 C 
BRANCH  13  14
ATOM     14  C   UNL     1     130.832 115.745 118.397  1.00  0.00     0.053 C 
BRANCH  14  15
ATOM     15  C   UNL     1     131.959 115.100 119.146  1.00  0.00     0.041 C 
ATOM     16  O   UNL     1     133.155 115.351 118.840  1.00  0.00    -0.550 OA
ATOM     17  O   UNL     1     131.686 114.248 120.210  1.00  0.00    -0.550 OA
ENDBRANCH  14  15
ENDBRANCH  13  14
ENDBRANCH  12  13
ENDBRANCH  11  12
ENDBRANCH  10  11
ENDBRANCH   9  10
ENDBRANCH   8   9
ENDBRANCH   7   8
ENDBRANCH   6   7
ENDBRANCH   5   6
ENDBRANCH   4   5
ENDBRANCH   3   4
ENDBRANCH   2   3
ENDBRANCH   1   2
BRANCH   1  18
ATOM     18  C   UNL     1     128.233 120.530 120.903  1.00  0.00     0.000 C 
BRANCH  18  19
ATOM     19  C   UNL     1     126.894 120.383 120.157  1.00  0.00     0.000 C 
BRANCH  19  20
ATOM     20  C   UNL     1     126.988 120.789 118.676  1.00  0.00     0.000 C 
BRANCH  20  21
ATOM     21  C   UNL     1     126.265 119.800 117.744  1.00  0.00     0.000 C 
BRANCH  21  22
ATOM     22  C   UNL     1     125.438 118.714 118.462  1.00  0.00     0.000 C 
BRANCH  22  23
ATOM     23  C   UNL     1     123.961 118.616 118.025  1.00  0.00     0.000 C 
BRANCH  23  24
ATOM     24  C   UNL     1     123.490 119.711 117.049  1.00  0.00    -0.000 C 
BRANCH  24  25
ATOM     25  C   UNL     1     122.591 120.763 117.722  1.00  0.00    -0.000 C 
BRANCH  25  26
ATOM     26  C   UNL     1     123.241 122.156 117.761  1.00  0.00    -0.000 C 
BRANCH  26  27
ATOM     27  C   UNL     1     123.689 122.565 119.176  1.00  0.00    -0.000 C 
BRANCH  27  28
ATOM     28  C   UNL     1     122.732 122.051 120.266  1.00  0.00    -0.000 C 
BRANCH  28  29
ATOM     29  C   UNL     1     123.300 122.229 121.685  1.00  0.00    -0.000 C 
BRANCH  29  30
ATOM     30  C   UNL     1     123.947 120.942 122.223  1.00  0.00    -0.000 C 
BRANCH  30  31
ATOM     31  C   UNL     1     123.365 119.673 121.581  1.00  0.00    -0.003 C 
ATOM     32  C   UNL     1     124.218 118.452 121.912  1.00  0.00     0.004 C 
ENDBRANCH  30  31
ENDBRANCH  29  30
ENDBRANCH  28  29
ENDBRANCH  27  28
ENDBRANCH  26  27
ENDBRANCH  25  26
ENDBRANCH  24  25
ENDBRANCH  23  24
ENDBRANCH  22  23
ENDBRANCH  21  22
ENDBRANCH  20  21
ENDBRANCH  19  20
ENDBRANCH  18  19
ENDBRANCH   1  18
TORSDOF 28
ENDMDL
MODEL 8
REMARK VINA RESULT:    -3.329      1.641      5.157
REMARK INTER + INTRA:         -14.735
REMARK INTER:                  -9.673
REMARK INTRA:                  -5.063
REMARK UNBOUND:                -5.958
REMARK SMILES CCCCCCCCCCCCCCCCCCCCCCCCCCCCCC(=O)[O-]
REMARK SMILES IDX 16 1 17 2 18 3 19 4 20 5 21 6 22 7 23 8 24 9 25 10 26 11
REMARK SMILES IDX 27 12 28 13 29 14 30 15 31 16 32 17 15 18 14 19 13 20 12 21
REMARK SMILES IDX 11 22 10 23 9 24 8 25 7 26 6 27 5 28 4 29 3 30 2 31 1 32
REMARK H PARENT
REMARK Flexibility Score: inf
ROOT
ATOM      1  C   UNL     1     126.480 125.958 128.097  1.00  0.00     0.000 C 
ENDROOT
BRANCH   1   2
ATOM      2  C   UNL     1     126.046 124.863 127.101  1.00  0.00     0.000 C 
BRANCH   2   3
ATOM      3  C   UNL     1     124.998 125.300 126.061  1.00  0.00     0.000 C 
BRANCH   3   4
ATOM      4  C   UNL     1     125.404 126.496 125.174  1.00  0.00     0.000 C 
BRANCH   4   5
ATOM      5  C   UNL     1     124.312 127.561 124.973  1.00  0.00     0.000 C 
BRANCH   5   6
ATOM      6  C   UNL     1     123.230 127.521 126.062  1.00  0.00     0.000 C 
BRANCH   6   7
ATOM      7  C   UNL     1     122.001 128.333 125.636  1.00  0.00     0.000 C 
BRANCH   7   8
ATOM      8  C   UNL     1     122.142 129.803 126.046  1.00  0.00     0.000 C 
BRANCH   8   9
ATOM      9  C   UNL     1     122.159 130.718 124.816  1.00  0.00     0.000 C 
BRANCH   9  10
ATOM     10  C   UNL     1     123.369 131.667 124.791  1.00  0.00     0.000 C 
BRANCH  10  11
ATOM     11  C   UNL     1     123.984 131.845 123.386  1.00  0.00     0.000 C 
BRANCH  11  12
ATOM     12  C   UNL     1     124.355 130.500 122.737  1.00  0.00     0.000 C 
BRANCH  12  13
ATOM     13  C   UNL     1     123.474 130.155 121.522  1.00  0.00     0.006 C 
BRANCH  13  14
ATOM     14  C   UNL     1     123.779 130.998 120.272  1.00  0.00     0.053 C 
BRANCH  14  15
ATOM     15  C   UNL     1     124.698 130.305 119.311  1.00  0.00     0.041 C 
ATOM     16  O   UNL     1     125.922 130.174 119.581  1.00  0.00    -0.550 OA
ATOM     17  O   UNL     1     124.193 129.769 118.132  1.00  0.00    -0.550 OA
ENDBRANCH  14  15
ENDBRANCH  13  14
ENDBRANCH  12  13
ENDBRANCH  11  12
ENDBRANCH  10  11
ENDBRANCH   9  10
ENDBRANCH   8   9
ENDBRANCH   7   8
ENDBRANCH   6   7
ENDBRANCH   5   6
ENDBRANCH   4   5
ENDBRANCH   3   4
ENDBRANCH   2   3
ENDBRANCH   1   2
BRANCH   1  18
ATOM     18  C   UNL     1     125.577 126.073 129.346  1.00  0.00     0.000 C 
BRANCH  18  19
ATOM     19  C   UNL     1     126.219 126.796 130.545  1.00  0.00     0.000 C 
BRANCH  19  20
ATOM     20  C   UNL     1     125.521 126.478 131.878  1.00  0.00     0.000 C 
BRANCH  20  21
ATOM     21  C   UNL     1     124.657 127.645 132.388  1.00  0.00     0.000 C 
BRANCH  21  22
ATOM     22  C   UNL     1     123.443 127.992 131.503  1.00  0.00     0.000 C 
BRANCH  22  23
ATOM     23  C   UNL     1     123.523 129.354 130.781  1.00  0.00     0.000 C 
BRANCH  23  24
ATOM     24  C   UNL     1     124.773 130.195 131.100  1.00  0.00    -0.000 C 
BRANCH  24  25
ATOM     25  C   UNL     1     125.579 130.569 129.843  1.00  0.00    -0.000 C 
BRANCH  25  26
ATOM     26  C   UNL     1     124.785 130.346 128.546  1.00  0.00    -0.000 C 
BRANCH  26  27
ATOM     27  C   UNL     1     125.655 129.798 127.402  1.00  0.00    -0.000 C 
BRANCH  27  28
ATOM     28  C   UNL     1     127.073 129.426 127.870  1.00  0.00    -0.000 C 
BRANCH  28  29
ATOM     29  C   UNL     1     127.999 129.035 126.703  1.00  0.00    -0.000 C 
BRANCH  29  30
ATOM     30  C   UNL     1     127.479 129.540 125.348  1.00  0.00    -0.000 C 
BRANCH  30  31
ATOM     31  C   UNL     1     128.500 130.423 124.613  1.00  0.00    -0.003 C 
ATOM     32  C   UNL     1     127.883 131.050 123.366  1.00  0.00     0.004 C 
ENDBRANCH  30  31
ENDBRANCH  29  30
ENDBRANCH  28  29
ENDBRANCH  27  28
ENDBRANCH  26  27
ENDBRANCH  25  26
ENDBRANCH  24  25
ENDBRANCH  23  24
ENDBRANCH  22  23
ENDBRANCH  21  22
ENDBRANCH  20  21
ENDBRANCH  19  20
ENDBRANCH  18  19
ENDBRANCH   1  18
TORSDOF 28
ENDMDL
MODEL 9
REMARK VINA RESULT:    -3.320     10.056     13.089
REMARK INTER + INTRA:         -14.713
REMARK INTER:                  -9.090
REMARK INTRA:                  -5.622
REMARK UNBOUND:                -5.958
REMARK SMILES CCCCCCCCCCCCCCCCCCCCCCCCCCCCCC(=O)[O-]
REMARK SMILES IDX 16 1 17 2 18 3 19 4 20 5 21 6 22 7 23 8 24 9 25 10 26 11
REMARK SMILES IDX 27 12 28 13 29 14 30 15 31 16 32 17 15 18 14 19 13 20 12 21
REMARK SMILES IDX 11 22 10 23 9 24 8 25 7 26 6 27 5 28 4 29 3 30 2 31 1 32
REMARK H PARENT
REMARK Flexibility Score: inf
ROOT
ATOM      1  C   UNL     1     128.811 117.010 119.752  1.00  0.00     0.000 C 
ENDROOT
BRANCH   1   2
ATOM      2  C   UNL     1     128.226 117.500 118.411  1.00  0.00     0.000 C 
BRANCH   2   3
ATOM      3  C   UNL     1     126.706 117.744 118.409  1.00  0.00     0.000 C 
BRANCH   3   4
ATOM      4  C   UNL     1     126.206 118.800 117.400  1.00  0.00     0.000 C 
BRANCH   4   5
ATOM      5  C   UNL     1     124.995 119.627 117.865  1.00  0.00     0.000 C 
BRANCH   5   6
ATOM      6  C   UNL     1     125.265 121.139 117.858  1.00  0.00     0.000 C 
BRANCH   6   7
ATOM      7  C   UNL     1     124.383 121.843 116.820  1.00  0.00     0.000 C 
BRANCH   7   8
ATOM      8  C   UNL     1     123.246 122.616 117.496  1.00  0.00     0.000 C 
BRANCH   8   9
ATOM      9  C   UNL     1     123.467 122.709 119.010  1.00  0.00     0.000 C 
BRANCH   9  10
ATOM     10  C   UNL     1     122.253 122.229 119.824  1.00  0.00     0.000 C 
BRANCH  10  11
ATOM     11  C   UNL     1     122.415 120.801 120.388  1.00  0.00     0.000 C 
BRANCH  11  12
ATOM     12  C   UNL     1     121.960 120.699 121.855  1.00  0.00     0.000 C 
BRANCH  12  13
ATOM     13  C   UNL     1     121.040 121.857 122.281  1.00  0.00     0.006 C 
BRANCH  13  14
ATOM     14  C   UNL     1     119.542 121.504 122.256  1.00  0.00     0.053 C 
BRANCH  14  15
ATOM     15  C   UNL     1     119.034 121.026 123.583  1.00  0.00     0.041 C 
ATOM     16  O   UNL     1     118.489 121.831 124.385  1.00  0.00    -0.550 OA
ATOM     17  O   UNL     1     119.127 119.680 123.918  1.00  0.00    -0.550 OA
ENDBRANCH  14  15
ENDBRANCH  13  14
ENDBRANCH  12  13
ENDBRANCH  11  12
ENDBRANCH  10  11
ENDBRANCH   9  10
ENDBRANCH   8   9
ENDBRANCH   7   8
ENDBRANCH   6   7
ENDBRANCH   5   6
ENDBRANCH   4   5
ENDBRANCH   3   4
ENDBRANCH   2   3
ENDBRANCH   1   2
BRANCH   1  18
ATOM     18  C   UNL     1     130.340 117.194 119.882  1.00  0.00     0.000 C 
BRANCH  18  19
ATOM     19  C   UNL     1     130.808 117.808 121.214  1.00  0.00     0.000 C 
BRANCH  19  20
ATOM     20  C   UNL     1     131.733 119.023 121.020  1.00  0.00     0.000 C 
BRANCH  20  21
ATOM     21  C   UNL     1     132.661 118.872 119.802  1.00  0.00     0.000 C 
BRANCH  21  22
ATOM     22  C   UNL     1     132.476 119.939 118.705  1.00  0.00     0.000 C 
BRANCH  22  23
ATOM     23  C   UNL     1     131.314 120.928 118.939  1.00  0.00     0.000 C 
BRANCH  23  24
ATOM     24  C   UNL     1     130.091 120.733 118.024  1.00  0.00    -0.000 C 
BRANCH  24  25
ATOM     25  C   UNL     1     128.759 121.034 118.734  1.00  0.00    -0.000 C 
BRANCH  25  26
ATOM     26  C   UNL     1     128.942 121.316 120.234  1.00  0.00    -0.000 C 
BRANCH  26  27
ATOM     27  C   UNL     1     128.068 120.412 121.121  1.00  0.00    -0.000 C 
BRANCH  27  28
ATOM     28  C   UNL     1     126.583 120.812 121.085  1.00  0.00    -0.000 C 
BRANCH  28  29
ATOM     29  C   UNL     1     125.704 119.906 121.966  1.00  0.00    -0.000 C 
BRANCH  29  30
ATOM     30  C   UNL     1     126.236 118.466 122.042  1.00  0.00    -0.000 C 
BRANCH  30  31
ATOM     31  C   UNL     1     125.112 117.421 122.105  1.00  0.00    -0.003 C 
ATOM     32  C   UNL     1     124.135 117.597 120.946  1.00  0.00     0.004 C 
ENDBRANCH  30  31
ENDBRANCH  29  30
ENDBRANCH  28  29
ENDBRANCH  27  28
ENDBRANCH  26  27
ENDBRANCH  25  26
ENDBRANCH  24  25
ENDBRANCH  23  24
ENDBRANCH  22  23
ENDBRANCH  21  22
ENDBRANCH  20  21
ENDBRANCH  19  20
ENDBRANCH  18  19
ENDBRANCH   1  18
TORSDOF 28
ENDMDL
