MODEL 1
REMARK VINA RESULT:    25.968      0.000      0.000
REMARK INTER + INTRA:          30.954
REMARK INTER:                  31.281
REMARK INTRA:                  -0.328
REMARK UNBOUND:                -0.328
REMARK SMILES O=c1c(O)c(-c2ccc(O)cc2O)oc2cc(O)cc(O)c12
REMARK SMILES IDX 5 1 3 2 2 3 1 4 22 5 20 6 19 7 17 8 16 9 15 10 14 11 6 12
REMARK SMILES IDX 8 13 7 14 9 15 11 16 12 17 10 18 13 20 4 22 21 24 18 26
REMARK H PARENT 10 19 13 21 4 23 21 25 18 27
REMARK Flexibility Score: inf
ROOT
ATOM      1  C   UNL     1      12.488   0.912 -16.363  1.00  0.00     0.184 A 
ATOM      2  C   UNL     1      11.816  -0.257 -15.975  1.00  0.00     0.208 A 
ATOM      3  C   UNL     1      10.857  -0.184 -14.954  1.00  0.00     0.238 A 
ATOM      4  O   UNL     1      10.301  -1.246 -14.569  1.00  0.00    -0.285 OA
ATOM      5  C   UNL     1      10.563   1.064 -14.352  1.00  0.00     0.111 A 
ATOM      6  C   UNL     1       9.581   1.264 -13.335  1.00  0.00     0.134 A 
ATOM      7  C   UNL     1       9.462   2.520 -12.728  1.00  0.00     0.093 A 
ATOM      8  C   UNL     1      10.241   3.599 -13.144  1.00  0.00     0.123 A 
ATOM      9  C   UNL     1      11.163   3.430 -14.177  1.00  0.00     0.094 A 
ATOM     10  C   UNL     1      11.332   2.180 -14.778  1.00  0.00     0.146 A 
ATOM     11  O   UNL     1      12.229   2.059 -15.748  1.00  0.00    -0.451 OA
ENDROOT
BRANCH   1  12
ATOM     12  C   UNL     1      13.491   0.899 -17.449  1.00  0.00     0.063 A 
ATOM     13  C   UNL     1      14.169   1.632 -19.669  1.00  0.00     0.047 A 
ATOM     14  C   UNL     1      13.217   1.581 -18.648  1.00  0.00     0.020 A 
ATOM     15  C   UNL     1      15.411   1.008 -19.504  1.00  0.00     0.119 A 
ATOM     16  C   UNL     1      15.693   0.328 -18.316  1.00  0.00     0.093 A 
ATOM     17  C   UNL     1      14.743   0.261 -17.289  1.00  0.00     0.130 A 
BRANCH  15  18
ATOM     18  O   UNL     1      16.370   1.056 -20.514  1.00  0.00    -0.508 OA
ATOM     19  H   UNL     1      16.108   1.148 -21.489  1.00  0.00     0.293 HD
ENDBRANCH  15  18
BRANCH  17  20
ATOM     20  O   UNL     1      15.067  -0.462 -16.139  1.00  0.00    -0.507 OA
ATOM     21  H   UNL     1      15.717  -1.238 -16.139  1.00  0.00     0.293 HD
ENDBRANCH  17  20
ENDBRANCH   1  12
BRANCH   2  22
ATOM     22  O   UNL     1      12.124  -1.474 -16.589  1.00  0.00    -0.502 OA
ATOM     23  H   UNL     1      13.076  -1.751 -16.797  1.00  0.00     0.293 HD
ENDBRANCH   2  22
BRANCH   6  24
ATOM     24  O   UNL     1       8.688   0.277 -12.907  1.00  0.00    -0.507 OA
ATOM     25  H   UNL     1       7.932   0.428 -12.256  1.00  0.00     0.293 HD
ENDBRANCH   6  24
BRANCH   8  26
ATOM     26  O   UNL     1      10.083   4.839 -12.528  1.00  0.00    -0.508 OA
ATOM     27  H   UNL     1      10.852   5.494 -12.451  1.00  0.00     0.293 HD
ENDBRANCH   8  26
TORSDOF 6
ENDMDL
