MODEL 1
REMARK VINA RESULT:    -2.168      0.000      0.000
REMARK INTER + INTRA:          -6.107
REMARK INTER:                  -4.702
REMARK INTRA:                  -1.405
REMARK UNBOUND:                -1.405
REMARK SMILES CCCCCCCCCCCCCCCCCCCCCC(=O)[O-]
REMARK SMILES IDX 12 1 11 2 10 3 9 4 8 5 7 6 6 7 5 8 4 9 3 10 2 11 1 12 13 13
REMARK SMILES IDX 14 14 15 15 16 16 17 17 18 18 19 19 20 20 21 21 22 22 23 23
REMARK SMILES IDX 24 24
REMARK H PARENT
REMARK Flexibility Score: inf
ROOT
ATOM      1  C   UNL     1     -21.118   1.626   8.845  1.00  0.00     0.000 C 
ENDROOT
BRANCH   1   2
ATOM      2  C   UNL     1     -20.553   1.772   7.422  1.00  0.00     0.000 C 
BRANCH   2   3
ATOM      3  C   UNL     1     -20.003   0.453   6.860  1.00  0.00     0.000 C 
BRANCH   3   4
ATOM      4  C   UNL     1     -20.788  -0.746   7.407  1.00  0.00    -0.000 C 
BRANCH   4   5
ATOM      5  C   UNL     1     -19.880  -1.973   7.565  1.00  0.00    -0.000 C 
BRANCH   5   6
ATOM      6  C   UNL     1     -19.994  -2.565   8.977  1.00  0.00    -0.000 C 
BRANCH   6   7
ATOM      7  C   UNL     1     -20.017  -1.487  10.072  1.00  0.00    -0.000 C 
BRANCH   7   8
ATOM      8  C   UNL     1     -19.640  -2.040  11.454  1.00  0.00    -0.000 C 
BRANCH   8   9
ATOM      9  C   UNL     1     -20.807  -1.891  12.441  1.00  0.00    -0.000 C 
BRANCH   9  10
ATOM     10  C   UNL     1     -20.487  -0.937  13.606  1.00  0.00    -0.000 C 
BRANCH  10  11
ATOM     11  C   UNL     1     -21.487   0.220  13.786  1.00  0.00    -0.003 C 
ATOM     12  C   UNL     1     -21.255   1.368  12.803  1.00  0.00     0.004 C 
ENDBRANCH  10  11
ENDBRANCH   9  10
ENDBRANCH   8   9
ENDBRANCH   7   8
ENDBRANCH   6   7
ENDBRANCH   5   6
ENDBRANCH   4   5
ENDBRANCH   3   4
ENDBRANCH   2   3
ENDBRANCH   1   2
BRANCH   1  13
ATOM     13  C   UNL     1     -21.510   2.950   9.534  1.00  0.00     0.000 C 
BRANCH  13  14
ATOM     14  C   UNL     1     -22.018   4.052   8.587  1.00  0.00     0.000 C 
BRANCH  14  15
ATOM     15  C   UNL     1     -21.825   5.464   9.158  1.00  0.00     0.000 C 
BRANCH  15  16
ATOM     16  C   UNL     1     -20.495   5.572   9.919  1.00  0.00     0.000 C 
BRANCH  16  17
ATOM     17  C   UNL     1     -19.590   6.692   9.378  1.00  0.00     0.000 C 
BRANCH  17  18
ATOM     18  C   UNL     1     -18.374   6.956  10.285  1.00  0.00     0.000 C 
BRANCH  18  19
ATOM     19  C   UNL     1     -17.701   8.311  10.005  1.00  0.00     0.000 C 
BRANCH  19  20
ATOM     20  C   UNL     1     -16.186   8.368  10.280  1.00  0.00     0.006 C 
BRANCH  20  21
ATOM     21  C   UNL     1     -15.529   9.711   9.911  1.00  0.00     0.053 C 
BRANCH  21  22
ATOM     22  C   UNL     1     -14.750  10.306  11.045  1.00  0.00     0.041 C 
ATOM     23  O   UNL     1     -15.161  10.189  12.230  1.00  0.00    -0.550 OA
ATOM     24  O   UNL     1     -13.548  10.958  10.798  1.00  0.00    -0.550 OA
ENDBRANCH  21  22
ENDBRANCH  20  21
ENDBRANCH  19  20
ENDBRANCH  18  19
ENDBRANCH  17  18
ENDBRANCH  16  17
ENDBRANCH  15  16
ENDBRANCH  14  15
ENDBRANCH  13  14
ENDBRANCH   1  13
TORSDOF 20
ENDMDL
MODEL 2
REMARK VINA RESULT:    -2.083      2.085      4.138
REMARK INTER + INTRA:          -5.924
REMARK INTER:                  -4.804
REMARK INTRA:                  -1.120
REMARK UNBOUND:                -1.405
REMARK SMILES CCCCCCCCCCCCCCCCCCCCCC(=O)[O-]
REMARK SMILES IDX 12 1 11 2 10 3 9 4 8 5 7 6 6 7 5 8 4 9 3 10 2 11 1 12 13 13
REMARK SMILES IDX 14 14 15 15 16 16 17 17 18 18 19 19 20 20 21 21 22 22 23 23
REMARK SMILES IDX 24 24
REMARK H PARENT
REMARK Flexibility Score: inf
ROOT
ATOM      1  C   UNL     1     -21.741   5.513   9.222  1.00  0.00     0.000 C 
ENDROOT
BRANCH   1   2
ATOM      2  C   UNL     1     -22.129   4.241   8.447  1.00  0.00     0.000 C 
BRANCH   2   3
ATOM      3  C   UNL     1     -21.947   2.961   9.275  1.00  0.00     0.000 C 
BRANCH   3   4
ATOM      4  C   UNL     1     -20.808   2.100   8.715  1.00  0.00    -0.000 C 
BRANCH   4   5
ATOM      5  C   UNL     1     -20.799   2.128   7.181  1.00  0.00    -0.000 C 
BRANCH   5   6
ATOM      6  C   UNL     1     -20.839   0.706   6.603  1.00  0.00    -0.000 C 
BRANCH   6   7
ATOM      7  C   UNL     1     -19.831  -0.237   7.278  1.00  0.00    -0.000 C 
BRANCH   7   8
ATOM      8  C   UNL     1     -20.508  -1.429   7.970  1.00  0.00    -0.000 C 
BRANCH   8   9
ATOM      9  C   UNL     1     -19.942  -1.637   9.382  1.00  0.00    -0.000 C 
BRANCH   9  10
ATOM     10  C   UNL     1     -19.371  -3.050   9.596  1.00  0.00    -0.000 C 
BRANCH  10  11
ATOM     11  C   UNL     1     -19.363  -3.941   8.340  1.00  0.00    -0.003 C 
ATOM     12  C   UNL     1     -19.279  -5.432   8.666  1.00  0.00     0.004 C 
ENDBRANCH  10  11
ENDBRANCH   9  10
ENDBRANCH   8   9
ENDBRANCH   7   8
ENDBRANCH   6   7
ENDBRANCH   5   6
ENDBRANCH   4   5
ENDBRANCH   3   4
ENDBRANCH   2   3
ENDBRANCH   1   2
BRANCH   1  13
ATOM     13  C   UNL     1     -20.235   5.847   9.222  1.00  0.00     0.000 C 
BRANCH  13  14
ATOM     14  C   UNL     1     -19.673   6.324  10.573  1.00  0.00     0.000 C 
BRANCH  14  15
ATOM     15  C   UNL     1     -18.157   6.569  10.535  1.00  0.00     0.000 C 
BRANCH  15  16
ATOM     16  C   UNL     1     -17.840   7.958   9.960  1.00  0.00     0.000 C 
BRANCH  16  17
ATOM     17  C   UNL     1     -16.331   8.197   9.785  1.00  0.00     0.000 C 
BRANCH  17  18
ATOM     18  C   UNL     1     -15.913   9.629  10.167  1.00  0.00     0.000 C 
BRANCH  18  19
ATOM     19  C   UNL     1     -15.108   9.688  11.477  1.00  0.00     0.000 C 
BRANCH  19  20
ATOM     20  C   UNL     1     -14.547  11.076  11.848  1.00  0.00     0.006 C 
BRANCH  20  21
ATOM     21  C   UNL     1     -13.105  11.048  12.387  1.00  0.00     0.053 C 
BRANCH  21  22
ATOM     22  C   UNL     1     -13.036  10.675  13.837  1.00  0.00     0.041 C 
ATOM     23  O   UNL     1     -14.014  10.898  14.599  1.00  0.00    -0.550 OA
ATOM     24  O   UNL     1     -11.905  10.045  14.340  1.00  0.00    -0.550 OA
ENDBRANCH  21  22
ENDBRANCH  20  21
ENDBRANCH  19  20
ENDBRANCH  18  19
ENDBRANCH  17  18
ENDBRANCH  16  17
ENDBRANCH  15  16
ENDBRANCH  14  15
ENDBRANCH  13  14
ENDBRANCH   1  13
TORSDOF 20
ENDMDL
MODEL 3
REMARK VINA RESULT:    -2.021      4.304     10.625
REMARK INTER + INTRA:          -5.790
REMARK INTER:                  -5.029
REMARK INTRA:                  -0.761
REMARK UNBOUND:                -1.405
REMARK SMILES CCCCCCCCCCCCCCCCCCCCCC(=O)[O-]
REMARK SMILES IDX 12 1 11 2 10 3 9 4 8 5 7 6 6 7 5 8 4 9 3 10 2 11 1 12 13 13
REMARK SMILES IDX 14 14 15 15 16 16 17 17 18 18 19 19 20 20 21 21 22 22 23 23
REMARK SMILES IDX 24 24
REMARK H PARENT
REMARK Flexibility Score: inf
ROOT
ATOM      1  C   UNL     1     -20.020   5.722   9.567  1.00  0.00     0.000 C 
ENDROOT
BRANCH   1   2
ATOM      2  C   UNL     1     -19.478   7.076  10.056  1.00  0.00     0.000 C 
BRANCH   2   3
ATOM      3  C   UNL     1     -17.948   7.097  10.178  1.00  0.00     0.000 C 
BRANCH   3   4
ATOM      4  C   UNL     1     -17.390   8.492   9.869  1.00  0.00    -0.000 C 
BRANCH   4   5
ATOM      5  C   UNL     1     -16.020   8.697  10.529  1.00  0.00    -0.000 C 
BRANCH   5   6
ATOM      6  C   UNL     1     -15.147   9.652   9.702  1.00  0.00    -0.000 C 
BRANCH   6   7
ATOM      7  C   UNL     1     -14.864  10.976  10.430  1.00  0.00    -0.000 C 
BRANCH   7   8
ATOM      8  C   UNL     1     -13.739  10.851  11.468  1.00  0.00    -0.000 C 
BRANCH   8   9
ATOM      9  C   UNL     1     -14.290  10.995  12.894  1.00  0.00    -0.000 C 
BRANCH   9  10
ATOM     10  C   UNL     1     -13.556  10.104  13.912  1.00  0.00    -0.000 C 
BRANCH  10  11
ATOM     11  C   UNL     1     -12.264  10.713  14.489  1.00  0.00    -0.003 C 
ATOM     12  C   UNL     1     -11.027  10.394  13.650  1.00  0.00     0.004 C 
ENDBRANCH  10  11
ENDBRANCH   9  10
ENDBRANCH   8   9
ENDBRANCH   7   8
ENDBRANCH   6   7
ENDBRANCH   5   6
ENDBRANCH   4   5
ENDBRANCH   3   4
ENDBRANCH   2   3
ENDBRANCH   1   2
BRANCH   1  13
ATOM     13  C   UNL     1     -21.500   5.726   9.134  1.00  0.00     0.000 C 
BRANCH  13  14
ATOM     14  C   UNL     1     -22.012   4.399   8.547  1.00  0.00     0.000 C 
BRANCH  14  15
ATOM     15  C   UNL     1     -22.065   3.268   9.585  1.00  0.00     0.000 C 
BRANCH  15  16
ATOM     16  C   UNL     1     -21.149   2.104   9.175  1.00  0.00     0.000 C 
BRANCH  16  17
ATOM     17  C   UNL     1     -20.827   2.104   7.671  1.00  0.00     0.000 C 
BRANCH  17  18
ATOM     18  C   UNL     1     -19.716   1.101   7.307  1.00  0.00     0.000 C 
BRANCH  18  19
ATOM     19  C   UNL     1     -20.254  -0.164   6.615  1.00  0.00     0.000 C 
BRANCH  19  20
ATOM     20  C   UNL     1     -20.385  -1.407   7.517  1.00  0.00     0.006 C 
BRANCH  20  21
ATOM     21  C   UNL     1     -20.360  -1.097   9.025  1.00  0.00     0.053 C 
BRANCH  21  22
ATOM     22  C   UNL     1     -19.676  -2.163   9.826  1.00  0.00     0.041 C 
ATOM     23  O   UNL     1     -19.229  -3.196   9.259  1.00  0.00    -0.550 OA
ATOM     24  O   UNL     1     -19.494  -1.999  11.193  1.00  0.00    -0.550 OA
ENDBRANCH  21  22
ENDBRANCH  20  21
ENDBRANCH  19  20
ENDBRANCH  18  19
ENDBRANCH  17  18
ENDBRANCH  16  17
ENDBRANCH  15  16
ENDBRANCH  14  15
ENDBRANCH  13  14
ENDBRANCH   1  13
TORSDOF 20
ENDMDL
MODEL 4
REMARK VINA RESULT:    -1.856      3.657      9.859
REMARK INTER + INTRA:          -5.431
REMARK INTER:                  -4.447
REMARK INTRA:                  -0.984
REMARK UNBOUND:                -1.405
REMARK SMILES CCCCCCCCCCCCCCCCCCCCCC(=O)[O-]
REMARK SMILES IDX 12 1 11 2 10 3 9 4 8 5 7 6 6 7 5 8 4 9 3 10 2 11 1 12 13 13
REMARK SMILES IDX 14 14 15 15 16 16 17 17 18 18 19 19 20 20 21 21 22 22 23 23
REMARK SMILES IDX 24 24
REMARK H PARENT
REMARK Flexibility Score: inf
ROOT
ATOM      1  C   UNL     1     -22.246   3.184   9.431  1.00  0.00     0.000 C 
ENDROOT
BRANCH   1   2
ATOM      2  C   UNL     1     -21.806   4.520   8.806  1.00  0.00     0.000 C 
BRANCH   2   3
ATOM      3  C   UNL     1     -21.158   5.469   9.823  1.00  0.00     0.000 C 
BRANCH   3   4
ATOM      4  C   UNL     1     -20.048   6.301   9.169  1.00  0.00    -0.000 C 
BRANCH   4   5
ATOM      5  C   UNL     1     -18.908   6.574  10.159  1.00  0.00    -0.000 C 
BRANCH   5   6
ATOM      6  C   UNL     1     -18.205   7.901   9.838  1.00  0.00    -0.000 C 
BRANCH   6   7
ATOM      7  C   UNL     1     -16.733   7.913  10.279  1.00  0.00    -0.000 C 
BRANCH   7   8
ATOM      8  C   UNL     1     -16.038   9.250   9.982  1.00  0.00    -0.000 C 
BRANCH   8   9
ATOM      9  C   UNL     1     -15.343   9.798  11.237  1.00  0.00    -0.000 C 
BRANCH   9  10
ATOM     10  C   UNL     1     -14.022  10.523  10.922  1.00  0.00    -0.000 C 
BRANCH  10  11
ATOM     11  C   UNL     1     -13.308  11.124  12.146  1.00  0.00    -0.003 C 
ATOM     12  C   UNL     1     -14.073  10.905  13.452  1.00  0.00     0.004 C 
ENDBRANCH  10  11
ENDBRANCH   9  10
ENDBRANCH   8   9
ENDBRANCH   7   8
ENDBRANCH   6   7
ENDBRANCH   5   6
ENDBRANCH   4   5
ENDBRANCH   3   4
ENDBRANCH   2   3
ENDBRANCH   1   2
BRANCH   1  13
ATOM     13  C   UNL     1     -21.418   1.956   9.002  1.00  0.00     0.000 C 
BRANCH  13  14
ATOM     14  C   UNL     1     -20.704   2.091   7.645  1.00  0.00     0.000 C 
BRANCH  14  15
ATOM     15  C   UNL     1     -19.918   0.832   7.255  1.00  0.00     0.000 C 
BRANCH  15  16
ATOM     16  C   UNL     1     -20.755  -0.434   7.497  1.00  0.00     0.000 C 
BRANCH  16  17
ATOM     17  C   UNL     1     -20.037  -1.459   8.392  1.00  0.00     0.000 C 
BRANCH  17  18
ATOM     18  C   UNL     1     -20.047  -1.053   9.877  1.00  0.00     0.000 C 
BRANCH  18  19
ATOM     19  C   UNL     1     -19.894  -2.254  10.827  1.00  0.00     0.000 C 
BRANCH  19  20
ATOM     20  C   UNL     1     -20.466  -2.054  12.244  1.00  0.00     0.006 C 
BRANCH  20  21
ATOM     21  C   UNL     1     -21.050  -0.652  12.496  1.00  0.00     0.053 C 
BRANCH  21  22
ATOM     22  C   UNL     1     -21.189  -0.334  13.954  1.00  0.00     0.041 C 
ATOM     23  O   UNL     1     -21.620  -1.205  14.757  1.00  0.00    -0.550 OA
ATOM     24  O   UNL     1     -20.803   0.910  14.436  1.00  0.00    -0.550 OA
ENDBRANCH  21  22
ENDBRANCH  20  21
ENDBRANCH  19  20
ENDBRANCH  18  19
ENDBRANCH  17  18
ENDBRANCH  16  17
ENDBRANCH  15  16
ENDBRANCH  14  15
ENDBRANCH  13  14
ENDBRANCH   1  13
TORSDOF 20
ENDMDL
MODEL 5
REMARK VINA RESULT:    -1.826      7.500     11.260
REMARK INTER + INTRA:          -5.366
REMARK INTER:                  -3.890
REMARK INTRA:                  -1.477
REMARK UNBOUND:                -1.405
REMARK SMILES CCCCCCCCCCCCCCCCCCCCCC(=O)[O-]
REMARK SMILES IDX 12 1 11 2 10 3 9 4 8 5 7 6 6 7 5 8 4 9 3 10 2 11 1 12 13 13
REMARK SMILES IDX 14 14 15 15 16 16 17 17 18 18 19 19 20 20 21 21 22 22 23 23
REMARK SMILES IDX 24 24
REMARK H PARENT
REMARK Flexibility Score: inf
ROOT
ATOM      1  C   UNL     1     -19.998  -0.242   6.764  1.00  0.00     0.000 C 
ENDROOT
BRANCH   1   2
ATOM      2  C   UNL     1     -19.836   0.944   7.731  1.00  0.00     0.000 C 
BRANCH   2   3
ATOM      3  C   UNL     1     -20.816   2.089   7.439  1.00  0.00     0.000 C 
BRANCH   3   4
ATOM      4  C   UNL     1     -21.439   2.624   8.734  1.00  0.00    -0.000 C 
BRANCH   4   5
ATOM      5  C   UNL     1     -21.572   1.511   9.782  1.00  0.00    -0.000 C 
BRANCH   5   6
ATOM      6  C   UNL     1     -20.987   1.951  11.131  1.00  0.00    -0.000 C 
BRANCH   6   7
ATOM      7  C   UNL     1     -21.626   1.219  12.322  1.00  0.00    -0.000 C 
BRANCH   7   8
ATOM      8  C   UNL     1     -20.987   1.603  13.664  1.00  0.00    -0.000 C 
BRANCH   8   9
ATOM      9  C   UNL     1     -20.630   0.351  14.480  1.00  0.00    -0.000 C 
BRANCH   9  10
ATOM     10  C   UNL     1     -21.712  -0.741  14.405  1.00  0.00    -0.000 C 
BRANCH  10  11
ATOM     11  C   UNL     1     -21.234  -2.085  13.827  1.00  0.00    -0.003 C 
ATOM     12  C   UNL     1     -20.448  -1.930  12.525  1.00  0.00     0.004 C 
ENDBRANCH  10  11
ENDBRANCH   9  10
ENDBRANCH   8   9
ENDBRANCH   7   8
ENDBRANCH   6   7
ENDBRANCH   5   6
ENDBRANCH   4   5
ENDBRANCH   3   4
ENDBRANCH   2   3
ENDBRANCH   1   2
BRANCH   1  13
ATOM     13  C   UNL     1     -20.356  -1.586   7.430  1.00  0.00     0.000 C 
BRANCH  13  14
ATOM     14  C   UNL     1     -20.167  -1.629   8.957  1.00  0.00     0.000 C 
BRANCH  14  15
ATOM     15  C   UNL     1     -19.467  -2.909   9.436  1.00  0.00     0.000 C 
BRANCH  15  16
ATOM     16  C   UNL     1     -19.222  -3.872   8.263  1.00  0.00     0.000 C 
BRANCH  16  17
ATOM     17  C   UNL     1     -19.231  -5.348   8.695  1.00  0.00     0.000 C 
BRANCH  17  18
ATOM     18  C   UNL     1     -20.561  -5.760   9.354  1.00  0.00     0.000 C 
BRANCH  18  19
ATOM     19  C   UNL     1     -21.512  -6.480   8.384  1.00  0.00     0.000 C 
BRANCH  19  20
ATOM     20  C   UNL     1     -22.793  -7.059   9.018  1.00  0.00     0.006 C 
BRANCH  20  21
ATOM     21  C   UNL     1     -23.283  -8.366   8.368  1.00  0.00     0.053 C 
BRANCH  21  22
ATOM     22  C   UNL     1     -24.744  -8.336   8.036  1.00  0.00     0.041 C 
ATOM     23  O   UNL     1     -25.133  -7.904   6.918  1.00  0.00    -0.550 OA
ATOM     24  O   UNL     1     -25.675  -8.822   8.944  1.00  0.00    -0.550 OA
ENDBRANCH  21  22
ENDBRANCH  20  21
ENDBRANCH  19  20
ENDBRANCH  18  19
ENDBRANCH  17  18
ENDBRANCH  16  17
ENDBRANCH  15  16
ENDBRANCH  14  15
ENDBRANCH  13  14
ENDBRANCH   1  13
TORSDOF 20
ENDMDL
MODEL 6
REMARK VINA RESULT:    -1.765      0.959      1.878
REMARK INTER + INTRA:          -5.233
REMARK INTER:                  -4.250
REMARK INTRA:                  -0.983
REMARK UNBOUND:                -1.405
REMARK SMILES CCCCCCCCCCCCCCCCCCCCCC(=O)[O-]
REMARK SMILES IDX 12 1 11 2 10 3 9 4 8 5 7 6 6 7 5 8 4 9 3 10 2 11 1 12 13 13
REMARK SMILES IDX 14 14 15 15 16 16 17 17 18 18 19 19 20 20 21 21 22 22 23 23
REMARK SMILES IDX 24 24
REMARK H PARENT
REMARK Flexibility Score: inf
ROOT
ATOM      1  C   UNL     1     -21.582   3.213   9.758  1.00  0.00     0.000 C 
ENDROOT
BRANCH   1   2
ATOM      2  C   UNL     1     -21.244   1.887   9.055  1.00  0.00     0.000 C 
BRANCH   2   3
ATOM      3  C   UNL     1     -20.751   2.084   7.614  1.00  0.00     0.000 C 
BRANCH   3   4
ATOM      4  C   UNL     1     -19.680   1.048   7.253  1.00  0.00    -0.000 C 
BRANCH   4   5
ATOM      5  C   UNL     1     -20.319  -0.250   6.740  1.00  0.00    -0.000 C 
BRANCH   5   6
ATOM      6  C   UNL     1     -19.979  -1.432   7.659  1.00  0.00    -0.000 C 
BRANCH   6   7
ATOM      7  C   UNL     1     -20.706  -1.361   9.011  1.00  0.00    -0.000 C 
BRANCH   7   8
ATOM      8  C   UNL     1     -20.048  -2.241  10.083  1.00  0.00    -0.000 C 
BRANCH   8   9
ATOM      9  C   UNL     1     -19.717  -1.421  11.338  1.00  0.00    -0.000 C 
BRANCH   9  10
ATOM     10  C   UNL     1     -20.579  -1.810  12.553  1.00  0.00    -0.000 C 
BRANCH  10  11
ATOM     11  C   UNL     1     -20.727  -0.708  13.618  1.00  0.00    -0.003 C 
ATOM     12  C   UNL     1     -21.824  -1.009  14.640  1.00  0.00     0.004 C 
ENDBRANCH  10  11
ENDBRANCH   9  10
ENDBRANCH   8   9
ENDBRANCH   7   8
ENDBRANCH   6   7
ENDBRANCH   5   6
ENDBRANCH   4   5
ENDBRANCH   3   4
ENDBRANCH   2   3
ENDBRANCH   1   2
BRANCH   1  13
ATOM     13  C   UNL     1     -21.926   4.385   8.816  1.00  0.00     0.000 C 
BRANCH  13  14
ATOM     14  C   UNL     1     -21.461   5.770   9.301  1.00  0.00     0.000 C 
BRANCH  14  15
ATOM     15  C   UNL     1     -19.978   6.037   9.008  1.00  0.00     0.000 C 
BRANCH  15  16
ATOM     16  C   UNL     1     -19.266   6.597  10.250  1.00  0.00     0.000 C 
BRANCH  16  17
ATOM     17  C   UNL     1     -18.429   7.849   9.940  1.00  0.00     0.000 C 
BRANCH  17  18
ATOM     18  C   UNL     1     -16.953   7.687  10.349  1.00  0.00     0.000 C 
BRANCH  18  19
ATOM     19  C   UNL     1     -16.003   8.577   9.530  1.00  0.00     0.000 C 
BRANCH  19  20
ATOM     20  C   UNL     1     -15.443   9.807  10.272  1.00  0.00     0.006 C 
BRANCH  20  21
ATOM     21  C   UNL     1     -15.412   9.657  11.804  1.00  0.00     0.053 C 
BRANCH  21  22
ATOM     22  C   UNL     1     -14.288  10.421  12.438  1.00  0.00     0.041 C 
ATOM     23  O   UNL     1     -13.382  10.929  11.725  1.00  0.00    -0.550 OA
ATOM     24  O   UNL     1     -14.263  10.608  13.814  1.00  0.00    -0.550 OA
ENDBRANCH  21  22
ENDBRANCH  20  21
ENDBRANCH  19  20
ENDBRANCH  18  19
ENDBRANCH  17  18
ENDBRANCH  16  17
ENDBRANCH  15  16
ENDBRANCH  14  15
ENDBRANCH  13  14
ENDBRANCH   1  13
TORSDOF 20
ENDMDL
MODEL 7
REMARK VINA RESULT:    -1.763      3.255      9.066
REMARK INTER + INTRA:          -5.230
REMARK INTER:                  -4.100
REMARK INTRA:                  -1.130
REMARK UNBOUND:                -1.405
REMARK SMILES CCCCCCCCCCCCCCCCCCCCCC(=O)[O-]
REMARK SMILES IDX 12 1 11 2 10 3 9 4 8 5 7 6 6 7 5 8 4 9 3 10 2 11 1 12 13 13
REMARK SMILES IDX 14 14 15 15 16 16 17 17 18 18 19 19 20 20 21 21 22 22 23 23
REMARK SMILES IDX 24 24
REMARK H PARENT
REMARK Flexibility Score: inf
ROOT
ATOM      1  C   UNL     1     -20.763   2.071   7.623  1.00  0.00     0.000 C 
ENDROOT
BRANCH   1   2
ATOM      2  C   UNL     1     -21.184   2.054   9.103  1.00  0.00     0.000 C 
BRANCH   2   3
ATOM      3  C   UNL     1     -22.133   3.205   9.465  1.00  0.00     0.000 C 
BRANCH   3   4
ATOM      4  C   UNL     1     -21.851   4.442   8.604  1.00  0.00    -0.000 C 
BRANCH   4   5
ATOM      5  C   UNL     1     -21.448   5.639   9.475  1.00  0.00    -0.000 C 
BRANCH   5   6
ATOM      6  C   UNL     1     -20.087   6.203   9.042  1.00  0.00    -0.000 C 
BRANCH   6   7
ATOM      7  C   UNL     1     -19.202   6.598  10.235  1.00  0.00    -0.000 C 
BRANCH   7   8
ATOM      8  C   UNL     1     -18.435   7.906   9.995  1.00  0.00    -0.000 C 
BRANCH   8   9
ATOM      9  C   UNL     1     -16.921   7.653   9.940  1.00  0.00    -0.000 C 
BRANCH   9  10
ATOM     10  C   UNL     1     -16.096   8.952   9.933  1.00  0.00    -0.000 C 
BRANCH  10  11
ATOM     11  C   UNL     1     -15.415   9.291  11.272  1.00  0.00    -0.003 C 
ATOM     12  C   UNL     1     -15.018  10.763  11.385  1.00  0.00     0.004 C 
ENDBRANCH  10  11
ENDBRANCH   9  10
ENDBRANCH   8   9
ENDBRANCH   7   8
ENDBRANCH   6   7
ENDBRANCH   5   6
ENDBRANCH   4   5
ENDBRANCH   3   4
ENDBRANCH   2   3
ENDBRANCH   1   2
BRANCH   1  13
ATOM     13  C   UNL     1     -19.629   1.092   7.253  1.00  0.00     0.000 C 
BRANCH  13  14
ATOM     14  C   UNL     1     -20.096  -0.284   6.746  1.00  0.00     0.000 C 
BRANCH  14  15
ATOM     15  C   UNL     1     -20.707  -1.153   7.855  1.00  0.00     0.000 C 
BRANCH  15  16
ATOM     16  C   UNL     1     -19.827  -2.381   8.137  1.00  0.00     0.000 C 
BRANCH  16  17
ATOM     17  C   UNL     1     -19.319  -2.426   9.588  1.00  0.00     0.000 C 
BRANCH  17  18
ATOM     18  C   UNL     1     -20.220  -1.633  10.553  1.00  0.00     0.000 C 
BRANCH  18  19
ATOM     19  C   UNL     1     -20.000  -2.013  12.027  1.00  0.00     0.000 C 
BRANCH  19  20
ATOM     20  C   UNL     1     -21.136  -1.615  12.990  1.00  0.00     0.006 C 
BRANCH  20  21
ATOM     21  C   UNL     1     -20.804  -0.414  13.893  1.00  0.00     0.053 C 
BRANCH  21  22
ATOM     22  C   UNL     1     -21.141   0.901  13.257  1.00  0.00     0.041 C 
ATOM     23  O   UNL     1     -20.761   1.980  13.785  1.00  0.00    -0.550 OA
ATOM     24  O   UNL     1     -21.841   0.935  12.058  1.00  0.00    -0.550 OA
ENDBRANCH  21  22
ENDBRANCH  20  21
ENDBRANCH  19  20
ENDBRANCH  18  19
ENDBRANCH  17  18
ENDBRANCH  16  17
ENDBRANCH  15  16
ENDBRANCH  14  15
ENDBRANCH  13  14
ENDBRANCH   1  13
TORSDOF 20
ENDMDL
MODEL 8
REMARK VINA RESULT:    -1.635      2.036      4.621
REMARK INTER + INTRA:          -4.950
REMARK INTER:                  -3.986
REMARK INTRA:                  -0.964
REMARK UNBOUND:                -1.405
REMARK SMILES CCCCCCCCCCCCCCCCCCCCCC(=O)[O-]
REMARK SMILES IDX 12 1 11 2 10 3 9 4 8 5 7 6 6 7 5 8 4 9 3 10 2 11 1 12 13 13
REMARK SMILES IDX 14 14 15 15 16 16 17 17 18 18 19 19 20 20 21 21 22 22 23 23
REMARK SMILES IDX 24 24
REMARK H PARENT
REMARK Flexibility Score: inf
ROOT
ATOM      1  C   UNL     1     -20.372   5.834   8.982  1.00  0.00     0.000 C 
ENDROOT
BRANCH   1   2
ATOM      2  C   UNL     1     -21.892   5.757   8.760  1.00  0.00     0.000 C 
BRANCH   2   3
ATOM      3  C   UNL     1     -22.484   4.396   9.155  1.00  0.00     0.000 C 
BRANCH   3   4
ATOM      4  C   UNL     1     -21.552   3.251   8.742  1.00  0.00    -0.000 C 
BRANCH   4   5
ATOM      5  C   UNL     1     -21.735   2.034   9.659  1.00  0.00    -0.000 C 
BRANCH   5   6
ATOM      6  C   UNL     1     -21.035   0.796   9.080  1.00  0.00    -0.000 C 
BRANCH   6   7
ATOM      7  C   UNL     1     -20.333   1.084   7.743  1.00  0.00    -0.000 C 
BRANCH   7   8
ATOM      8  C   UNL     1     -20.474  -0.071   6.740  1.00  0.00    -0.000 C 
BRANCH   8   9
ATOM      9  C   UNL     1     -19.518  -1.221   7.089  1.00  0.00    -0.000 C 
BRANCH   9  10
ATOM     10  C   UNL     1     -20.220  -2.385   7.812  1.00  0.00    -0.000 C 
BRANCH  10  11
ATOM     11  C   UNL     1     -19.456  -2.944   9.027  1.00  0.00    -0.003 C 
ATOM     12  C   UNL     1     -19.463  -1.995  10.226  1.00  0.00     0.004 C 
ENDBRANCH  10  11
ENDBRANCH   9  10
ENDBRANCH   8   9
ENDBRANCH   7   8
ENDBRANCH   6   7
ENDBRANCH   5   6
ENDBRANCH   4   5
ENDBRANCH   3   4
ENDBRANCH   2   3
ENDBRANCH   1   2
BRANCH   1  13
ATOM     13  C   UNL     1     -19.936   6.196  10.417  1.00  0.00     0.000 C 
BRANCH  13  14
ATOM     14  C   UNL     1     -18.432   6.469  10.592  1.00  0.00     0.000 C 
BRANCH  14  15
ATOM     15  C   UNL     1     -17.970   7.748   9.879  1.00  0.00     0.000 C 
BRANCH  15  16
ATOM     16  C   UNL     1     -16.466   7.983  10.093  1.00  0.00     0.000 C 
BRANCH  16  17
ATOM     17  C   UNL     1     -16.104   9.475  10.174  1.00  0.00     0.000 C 
BRANCH  17  18
ATOM     18  C   UNL     1     -14.676   9.762   9.676  1.00  0.00     0.000 C 
BRANCH  18  19
ATOM     19  C   UNL     1     -14.137  11.122  10.152  1.00  0.00     0.000 C 
BRANCH  19  20
ATOM     20  C   UNL     1     -12.672  11.123  10.633  1.00  0.00     0.006 C 
BRANCH  20  21
ATOM     21  C   UNL     1     -12.512  11.079  12.164  1.00  0.00     0.053 C 
BRANCH  21  22
ATOM     22  C   UNL     1     -11.077  11.034  12.596  1.00  0.00     0.041 C 
ATOM     23  O   UNL     1     -10.783  10.905  13.814  1.00  0.00    -0.550 OA
ATOM     24  O   UNL     1     -10.063  11.095  11.649  1.00  0.00    -0.550 OA
ENDBRANCH  21  22
ENDBRANCH  20  21
ENDBRANCH  19  20
ENDBRANCH  18  19
ENDBRANCH  17  18
ENDBRANCH  16  17
ENDBRANCH  15  16
ENDBRANCH  14  15
ENDBRANCH  13  14
ENDBRANCH   1  13
TORSDOF 20
ENDMDL
MODEL 9
REMARK VINA RESULT:    -1.508      0.988      3.498
REMARK INTER + INTRA:          -4.675
REMARK INTER:                  -3.220
REMARK INTRA:                  -1.455
REMARK UNBOUND:                -1.405
REMARK SMILES CCCCCCCCCCCCCCCCCCCCCC(=O)[O-]
REMARK SMILES IDX 12 1 11 2 10 3 9 4 8 5 7 6 6 7 5 8 4 9 3 10 2 11 1 12 13 13
REMARK SMILES IDX 14 14 15 15 16 16 17 17 18 18 19 19 20 20 21 21 22 22 23 23
REMARK SMILES IDX 24 24
REMARK H PARENT
REMARK Flexibility Score: inf
ROOT
ATOM      1  C   UNL     1     -22.222   2.811   9.775  1.00  0.00     0.000 C 
ENDROOT
BRANCH   1   2
ATOM      2  C   UNL     1     -21.274   1.955  10.633  1.00  0.00     0.000 C 
BRANCH   2   3
ATOM      3  C   UNL     1     -22.018   1.084  11.654  1.00  0.00     0.000 C 
BRANCH   3   4
ATOM      4  C   UNL     1     -21.227   0.975  12.964  1.00  0.00    -0.000 C 
BRANCH   4   5
ATOM      5  C   UNL     1     -21.496  -0.366  13.660  1.00  0.00    -0.000 C 
BRANCH   5   6
ATOM      6  C   UNL     1     -20.306  -1.322  13.495  1.00  0.00    -0.000 C 
BRANCH   6   7
ATOM      7  C   UNL     1     -20.407  -2.181  12.226  1.00  0.00    -0.000 C 
BRANCH   7   8
ATOM      8  C   UNL     1     -19.625  -1.587  11.045  1.00  0.00    -0.000 C 
BRANCH   8   9
ATOM      9  C   UNL     1     -20.191  -2.083   9.707  1.00  0.00    -0.000 C 
BRANCH   9  10
ATOM     10  C   UNL     1     -20.737  -0.944   8.828  1.00  0.00    -0.000 C 
BRANCH  10  11
ATOM     11  C   UNL     1     -20.059  -0.808   7.452  1.00  0.00    -0.003 C 
ATOM     12  C   UNL     1     -20.208   0.589   6.848  1.00  0.00     0.004 C 
ENDBRANCH  10  11
ENDBRANCH   9  10
ENDBRANCH   8   9
ENDBRANCH   7   8
ENDBRANCH   6   7
ENDBRANCH   5   6
ENDBRANCH   4   5
ENDBRANCH   3   4
ENDBRANCH   2   3
ENDBRANCH   1   2
BRANCH   1  13
ATOM     13  C   UNL     1     -21.528   3.709   8.729  1.00  0.00     0.000 C 
BRANCH  13  14
ATOM     14  C   UNL     1     -21.525   5.212   9.060  1.00  0.00     0.000 C 
BRANCH  14  15
ATOM     15  C   UNL     1     -20.398   5.609  10.024  1.00  0.00     0.000 C 
BRANCH  15  16
ATOM     16  C   UNL     1     -19.587   6.788   9.465  1.00  0.00     0.000 C 
BRANCH  16  17
ATOM     17  C   UNL     1     -18.317   7.077  10.283  1.00  0.00     0.000 C 
BRANCH  17  18
ATOM     18  C   UNL     1     -17.767   8.494  10.036  1.00  0.00     0.000 C 
BRANCH  18  19
ATOM     19  C   UNL     1     -16.232   8.531   9.935  1.00  0.00     0.000 C 
BRANCH  19  20
ATOM     20  C   UNL     1     -15.512   9.281  11.073  1.00  0.00     0.006 C 
BRANCH  20  21
ATOM     21  C   UNL     1     -15.090  10.717  10.712  1.00  0.00     0.053 C 
BRANCH  21  22
ATOM     22  C   UNL     1     -13.824  10.767   9.911  1.00  0.00     0.041 C 
ATOM     23  O   UNL     1     -12.709  10.593  10.471  1.00  0.00    -0.550 OA
ATOM     24  O   UNL     1     -13.877  10.964   8.537  1.00  0.00    -0.550 OA
ENDBRANCH  21  22
ENDBRANCH  20  21
ENDBRANCH  19  20
ENDBRANCH  18  19
ENDBRANCH  17  18
ENDBRANCH  16  17
ENDBRANCH  15  16
ENDBRANCH  14  15
ENDBRANCH  13  14
ENDBRANCH   1  13
TORSDOF 20
ENDMDL
