MODEL 1
REMARK VINA RESULT:    -8.027      0.000      0.000
REMARK INTER + INTRA:          -9.860
REMARK INTER:                  -9.670
REMARK INTRA:                  -0.190
REMARK UNBOUND:                -0.190
REMARK SMILES O=c1c(O)c(-c2ccc(O)c(O)c2)oc2cc(O)cc(O)c12
REMARK SMILES IDX 5 1 3 2 2 3 1 4 22 5 20 6 19 7 17 8 16 9 15 10 14 11 6 12
REMARK SMILES IDX 7 13 8 14 9 15 13 16 11 17 10 18 12 20 4 22 21 24 18 26
REMARK H PARENT 10 19 12 21 4 23 21 25 18 27
REMARK Flexibility Score: inf
ROOT
ATOM      1  C   UNL     1      -0.136 -26.502  -0.348  1.00  0.00     0.180 A 
ATOM      2  C   UNL     1       0.441 -26.314  -1.616  1.00  0.00     0.208 A 
ATOM      3  C   UNL     1       1.709 -26.860  -1.873  1.00  0.00     0.238 A 
ATOM      4  O   UNL     1       2.198 -26.736  -3.026  1.00  0.00    -0.285 OA
ATOM      5  C   UNL     1       2.391 -27.571  -0.855  1.00  0.00     0.111 A 
ATOM      6  C   UNL     1       3.696 -28.131  -0.992  1.00  0.00     0.134 A 
ATOM      7  C   UNL     1       4.219 -28.925   0.035  1.00  0.00     0.093 A 
ATOM      8  C   UNL     1       3.509 -29.125   1.222  1.00  0.00     0.123 A 
ATOM      9  C   UNL     1       2.260 -28.534   1.389  1.00  0.00     0.094 A 
ATOM     10  C   UNL     1       1.696 -27.766   0.367  1.00  0.00     0.146 A 
ATOM     11  O   UNL     1       0.498 -27.228   0.563  1.00  0.00    -0.452 OA
ENDROOT
BRANCH   1  12
ATOM     12  C   UNL     1      -1.459 -25.936   0.006  1.00  0.00     0.025 A 
ATOM     13  C   UNL     1      -1.670 -24.547   0.060  1.00  0.00     0.016 A 
ATOM     14  C   UNL     1      -2.920 -24.036   0.419  1.00  0.00     0.051 A 
ATOM     15  C   UNL     1      -3.971 -24.904   0.744  1.00  0.00     0.157 A 
ATOM     16  C   UNL     1      -2.510 -26.800   0.354  1.00  0.00     0.062 A 
ATOM     17  C   UNL     1      -3.765 -26.288   0.715  1.00  0.00     0.158 A 
BRANCH  15  18
ATOM     18  O   UNL     1      -5.219 -24.398   1.103  1.00  0.00    -0.504 OA
ATOM     19  H   UNL     1      -5.612 -24.559   2.023  1.00  0.00     0.293 HD
ENDBRANCH  15  18
BRANCH  17  20
ATOM     20  O   UNL     1      -4.810 -27.149   1.046  1.00  0.00    -0.504 OA
ATOM     21  H   UNL     1      -5.533 -27.386   0.377  1.00  0.00     0.293 HD
ENDBRANCH  17  20
ENDBRANCH   1  12
BRANCH   2  22
ATOM     22  O   UNL     1      -0.257 -25.628  -2.613  1.00  0.00    -0.502 OA
ATOM     23  H   UNL     1      -1.200 -25.285  -2.479  1.00  0.00     0.293 HD
ENDBRANCH   2  22
BRANCH   6  24
ATOM     24  O   UNL     1       4.525 -27.915  -2.097  1.00  0.00    -0.507 OA
ATOM     25  H   UNL     1       4.369 -27.214  -2.805  1.00  0.00     0.293 HD
ENDBRANCH   6  24
BRANCH   8  26
ATOM     26  O   UNL     1       4.043 -29.904   2.246  1.00  0.00    -0.508 OA
ATOM     27  H   UNL     1       3.553 -30.715   2.606  1.00  0.00     0.293 HD
ENDBRANCH   8  26
TORSDOF 6
ENDMDL
MODEL 2
REMARK VINA RESULT:    -8.000      1.347      2.013
REMARK INTER + INTRA:          -9.826
REMARK INTER:                  -9.588
REMARK INTRA:                  -0.239
REMARK UNBOUND:                -0.190
REMARK SMILES O=c1c(O)c(-c2ccc(O)c(O)c2)oc2cc(O)cc(O)c12
REMARK SMILES IDX 5 1 3 2 2 3 1 4 22 5 20 6 19 7 17 8 16 9 15 10 14 11 6 12
REMARK SMILES IDX 7 13 8 14 9 15 13 16 11 17 10 18 12 20 4 22 21 24 18 26
REMARK H PARENT 10 19 12 21 4 23 21 25 18 27
REMARK Flexibility Score: inf
ROOT
ATOM      1  C   UNL     1       0.721 -26.829  -0.070  1.00  0.00     0.180 A 
ATOM      2  C   UNL     1       1.481 -26.911  -1.250  1.00  0.00     0.208 A 
ATOM      3  C   UNL     1       2.699 -27.610  -1.228  1.00  0.00     0.238 A 
ATOM      4  O   UNL     1       3.348 -27.727  -2.299  1.00  0.00    -0.285 OA
ATOM      5  C   UNL     1       3.149 -28.203  -0.023  1.00  0.00     0.111 A 
ATOM      6  C   UNL     1       4.385 -28.900   0.125  1.00  0.00     0.134 A 
ATOM      7  C   UNL     1       4.668 -29.559   1.327  1.00  0.00     0.093 A 
ATOM      8  C   UNL     1       3.787 -29.489   2.410  1.00  0.00     0.123 A 
ATOM      9  C   UNL     1       2.606 -28.762   2.296  1.00  0.00     0.094 A 
ATOM     10  C   UNL     1       2.279 -28.125   1.096  1.00  0.00     0.146 A 
ATOM     11  O   UNL     1       1.137 -27.451   1.026  1.00  0.00    -0.452 OA
ENDROOT
BRANCH   1  12
ATOM     12  C   UNL     1      -0.561 -26.089  -0.010  1.00  0.00     0.025 A 
ATOM     13  C   UNL     1      -1.794 -26.763   0.036  1.00  0.00     0.016 A 
ATOM     14  C   UNL     1      -2.992 -26.043   0.068  1.00  0.00     0.051 A 
ATOM     15  C   UNL     1      -2.975 -24.643   0.039  1.00  0.00     0.157 A 
ATOM     16  C   UNL     1      -0.552 -24.685  -0.061  1.00  0.00     0.062 A 
ATOM     17  C   UNL     1      -1.753 -23.962  -0.029  1.00  0.00     0.158 A 
BRANCH  15  18
ATOM     18  O   UNL     1      -4.167 -23.922   0.071  1.00  0.00    -0.504 OA
ATOM     19  H   UNL     1      -4.333 -23.143  -0.556  1.00  0.00     0.293 HD
ENDBRANCH  15  18
BRANCH  17  20
ATOM     20  O   UNL     1      -1.740 -22.569  -0.065  1.00  0.00    -0.504 OA
ATOM     21  H   UNL     1      -1.169 -22.028   0.574  1.00  0.00     0.293 HD
ENDBRANCH  17  20
ENDBRANCH   1  12
BRANCH   2  22
ATOM     22  O   UNL     1       1.008 -26.338  -2.433  1.00  0.00    -0.502 OA
ATOM     23  H   UNL     1       1.564 -26.298  -3.279  1.00  0.00     0.293 HD
ENDBRANCH   2  22
BRANCH   6  24
ATOM     24  O   UNL     1       5.374 -28.952  -0.862  1.00  0.00    -0.507 OA
ATOM     25  H   UNL     1       6.012 -28.200  -1.077  1.00  0.00     0.293 HD
ENDBRANCH   6  24
BRANCH   8  26
ATOM     26  O   UNL     1       4.084 -30.134   3.609  1.00  0.00    -0.508 OA
ATOM     27  H   UNL     1       3.791 -29.755   4.502  1.00  0.00     0.293 HD
ENDBRANCH   8  26
TORSDOF 6
ENDMDL
MODEL 3
REMARK VINA RESULT:    -7.955      2.911      6.828
REMARK INTER + INTRA:          -9.773
REMARK INTER:                  -9.642
REMARK INTRA:                  -0.131
REMARK UNBOUND:                -0.190
REMARK SMILES O=c1c(O)c(-c2ccc(O)c(O)c2)oc2cc(O)cc(O)c12
REMARK SMILES IDX 5 1 3 2 2 3 1 4 22 5 20 6 19 7 17 8 16 9 15 10 14 11 6 12
REMARK SMILES IDX 7 13 8 14 9 15 13 16 11 17 10 18 12 20 4 22 21 24 18 26
REMARK H PARENT 10 19 12 21 4 23 21 25 18 27
REMARK Flexibility Score: inf
ROOT
ATOM      1  C   UNL     1       3.449 -29.233   1.647  1.00  0.00     0.180 A 
ATOM      2  C   UNL     1       4.526 -29.259   0.743  1.00  0.00     0.208 A 
ATOM      3  C   UNL     1       4.388 -28.614  -0.497  1.00  0.00     0.238 A 
ATOM      4  O   UNL     1       5.372 -28.594  -1.281  1.00  0.00    -0.285 OA
ATOM      5  C   UNL     1       3.171 -27.967  -0.824  1.00  0.00     0.111 A 
ATOM      6  C   UNL     1       2.907 -27.318  -2.067  1.00  0.00     0.134 A 
ATOM      7  C   UNL     1       1.717 -26.598  -2.231  1.00  0.00     0.093 A 
ATOM      8  C   UNL     1       0.754 -26.560  -1.220  1.00  0.00     0.123 A 
ATOM      9  C   UNL     1       0.976 -27.240  -0.026  1.00  0.00     0.094 A 
ATOM     10  C   UNL     1       2.170 -27.936   0.182  1.00  0.00     0.146 A 
ATOM     11  O   UNL     1       2.347 -28.562   1.339  1.00  0.00    -0.452 OA
ENDROOT
BRANCH   1  12
ATOM     12  C   UNL     1       3.511 -29.910   2.963  1.00  0.00     0.025 A 
ATOM     13  C   UNL     1       3.744 -31.293   3.065  1.00  0.00     0.016 A 
ATOM     14  C   UNL     1       3.774 -31.914   4.316  1.00  0.00     0.051 A 
ATOM     15  C   UNL     1       3.558 -31.167   5.481  1.00  0.00     0.157 A 
ATOM     16  C   UNL     1       3.274 -29.170   4.134  1.00  0.00     0.062 A 
ATOM     17  C   UNL     1       3.304 -29.793   5.390  1.00  0.00     0.158 A 
BRANCH  15  18
ATOM     18  O   UNL     1       3.588 -31.783   6.731  1.00  0.00    -0.504 OA
ATOM     19  H   UNL     1       4.068 -32.664   6.876  1.00  0.00     0.293 HD
ENDBRANCH  15  18
BRANCH  17  20
ATOM     20  O   UNL     1       3.082 -29.053   6.550  1.00  0.00    -0.504 OA
ATOM     21  H   UNL     1       2.220 -28.541   6.695  1.00  0.00     0.293 HD
ENDBRANCH  17  20
ENDBRANCH   1  12
BRANCH   2  22
ATOM     22  O   UNL     1       5.725 -29.884   1.093  1.00  0.00    -0.502 OA
ATOM     23  H   UNL     1       6.603 -29.383   1.150  1.00  0.00     0.293 HD
ENDBRANCH   2  22
BRANCH   6  24
ATOM     24  O   UNL     1       3.761 -27.373  -3.173  1.00  0.00    -0.507 OA
ATOM     25  H   UNL     1       3.569 -26.950  -4.068  1.00  0.00     0.293 HD
ENDBRANCH   6  24
BRANCH   8  26
ATOM     26  O   UNL     1      -0.435 -25.855  -1.397  1.00  0.00    -0.508 OA
ATOM     27  H   UNL     1      -0.604 -24.974  -0.927  1.00  0.00     0.293 HD
ENDBRANCH   8  26
TORSDOF 6
ENDMDL
MODEL 4
REMARK VINA RESULT:    -7.305      2.697      5.547
REMARK INTER + INTRA:          -8.989
REMARK INTER:                  -9.413
REMARK INTRA:                   0.424
REMARK UNBOUND:                -0.190
REMARK SMILES O=c1c(O)c(-c2ccc(O)c(O)c2)oc2cc(O)cc(O)c12
REMARK SMILES IDX 5 1 3 2 2 3 1 4 22 5 20 6 19 7 17 8 16 9 15 10 14 11 6 12
REMARK SMILES IDX 7 13 8 14 9 15 13 16 11 17 10 18 12 20 4 22 21 24 18 26
REMARK H PARENT 10 19 12 21 4 23 21 25 18 27
REMARK Flexibility Score: inf
ROOT
ATOM      1  C   UNL     1       3.456 -28.824   1.391  1.00  0.00     0.180 A 
ATOM      2  C   UNL     1       4.715 -29.339   1.036  1.00  0.00     0.208 A 
ATOM      3  C   UNL     1       5.483 -29.993   2.014  1.00  0.00     0.238 A 
ATOM      4  O   UNL     1       6.584 -30.499   1.678  1.00  0.00    -0.285 OA
ATOM      5  C   UNL     1       4.989 -30.109   3.336  1.00  0.00     0.111 A 
ATOM      6  C   UNL     1       5.699 -30.715   4.416  1.00  0.00     0.134 A 
ATOM      7  C   UNL     1       5.061 -30.892   5.650  1.00  0.00     0.093 A 
ATOM      8  C   UNL     1       3.761 -30.423   5.861  1.00  0.00     0.123 A 
ATOM      9  C   UNL     1       3.082 -29.778   4.832  1.00  0.00     0.094 A 
ATOM     10  C   UNL     1       3.679 -29.620   3.578  1.00  0.00     0.146 A 
ATOM     11  O   UNL     1       2.993 -29.007   2.621  1.00  0.00    -0.452 OA
ENDROOT
BRANCH   1  12
ATOM     12  C   UNL     1       2.600 -28.102   0.422  1.00  0.00     0.025 A 
ATOM     13  C   UNL     1       3.099 -27.682  -0.824  1.00  0.00     0.016 A 
ATOM     14  C   UNL     1       2.279 -26.980  -1.713  1.00  0.00     0.051 A 
ATOM     15  C   UNL     1       0.957 -26.675  -1.364  1.00  0.00     0.157 A 
ATOM     16  C   UNL     1       1.280 -27.774   0.774  1.00  0.00     0.062 A 
ATOM     17  C   UNL     1       0.458 -27.070  -0.117  1.00  0.00     0.158 A 
BRANCH  15  18
ATOM     18  O   UNL     1       0.137 -25.976  -2.247  1.00  0.00    -0.504 OA
ATOM     19  H   UNL     1      -0.504 -25.261  -1.922  1.00  0.00     0.293 HD
ENDBRANCH  15  18
BRANCH  17  20
ATOM     20  O   UNL     1      -0.856 -26.759   0.231  1.00  0.00    -0.504 OA
ATOM     21  H   UNL     1      -1.120 -26.570   1.191  1.00  0.00     0.293 HD
ENDBRANCH  17  20
ENDBRANCH   1  12
BRANCH   2  22
ATOM     22  O   UNL     1       5.174 -29.233  -0.279  1.00  0.00    -0.502 OA
ATOM     23  H   UNL     1       4.643 -28.768  -1.005  1.00  0.00     0.293 HD
ENDBRANCH   2  22
BRANCH   6  24
ATOM     24  O   UNL     1       7.031 -31.133   4.337  1.00  0.00    -0.507 OA
ATOM     25  H   UNL     1       7.775 -30.602   3.911  1.00  0.00     0.293 HD
ENDBRANCH   6  24
BRANCH   8  26
ATOM     26  O   UNL     1       3.139 -30.589   7.097  1.00  0.00    -0.508 OA
ATOM     27  H   UNL     1       2.842 -29.794   7.651  1.00  0.00     0.293 HD
ENDBRANCH   8  26
TORSDOF 6
ENDMDL
MODEL 5
REMARK VINA RESULT:    -7.258      7.047      8.605
REMARK INTER + INTRA:          -8.933
REMARK INTER:                  -8.615
REMARK INTRA:                  -0.318
REMARK UNBOUND:                -0.190
REMARK SMILES O=c1c(O)c(-c2ccc(O)c(O)c2)oc2cc(O)cc(O)c12
REMARK SMILES IDX 5 1 3 2 2 3 1 4 22 5 20 6 19 7 17 8 16 9 15 10 14 11 6 12
REMARK SMILES IDX 7 13 8 14 9 15 13 16 11 17 10 18 12 20 4 22 21 24 18 26
REMARK H PARENT 10 19 12 21 4 23 21 25 18 27
REMARK Flexibility Score: inf
ROOT
ATOM      1  C   UNL     1       5.562 -30.338   4.542  1.00  0.00     0.180 A 
ATOM      2  C   UNL     1       6.732 -30.323   5.322  1.00  0.00     0.208 A 
ATOM      3  C   UNL     1       7.967 -30.101   4.692  1.00  0.00     0.238 A 
ATOM      4  O   UNL     1       9.004 -30.035   5.401  1.00  0.00    -0.285 OA
ATOM      5  C   UNL     1       8.019 -29.913   3.289  1.00  0.00     0.111 A 
ATOM      6  C   UNL     1       9.218 -29.721   2.541  1.00  0.00     0.134 A 
ATOM      7  C   UNL     1       9.141 -29.415   1.177  1.00  0.00     0.093 A 
ATOM      8  C   UNL     1       7.908 -29.360   0.521  1.00  0.00     0.123 A 
ATOM      9  C   UNL     1       6.736 -29.604   1.229  1.00  0.00     0.094 A 
ATOM     10  C   UNL     1       6.778 -29.876   2.599  1.00  0.00     0.146 A 
ATOM     11  O   UNL     1       5.636 -30.093   3.240  1.00  0.00    -0.452 OA
ENDROOT
BRANCH   1  12
ATOM     12  C   UNL     1       4.227 -30.590   5.131  1.00  0.00     0.025 A 
ATOM     13  C   UNL     1       3.656 -31.875   5.129  1.00  0.00     0.016 A 
ATOM     14  C   UNL     1       2.384 -32.084   5.669  1.00  0.00     0.051 A 
ATOM     15  C   UNL     1       1.660 -31.012   6.205  1.00  0.00     0.157 A 
ATOM     16  C   UNL     1       3.485 -29.515   5.650  1.00  0.00     0.062 A 
ATOM     17  C   UNL     1       2.210 -29.724   6.192  1.00  0.00     0.158 A 
BRANCH  15  18
ATOM     18  O   UNL     1       0.391 -31.216   6.745  1.00  0.00    -0.504 OA
ATOM     19  H   UNL     1       0.145 -32.086   7.204  1.00  0.00     0.293 HD
ENDBRANCH  15  18
BRANCH  17  20
ATOM     20  O   UNL     1       1.483 -28.658   6.719  1.00  0.00    -0.504 OA
ATOM     21  H   UNL     1       1.725 -28.240   7.610  1.00  0.00     0.293 HD
ENDBRANCH  17  20
ENDBRANCH   1  12
BRANCH   2  22
ATOM     22  O   UNL     1       6.656 -30.489   6.707  1.00  0.00    -0.502 OA
ATOM     23  H   UNL     1       7.433 -30.282   7.323  1.00  0.00     0.293 HD
ENDBRANCH   2  22
BRANCH   6  24
ATOM     24  O   UNL     1      10.503 -29.846   3.080  1.00  0.00    -0.507 OA
ATOM     25  H   UNL     1      10.723 -30.338   3.933  1.00  0.00     0.293 HD
ENDBRANCH   6  24
BRANCH   8  26
ATOM     26  O   UNL     1       7.841 -29.070  -0.840  1.00  0.00    -0.508 OA
ATOM     27  H   UNL     1       8.257 -29.680  -1.534  1.00  0.00     0.293 HD
ENDBRANCH   8  26
TORSDOF 6
ENDMDL
MODEL 6
REMARK VINA RESULT:    -7.255      3.091      5.967
REMARK INTER + INTRA:          -8.929
REMARK INTER:                  -9.473
REMARK INTRA:                   0.544
REMARK UNBOUND:                -0.190
REMARK SMILES O=c1c(O)c(-c2ccc(O)c(O)c2)oc2cc(O)cc(O)c12
REMARK SMILES IDX 5 1 3 2 2 3 1 4 22 5 20 6 19 7 17 8 16 9 15 10 14 11 6 12
REMARK SMILES IDX 7 13 8 14 9 15 13 16 11 17 10 18 12 20 4 22 21 24 18 26
REMARK H PARENT 10 19 12 21 4 23 21 25 18 27
REMARK Flexibility Score: inf
ROOT
ATOM      1  C   UNL     1       3.595 -28.874   1.461  1.00  0.00     0.180 A 
ATOM      2  C   UNL     1       4.859 -29.393   1.129  1.00  0.00     0.208 A 
ATOM      3  C   UNL     1       5.594 -30.074   2.112  1.00  0.00     0.238 A 
ATOM      4  O   UNL     1       6.700 -30.585   1.795  1.00  0.00    -0.285 OA
ATOM      5  C   UNL     1       5.066 -30.212   3.419  1.00  0.00     0.111 A 
ATOM      6  C   UNL     1       5.741 -30.847   4.504  1.00  0.00     0.134 A 
ATOM      7  C   UNL     1       5.070 -31.042   5.717  1.00  0.00     0.093 A 
ATOM      8  C   UNL     1       3.770 -30.565   5.904  1.00  0.00     0.123 A 
ATOM      9  C   UNL     1       3.124 -29.892   4.872  1.00  0.00     0.094 A 
ATOM     10  C   UNL     1       3.754 -29.715   3.637  1.00  0.00     0.146 A 
ATOM     11  O   UNL     1       3.099 -29.076   2.675  1.00  0.00    -0.452 OA
ENDROOT
BRANCH   1  12
ATOM     12  C   UNL     1       2.772 -28.124   0.485  1.00  0.00     0.025 A 
ATOM     13  C   UNL     1       1.543 -27.547   0.854  1.00  0.00     0.016 A 
ATOM     14  C   UNL     1       0.772 -26.864  -0.090  1.00  0.00     0.051 A 
ATOM     15  C   UNL     1       1.208 -26.761  -1.417  1.00  0.00     0.157 A 
ATOM     16  C   UNL     1       3.193 -28.036  -0.852  1.00  0.00     0.062 A 
ATOM     17  C   UNL     1       2.419 -27.351  -1.800  1.00  0.00     0.158 A 
BRANCH  15  18
ATOM     18  O   UNL     1       0.442 -26.081  -2.362  1.00  0.00    -0.504 OA
ATOM     19  H   UNL     1       0.141 -26.526  -3.221  1.00  0.00     0.293 HD
ENDBRANCH  15  18
BRANCH  17  20
ATOM     20  O   UNL     1       2.847 -27.253  -3.123  1.00  0.00    -0.504 OA
ATOM     21  H   UNL     1       3.798 -26.990  -3.354  1.00  0.00     0.293 HD
ENDBRANCH  17  20
ENDBRANCH   1  12
BRANCH   2  22
ATOM     22  O   UNL     1       5.352 -29.266  -0.172  1.00  0.00    -0.502 OA
ATOM     23  H   UNL     1       4.780 -29.434  -0.990  1.00  0.00     0.293 HD
ENDBRANCH   2  22
BRANCH   6  24
ATOM     24  O   UNL     1       7.071 -31.276   4.451  1.00  0.00    -0.507 OA
ATOM     25  H   UNL     1       7.474 -31.974   5.057  1.00  0.00     0.293 HD
ENDBRANCH   6  24
BRANCH   8  26
ATOM     26  O   UNL     1       3.115 -30.749   7.120  1.00  0.00    -0.508 OA
ATOM     27  H   UNL     1       2.164 -31.095   7.163  1.00  0.00     0.293 HD
ENDBRANCH   8  26
TORSDOF 6
ENDMDL
MODEL 7
REMARK VINA RESULT:    -7.105      1.746      3.513
REMARK INTER + INTRA:          -8.749
REMARK INTER:                  -9.113
REMARK INTRA:                   0.364
REMARK UNBOUND:                -0.190
REMARK SMILES O=c1c(O)c(-c2ccc(O)c(O)c2)oc2cc(O)cc(O)c12
REMARK SMILES IDX 5 1 3 2 2 3 1 4 22 5 20 6 19 7 17 8 16 9 15 10 14 11 6 12
REMARK SMILES IDX 7 13 8 14 9 15 13 16 11 17 10 18 12 20 4 22 21 24 18 26
REMARK H PARENT 10 19 12 21 4 23 21 25 18 27
REMARK Flexibility Score: inf
ROOT
ATOM      1  C   UNL     1       0.956 -26.906  -0.745  1.00  0.00     0.180 A 
ATOM      2  C   UNL     1       1.565 -27.621   0.302  1.00  0.00     0.208 A 
ATOM      3  C   UNL     1       2.870 -28.109   0.123  1.00  0.00     0.238 A 
ATOM      4  O   UNL     1       3.430 -28.700   1.082  1.00  0.00    -0.285 OA
ATOM      5  C   UNL     1       3.542 -27.890  -1.103  1.00  0.00     0.111 A 
ATOM      6  C   UNL     1       4.849 -28.373  -1.409  1.00  0.00     0.134 A 
ATOM      7  C   UNL     1       5.468 -27.986  -2.603  1.00  0.00     0.093 A 
ATOM      8  C   UNL     1       4.799 -27.187  -3.534  1.00  0.00     0.123 A 
ATOM      9  C   UNL     1       3.501 -26.759  -3.272  1.00  0.00     0.094 A 
ATOM     10  C   UNL     1       2.871 -27.098  -2.072  1.00  0.00     0.146 A 
ATOM     11  O   UNL     1       1.636 -26.661  -1.857  1.00  0.00    -0.452 OA
ENDROOT
BRANCH   1  12
ATOM     12  C   UNL     1      -0.426 -26.383  -0.639  1.00  0.00     0.025 A 
ATOM     13  C   UNL     1      -1.334 -26.897   0.303  1.00  0.00     0.016 A 
ATOM     14  C   UNL     1      -2.640 -26.404   0.367  1.00  0.00     0.051 A 
ATOM     15  C   UNL     1      -3.061 -25.402  -0.517  1.00  0.00     0.157 A 
ATOM     16  C   UNL     1      -0.861 -25.394  -1.538  1.00  0.00     0.062 A 
ATOM     17  C   UNL     1      -2.171 -24.898  -1.474  1.00  0.00     0.158 A 
BRANCH  15  18
ATOM     18  O   UNL     1      -4.363 -24.907  -0.456  1.00  0.00    -0.504 OA
ATOM     19  H   UNL     1      -4.736 -24.504   0.396  1.00  0.00     0.293 HD
ENDBRANCH  15  18
BRANCH  17  20
ATOM     20  O   UNL     1      -2.595 -23.907  -2.357  1.00  0.00    -0.504 OA
ATOM     21  H   UNL     1      -3.554 -23.580  -2.365  1.00  0.00     0.293 HD
ENDBRANCH  17  20
ENDBRANCH   1  12
BRANCH   2  22
ATOM     22  O   UNL     1       0.892 -27.807   1.512  1.00  0.00    -0.502 OA
ATOM     23  H   UNL     1       1.298 -28.317   2.288  1.00  0.00     0.293 HD
ENDBRANCH   2  22
BRANCH   6  24
ATOM     24  O   UNL     1       5.567 -29.252  -0.591  1.00  0.00    -0.507 OA
ATOM     25  H   UNL     1       5.579 -30.255  -0.696  1.00  0.00     0.293 HD
ENDBRANCH   6  24
BRANCH   8  26
ATOM     26  O   UNL     1       5.416 -26.819  -4.728  1.00  0.00    -0.508 OA
ATOM     27  H   UNL     1       6.418 -26.902  -4.854  1.00  0.00     0.293 HD
ENDBRANCH   8  26
TORSDOF 6
ENDMDL
MODEL 8
REMARK VINA RESULT:    -7.006      6.958      8.279
REMARK INTER + INTRA:          -8.630
REMARK INTER:                  -8.299
REMARK INTRA:                  -0.331
REMARK UNBOUND:                -0.190
REMARK SMILES O=c1c(O)c(-c2ccc(O)c(O)c2)oc2cc(O)cc(O)c12
REMARK SMILES IDX 5 1 3 2 2 3 1 4 22 5 20 6 19 7 17 8 16 9 15 10 14 11 6 12
REMARK SMILES IDX 7 13 8 14 9 15 13 16 11 17 10 18 12 20 4 22 21 24 18 26
REMARK H PARENT 10 19 12 21 4 23 21 25 18 27
REMARK Flexibility Score: inf
ROOT
ATOM      1  C   UNL     1       5.323 -30.337   4.332  1.00  0.00     0.180 A 
ATOM      2  C   UNL     1       5.418 -29.934   2.989  1.00  0.00     0.208 A 
ATOM      3  C   UNL     1       6.688 -29.833   2.397  1.00  0.00     0.238 A 
ATOM      4  O   UNL     1       6.765 -29.525   1.180  1.00  0.00    -0.285 OA
ATOM      5  C   UNL     1       7.846 -30.120   3.160  1.00  0.00     0.111 A 
ATOM      6  C   UNL     1       9.184 -30.012   2.676  1.00  0.00     0.134 A 
ATOM      7  C   UNL     1      10.247 -30.446   3.477  1.00  0.00     0.093 A 
ATOM      8  C   UNL     1      10.024 -30.923   4.771  1.00  0.00     0.123 A 
ATOM      9  C   UNL     1       8.727 -30.977   5.275  1.00  0.00     0.094 A 
ATOM     10  C   UNL     1       7.643 -30.585   4.486  1.00  0.00     0.146 A 
ATOM     11  O   UNL     1       6.422 -30.662   5.001  1.00  0.00    -0.452 OA
ENDROOT
BRANCH   1  12
ATOM     12  C   UNL     1       4.021 -30.442   5.031  1.00  0.00     0.025 A 
ATOM     13  C   UNL     1       3.432 -29.328   5.654  1.00  0.00     0.016 A 
ATOM     14  C   UNL     1       2.215 -29.457   6.328  1.00  0.00     0.051 A 
ATOM     15  C   UNL     1       1.578 -30.702   6.403  1.00  0.00     0.157 A 
ATOM     16  C   UNL     1       3.388 -31.693   5.129  1.00  0.00     0.062 A 
ATOM     17  C   UNL     1       2.167 -31.823   5.805  1.00  0.00     0.158 A 
BRANCH  15  18
ATOM     18  O   UNL     1       0.363 -30.835   7.074  1.00  0.00    -0.504 OA
ATOM     19  H   UNL     1      -0.392 -30.173   6.939  1.00  0.00     0.293 HD
ENDBRANCH  15  18
BRANCH  17  20
ATOM     20  O   UNL     1       1.534 -33.062   5.887  1.00  0.00    -0.504 OA
ATOM     21  H   UNL     1       1.685 -33.781   5.189  1.00  0.00     0.293 HD
ENDBRANCH  17  20
ENDBRANCH   1  12
BRANCH   2  22
ATOM     22  O   UNL     1       4.263 -29.677   2.247  1.00  0.00    -0.502 OA
ATOM     23  H   UNL     1       3.333 -29.812   2.624  1.00  0.00     0.293 HD
ENDBRANCH   2  22
BRANCH   6  24
ATOM     24  O   UNL     1       9.522 -29.463   1.435  1.00  0.00    -0.507 OA
ATOM     25  H   UNL     1      10.047 -29.942   0.718  1.00  0.00     0.293 HD
ENDBRANCH   6  24
BRANCH   8  26
ATOM     26  O   UNL     1      11.088 -31.339   5.568  1.00  0.00    -0.508 OA
ATOM     27  H   UNL     1      10.982 -31.475   6.567  1.00  0.00     0.293 HD
ENDBRANCH   8  26
TORSDOF 6
ENDMDL
MODEL 9
REMARK VINA RESULT:    -7.005      6.998      9.906
REMARK INTER + INTRA:          -8.629
REMARK INTER:                  -8.302
REMARK INTRA:                  -0.327
REMARK UNBOUND:                -0.190
REMARK SMILES O=c1c(O)c(-c2ccc(O)c(O)c2)oc2cc(O)cc(O)c12
REMARK SMILES IDX 5 1 3 2 2 3 1 4 22 5 20 6 19 7 17 8 16 9 15 10 14 11 6 12
REMARK SMILES IDX 7 13 8 14 9 15 13 16 11 17 10 18 12 20 4 22 21 24 18 26
REMARK H PARENT 10 19 12 21 4 23 21 25 18 27
REMARK Flexibility Score: inf
ROOT
ATOM      1  C   UNL     1       6.022 -30.660   3.536  1.00  0.00     0.180 A 
ATOM      2  C   UNL     1       5.963 -32.063   3.601  1.00  0.00     0.208 A 
ATOM      3  C   UNL     1       4.913 -32.668   4.311  1.00  0.00     0.238 A 
ATOM      4  O   UNL     1       4.834 -33.923   4.321  1.00  0.00    -0.285 OA
ATOM      5  C   UNL     1       3.946 -31.862   4.961  1.00  0.00     0.111 A 
ATOM      6  C   UNL     1       2.864 -32.366   5.742  1.00  0.00     0.134 A 
ATOM      7  C   UNL     1       1.894 -31.483   6.231  1.00  0.00     0.093 A 
ATOM      8  C   UNL     1       2.004 -30.106   6.021  1.00  0.00     0.123 A 
ATOM      9  C   UNL     1       3.088 -29.599   5.310  1.00  0.00     0.094 A 
ATOM     10  C   UNL     1       4.053 -30.458   4.779  1.00  0.00     0.146 A 
ATOM     11  O   UNL     1       5.065 -29.934   4.099  1.00  0.00    -0.452 OA
ENDROOT
BRANCH   1  12
ATOM     12  C   UNL     1       7.112 -29.951   2.826  1.00  0.00     0.025 A 
ATOM     13  C   UNL     1       8.273 -29.532   3.499  1.00  0.00     0.016 A 
ATOM     14  C   UNL     1       9.277 -28.843   2.813  1.00  0.00     0.051 A 
ATOM     15  C   UNL     1       9.129 -28.550   1.452  1.00  0.00     0.157 A 
ATOM     16  C   UNL     1       6.960 -29.635   1.465  1.00  0.00     0.062 A 
ATOM     17  C   UNL     1       7.967 -28.944   0.777  1.00  0.00     0.158 A 
BRANCH  15  18
ATOM     18  O   UNL     1      10.129 -27.864   0.764  1.00  0.00    -0.504 OA
ATOM     19  H   UNL     1      10.789 -27.266   1.248  1.00  0.00     0.293 HD
ENDBRANCH  15  18
BRANCH  17  20
ATOM     20  O   UNL     1       7.820 -28.644  -0.576  1.00  0.00    -0.504 OA
ATOM     21  H   UNL     1       8.553 -28.845  -1.246  1.00  0.00     0.293 HD
ENDBRANCH  17  20
ENDBRANCH   1  12
BRANCH   2  22
ATOM     22  O   UNL     1       6.914 -32.840   2.934  1.00  0.00    -0.502 OA
ATOM     23  H   UNL     1       7.763 -33.164   3.382  1.00  0.00     0.293 HD
ENDBRANCH   2  22
BRANCH   6  24
ATOM     24  O   UNL     1       2.713 -33.713   6.089  1.00  0.00    -0.507 OA
ATOM     25  H   UNL     1       2.097 -34.054   6.812  1.00  0.00     0.293 HD
ENDBRANCH   6  24
BRANCH   8  26
ATOM     26  O   UNL     1       1.042 -29.232   6.523  1.00  0.00    -0.508 OA
ATOM     27  H   UNL     1       0.209 -29.571   6.990  1.00  0.00     0.293 HD
ENDBRANCH   8  26
TORSDOF 6
ENDMDL
