MODEL 1
REMARK VINA RESULT:    -5.421      0.000      0.000
REMARK INTER + INTRA:         -13.328
REMARK INTER:                 -10.492
REMARK INTRA:                  -2.836
REMARK UNBOUND:                -2.836
REMARK SMILES CCCCCCCCCCCCCCCCCC(=O)[O-]
REMARK SMILES IDX 10 1 11 2 12 3 13 4 14 5 15 6 16 7 17 8 18 9 19 10 20 11
REMARK SMILES IDX 9 12 8 13 7 14 6 15 5 16 4 17 3 18 2 19 1 20
REMARK H PARENT
REMARK Flexibility Score: inf
ROOT
ATOM      1  C   UNL     1      17.492  -4.917  12.301  1.00  0.00     0.000 C 
ENDROOT
BRANCH   1   2
ATOM      2  C   UNL     1      18.948  -4.506  12.567  1.00  0.00     0.000 C 
BRANCH   2   3
ATOM      3  C   UNL     1      19.082  -3.026  12.967  1.00  0.00     0.000 C 
BRANCH   3   4
ATOM      4  C   UNL     1      18.483  -2.744  14.357  1.00  0.00     0.000 C 
BRANCH   4   5
ATOM      5  C   UNL     1      17.231  -1.837  14.310  1.00  0.00     0.000 C 
BRANCH   5   6
ATOM      6  C   UNL     1      16.983  -1.196  12.931  1.00  0.00     0.000 C 
BRANCH   6   7
ATOM      7  C   UNL     1      15.548  -1.350  12.401  1.00  0.00     0.006 C 
BRANCH   7   8
ATOM      8  C   UNL     1      14.661  -2.195  13.325  1.00  0.00     0.053 C 
BRANCH   8   9
ATOM      9  C   UNL     1      13.214  -1.916  13.065  1.00  0.00     0.041 C 
ATOM     10  O   UNL     1      12.427  -1.708  14.024  1.00  0.00    -0.550 OA
ATOM     11  O   UNL     1      12.731  -1.897  11.761  1.00  0.00    -0.550 OA
ENDBRANCH   8   9
ENDBRANCH   7   8
ENDBRANCH   6   7
ENDBRANCH   5   6
ENDBRANCH   4   5
ENDBRANCH   3   4
ENDBRANCH   2   3
ENDBRANCH   1   2
BRANCH   1  12
ATOM     12  C   UNL     1      17.369  -6.003  11.221  1.00  0.00     0.000 C 
BRANCH  12  13
ATOM     13  C   UNL     1      16.304  -5.624  10.182  1.00  0.00    -0.000 C 
BRANCH  13  14
ATOM     14  C   UNL     1      15.143  -4.809  10.780  1.00  0.00    -0.000 C 
BRANCH  14  15
ATOM     15  C   UNL     1      13.835  -5.594  10.984  1.00  0.00    -0.000 C 
BRANCH  15  16
ATOM     16  C   UNL     1      13.367  -5.613  12.446  1.00  0.00    -0.000 C 
BRANCH  16  17
ATOM     17  C   UNL     1      14.252  -6.540  13.292  1.00  0.00    -0.000 C 
BRANCH  17  18
ATOM     18  C   UNL     1      14.847  -5.835  14.522  1.00  0.00    -0.000 C 
BRANCH  18  19
ATOM     19  C   UNL     1      15.989  -6.636  15.166  1.00  0.00    -0.003 C 
ATOM     20  C   UNL     1      16.920  -5.721  15.956  1.00  0.00     0.004 C 
ENDBRANCH  18  19
ENDBRANCH  17  18
ENDBRANCH  16  17
ENDBRANCH  15  16
ENDBRANCH  14  15
ENDBRANCH  13  14
ENDBRANCH  12  13
ENDBRANCH   1  12
TORSDOF 16
ENDMDL
MODEL 2
REMARK VINA RESULT:    -5.397      2.813      5.166
REMARK INTER + INTRA:         -13.281
REMARK INTER:                 -10.510
REMARK INTRA:                  -2.771
REMARK UNBOUND:                -2.836
REMARK SMILES CCCCCCCCCCCCCCCCCC(=O)[O-]
REMARK SMILES IDX 10 1 11 2 12 3 13 4 14 5 15 6 16 7 17 8 18 9 19 10 20 11
REMARK SMILES IDX 9 12 8 13 7 14 6 15 5 16 4 17 3 18 2 19 1 20
REMARK H PARENT
REMARK Flexibility Score: inf
ROOT
ATOM      1  C   UNL     1      12.895  -4.521  12.501  1.00  0.00     0.000 C 
ENDROOT
BRANCH   1   2
ATOM      2  C   UNL     1      13.574  -3.146  12.404  1.00  0.00     0.000 C 
BRANCH   2   3
ATOM      3  C   UNL     1      13.969  -2.583  13.781  1.00  0.00     0.000 C 
BRANCH   3   4
ATOM      4  C   UNL     1      13.032  -3.074  14.900  1.00  0.00     0.000 C 
BRANCH   4   5
ATOM      5  C   UNL     1      13.777  -3.429  16.208  1.00  0.00     0.000 C 
BRANCH   5   6
ATOM      6  C   UNL     1      14.679  -4.672  16.088  1.00  0.00     0.000 C 
BRANCH   6   7
ATOM      7  C   UNL     1      16.187  -4.381  16.171  1.00  0.00     0.006 C 
BRANCH   7   8
ATOM      8  C   UNL     1      16.495  -3.025  16.819  1.00  0.00     0.053 C 
BRANCH   8   9
ATOM      9  C   UNL     1      17.818  -3.064  17.518  1.00  0.00     0.041 C 
ATOM     10  O   UNL     1      18.885  -3.087  16.852  1.00  0.00    -0.550 OA
ATOM     11  O   UNL     1      17.873  -3.086  18.908  1.00  0.00    -0.550 OA
ENDBRANCH   8   9
ENDBRANCH   7   8
ENDBRANCH   6   7
ENDBRANCH   5   6
ENDBRANCH   4   5
ENDBRANCH   3   4
ENDBRANCH   2   3
ENDBRANCH   1   2
BRANCH   1  12
ATOM     12  C   UNL     1      13.755  -5.651  11.916  1.00  0.00     0.000 C 
BRANCH  12  13
ATOM     13  C   UNL     1      14.276  -6.574  13.026  1.00  0.00    -0.000 C 
BRANCH  13  14
ATOM     14  C   UNL     1      15.812  -6.676  13.052  1.00  0.00    -0.000 C 
BRANCH  14  15
ATOM     15  C   UNL     1      16.557  -5.394  12.638  1.00  0.00    -0.000 C 
BRANCH  15  16
ATOM     16  C   UNL     1      17.866  -5.676  11.886  1.00  0.00    -0.000 C 
BRANCH  16  17
ATOM     17  C   UNL     1      18.991  -4.754  12.380  1.00  0.00    -0.000 C 
BRANCH  17  18
ATOM     18  C   UNL     1      18.528  -3.791  13.485  1.00  0.00    -0.000 C 
BRANCH  18  19
ATOM     19  C   UNL     1      18.707  -2.316  13.096  1.00  0.00    -0.003 C 
ATOM     20  C   UNL     1      17.541  -1.471  13.602  1.00  0.00     0.004 C 
ENDBRANCH  18  19
ENDBRANCH  17  18
ENDBRANCH  16  17
ENDBRANCH  15  16
ENDBRANCH  14  15
ENDBRANCH  13  14
ENDBRANCH  12  13
ENDBRANCH   1  12
TORSDOF 16
ENDMDL
MODEL 3
REMARK VINA RESULT:    -5.383      2.841      5.214
REMARK INTER + INTRA:         -13.253
REMARK INTER:                 -10.718
REMARK INTRA:                  -2.535
REMARK UNBOUND:                -2.836
REMARK SMILES CCCCCCCCCCCCCCCCCC(=O)[O-]
REMARK SMILES IDX 10 1 11 2 12 3 13 4 14 5 15 6 16 7 17 8 18 9 19 10 20 11
REMARK SMILES IDX 9 12 8 13 7 14 6 15 5 16 4 17 3 18 2 19 1 20
REMARK H PARENT
REMARK Flexibility Score: inf
ROOT
ATOM      1  C   UNL     1      15.724  -1.929  12.303  1.00  0.00     0.000 C 
ENDROOT
BRANCH   1   2
ATOM      2  C   UNL     1      14.437  -1.139  12.581  1.00  0.00     0.000 C 
BRANCH   2   3
ATOM      3  C   UNL     1      13.198  -2.045  12.691  1.00  0.00     0.000 C 
BRANCH   3   4
ATOM      4  C   UNL     1      12.825  -2.345  14.154  1.00  0.00     0.000 C 
BRANCH   4   5
ATOM      5  C   UNL     1      13.584  -3.557  14.742  1.00  0.00     0.000 C 
BRANCH   5   6
ATOM      6  C   UNL     1      14.018  -3.365  16.207  1.00  0.00     0.000 C 
BRANCH   6   7
ATOM      7  C   UNL     1      15.505  -3.649  16.478  1.00  0.00     0.006 C 
BRANCH   7   8
ATOM      8  C   UNL     1      16.156  -2.594  17.382  1.00  0.00     0.053 C 
BRANCH   8   9
ATOM      9  C   UNL     1      17.578  -2.957  17.675  1.00  0.00     0.041 C 
ATOM     10  O   UNL     1      18.424  -3.003  16.744  1.00  0.00    -0.550 OA
ATOM     11  O   UNL     1      17.968  -3.255  18.976  1.00  0.00    -0.550 OA
ENDBRANCH   8   9
ENDBRANCH   7   8
ENDBRANCH   6   7
ENDBRANCH   5   6
ENDBRANCH   4   5
ENDBRANCH   3   4
ENDBRANCH   2   3
ENDBRANCH   1   2
BRANCH   1  12
ATOM     12  C   UNL     1      16.907  -1.461  13.165  1.00  0.00     0.000 C 
BRANCH  12  13
ATOM     13  C   UNL     1      18.018  -2.521  13.192  1.00  0.00    -0.000 C 
BRANCH  13  14
ATOM     14  C   UNL     1      17.486  -3.944  13.437  1.00  0.00    -0.000 C 
BRANCH  14  15
ATOM     15  C   UNL     1      17.847  -4.971  12.348  1.00  0.00    -0.000 C 
BRANCH  15  16
ATOM     16  C   UNL     1      16.624  -5.480  11.572  1.00  0.00    -0.000 C 
BRANCH  16  17
ATOM     17  C   UNL     1      15.438  -5.723  12.518  1.00  0.00    -0.000 C 
BRANCH  17  18
ATOM     18  C   UNL     1      14.102  -5.867  11.771  1.00  0.00    -0.000 C 
BRANCH  18  19
ATOM     19  C   UNL     1      14.054  -5.033  10.482  1.00  0.00    -0.003 C 
ATOM     20  C   UNL     1      13.769  -5.915   9.270  1.00  0.00     0.004 C 
ENDBRANCH  18  19
ENDBRANCH  17  18
ENDBRANCH  16  17
ENDBRANCH  15  16
ENDBRANCH  14  15
ENDBRANCH  13  14
ENDBRANCH  12  13
ENDBRANCH   1  12
TORSDOF 16
ENDMDL
MODEL 4
REMARK VINA RESULT:    -5.329      1.884      4.414
REMARK INTER + INTRA:         -13.149
REMARK INTER:                 -10.764
REMARK INTRA:                  -2.385
REMARK UNBOUND:                -2.836
REMARK SMILES CCCCCCCCCCCCCCCCCC(=O)[O-]
REMARK SMILES IDX 10 1 11 2 12 3 13 4 14 5 15 6 16 7 17 8 18 9 19 10 20 11
REMARK SMILES IDX 9 12 8 13 7 14 6 15 5 16 4 17 3 18 2 19 1 20
REMARK H PARENT
REMARK Flexibility Score: inf
ROOT
ATOM      1  C   UNL     1      18.897  -3.559  14.090  1.00  0.00     0.000 C 
ENDROOT
BRANCH   1   2
ATOM      2  C   UNL     1      17.948  -4.064  12.993  1.00  0.00     0.000 C 
BRANCH   2   3
ATOM      3  C   UNL     1      18.518  -5.271  12.227  1.00  0.00     0.000 C 
BRANCH   3   4
ATOM      4  C   UNL     1      17.443  -5.990  11.392  1.00  0.00     0.000 C 
BRANCH   4   5
ATOM      5  C   UNL     1      16.108  -5.212  11.315  1.00  0.00     0.000 C 
BRANCH   5   6
ATOM      6  C   UNL     1      15.431  -5.280   9.933  1.00  0.00     0.000 C 
BRANCH   6   7
ATOM      7  C   UNL     1      13.917  -5.548   9.973  1.00  0.00     0.006 C 
BRANCH   7   8
ATOM      8  C   UNL     1      13.280  -5.157  11.312  1.00  0.00     0.053 C 
BRANCH   8   9
ATOM      9  C   UNL     1      12.675  -3.791  11.228  1.00  0.00     0.041 C 
ATOM     10  O   UNL     1      11.616  -3.607  10.573  1.00  0.00    -0.550 OA
ATOM     11  O   UNL     1      13.286  -2.716  11.866  1.00  0.00    -0.550 OA
ENDBRANCH   8   9
ENDBRANCH   7   8
ENDBRANCH   6   7
ENDBRANCH   5   6
ENDBRANCH   4   5
ENDBRANCH   3   4
ENDBRANCH   2   3
ENDBRANCH   1   2
BRANCH   1  12
ATOM     12  C   UNL     1      18.723  -4.311  15.419  1.00  0.00     0.000 C 
BRANCH  12  13
ATOM     13  C   UNL     1      18.872  -3.356  16.612  1.00  0.00    -0.000 C 
BRANCH  13  14
ATOM     14  C   UNL     1      17.600  -3.266  17.474  1.00  0.00    -0.000 C 
BRANCH  14  15
ATOM     15  C   UNL     1      16.399  -2.583  16.794  1.00  0.00    -0.000 C 
BRANCH  15  16
ATOM     16  C   UNL     1      15.051  -2.980  17.414  1.00  0.00    -0.000 C 
BRANCH  16  17
ATOM     17  C   UNL     1      14.107  -3.556  16.348  1.00  0.00    -0.000 C 
BRANCH  17  18
ATOM     18  C   UNL     1      14.833  -3.908  15.039  1.00  0.00    -0.000 C 
BRANCH  18  19
ATOM     19  C   UNL     1      14.793  -5.412  14.729  1.00  0.00    -0.003 C 
ATOM     20  C   UNL     1      15.566  -6.207  15.777  1.00  0.00     0.004 C 
ENDBRANCH  18  19
ENDBRANCH  17  18
ENDBRANCH  16  17
ENDBRANCH  15  16
ENDBRANCH  14  15
ENDBRANCH  13  14
ENDBRANCH  12  13
ENDBRANCH   1  12
TORSDOF 16
ENDMDL
MODEL 5
REMARK VINA RESULT:    -5.326      2.802      4.635
REMARK INTER + INTRA:         -13.143
REMARK INTER:                 -10.503
REMARK INTRA:                  -2.640
REMARK UNBOUND:                -2.836
REMARK SMILES CCCCCCCCCCCCCCCCCC(=O)[O-]
REMARK SMILES IDX 10 1 11 2 12 3 13 4 14 5 15 6 16 7 17 8 18 9 19 10 20 11
REMARK SMILES IDX 9 12 8 13 7 14 6 15 5 16 4 17 3 18 2 19 1 20
REMARK H PARENT
REMARK Flexibility Score: inf
ROOT
ATOM      1  C   UNL     1      12.919  -2.609  12.288  1.00  0.00     0.000 C 
ENDROOT
BRANCH   1   2
ATOM      2  C   UNL     1      13.573  -2.174  13.607  1.00  0.00     0.000 C 
BRANCH   2   3
ATOM      3  C   UNL     1      14.186  -3.355  14.381  1.00  0.00     0.000 C 
BRANCH   3   4
ATOM      4  C   UNL     1      13.545  -3.536  15.769  1.00  0.00     0.000 C 
BRANCH   4   5
ATOM      5  C   UNL     1      14.540  -3.328  16.933  1.00  0.00     0.000 C 
BRANCH   5   6
ATOM      6  C   UNL     1      15.988  -3.077  16.473  1.00  0.00     0.000 C 
BRANCH   6   7
ATOM      7  C   UNL     1      16.939  -4.271  16.663  1.00  0.00     0.006 C 
BRANCH   7   8
ATOM      8  C   UNL     1      17.982  -4.384  15.543  1.00  0.00     0.053 C 
BRANCH   8   9
ATOM      9  C   UNL     1      18.865  -3.176  15.524  1.00  0.00     0.041 C 
ATOM     10  O   UNL     1      18.934  -2.459  14.492  1.00  0.00    -0.550 OA
ATOM     11  O   UNL     1      19.621  -2.847  16.644  1.00  0.00    -0.550 OA
ENDBRANCH   8   9
ENDBRANCH   7   8
ENDBRANCH   6   7
ENDBRANCH   5   6
ENDBRANCH   4   5
ENDBRANCH   3   4
ENDBRANCH   2   3
ENDBRANCH   1   2
BRANCH   1  12
ATOM     12  C   UNL     1      12.847  -4.136  12.135  1.00  0.00     0.000 C 
BRANCH  12  13
ATOM     13  C   UNL     1      12.876  -4.540  10.654  1.00  0.00    -0.000 C 
BRANCH  13  14
ATOM     14  C   UNL     1      13.925  -5.624  10.347  1.00  0.00    -0.000 C 
BRANCH  14  15
ATOM     15  C   UNL     1      15.304  -5.092   9.917  1.00  0.00    -0.000 C 
BRANCH  15  16
ATOM     16  C   UNL     1      16.461  -5.700  10.724  1.00  0.00    -0.000 C 
BRANCH  16  17
ATOM     17  C   UNL     1      16.312  -5.383  12.219  1.00  0.00    -0.000 C 
BRANCH  17  18
ATOM     18  C   UNL     1      16.232  -6.646  13.090  1.00  0.00    -0.000 C 
BRANCH  18  19
ATOM     19  C   UNL     1      14.851  -6.829  13.739  1.00  0.00    -0.003 C 
ATOM     20  C   UNL     1      14.981  -7.067  15.241  1.00  0.00     0.004 C 
ENDBRANCH  18  19
ENDBRANCH  17  18
ENDBRANCH  16  17
ENDBRANCH  15  16
ENDBRANCH  14  15
ENDBRANCH  13  14
ENDBRANCH  12  13
ENDBRANCH   1  12
TORSDOF 16
ENDMDL
MODEL 6
REMARK VINA RESULT:    -5.291      2.353      4.645
REMARK INTER + INTRA:         -13.075
REMARK INTER:                 -10.407
REMARK INTRA:                  -2.668
REMARK UNBOUND:                -2.836
REMARK SMILES CCCCCCCCCCCCCCCCCC(=O)[O-]
REMARK SMILES IDX 10 1 11 2 12 3 13 4 14 5 15 6 16 7 17 8 18 9 19 10 20 11
REMARK SMILES IDX 9 12 8 13 7 14 6 15 5 16 4 17 3 18 2 19 1 20
REMARK H PARENT
REMARK Flexibility Score: inf
ROOT
ATOM      1  C   UNL     1      14.231  -3.141  15.150  1.00  0.00     0.000 C 
ENDROOT
BRANCH   1   2
ATOM      2  C   UNL     1      14.314  -3.795  16.537  1.00  0.00     0.000 C 
BRANCH   2   3
ATOM      3  C   UNL     1      15.209  -3.008  17.510  1.00  0.00     0.000 C 
BRANCH   3   4
ATOM      4  C   UNL     1      16.557  -2.621  16.876  1.00  0.00     0.000 C 
BRANCH   4   5
ATOM      5  C   UNL     1      17.581  -3.779  16.863  1.00  0.00     0.000 C 
BRANCH   5   6
ATOM      6  C   UNL     1      18.253  -3.996  15.494  1.00  0.00     0.000 C 
BRANCH   6   7
ATOM      7  C   UNL     1      18.798  -2.717  14.837  1.00  0.00     0.006 C 
BRANCH   7   8
ATOM      8  C   UNL     1      18.240  -2.489  13.426  1.00  0.00     0.053 C 
BRANCH   8   9
ATOM      9  C   UNL     1      17.649  -1.120  13.309  1.00  0.00     0.041 C 
ATOM     10  O   UNL     1      16.402  -0.974  13.224  1.00  0.00    -0.550 OA
ATOM     11  O   UNL     1      18.476  -0.002  13.284  1.00  0.00    -0.550 OA
ENDBRANCH   8   9
ENDBRANCH   7   8
ENDBRANCH   6   7
ENDBRANCH   5   6
ENDBRANCH   4   5
ENDBRANCH   3   4
ENDBRANCH   2   3
ENDBRANCH   1   2
BRANCH   1  12
ATOM     12  C   UNL     1      14.809  -4.031  14.038  1.00  0.00     0.000 C 
BRANCH  12  13
ATOM     13  C   UNL     1      14.842  -5.502  14.476  1.00  0.00    -0.000 C 
BRANCH  13  14
ATOM     14  C   UNL     1      15.536  -6.418  13.452  1.00  0.00    -0.000 C 
BRANCH  14  15
ATOM     15  C   UNL     1      16.863  -5.878  12.888  1.00  0.00    -0.000 C 
BRANCH  15  16
ATOM     16  C   UNL     1      16.964  -6.007  11.361  1.00  0.00    -0.000 C 
BRANCH  16  17
ATOM     17  C   UNL     1      15.984  -5.051  10.665  1.00  0.00    -0.000 C 
BRANCH  17  18
ATOM     18  C   UNL     1      15.318  -5.679   9.430  1.00  0.00    -0.000 C 
BRANCH  18  19
ATOM     19  C   UNL     1      13.788  -5.743   9.553  1.00  0.00    -0.003 C 
ATOM     20  C   UNL     1      13.303  -4.946  10.761  1.00  0.00     0.004 C 
ENDBRANCH  18  19
ENDBRANCH  17  18
ENDBRANCH  16  17
ENDBRANCH  15  16
ENDBRANCH  14  15
ENDBRANCH  13  14
ENDBRANCH  12  13
ENDBRANCH   1  12
TORSDOF 16
ENDMDL
MODEL 7
REMARK VINA RESULT:    -5.259      2.791      5.312
REMARK INTER + INTRA:         -13.014
REMARK INTER:                 -10.121
REMARK INTRA:                  -2.894
REMARK UNBOUND:                -2.836
REMARK SMILES CCCCCCCCCCCCCCCCCC(=O)[O-]
REMARK SMILES IDX 10 1 11 2 12 3 13 4 14 5 15 6 16 7 17 8 18 9 19 10 20 11
REMARK SMILES IDX 9 12 8 13 7 14 6 15 5 16 4 17 3 18 2 19 1 20
REMARK H PARENT
REMARK Flexibility Score: inf
ROOT
ATOM      1  C   UNL     1      14.008  -1.623  12.626  1.00  0.00     0.000 C 
ENDROOT
BRANCH   1   2
ATOM      2  C   UNL     1      13.894  -3.140  12.410  1.00  0.00     0.000 C 
BRANCH   2   3
ATOM      3  C   UNL     1      13.201  -3.854  13.584  1.00  0.00     0.000 C 
BRANCH   3   4
ATOM      4  C   UNL     1      12.958  -2.911  14.776  1.00  0.00     0.000 C 
BRANCH   4   5
ATOM      5  C   UNL     1      13.690  -3.353  16.064  1.00  0.00     0.000 C 
BRANCH   5   6
ATOM      6  C   UNL     1      14.539  -4.627  15.888  1.00  0.00     0.000 C 
BRANCH   6   7
ATOM      7  C   UNL     1      16.053  -4.417  16.058  1.00  0.00     0.006 C 
BRANCH   7   8
ATOM      8  C   UNL     1      16.408  -2.999  16.521  1.00  0.00     0.053 C 
BRANCH   8   9
ATOM      9  C   UNL     1      17.614  -3.020  17.405  1.00  0.00     0.041 C 
ATOM     10  O   UNL     1      17.482  -3.008  18.657  1.00  0.00    -0.550 OA
ATOM     11  O   UNL     1      18.888  -3.043  16.847  1.00  0.00    -0.550 OA
ENDBRANCH   8   9
ENDBRANCH   7   8
ENDBRANCH   6   7
ENDBRANCH   5   6
ENDBRANCH   4   5
ENDBRANCH   3   4
ENDBRANCH   2   3
ENDBRANCH   1   2
BRANCH   1  12
ATOM     12  C   UNL     1      15.456  -1.117  12.532  1.00  0.00     0.000 C 
BRANCH  12  13
ATOM     13  C   UNL     1      16.450  -2.228  12.897  1.00  0.00    -0.000 C 
BRANCH  13  14
ATOM     14  C   UNL     1      17.796  -1.686  13.412  1.00  0.00    -0.000 C 
BRANCH  14  15
ATOM     15  C   UNL     1      18.994  -2.633  13.224  1.00  0.00    -0.000 C 
BRANCH  15  16
ATOM     16  C   UNL     1      18.625  -4.113  13.401  1.00  0.00    -0.000 C 
BRANCH  16  17
ATOM     17  C   UNL     1      19.087  -4.940  12.192  1.00  0.00    -0.000 C 
BRANCH  17  18
ATOM     18  C   UNL     1      18.126  -6.093  11.858  1.00  0.00    -0.000 C 
BRANCH  18  19
ATOM     19  C   UNL     1      16.664  -5.632  11.759  1.00  0.00    -0.003 C 
ATOM     20  C   UNL     1      15.794  -6.349  12.788  1.00  0.00     0.004 C 
ENDBRANCH  18  19
ENDBRANCH  17  18
ENDBRANCH  16  17
ENDBRANCH  15  16
ENDBRANCH  14  15
ENDBRANCH  13  14
ENDBRANCH  12  13
ENDBRANCH   1  12
TORSDOF 16
ENDMDL
MODEL 8
REMARK VINA RESULT:    -5.259      1.794      5.194
REMARK INTER + INTRA:         -13.013
REMARK INTER:                 -10.032
REMARK INTRA:                  -2.981
REMARK UNBOUND:                -2.836
REMARK SMILES CCCCCCCCCCCCCCCCCC(=O)[O-]
REMARK SMILES IDX 10 1 11 2 12 3 13 4 14 5 15 6 16 7 17 8 18 9 19 10 20 11
REMARK SMILES IDX 9 12 8 13 7 14 6 15 5 16 4 17 3 18 2 19 1 20
REMARK H PARENT
REMARK Flexibility Score: inf
ROOT
ATOM      1  C   UNL     1      14.493  -5.336  16.232  1.00  0.00     0.000 C 
ENDROOT
BRANCH   1   2
ATOM      2  C   UNL     1      15.224  -6.540  15.621  1.00  0.00     0.000 C 
BRANCH   2   3
ATOM      3  C   UNL     1      16.327  -6.123  14.632  1.00  0.00     0.000 C 
BRANCH   3   4
ATOM      4  C   UNL     1      16.113  -6.730  13.233  1.00  0.00     0.000 C 
BRANCH   4   5
ATOM      5  C   UNL     1      15.540  -5.721  12.211  1.00  0.00     0.000 C 
BRANCH   5   6
ATOM      6  C   UNL     1      14.005  -5.766  12.091  1.00  0.00     0.000 C 
BRANCH   6   7
ATOM      7  C   UNL     1      13.279  -4.542  12.674  1.00  0.00     0.006 C 
BRANCH   7   8
ATOM      8  C   UNL     1      14.022  -3.227  12.404  1.00  0.00     0.053 C 
BRANCH   8   9
ATOM      9  C   UNL     1      13.163  -2.055  12.762  1.00  0.00     0.041 C 
ATOM     10  O   UNL     1      12.956  -1.142  11.921  1.00  0.00    -0.550 OA
ATOM     11  O   UNL     1      12.599  -1.965  14.030  1.00  0.00    -0.550 OA
ENDBRANCH   8   9
ENDBRANCH   7   8
ENDBRANCH   6   7
ENDBRANCH   5   6
ENDBRANCH   4   5
ENDBRANCH   3   4
ENDBRANCH   2   3
ENDBRANCH   1   2
BRANCH   1  12
ATOM     12  C   UNL     1      15.179  -3.998  15.910  1.00  0.00     0.000 C 
BRANCH  12  13
ATOM     13  C   UNL     1      15.022  -3.009  17.073  1.00  0.00    -0.000 C 
BRANCH  13  14
ATOM     14  C   UNL     1      16.368  -2.583  17.687  1.00  0.00    -0.000 C 
BRANCH  14  15
ATOM     15  C   UNL     1      17.504  -3.612  17.544  1.00  0.00    -0.000 C 
BRANCH  15  16
ATOM     16  C   UNL     1      18.735  -3.051  16.816  1.00  0.00    -0.000 C 
BRANCH  16  17
ATOM     17  C   UNL     1      18.928  -3.739  15.457  1.00  0.00    -0.000 C 
BRANCH  17  18
ATOM     18  C   UNL     1      18.979  -2.741  14.288  1.00  0.00    -0.000 C 
BRANCH  18  19
ATOM     19  C   UNL     1      17.685  -2.737  13.459  1.00  0.00    -0.003 C 
ATOM     20  C   UNL     1      17.105  -1.329  13.359  1.00  0.00     0.004 C 
ENDBRANCH  18  19
ENDBRANCH  17  18
ENDBRANCH  16  17
ENDBRANCH  15  16
ENDBRANCH  14  15
ENDBRANCH  13  14
ENDBRANCH  12  13
ENDBRANCH   1  12
TORSDOF 16
ENDMDL
MODEL 9
REMARK VINA RESULT:    -5.240      1.496      2.124
REMARK INTER + INTRA:         -12.977
REMARK INTER:                 -10.064
REMARK INTRA:                  -2.913
REMARK UNBOUND:                -2.836
REMARK SMILES CCCCCCCCCCCCCCCCCC(=O)[O-]
REMARK SMILES IDX 10 1 11 2 12 3 13 4 14 5 15 6 16 7 17 8 18 9 19 10 20 11
REMARK SMILES IDX 9 12 8 13 7 14 6 15 5 16 4 17 3 18 2 19 1 20
REMARK H PARENT
REMARK Flexibility Score: inf
ROOT
ATOM      1  C   UNL     1      18.900  -4.505  12.500  1.00  0.00     0.000 C 
ENDROOT
BRANCH   1   2
ATOM      2  C   UNL     1      18.940  -4.415  14.033  1.00  0.00     0.000 C 
BRANCH   2   3
ATOM      3  C   UNL     1      18.598  -3.007  14.552  1.00  0.00     0.000 C 
BRANCH   3   4
ATOM      4  C   UNL     1      18.635  -1.950  13.433  1.00  0.00     0.000 C 
BRANCH   4   5
ATOM      5  C   UNL     1      17.299  -1.190  13.266  1.00  0.00     0.000 C 
BRANCH   5   6
ATOM      6  C   UNL     1      16.064  -2.111  13.226  1.00  0.00     0.000 C 
BRANCH   6   7
ATOM      7  C   UNL     1      14.977  -1.683  12.226  1.00  0.00     0.006 C 
BRANCH   7   8
ATOM      8  C   UNL     1      13.903  -2.759  12.021  1.00  0.00     0.053 C 
BRANCH   8   9
ATOM      9  C   UNL     1      12.855  -2.666  13.084  1.00  0.00     0.041 C 
ATOM     10  O   UNL     1      12.621  -1.565  13.647  1.00  0.00    -0.550 OA
ATOM     11  O   UNL     1      12.141  -3.799  13.462  1.00  0.00    -0.550 OA
ENDBRANCH   8   9
ENDBRANCH   7   8
ENDBRANCH   6   7
ENDBRANCH   5   6
ENDBRANCH   4   5
ENDBRANCH   3   4
ENDBRANCH   2   3
ENDBRANCH   1   2
BRANCH   1  12
ATOM     12  C   UNL     1      18.235  -5.796  11.998  1.00  0.00     0.000 C 
BRANCH  12  13
ATOM     13  C   UNL     1      16.830  -5.510  11.451  1.00  0.00    -0.000 C 
BRANCH  13  14
ATOM     14  C   UNL     1      15.713  -5.851  12.454  1.00  0.00    -0.000 C 
BRANCH  14  15
ATOM     15  C   UNL     1      16.021  -7.027  13.397  1.00  0.00    -0.000 C 
BRANCH  15  16
ATOM     16  C   UNL     1      15.274  -6.936  14.736  1.00  0.00    -0.000 C 
BRANCH  16  17
ATOM     17  C   UNL     1      14.874  -5.485  15.043  1.00  0.00    -0.000 C 
BRANCH  17  18
ATOM     18  C   UNL     1      15.833  -4.800  16.029  1.00  0.00    -0.000 C 
BRANCH  18  19
ATOM     19  C   UNL     1      15.265  -3.487  16.588  1.00  0.00    -0.003 C 
ATOM     20  C   UNL     1      13.740  -3.509  16.593  1.00  0.00     0.004 C 
ENDBRANCH  18  19
ENDBRANCH  17  18
ENDBRANCH  16  17
ENDBRANCH  15  16
ENDBRANCH  14  15
ENDBRANCH  13  14
ENDBRANCH  12  13
ENDBRANCH   1  12
TORSDOF 16
ENDMDL
