MODEL 1
REMARK VINA RESULT:    -5.550      0.000      0.000
REMARK INTER + INTRA:          -6.959
REMARK INTER:                  -6.686
REMARK INTRA:                  -0.273
REMARK UNBOUND:                -0.273
REMARK SMILES O=c1c(O)c(-c2ccc(O)c(O)c2)oc2cc(O)cc(O)c12
REMARK SMILES IDX 5 1 3 2 2 3 1 4 22 5 20 6 19 7 17 8 16 9 15 10 14 11 6 12
REMARK SMILES IDX 7 13 8 14 9 15 13 16 11 17 10 18 12 20 4 22 21 24 18 26
REMARK H PARENT 10 19 12 21 4 23 21 25 18 27
REMARK Flexibility Score: inf
ROOT
ATOM      1  C   UNL     1      -7.549  83.601  -8.696  1.00  0.00     0.180 A 
ATOM      2  C   UNL     1      -7.949  84.943  -8.578  1.00  0.00     0.208 A 
ATOM      3  C   UNL     1      -9.311  85.261  -8.700  1.00  0.00     0.238 A 
ATOM      4  O   UNL     1      -9.669  86.457  -8.540  1.00  0.00    -0.285 OA
ATOM      5  C   UNL     1     -10.253  84.236  -8.954  1.00  0.00     0.111 A 
ATOM      6  C   UNL     1     -11.654  84.448  -9.136  1.00  0.00     0.134 A 
ATOM      7  C   UNL     1     -12.510  83.347  -9.253  1.00  0.00     0.093 A 
ATOM      8  C   UNL     1     -12.009  82.043  -9.259  1.00  0.00     0.123 A 
ATOM      9  C   UNL     1     -10.638  81.827  -9.142  1.00  0.00     0.094 A 
ATOM     10  C   UNL     1      -9.763  82.905  -8.988  1.00  0.00     0.146 A 
ATOM     11  O   UNL     1      -8.463  82.654  -8.868  1.00  0.00    -0.452 OA
ENDROOT
BRANCH   1  12
ATOM     12  C   UNL     1      -6.128  83.190  -8.603  1.00  0.00     0.025 A 
ATOM     13  C   UNL     1      -5.469  83.122  -7.365  1.00  0.00     0.016 A 
ATOM     14  C   UNL     1      -4.123  82.756  -7.304  1.00  0.00     0.051 A 
ATOM     15  C   UNL     1      -3.407  82.464  -8.470  1.00  0.00     0.157 A 
ATOM     16  C   UNL     1      -5.408  82.920  -9.776  1.00  0.00     0.062 A 
ATOM     17  C   UNL     1      -4.058  82.551  -9.724  1.00  0.00     0.158 A 
BRANCH  15  18
ATOM     18  O   UNL     1      -2.065  82.100  -8.340  1.00  0.00    -0.504 OA
ATOM     19  H   UNL     1      -1.330  82.421  -8.954  1.00  0.00     0.293 HD
ENDBRANCH  15  18
BRANCH  17  20
ATOM     20  O   UNL     1      -3.408  82.285 -10.931  1.00  0.00    -0.504 OA
ATOM     21  H   UNL     1      -3.829  82.414 -11.840  1.00  0.00     0.293 HD
ENDBRANCH  17  20
ENDBRANCH   1  12
BRANCH   2  22
ATOM     22  O   UNL     1      -7.005  85.937  -8.305  1.00  0.00    -0.502 OA
ATOM     23  H   UNL     1      -7.202  86.922  -8.425  1.00  0.00     0.293 HD
ENDBRANCH   2  22
BRANCH   6  24
ATOM     24  O   UNL     1     -12.244  85.712  -9.237  1.00  0.00    -0.507 OA
ATOM     25  H   UNL     1     -13.158  85.890  -9.622  1.00  0.00     0.293 HD
ENDBRANCH   6  24
BRANCH   8  26
ATOM     26  O   UNL     1     -12.867  80.953  -9.390  1.00  0.00    -0.508 OA
ATOM     27  H   UNL     1     -12.554  80.076  -9.790  1.00  0.00     0.293 HD
ENDBRANCH   8  26
TORSDOF 6
ENDMDL
MODEL 2
REMARK VINA RESULT:    -5.539      9.731     11.617
REMARK INTER + INTRA:          -6.945
REMARK INTER:                  -6.804
REMARK INTRA:                  -0.141
REMARK UNBOUND:                -0.273
REMARK SMILES O=c1c(O)c(-c2ccc(O)c(O)c2)oc2cc(O)cc(O)c12
REMARK SMILES IDX 5 1 3 2 2 3 1 4 22 5 20 6 19 7 17 8 16 9 15 10 14 11 6 12
REMARK SMILES IDX 7 13 8 14 9 15 13 16 11 17 10 18 12 20 4 22 21 24 18 26
REMARK H PARENT 10 19 12 21 4 23 21 25 18 27
REMARK Flexibility Score: inf
ROOT
ATOM      1  C   UNL     1      -4.467  91.177 -14.797  1.00  0.00     0.180 A 
ATOM      2  C   UNL     1      -5.069  90.044 -14.224  1.00  0.00     0.208 A 
ATOM      3  C   UNL     1      -5.312  90.028 -12.841  1.00  0.00     0.238 A 
ATOM      4  O   UNL     1      -5.901  89.034 -12.342  1.00  0.00    -0.285 OA
ATOM      5  C   UNL     1      -4.937  91.138 -12.047  1.00  0.00     0.111 A 
ATOM      6  C   UNL     1      -5.100  91.214 -10.630  1.00  0.00     0.134 A 
ATOM      7  C   UNL     1      -4.813  92.412  -9.965  1.00  0.00     0.093 A 
ATOM      8  C   UNL     1      -4.307  93.516 -10.656  1.00  0.00     0.123 A 
ATOM      9  C   UNL     1      -4.088  93.433 -12.029  1.00  0.00     0.094 A 
ATOM     10  C   UNL     1      -4.400  92.262 -12.726  1.00  0.00     0.146 A 
ATOM     11  O   UNL     1      -4.186  92.229 -14.036  1.00  0.00    -0.452 OA
ENDROOT
BRANCH   1  12
ATOM     12  C   UNL     1      -4.156  91.258 -16.243  1.00  0.00     0.025 A 
ATOM     13  C   UNL     1      -2.835  91.398 -16.698  1.00  0.00     0.016 A 
ATOM     14  C   UNL     1      -2.568  91.498 -18.065  1.00  0.00     0.051 A 
ATOM     15  C   UNL     1      -3.608  91.473 -19.000  1.00  0.00     0.157 A 
ATOM     16  C   UNL     1      -5.203  91.255 -17.177  1.00  0.00     0.062 A 
ATOM     17  C   UNL     1      -4.944  91.353 -18.550  1.00  0.00     0.158 A 
BRANCH  15  18
ATOM     18  O   UNL     1      -3.273  91.572 -20.353  1.00  0.00    -0.504 OA
ATOM     19  H   UNL     1      -3.887  91.302 -21.108  1.00  0.00     0.293 HD
ENDBRANCH  15  18
BRANCH  17  20
ATOM     20  O   UNL     1      -6.034  91.331 -19.421  1.00  0.00    -0.504 OA
ATOM     21  H   UNL     1      -6.351  90.505 -19.910  1.00  0.00     0.293 HD
ENDBRANCH  17  20
ENDBRANCH   1  12
BRANCH   2  22
ATOM     22  O   UNL     1      -5.452  88.968 -15.029  1.00  0.00    -0.502 OA
ATOM     23  H   UNL     1      -4.836  88.560 -15.721  1.00  0.00     0.293 HD
ENDBRANCH   2  22
BRANCH   6  24
ATOM     24  O   UNL     1      -5.510  90.141  -9.834  1.00  0.00    -0.507 OA
ATOM     25  H   UNL     1      -6.155  90.211  -9.062  1.00  0.00     0.293 HD
ENDBRANCH   6  24
BRANCH   8  26
ATOM     26  O   UNL     1      -4.009  94.700  -9.984  1.00  0.00    -0.508 OA
ATOM     27  H   UNL     1      -4.464  95.573 -10.222  1.00  0.00     0.293 HD
ENDBRANCH   8  26
TORSDOF 6
ENDMDL
MODEL 3
REMARK VINA RESULT:    -5.535      9.912     11.833
REMARK INTER + INTRA:          -6.941
REMARK INTER:                  -7.190
REMARK INTRA:                   0.249
REMARK UNBOUND:                -0.273
REMARK SMILES O=c1c(O)c(-c2ccc(O)c(O)c2)oc2cc(O)cc(O)c12
REMARK SMILES IDX 5 1 3 2 2 3 1 4 22 5 20 6 19 7 17 8 16 9 15 10 14 11 6 12
REMARK SMILES IDX 7 13 8 14 9 15 13 16 11 17 10 18 12 20 4 22 21 24 18 26
REMARK H PARENT 10 19 12 21 4 23 21 25 18 27
REMARK Flexibility Score: inf
ROOT
ATOM      1  C   UNL     1      -5.249  90.459 -15.263  1.00  0.00     0.180 A 
ATOM      2  C   UNL     1      -3.844  90.457 -15.238  1.00  0.00     0.208 A 
ATOM      3  C   UNL     1      -3.143  90.996 -16.328  1.00  0.00     0.238 A 
ATOM      4  O   UNL     1      -1.886  91.041 -16.276  1.00  0.00    -0.285 OA
ATOM      5  C   UNL     1      -3.854  91.517 -17.436  1.00  0.00     0.111 A 
ATOM      6  C   UNL     1      -3.246  92.051 -18.612  1.00  0.00     0.134 A 
ATOM      7  C   UNL     1      -4.046  92.656 -19.589  1.00  0.00     0.093 A 
ATOM      8  C   UNL     1      -5.437  92.688 -19.463  1.00  0.00     0.123 A 
ATOM      9  C   UNL     1      -6.044  92.117 -18.347  1.00  0.00     0.094 A 
ATOM     10  C   UNL     1      -5.270  91.538 -17.339  1.00  0.00     0.146 A 
ATOM     11  O   UNL     1      -5.888  91.013 -16.286  1.00  0.00    -0.452 OA
ENDROOT
BRANCH   1  12
ATOM     12  C   UNL     1      -6.058  89.887 -14.162  1.00  0.00     0.025 A 
ATOM     13  C   UNL     1      -5.617  89.938 -12.830  1.00  0.00     0.016 A 
ATOM     14  C   UNL     1      -6.385  89.370 -11.812  1.00  0.00     0.051 A 
ATOM     15  C   UNL     1      -7.596  88.732 -12.101  1.00  0.00     0.157 A 
ATOM     16  C   UNL     1      -7.261  89.228 -14.458  1.00  0.00     0.062 A 
ATOM     17  C   UNL     1      -8.039  88.657 -13.443  1.00  0.00     0.158 A 
BRANCH  15  18
ATOM     18  O   UNL     1      -8.319  88.188 -11.036  1.00  0.00    -0.504 OA
ATOM     19  H   UNL     1      -8.875  87.348 -11.102  1.00  0.00     0.293 HD
ENDBRANCH  15  18
BRANCH  17  20
ATOM     20  O   UNL     1      -9.230  88.028 -13.810  1.00  0.00    -0.504 OA
ATOM     21  H   UNL     1      -9.771  88.276 -14.626  1.00  0.00     0.293 HD
ENDBRANCH  17  20
ENDBRANCH   1  12
BRANCH   2  22
ATOM     22  O   UNL     1      -3.161  89.959 -14.125  1.00  0.00    -0.502 OA
ATOM     23  H   UNL     1      -2.468  89.225 -14.196  1.00  0.00     0.293 HD
ENDBRANCH   2  22
BRANCH   6  24
ATOM     24  O   UNL     1      -1.875  91.987 -18.879  1.00  0.00    -0.507 OA
ATOM     25  H   UNL     1      -1.432  91.283 -19.447  1.00  0.00     0.293 HD
ENDBRANCH   6  24
BRANCH   8  26
ATOM     26  O   UNL     1      -6.226  93.280 -20.447  1.00  0.00    -0.508 OA
ATOM     27  H   UNL     1      -6.224  94.282 -20.597  1.00  0.00     0.293 HD
ENDBRANCH   8  26
TORSDOF 6
ENDMDL
MODEL 4
REMARK VINA RESULT:    -5.522      8.023     11.309
REMARK INTER + INTRA:          -6.925
REMARK INTER:                  -6.666
REMARK INTRA:                  -0.260
REMARK UNBOUND:                -0.273
REMARK SMILES O=c1c(O)c(-c2ccc(O)c(O)c2)oc2cc(O)cc(O)c12
REMARK SMILES IDX 5 1 3 2 2 3 1 4 22 5 20 6 19 7 17 8 16 9 15 10 14 11 6 12
REMARK SMILES IDX 7 13 8 14 9 15 13 16 11 17 10 18 12 20 4 22 21 24 18 26
REMARK H PARENT 10 19 12 21 4 23 21 25 18 27
REMARK Flexibility Score: inf
ROOT
ATOM      1  C   UNL     1      -8.394  90.280 -13.779  1.00  0.00     0.180 A 
ATOM      2  C   UNL     1      -7.521  89.347 -13.193  1.00  0.00     0.208 A 
ATOM      3  C   UNL     1      -6.139  89.480 -13.407  1.00  0.00     0.238 A 
ATOM      4  O   UNL     1      -5.360  88.674 -12.835  1.00  0.00    -0.285 OA
ATOM      5  C   UNL     1      -5.649  90.534 -14.215  1.00  0.00     0.111 A 
ATOM      6  C   UNL     1      -4.272  90.741 -14.530  1.00  0.00     0.134 A 
ATOM      7  C   UNL     1      -3.890  91.891 -15.232  1.00  0.00     0.093 A 
ATOM      8  C   UNL     1      -4.842  92.808 -15.685  1.00  0.00     0.123 A 
ATOM      9  C   UNL     1      -6.193  92.585 -15.433  1.00  0.00     0.094 A 
ATOM     10  C   UNL     1      -6.602  91.465 -14.704  1.00  0.00     0.146 A 
ATOM     11  O   UNL     1      -7.900  91.295 -14.478  1.00  0.00    -0.452 OA
ENDROOT
BRANCH   1  12
ATOM     12  C   UNL     1      -9.864  90.192 -13.620  1.00  0.00     0.025 A 
ATOM     13  C   UNL     1     -10.609  89.194 -14.269  1.00  0.00     0.016 A 
ATOM     14  C   UNL     1     -11.997  89.146 -14.124  1.00  0.00     0.051 A 
ATOM     15  C   UNL     1     -12.668  90.093 -13.344  1.00  0.00     0.157 A 
ATOM     16  C   UNL     1     -10.536  91.157 -12.855  1.00  0.00     0.062 A 
ATOM     17  C   UNL     1     -11.928  91.115 -12.704  1.00  0.00     0.158 A 
BRANCH  15  18
ATOM     18  O   UNL     1     -14.057  89.986 -13.237  1.00  0.00    -0.504 OA
ATOM     19  H   UNL     1     -14.572  89.133 -13.399  1.00  0.00     0.293 HD
ENDBRANCH  15  18
BRANCH  17  20
ATOM     20  O   UNL     1     -12.528  92.101 -11.918  1.00  0.00    -0.504 OA
ATOM     21  H   UNL     1     -13.415  91.988 -11.449  1.00  0.00     0.293 HD
ENDBRANCH  17  20
ENDBRANCH   1  12
BRANCH   2  22
ATOM     22  O   UNL     1      -8.023  88.327 -12.381  1.00  0.00    -0.502 OA
ATOM     23  H   UNL     1      -7.423  87.678 -11.888  1.00  0.00     0.293 HD
ENDBRANCH   2  22
BRANCH   6  24
ATOM     24  O   UNL     1      -3.254  89.840 -14.205  1.00  0.00    -0.507 OA
ATOM     25  H   UNL     1      -2.470  89.618 -14.800  1.00  0.00     0.293 HD
ENDBRANCH   6  24
BRANCH   8  26
ATOM     26  O   UNL     1      -4.453  93.942 -16.395  1.00  0.00    -0.508 OA
ATOM     27  H   UNL     1      -5.052  94.757 -16.461  1.00  0.00     0.293 HD
ENDBRANCH   8  26
TORSDOF 6
ENDMDL
MODEL 5
REMARK VINA RESULT:    -5.454      1.580      3.385
REMARK INTER + INTRA:          -6.843
REMARK INTER:                  -6.507
REMARK INTRA:                  -0.335
REMARK UNBOUND:                -0.273
REMARK SMILES O=c1c(O)c(-c2ccc(O)c(O)c2)oc2cc(O)cc(O)c12
REMARK SMILES IDX 5 1 3 2 2 3 1 4 22 5 20 6 19 7 17 8 16 9 15 10 14 11 6 12
REMARK SMILES IDX 7 13 8 14 9 15 13 16 11 17 10 18 12 20 4 22 21 24 18 26
REMARK H PARENT 10 19 12 21 4 23 21 25 18 27
REMARK Flexibility Score: inf
ROOT
ATOM      1  C   UNL     1      -9.492  83.420  -8.720  1.00  0.00     0.180 A 
ATOM      2  C   UNL     1     -10.322  82.285  -8.713  1.00  0.00     0.208 A 
ATOM      3  C   UNL     1     -11.696  82.445  -8.955  1.00  0.00     0.238 A 
ATOM      4  O   UNL     1     -12.424  81.420  -9.002  1.00  0.00    -0.285 OA
ATOM      5  C   UNL     1     -12.225  83.738  -9.187  1.00  0.00     0.111 A 
ATOM      6  C   UNL     1     -13.608  84.021  -9.404  1.00  0.00     0.134 A 
ATOM      7  C   UNL     1     -14.000  85.319  -9.752  1.00  0.00     0.093 A 
ATOM      8  C   UNL     1     -13.068  86.357  -9.825  1.00  0.00     0.123 A 
ATOM      9  C   UNL     1     -11.726  86.104  -9.557  1.00  0.00     0.094 A 
ATOM     10  C   UNL     1     -11.299  84.811  -9.243  1.00  0.00     0.146 A 
ATOM     11  O   UNL     1     -10.007  84.610  -9.005  1.00  0.00    -0.452 OA
ENDROOT
BRANCH   1  12
ATOM     12  C   UNL     1      -8.039  83.336  -8.448  1.00  0.00     0.025 A 
ATOM     13  C   UNL     1      -7.534  83.429  -7.141  1.00  0.00     0.016 A 
ATOM     14  C   UNL     1      -6.158  83.372  -6.911  1.00  0.00     0.051 A 
ATOM     15  C   UNL     1      -5.261  83.233  -7.976  1.00  0.00     0.157 A 
ATOM     16  C   UNL     1      -7.140  83.219  -9.519  1.00  0.00     0.062 A 
ATOM     17  C   UNL     1      -5.758  83.160  -9.298  1.00  0.00     0.158 A 
BRANCH  15  18
ATOM     18  O   UNL     1      -3.897  83.178  -7.678  1.00  0.00    -0.504 OA
ATOM     19  H   UNL     1      -3.164  83.296  -8.362  1.00  0.00     0.293 HD
ENDBRANCH  15  18
BRANCH  17  20
ATOM     20  O   UNL     1      -4.925  83.031 -10.411  1.00  0.00    -0.504 OA
ATOM     21  H   UNL     1      -4.507  82.160 -10.707  1.00  0.00     0.293 HD
ENDBRANCH  17  20
ENDBRANCH   1  12
BRANCH   2  22
ATOM     22  O   UNL     1      -9.776  81.016  -8.504  1.00  0.00    -0.502 OA
ATOM     23  H   UNL     1      -9.202  80.796  -7.700  1.00  0.00     0.293 HD
ENDBRANCH   2  22
BRANCH   6  24
ATOM     24  O   UNL     1     -14.628  83.076  -9.265  1.00  0.00    -0.507 OA
ATOM     25  H   UNL     1     -14.634  82.167  -9.702  1.00  0.00     0.293 HD
ENDBRANCH   6  24
BRANCH   8  26
ATOM     26  O   UNL     1     -13.470  87.650 -10.158  1.00  0.00    -0.508 OA
ATOM     27  H   UNL     1     -12.798  88.394 -10.299  1.00  0.00     0.293 HD
ENDBRANCH   8  26
TORSDOF 6
ENDMDL
MODEL 6
REMARK VINA RESULT:    -5.325      1.816      2.300
REMARK INTER + INTRA:          -6.688
REMARK INTER:                  -6.364
REMARK INTRA:                  -0.324
REMARK UNBOUND:                -0.273
REMARK SMILES O=c1c(O)c(-c2ccc(O)c(O)c2)oc2cc(O)cc(O)c12
REMARK SMILES IDX 5 1 3 2 2 3 1 4 22 5 20 6 19 7 17 8 16 9 15 10 14 11 6 12
REMARK SMILES IDX 7 13 8 14 9 15 13 16 11 17 10 18 12 20 4 22 21 24 18 26
REMARK H PARENT 10 19 12 21 4 23 21 25 18 27
REMARK Flexibility Score: inf
ROOT
ATOM      1  C   UNL     1      -8.590  83.182  -8.331  1.00  0.00     0.180 A 
ATOM      2  C   UNL     1      -9.547  84.066  -8.860  1.00  0.00     0.208 A 
ATOM      3  C   UNL     1     -10.906  83.725  -8.779  1.00  0.00     0.238 A 
ATOM      4  O   UNL     1     -11.761  84.545  -9.205  1.00  0.00    -0.285 OA
ATOM      5  C   UNL     1     -11.292  82.500  -8.184  1.00  0.00     0.111 A 
ATOM      6  C   UNL     1     -12.639  82.035  -8.085  1.00  0.00     0.134 A 
ATOM      7  C   UNL     1     -12.915  80.868  -7.361  1.00  0.00     0.093 A 
ATOM      8  C   UNL     1     -11.886  80.115  -6.790  1.00  0.00     0.123 A 
ATOM      9  C   UNL     1     -10.564  80.528  -6.932  1.00  0.00     0.094 A 
ATOM     10  C   UNL     1     -10.260  81.707  -7.618  1.00  0.00     0.146 A 
ATOM     11  O   UNL     1      -8.987  82.071  -7.721  1.00  0.00    -0.452 OA
ENDROOT
BRANCH   1  12
ATOM     12  C   UNL     1      -7.137  83.459  -8.400  1.00  0.00     0.025 A 
ATOM     13  C   UNL     1      -6.485  84.190  -7.394  1.00  0.00     0.016 A 
ATOM     14  C   UNL     1      -5.119  84.461  -7.492  1.00  0.00     0.051 A 
ATOM     15  C   UNL     1      -4.381  84.021  -8.596  1.00  0.00     0.157 A 
ATOM     16  C   UNL     1      -6.404  83.036  -9.519  1.00  0.00     0.062 A 
ATOM     17  C   UNL     1      -5.033  83.301  -9.625  1.00  0.00     0.158 A 
BRANCH  15  18
ATOM     18  O   UNL     1      -3.017  84.320  -8.632  1.00  0.00    -0.504 OA
ATOM     19  H   UNL     1      -2.646  85.257  -8.703  1.00  0.00     0.293 HD
ENDBRANCH  15  18
BRANCH  17  20
ATOM     20  O   UNL     1      -4.366  82.839 -10.761  1.00  0.00    -0.504 OA
ATOM     21  H   UNL     1      -4.334  83.336 -11.640  1.00  0.00     0.293 HD
ENDBRANCH  17  20
ENDBRANCH   1  12
BRANCH   2  22
ATOM     22  O   UNL     1      -9.146  85.281  -9.422  1.00  0.00    -0.502 OA
ATOM     23  H   UNL     1      -8.756  85.347 -10.353  1.00  0.00     0.293 HD
ENDBRANCH   2  22
BRANCH   6  24
ATOM     24  O   UNL     1     -13.727  82.663  -8.697  1.00  0.00    -0.507 OA
ATOM     25  H   UNL     1     -14.029  82.497  -9.645  1.00  0.00     0.293 HD
ENDBRANCH   6  24
BRANCH   8  26
ATOM     26  O   UNL     1     -12.169  78.947  -6.084  1.00  0.00    -0.508 OA
ATOM     27  H   UNL     1     -11.839  78.043  -6.402  1.00  0.00     0.293 HD
ENDBRANCH   8  26
TORSDOF 6
ENDMDL
MODEL 7
REMARK VINA RESULT:    -5.272      9.421     11.162
REMARK INTER + INTRA:          -6.624
REMARK INTER:                  -6.335
REMARK INTRA:                  -0.288
REMARK UNBOUND:                -0.273
REMARK SMILES O=c1c(O)c(-c2ccc(O)c(O)c2)oc2cc(O)cc(O)c12
REMARK SMILES IDX 5 1 3 2 2 3 1 4 22 5 20 6 19 7 17 8 16 9 15 10 14 11 6 12
REMARK SMILES IDX 7 13 8 14 9 15 13 16 11 17 10 18 12 20 4 22 21 24 18 26
REMARK H PARENT 10 19 12 21 4 23 21 25 18 27
REMARK Flexibility Score: inf
ROOT
ATOM      1  C   UNL     1      -5.251  90.755 -14.399  1.00  0.00     0.180 A 
ATOM      2  C   UNL     1      -4.010  90.453 -14.984  1.00  0.00     0.208 A 
ATOM      3  C   UNL     1      -3.779  90.821 -16.319  1.00  0.00     0.238 A 
ATOM      4  O   UNL     1      -2.647  90.597 -16.821  1.00  0.00    -0.285 OA
ATOM      5  C   UNL     1      -4.797  91.473 -17.057  1.00  0.00     0.111 A 
ATOM      6  C   UNL     1      -4.686  91.856 -18.428  1.00  0.00     0.134 A 
ATOM      7  C   UNL     1      -5.707  92.611 -19.019  1.00  0.00     0.093 A 
ATOM      8  C   UNL     1      -6.863  92.940 -18.306  1.00  0.00     0.123 A 
ATOM      9  C   UNL     1      -7.007  92.521 -16.986  1.00  0.00     0.094 A 
ATOM     10  C   UNL     1      -5.989  91.797 -16.359  1.00  0.00     0.146 A 
ATOM     11  O   UNL     1      -6.162  91.425 -15.095  1.00  0.00    -0.452 OA
ENDROOT
BRANCH   1  12
ATOM     12  C   UNL     1      -5.578  90.377 -13.004  1.00  0.00     0.025 A 
ATOM     13  C   UNL     1      -5.097  91.121 -11.915  1.00  0.00     0.016 A 
ATOM     14  C   UNL     1      -5.398  90.733 -10.609  1.00  0.00     0.051 A 
ATOM     15  C   UNL     1      -6.170  89.593 -10.362  1.00  0.00     0.157 A 
ATOM     16  C   UNL     1      -6.334  89.221 -12.760  1.00  0.00     0.062 A 
ATOM     17  C   UNL     1      -6.642  88.824 -11.452  1.00  0.00     0.158 A 
BRANCH  15  18
ATOM     18  O   UNL     1      -6.439  89.261  -9.032  1.00  0.00    -0.504 OA
ATOM     19  H   UNL     1      -6.363  89.909  -8.261  1.00  0.00     0.293 HD
ENDBRANCH  15  18
BRANCH  17  20
ATOM     20  O   UNL     1      -7.409  87.670 -11.285  1.00  0.00    -0.504 OA
ATOM     21  H   UNL     1      -8.396  87.612 -11.494  1.00  0.00     0.293 HD
ENDBRANCH  17  20
ENDBRANCH   1  12
BRANCH   2  22
ATOM     22  O   UNL     1      -3.011  89.829 -14.232  1.00  0.00    -0.502 OA
ATOM     23  H   UNL     1      -2.989  88.829 -14.079  1.00  0.00     0.293 HD
ENDBRANCH   2  22
BRANCH   6  24
ATOM     24  O   UNL     1      -3.616  91.499 -19.253  1.00  0.00    -0.507 OA
ATOM     25  H   UNL     1      -3.251  90.564 -19.349  1.00  0.00     0.293 HD
ENDBRANCH   6  24
BRANCH   8  26
ATOM     26  O   UNL     1      -7.881  93.679 -18.906  1.00  0.00    -0.508 OA
ATOM     27  H   UNL     1      -8.253  94.517 -18.475  1.00  0.00     0.293 HD
ENDBRANCH   8  26
TORSDOF 6
ENDMDL
MODEL 8
REMARK VINA RESULT:    -5.202      4.553      7.885
REMARK INTER + INTRA:          -6.540
REMARK INTER:                  -6.238
REMARK INTRA:                  -0.302
REMARK UNBOUND:                -0.273
REMARK SMILES O=c1c(O)c(-c2ccc(O)c(O)c2)oc2cc(O)cc(O)c12
REMARK SMILES IDX 5 1 3 2 2 3 1 4 22 5 20 6 19 7 17 8 16 9 15 10 14 11 6 12
REMARK SMILES IDX 7 13 8 14 9 15 13 16 11 17 10 18 12 20 4 22 21 24 18 26
REMARK H PARENT 10 19 12 21 4 23 21 25 18 27
REMARK Flexibility Score: inf
ROOT
ATOM      1  C   UNL     1      -4.771  87.983  -8.125  1.00  0.00     0.180 A 
ATOM      2  C   UNL     1      -3.589  87.841  -7.378  1.00  0.00     0.208 A 
ATOM      3  C   UNL     1      -2.962  86.586  -7.329  1.00  0.00     0.238 A 
ATOM      4  O   UNL     1      -1.875  86.478  -6.704  1.00  0.00    -0.285 OA
ATOM      5  C   UNL     1      -3.532  85.486  -8.014  1.00  0.00     0.111 A 
ATOM      6  C   UNL     1      -3.003  84.159  -8.000  1.00  0.00     0.134 A 
ATOM      7  C   UNL     1      -3.577  83.179  -8.818  1.00  0.00     0.093 A 
ATOM      8  C   UNL     1      -4.700  83.460  -9.600  1.00  0.00     0.123 A 
ATOM      9  C   UNL     1      -5.259  84.735  -9.576  1.00  0.00     0.094 A 
ATOM     10  C   UNL     1      -4.687  85.744  -8.796  1.00  0.00     0.146 A 
ATOM     11  O   UNL     1      -5.246  86.949  -8.810  1.00  0.00    -0.452 OA
ENDROOT
BRANCH   1  12
ATOM     12  C   UNL     1      -5.504  89.268  -8.205  1.00  0.00     0.025 A 
ATOM     13  C   UNL     1      -6.641  89.510  -7.418  1.00  0.00     0.016 A 
ATOM     14  C   UNL     1      -7.330  90.719  -7.528  1.00  0.00     0.051 A 
ATOM     15  C   UNL     1      -6.908  91.702  -8.430  1.00  0.00     0.157 A 
ATOM     16  C   UNL     1      -5.092  90.244  -9.126  1.00  0.00     0.062 A 
ATOM     17  C   UNL     1      -5.776  91.460  -9.242  1.00  0.00     0.158 A 
BRANCH  15  18
ATOM     18  O   UNL     1      -7.639  92.892  -8.488  1.00  0.00    -0.504 OA
ATOM     19  H   UNL     1      -7.908  93.430  -7.677  1.00  0.00     0.293 HD
ENDBRANCH  15  18
BRANCH  17  20
ATOM     20  O   UNL     1      -5.301  92.388 -10.171  1.00  0.00    -0.504 OA
ATOM     21  H   UNL     1      -5.448  93.385 -10.099  1.00  0.00     0.293 HD
ENDBRANCH  17  20
ENDBRANCH   1  12
BRANCH   2  22
ATOM     22  O   UNL     1      -3.031  88.945  -6.728  1.00  0.00    -0.502 OA
ATOM     23  H   UNL     1      -2.161  89.369  -7.026  1.00  0.00     0.293 HD
ENDBRANCH   2  22
BRANCH   6  24
ATOM     24  O   UNL     1      -1.943  83.752  -7.185  1.00  0.00    -0.507 OA
ATOM     25  H   UNL     1      -1.501  84.327  -6.485  1.00  0.00     0.293 HD
ENDBRANCH   6  24
BRANCH   8  26
ATOM     26  O   UNL     1      -5.273  82.474 -10.401  1.00  0.00    -0.508 OA
ATOM     27  H   UNL     1      -5.364  81.517 -10.080  1.00  0.00     0.293 HD
ENDBRANCH   8  26
TORSDOF 6
ENDMDL
MODEL 9
REMARK VINA RESULT:    -5.163      8.907     10.438
REMARK INTER + INTRA:          -6.493
REMARK INTER:                  -6.175
REMARK INTRA:                  -0.317
REMARK UNBOUND:                -0.273
REMARK SMILES O=c1c(O)c(-c2ccc(O)c(O)c2)oc2cc(O)cc(O)c12
REMARK SMILES IDX 5 1 3 2 2 3 1 4 22 5 20 6 19 7 17 8 16 9 15 10 14 11 6 12
REMARK SMILES IDX 7 13 8 14 9 15 13 16 11 17 10 18 12 20 4 22 21 24 18 26
REMARK H PARENT 10 19 12 21 4 23 21 25 18 27
REMARK Flexibility Score: inf
ROOT
ATOM      1  C   UNL     1      -5.399  91.189 -14.414  1.00  0.00     0.180 A 
ATOM      2  C   UNL     1      -4.842  92.099 -13.499  1.00  0.00     0.208 A 
ATOM      3  C   UNL     1      -4.937  91.826 -12.125  1.00  0.00     0.238 A 
ATOM      4  O   UNL     1      -4.389  92.617 -11.313  1.00  0.00    -0.285 OA
ATOM      5  C   UNL     1      -5.599  90.656 -11.683  1.00  0.00     0.111 A 
ATOM      6  C   UNL     1      -5.789  90.300 -10.313  1.00  0.00     0.134 A 
ATOM      7  C   UNL     1      -6.344  89.055  -9.994  1.00  0.00     0.093 A 
ATOM      8  C   UNL     1      -6.776  88.181 -10.995  1.00  0.00     0.123 A 
ATOM      9  C   UNL     1      -6.650  88.544 -12.333  1.00  0.00     0.094 A 
ATOM     10  C   UNL     1      -6.067  89.765 -12.683  1.00  0.00     0.146 A 
ATOM     11  O   UNL     1      -5.956  90.068 -13.972  1.00  0.00    -0.452 OA
ENDROOT
BRANCH   1  12
ATOM     12  C   UNL     1      -5.360  91.419 -15.877  1.00  0.00     0.025 A 
ATOM     13  C   UNL     1      -6.446  91.999 -16.553  1.00  0.00     0.016 A 
ATOM     14  C   UNL     1      -6.398  92.184 -17.936  1.00  0.00     0.051 A 
ATOM     15  C   UNL     1      -5.276  91.785 -18.671  1.00  0.00     0.157 A 
ATOM     16  C   UNL     1      -4.244  90.998 -16.615  1.00  0.00     0.062 A 
ATOM     17  C   UNL     1      -4.186  91.181 -18.002  1.00  0.00     0.158 A 
BRANCH  15  18
ATOM     18  O   UNL     1      -5.289  92.002 -20.051  1.00  0.00    -0.504 OA
ATOM     19  H   UNL     1      -4.457  92.111 -20.613  1.00  0.00     0.293 HD
ENDBRANCH  15  18
BRANCH  17  20
ATOM     20  O   UNL     1      -3.038  90.748 -18.669  1.00  0.00    -0.504 OA
ATOM     21  H   UNL     1      -2.332  90.157 -18.253  1.00  0.00     0.293 HD
ENDBRANCH  17  20
ENDBRANCH   1  12
BRANCH   2  22
ATOM     22  O   UNL     1      -4.173  93.237 -13.957  1.00  0.00    -0.502 OA
ATOM     23  H   UNL     1      -3.434  93.684 -13.428  1.00  0.00     0.293 HD
ENDBRANCH   2  22
BRANCH   6  24
ATOM     24  O   UNL     1      -5.477  91.138  -9.239  1.00  0.00    -0.507 OA
ATOM     25  H   UNL     1      -5.829  91.027  -8.301  1.00  0.00     0.293 HD
ENDBRANCH   6  24
BRANCH   8  26
ATOM     26  O   UNL     1      -7.342  86.950 -10.668  1.00  0.00    -0.508 OA
ATOM     27  H   UNL     1      -7.404  86.633  -9.707  1.00  0.00     0.293 HD
ENDBRANCH   8  26
TORSDOF 6
ENDMDL
