MODEL 1
REMARK VINA RESULT:    -4.391      0.000      0.000
REMARK INTER + INTRA:          -7.435
REMARK INTER:                  -6.958
REMARK INTRA:                  -0.477
REMARK UNBOUND:                -0.477
REMARK SMILES CCCCCCCCCCCC(=O)[O-]
REMARK SMILES IDX 7 1 8 2 9 3 10 4 11 5 12 6 13 7 14 8 6 9 5 10 4 11 3 12 2 13
REMARK SMILES IDX 1 14
REMARK H PARENT
REMARK Flexibility Score: inf
ROOT
ATOM      1  C   UNL     1      -1.949   8.579   7.132  1.00  0.00     0.000 C 
ENDROOT
BRANCH   1   2
ATOM      2  C   UNL     1      -2.636   9.251   5.932  1.00  0.00     0.000 C 
BRANCH   2   3
ATOM      3  C   UNL     1      -2.933   8.228   4.827  1.00  0.00     0.000 C 
BRANCH   3   4
ATOM      4  C   UNL     1      -2.142   6.918   4.989  1.00  0.00     0.006 C 
BRANCH   4   5
ATOM      5  C   UNL     1      -2.981   5.648   4.761  1.00  0.00     0.053 C 
BRANCH   5   6
ATOM      6  C   UNL     1      -3.432   5.013   6.042  1.00  0.00     0.041 C 
ATOM      7  O   UNL     1      -3.575   3.764   6.116  1.00  0.00    -0.550 OA
ATOM      8  O   UNL     1      -3.661   5.799   7.164  1.00  0.00    -0.550 OA
ENDBRANCH   5   6
ENDBRANCH   4   5
ENDBRANCH   3   4
ENDBRANCH   2   3
ENDBRANCH   1   2
BRANCH   1   9
ATOM      9  C   UNL     1      -1.424   9.597   8.157  1.00  0.00     0.000 C 
BRANCH   9  10
ATOM     10  C   UNL     1      -0.384   8.989   9.115  1.00  0.00    -0.000 C 
BRANCH  10  11
ATOM     11  C   UNL     1       0.899   9.830   9.210  1.00  0.00    -0.000 C 
BRANCH  11  12
ATOM     12  C   UNL     1       1.899   9.510   8.085  1.00  0.00    -0.000 C 
BRANCH  12  13
ATOM     13  C   UNL     1       2.959   8.484   8.516  1.00  0.00    -0.003 C 
ATOM     14  C   UNL     1       3.854   8.036   7.359  1.00  0.00     0.004 C 
ENDBRANCH  12  13
ENDBRANCH  11  12
ENDBRANCH  10  11
ENDBRANCH   9  10
ENDBRANCH   1   9
TORSDOF 10
ENDMDL
MODEL 2
REMARK VINA RESULT:    -4.301      3.628      6.669
REMARK INTER + INTRA:          -7.292
REMARK INTER:                  -6.881
REMARK INTRA:                  -0.410
REMARK UNBOUND:                -0.477
REMARK SMILES CCCCCCCCCCCC(=O)[O-]
REMARK SMILES IDX 7 1 8 2 9 3 10 4 11 5 12 6 13 7 14 8 6 9 5 10 4 11 3 12 2 13
REMARK SMILES IDX 1 14
REMARK H PARENT
REMARK Flexibility Score: inf
ROOT
ATOM      1  C   UNL     1      -0.563   9.185   7.908  1.00  0.00     0.000 C 
ENDROOT
BRANCH   1   2
ATOM      2  C   UNL     1       0.472  10.059   8.635  1.00  0.00     0.000 C 
BRANCH   2   3
ATOM      3  C   UNL     1       1.602   9.200   9.219  1.00  0.00     0.000 C 
BRANCH   3   4
ATOM      4  C   UNL     1       2.612   8.729   8.157  1.00  0.00     0.006 C 
BRANCH   4   5
ATOM      5  C   UNL     1       4.054   8.595   8.681  1.00  0.00     0.053 C 
BRANCH   5   6
ATOM      6  C   UNL     1       5.012   8.131   7.628  1.00  0.00     0.041 C 
ATOM      7  O   UNL     1       6.254   8.261   7.796  1.00  0.00    -0.550 OA
ATOM      8  O   UNL     1       4.536   7.522   6.474  1.00  0.00    -0.550 OA
ENDBRANCH   5   6
ENDBRANCH   4   5
ENDBRANCH   3   4
ENDBRANCH   2   3
ENDBRANCH   1   2
BRANCH   1   9
ATOM      9  C   UNL     1      -1.935   9.868   7.792  1.00  0.00     0.000 C 
BRANCH   9  10
ATOM     10  C   UNL     1      -2.786   9.296   6.644  1.00  0.00    -0.000 C 
BRANCH  10  11
ATOM     11  C   UNL     1      -2.568   7.788   6.439  1.00  0.00    -0.000 C 
BRANCH  11  12
ATOM     12  C   UNL     1      -2.227   7.434   4.981  1.00  0.00    -0.000 C 
BRANCH  12  13
ATOM     13  C   UNL     1      -2.341   5.928   4.699  1.00  0.00    -0.003 C 
ATOM     14  C   UNL     1      -3.274   5.211   5.677  1.00  0.00     0.004 C 
ENDBRANCH  12  13
ENDBRANCH  11  12
ENDBRANCH  10  11
ENDBRANCH   9  10
ENDBRANCH   1   9
TORSDOF 10
ENDMDL
MODEL 3
REMARK VINA RESULT:    -3.882     12.625     14.424
REMARK INTER + INTRA:          -6.628
REMARK INTER:                  -6.068
REMARK INTRA:                  -0.561
REMARK UNBOUND:                -0.477
REMARK SMILES CCCCCCCCCCCC(=O)[O-]
REMARK SMILES IDX 7 1 8 2 9 3 10 4 11 5 12 6 13 7 14 8 6 9 5 10 4 11 3 12 2 13
REMARK SMILES IDX 1 14
REMARK H PARENT
REMARK Flexibility Score: inf
ROOT
ATOM      1  C   UNL     1       6.007  -6.390   8.289  1.00  0.00     0.000 C 
ENDROOT
BRANCH   1   2
ATOM      2  C   UNL     1       4.638  -5.930   7.763  1.00  0.00     0.000 C 
BRANCH   2   3
ATOM      3  C   UNL     1       3.607  -7.064   7.850  1.00  0.00     0.000 C 
BRANCH   3   4
ATOM      4  C   UNL     1       2.243  -6.599   8.390  1.00  0.00     0.006 C 
BRANCH   4   5
ATOM      5  C   UNL     1       1.744  -5.278   7.776  1.00  0.00     0.053 C 
BRANCH   5   6
ATOM      6  C   UNL     1       0.330  -5.364   7.287  1.00  0.00     0.041 C 
ATOM      7  O   UNL     1      -0.302  -4.318   6.981  1.00  0.00    -0.550 OA
ATOM      8  O   UNL     1      -0.279  -6.603   7.136  1.00  0.00    -0.550 OA
ENDBRANCH   5   6
ENDBRANCH   4   5
ENDBRANCH   3   4
ENDBRANCH   2   3
ENDBRANCH   1   2
BRANCH   1   9
ATOM      9  C   UNL     1       6.214  -6.049   9.773  1.00  0.00     0.000 C 
BRANCH   9  10
ATOM     10  C   UNL     1       7.445  -5.156  10.009  1.00  0.00    -0.000 C 
BRANCH  10  11
ATOM     11  C   UNL     1       8.239  -4.888   8.721  1.00  0.00    -0.000 C 
BRANCH  11  12
ATOM     12  C   UNL     1       8.629  -3.409   8.565  1.00  0.00    -0.000 C 
BRANCH  12  13
ATOM     13  C   UNL     1       8.641  -2.658   9.906  1.00  0.00    -0.003 C 
ATOM     14  C   UNL     1       8.621  -1.139   9.734  1.00  0.00     0.004 C 
ENDBRANCH  12  13
ENDBRANCH  11  12
ENDBRANCH  10  11
ENDBRANCH   9  10
ENDBRANCH   1   9
TORSDOF 10
ENDMDL
MODEL 4
REMARK VINA RESULT:    -3.839      2.671      4.831
REMARK INTER + INTRA:          -6.561
REMARK INTER:                  -5.861
REMARK INTRA:                  -0.700
REMARK UNBOUND:                -0.477
REMARK SMILES CCCCCCCCCCCC(=O)[O-]
REMARK SMILES IDX 7 1 8 2 9 3 10 4 11 5 12 6 13 7 14 8 6 9 5 10 4 11 3 12 2 13
REMARK SMILES IDX 1 14
REMARK H PARENT
REMARK Flexibility Score: inf
ROOT
ATOM      1  C   UNL     1      -1.766  10.005   7.927  1.00  0.00     0.000 C 
ENDROOT
BRANCH   1   2
ATOM      2  C   UNL     1      -2.144   8.794   7.059  1.00  0.00     0.000 C 
BRANCH   2   3
ATOM      3  C   UNL     1      -2.948   9.232   5.828  1.00  0.00     0.000 C 
BRANCH   3   4
ATOM      4  C   UNL     1      -2.937   8.187   4.697  1.00  0.00     0.006 C 
BRANCH   4   5
ATOM      5  C   UNL     1      -2.171   6.897   5.045  1.00  0.00     0.053 C 
BRANCH   5   6
ATOM      6  C   UNL     1      -3.080   5.772   5.435  1.00  0.00     0.041 C 
ATOM      7  O   UNL     1      -3.447   4.924   4.578  1.00  0.00    -0.550 OA
ATOM      8  O   UNL     1      -3.496   5.639   6.753  1.00  0.00    -0.550 OA
ENDBRANCH   5   6
ENDBRANCH   4   5
ENDBRANCH   3   4
ENDBRANCH   2   3
ENDBRANCH   1   2
BRANCH   1   9
ATOM      9  C   UNL     1      -2.485  10.006   9.285  1.00  0.00     0.000 C 
BRANCH   9  10
ATOM     10  C   UNL     1      -4.017   9.973   9.143  1.00  0.00    -0.000 C 
BRANCH  10  11
ATOM     11  C   UNL     1      -4.679   8.954  10.085  1.00  0.00    -0.000 C 
BRANCH  11  12
ATOM     12  C   UNL     1      -4.691   7.532   9.501  1.00  0.00    -0.000 C 
BRANCH  12  13
ATOM     13  C   UNL     1      -6.106   6.937   9.429  1.00  0.00    -0.003 C 
ATOM     14  C   UNL     1      -7.200   8.005   9.446  1.00  0.00     0.004 C 
ENDBRANCH  12  13
ENDBRANCH  11  12
ENDBRANCH  10  11
ENDBRANCH   9  10
ENDBRANCH   1   9
TORSDOF 10
ENDMDL
MODEL 5
REMARK VINA RESULT:    -3.802     13.714     16.054
REMARK INTER + INTRA:          -6.501
REMARK INTER:                  -6.034
REMARK INTRA:                  -0.466
REMARK UNBOUND:                -0.477
REMARK SMILES CCCCCCCCCCCC(=O)[O-]
REMARK SMILES IDX 7 1 8 2 9 3 10 4 11 5 12 6 13 7 14 8 6 9 5 10 4 11 3 12 2 13
REMARK SMILES IDX 1 14
REMARK H PARENT
REMARK Flexibility Score: inf
ROOT
ATOM      1  C   UNL     1       5.688  -6.371   8.132  1.00  0.00     0.000 C 
ENDROOT
BRANCH   1   2
ATOM      2  C   UNL     1       6.123  -6.473   9.603  1.00  0.00     0.000 C 
BRANCH   2   3
ATOM      3  C   UNL     1       7.087  -5.337   9.970  1.00  0.00     0.000 C 
BRANCH   3   4
ATOM      4  C   UNL     1       8.544  -5.809  10.124  1.00  0.00     0.006 C 
BRANCH   4   5
ATOM      5  C   UNL     1       9.530  -5.121   9.162  1.00  0.00     0.053 C 
BRANCH   5   6
ATOM      6  C   UNL     1       8.842  -4.261   8.146  1.00  0.00     0.041 C 
ATOM      7  O   UNL     1       8.493  -4.743   7.036  1.00  0.00    -0.550 OA
ATOM      8  O   UNL     1       8.556  -2.933   8.438  1.00  0.00    -0.550 OA
ENDBRANCH   5   6
ENDBRANCH   4   5
ENDBRANCH   3   4
ENDBRANCH   2   3
ENDBRANCH   1   2
BRANCH   1   9
ATOM      9  C   UNL     1       4.252  -6.869   7.905  1.00  0.00     0.000 C 
BRANCH   9  10
ATOM     10  C   UNL     1       3.285  -6.414   9.012  1.00  0.00    -0.000 C 
BRANCH  10  11
ATOM     11  C   UNL     1       2.801  -4.968   8.820  1.00  0.00    -0.000 C 
BRANCH  11  12
ATOM     12  C   UNL     1       1.871  -4.814   7.605  1.00  0.00    -0.000 C 
BRANCH  12  13
ATOM     13  C   UNL     1       0.807  -5.921   7.535  1.00  0.00    -0.003 C 
ATOM     14  C   UNL     1      -0.572  -5.393   7.135  1.00  0.00     0.004 C 
ENDBRANCH  12  13
ENDBRANCH  11  12
ENDBRANCH  10  11
ENDBRANCH   9  10
ENDBRANCH   1   9
TORSDOF 10
ENDMDL
MODEL 6
REMARK VINA RESULT:    -3.740     12.538     14.414
REMARK INTER + INTRA:          -6.403
REMARK INTER:                  -5.893
REMARK INTRA:                  -0.510
REMARK UNBOUND:                -0.477
REMARK SMILES CCCCCCCCCCCC(=O)[O-]
REMARK SMILES IDX 7 1 8 2 9 3 10 4 11 5 12 6 13 7 14 8 6 9 5 10 4 11 3 12 2 13
REMARK SMILES IDX 1 14
REMARK H PARENT
REMARK Flexibility Score: inf
ROOT
ATOM      1  C   UNL     1       6.872  -5.631   7.325  1.00  0.00     0.000 C 
ENDROOT
BRANCH   1   2
ATOM      2  C   UNL     1       5.587  -6.469   7.432  1.00  0.00     0.000 C 
BRANCH   2   3
ATOM      3  C   UNL     1       5.210  -6.710   8.900  1.00  0.00     0.000 C 
BRANCH   3   4
ATOM      4  C   UNL     1       3.689  -6.746   9.134  1.00  0.00     0.006 C 
BRANCH   4   5
ATOM      5  C   UNL     1       3.004  -5.372   9.011  1.00  0.00     0.053 C 
BRANCH   5   6
ATOM      6  C   UNL     1       1.989  -5.328   7.910  1.00  0.00     0.041 C 
ATOM      7  O   UNL     1       1.904  -4.316   7.164  1.00  0.00    -0.550 OA
ATOM      8  O   UNL     1       1.158  -6.418   7.686  1.00  0.00    -0.550 OA
ENDBRANCH   5   6
ENDBRANCH   4   5
ENDBRANCH   3   4
ENDBRANCH   2   3
ENDBRANCH   1   2
BRANCH   1   9
ATOM      9  C   UNL     1       7.442  -5.247   8.699  1.00  0.00     0.000 C 
BRANCH   9  10
ATOM     10  C   UNL     1       8.794  -4.519   8.596  1.00  0.00    -0.000 C 
BRANCH  10  11
ATOM     11  C   UNL     1       8.924  -3.364   9.602  1.00  0.00    -0.000 C 
BRANCH  11  12
ATOM     12  C   UNL     1       8.451  -2.020   9.021  1.00  0.00    -0.000 C 
BRANCH  12  13
ATOM     13  C   UNL     1       8.663  -0.851   9.995  1.00  0.00    -0.003 C 
ATOM     14  C   UNL     1       7.700   0.311   9.744  1.00  0.00     0.004 C 
ENDBRANCH  12  13
ENDBRANCH  11  12
ENDBRANCH  10  11
ENDBRANCH   9  10
ENDBRANCH   1   9
TORSDOF 10
ENDMDL
MODEL 7
REMARK VINA RESULT:    -3.577     13.940     15.993
REMARK INTER + INTRA:          -6.146
REMARK INTER:                  -5.079
REMARK INTRA:                  -1.066
REMARK UNBOUND:                -0.477
REMARK SMILES CCCCCCCCCCCC(=O)[O-]
REMARK SMILES IDX 7 1 8 2 9 3 10 4 11 5 12 6 13 7 14 8 6 9 5 10 4 11 3 12 2 13
REMARK SMILES IDX 1 14
REMARK H PARENT
REMARK Flexibility Score: inf
ROOT
ATOM      1  C   UNL     1       5.103  -5.583  10.125  1.00  0.00     0.000 C 
ENDROOT
BRANCH   1   2
ATOM      2  C   UNL     1       6.072  -6.468   9.325  1.00  0.00     0.000 C 
BRANCH   2   3
ATOM      3  C   UNL     1       5.921  -6.223   7.817  1.00  0.00     0.000 C 
BRANCH   3   4
ATOM      4  C   UNL     1       5.044  -7.277   7.119  1.00  0.00     0.006 C 
BRANCH   4   5
ATOM      5  C   UNL     1       5.244  -8.708   7.650  1.00  0.00     0.053 C 
BRANCH   5   6
ATOM      6  C   UNL     1       3.968  -9.333   8.128  1.00  0.00     0.041 C 
ATOM      7  O   UNL     1       3.689  -9.348   9.357  1.00  0.00    -0.550 OA
ATOM      8  O   UNL     1       3.071  -9.868   7.214  1.00  0.00    -0.550 OA
ENDBRANCH   5   6
ENDBRANCH   4   5
ENDBRANCH   3   4
ENDBRANCH   2   3
ENDBRANCH   1   2
BRANCH   1   9
ATOM      9  C   UNL     1       3.630  -5.936   9.865  1.00  0.00     0.000 C 
BRANCH   9  10
ATOM     10  C   UNL     1       2.813  -4.734   9.358  1.00  0.00    -0.000 C 
BRANCH  10  11
ATOM     11  C   UNL     1       2.201  -4.976   7.969  1.00  0.00    -0.000 C 
BRANCH  11  12
ATOM     12  C   UNL     1       1.608  -6.387   7.823  1.00  0.00    -0.000 C 
BRANCH  12  13
ATOM     13  C   UNL     1       0.187  -6.371   7.239  1.00  0.00    -0.003 C 
ATOM     14  C   UNL     1      -0.375  -4.957   7.086  1.00  0.00     0.004 C 
ENDBRANCH  12  13
ENDBRANCH  11  12
ENDBRANCH  10  11
ENDBRANCH   9  10
ENDBRANCH   1   9
TORSDOF 10
ENDMDL
MODEL 8
REMARK VINA RESULT:    -3.527     13.151     14.791
REMARK INTER + INTRA:          -6.066
REMARK INTER:                  -5.494
REMARK INTRA:                  -0.571
REMARK UNBOUND:                -0.477
REMARK SMILES CCCCCCCCCCCC(=O)[O-]
REMARK SMILES IDX 7 1 8 2 9 3 10 4 11 5 12 6 13 7 14 8 6 9 5 10 4 11 3 12 2 13
REMARK SMILES IDX 1 14
REMARK H PARENT
REMARK Flexibility Score: inf
ROOT
ATOM      1  C   UNL     1       5.665  -6.655   8.063  1.00  0.00     0.000 C 
ENDROOT
BRANCH   1   2
ATOM      2  C   UNL     1       4.318  -5.980   7.757  1.00  0.00     0.000 C 
BRANCH   2   3
ATOM      3  C   UNL     1       3.432  -5.931   9.009  1.00  0.00     0.000 C 
BRANCH   3   4
ATOM      4  C   UNL     1       2.320  -4.871   8.920  1.00  0.00     0.006 C 
BRANCH   4   5
ATOM      5  C   UNL     1       1.672  -4.760   7.528  1.00  0.00     0.053 C 
BRANCH   5   6
ATOM      6  C   UNL     1       0.485  -5.660   7.368  1.00  0.00     0.041 C 
ATOM      7  O   UNL     1      -0.682  -5.188   7.410  1.00  0.00    -0.550 OA
ATOM      8  O   UNL     1       0.668  -7.018   7.138  1.00  0.00    -0.550 OA
ENDBRANCH   5   6
ENDBRANCH   4   5
ENDBRANCH   3   4
ENDBRANCH   2   3
ENDBRANCH   1   2
BRANCH   1   9
ATOM      9  C   UNL     1       6.013  -6.627   9.559  1.00  0.00     0.000 C 
BRANCH   9  10
ATOM     10  C   UNL     1       6.913  -5.437   9.935  1.00  0.00    -0.000 C 
BRANCH  10  11
ATOM     11  C   UNL     1       8.384  -5.842  10.125  1.00  0.00    -0.000 C 
BRANCH  11  12
ATOM     12  C   UNL     1       9.358  -4.847   9.472  1.00  0.00    -0.000 C 
BRANCH  12  13
ATOM     13  C   UNL     1       8.659  -3.901   8.483  1.00  0.00    -0.003 C 
ATOM     14  C   UNL     1       8.411  -4.548   7.119  1.00  0.00     0.004 C 
ENDBRANCH  12  13
ENDBRANCH  11  12
ENDBRANCH  10  11
ENDBRANCH   9  10
ENDBRANCH   1   9
TORSDOF 10
ENDMDL
MODEL 9
REMARK VINA RESULT:    -3.481     14.052     15.875
REMARK INTER + INTRA:          -5.993
REMARK INTER:                  -5.060
REMARK INTRA:                  -0.933
REMARK UNBOUND:                -0.477
REMARK SMILES CCCCCCCCCCCC(=O)[O-]
REMARK SMILES IDX 7 1 8 2 9 3 10 4 11 5 12 6 13 7 14 8 6 9 5 10 4 11 3 12 2 13
REMARK SMILES IDX 1 14
REMARK H PARENT
REMARK Flexibility Score: inf
ROOT
ATOM      1  C   UNL     1       5.810  -6.395   8.445  1.00  0.00     0.000 C 
ENDROOT
BRANCH   1   2
ATOM      2  C   UNL     1       4.587  -5.791   7.735  1.00  0.00     0.000 C 
BRANCH   2   3
ATOM      3  C   UNL     1       3.507  -5.391   8.749  1.00  0.00     0.000 C 
BRANCH   3   4
ATOM      4  C   UNL     1       2.196  -4.934   8.085  1.00  0.00     0.006 C 
BRANCH   4   5
ATOM      5  C   UNL     1       1.189  -6.072   7.839  1.00  0.00     0.053 C 
BRANCH   5   6
ATOM      6  C   UNL     1      -0.088  -5.592   7.219  1.00  0.00     0.041 C 
ATOM      7  O   UNL     1      -1.075  -6.367   7.114  1.00  0.00    -0.550 OA
ATOM      8  O   UNL     1      -0.200  -4.276   6.789  1.00  0.00    -0.550 OA
ENDBRANCH   5   6
ENDBRANCH   4   5
ENDBRANCH   3   4
ENDBRANCH   2   3
ENDBRANCH   1   2
BRANCH   1   9
ATOM      9  C   UNL     1       5.517  -6.776   9.904  1.00  0.00     0.000 C 
BRANCH   9  10
ATOM     10  C   UNL     1       5.219  -8.276  10.076  1.00  0.00    -0.000 C 
BRANCH  10  11
ATOM     11  C   UNL     1       3.798  -8.654   9.629  1.00  0.00    -0.000 C 
BRANCH  11  12
ATOM     12  C   UNL     1       3.785  -9.839   8.648  1.00  0.00    -0.000 C 
BRANCH  12  13
ATOM     13  C   UNL     1       4.293  -9.452   7.250  1.00  0.00    -0.003 C 
ATOM     14  C   UNL     1       5.622 -10.121   6.897  1.00  0.00     0.004 C 
ENDBRANCH  12  13
ENDBRANCH  11  12
ENDBRANCH  10  11
ENDBRANCH   9  10
ENDBRANCH   1   9
TORSDOF 10
ENDMDL
