MODEL 1
REMARK VINA RESULT:    -5.445      0.000      0.000
REMARK INTER + INTRA:          -9.978
REMARK INTER:                  -9.265
REMARK INTRA:                  -0.713
REMARK UNBOUND:                -0.713
REMARK SMILES CCCCCCCCCCCCCC(=O)[O-]
REMARK SMILES IDX 8 1 9 2 10 3 11 4 12 5 13 6 14 7 15 8 16 9 7 10 6 11 5 12
REMARK SMILES IDX 4 13 3 14 2 15 1 16
REMARK H PARENT
REMARK Flexibility Score: inf
ROOT
ATOM      1  C   UNL     1      12.358 -19.137 -26.153  1.00  0.00     0.000 C 
ENDROOT
BRANCH   1   2
ATOM      2  C   UNL     1      11.003 -18.491 -25.823  1.00  0.00     0.000 C 
BRANCH   2   3
ATOM      3  C   UNL     1      10.408 -17.799 -27.058  1.00  0.00     0.000 C 
BRANCH   3   4
ATOM      4  C   UNL     1       8.872 -17.706 -27.011  1.00  0.00     0.000 C 
BRANCH   4   5
ATOM      5  C   UNL     1       8.184 -17.578 -28.386  1.00  0.00     0.006 C 
BRANCH   5   6
ATOM      6  C   UNL     1       9.114 -17.133 -29.526  1.00  0.00     0.053 C 
BRANCH   6   7
ATOM      7  C   UNL     1       8.351 -16.638 -30.715  1.00  0.00     0.041 C 
ATOM      8  O   UNL     1       7.498 -15.721 -30.582  1.00  0.00    -0.550 OA
ATOM      9  O   UNL     1       8.554 -17.214 -31.963  1.00  0.00    -0.550 OA
ENDBRANCH   6   7
ENDBRANCH   5   6
ENDBRANCH   4   5
ENDBRANCH   3   4
ENDBRANCH   2   3
ENDBRANCH   1   2
BRANCH   1  10
ATOM     10  C   UNL     1      12.206 -20.400 -27.028  1.00  0.00     0.000 C 
BRANCH  10  11
ATOM     11  C   UNL     1      11.844 -21.664 -26.231  1.00  0.00    -0.000 C 
BRANCH  11  12
ATOM     12  C   UNL     1      12.512 -22.934 -26.783  1.00  0.00    -0.000 C 
BRANCH  12  13
ATOM     13  C   UNL     1      13.030 -22.740 -28.224  1.00  0.00    -0.000 C 
BRANCH  13  14
ATOM     14  C   UNL     1      14.486 -23.196 -28.421  1.00  0.00    -0.000 C 
BRANCH  14  15
ATOM     15  C   UNL     1      15.373 -22.902 -27.204  1.00  0.00    -0.003 C 
ATOM     16  C   UNL     1      16.847 -23.125 -27.531  1.00  0.00     0.004 C 
ENDBRANCH  14  15
ENDBRANCH  13  14
ENDBRANCH  12  13
ENDBRANCH  11  12
ENDBRANCH  10  11
ENDBRANCH   1  10
TORSDOF 12
ENDMDL
MODEL 2
REMARK VINA RESULT:    -5.181      3.502      5.366
REMARK INTER + INTRA:          -9.529
REMARK INTER:                  -8.615
REMARK INTRA:                  -0.914
REMARK UNBOUND:                -0.713
REMARK SMILES CCCCCCCCCCCCCC(=O)[O-]
REMARK SMILES IDX 8 1 9 2 10 3 11 4 12 5 13 6 14 7 15 8 16 9 7 10 6 11 5 12
REMARK SMILES IDX 4 13 3 14 2 15 1 16
REMARK H PARENT
REMARK Flexibility Score: inf
ROOT
ATOM      1  C   UNL     1      13.364 -24.001 -28.551  1.00  0.00     0.000 C 
ENDROOT
BRANCH   1   2
ATOM      2  C   UNL     1      12.253 -23.038 -28.107  1.00  0.00     0.000 C 
BRANCH   2   3
ATOM      3  C   UNL     1      12.147 -21.840 -29.062  1.00  0.00     0.000 C 
BRANCH   3   4
ATOM      4  C   UNL     1      11.974 -20.499 -28.327  1.00  0.00     0.000 C 
BRANCH   4   5
ATOM      5  C   UNL     1      12.428 -20.500 -26.853  1.00  0.00     0.006 C 
BRANCH   5   6
ATOM      6  C   UNL     1      12.908 -19.137 -26.332  1.00  0.00     0.053 C 
BRANCH   6   7
ATOM      7  C   UNL     1      11.966 -18.556 -25.323  1.00  0.00     0.041 C 
ATOM      8  O   UNL     1      10.723 -18.599 -25.520  1.00  0.00    -0.550 OA
ATOM      9  O   UNL     1      12.462 -17.936 -24.183  1.00  0.00    -0.550 OA
ENDBRANCH   6   7
ENDBRANCH   5   6
ENDBRANCH   4   5
ENDBRANCH   3   4
ENDBRANCH   2   3
ENDBRANCH   1   2
BRANCH   1  10
ATOM     10  C   UNL     1      14.735 -23.300 -28.664  1.00  0.00     0.000 C 
BRANCH  10  11
ATOM     11  C   UNL     1      15.356 -22.935 -27.305  1.00  0.00    -0.000 C 
BRANCH  11  12
ATOM     12  C   UNL     1      16.660 -23.698 -27.017  1.00  0.00    -0.000 C 
BRANCH  12  13
ATOM     13  C   UNL     1      17.618 -22.892 -26.115  1.00  0.00    -0.000 C 
BRANCH  13  14
ATOM     14  C   UNL     1      17.715 -23.436 -24.680  1.00  0.00    -0.000 C 
BRANCH  14  15
ATOM     15  C   UNL     1      16.631 -24.474 -24.361  1.00  0.00    -0.003 C 
ATOM     16  C   UNL     1      16.267 -24.451 -22.879  1.00  0.00     0.004 C 
ENDBRANCH  14  15
ENDBRANCH  13  14
ENDBRANCH  12  13
ENDBRANCH  11  12
ENDBRANCH  10  11
ENDBRANCH   1  10
TORSDOF 12
ENDMDL
MODEL 3
REMARK VINA RESULT:    -5.180      1.843      2.329
REMARK INTER + INTRA:          -9.527
REMARK INTER:                  -8.820
REMARK INTRA:                  -0.707
REMARK UNBOUND:                -0.713
REMARK SMILES CCCCCCCCCCCCCC(=O)[O-]
REMARK SMILES IDX 8 1 9 2 10 3 11 4 12 5 13 6 14 7 15 8 16 9 7 10 6 11 5 12
REMARK SMILES IDX 4 13 3 14 2 15 1 16
REMARK H PARENT
REMARK Flexibility Score: inf
ROOT
ATOM      1  C   UNL     1      12.064 -18.744 -25.840  1.00  0.00     0.000 C 
ENDROOT
BRANCH   1   2
ATOM      2  C   UNL     1      10.657 -18.183 -25.585  1.00  0.00     0.000 C 
BRANCH   2   3
ATOM      3  C   UNL     1      10.186 -17.319 -26.765  1.00  0.00     0.000 C 
BRANCH   3   4
ATOM      4  C   UNL     1       8.668 -17.400 -27.000  1.00  0.00     0.000 C 
BRANCH   4   5
ATOM      5  C   UNL     1       8.250 -17.793 -28.433  1.00  0.00     0.006 C 
BRANCH   5   6
ATOM      6  C   UNL     1       8.029 -16.605 -29.381  1.00  0.00     0.053 C 
BRANCH   6   7
ATOM      7  C   UNL     1       8.757 -16.776 -30.678  1.00  0.00     0.041 C 
ATOM      8  O   UNL     1       9.987 -17.045 -30.682  1.00  0.00    -0.550 OA
ATOM      9  O   UNL     1       8.087 -16.603 -31.882  1.00  0.00    -0.550 OA
ENDBRANCH   6   7
ENDBRANCH   5   6
ENDBRANCH   4   5
ENDBRANCH   3   4
ENDBRANCH   2   3
ENDBRANCH   1   2
BRANCH   1  10
ATOM     10  C   UNL     1      12.185 -19.417 -27.224  1.00  0.00     0.000 C 
BRANCH  10  11
ATOM     11  C   UNL     1      12.718 -20.858 -27.165  1.00  0.00    -0.000 C 
BRANCH  11  12
ATOM     12  C   UNL     1      11.995 -21.724 -26.120  1.00  0.00    -0.000 C 
BRANCH  12  13
ATOM     13  C   UNL     1      12.094 -23.229 -26.442  1.00  0.00    -0.000 C 
BRANCH  13  14
ATOM     14  C   UNL     1      10.947 -23.745 -27.329  1.00  0.00    -0.000 C 
BRANCH  14  15
ATOM     15  C   UNL     1      11.406 -24.104 -28.749  1.00  0.00    -0.003 C 
ATOM     16  C   UNL     1      11.581 -22.850 -29.602  1.00  0.00     0.004 C 
ENDBRANCH  14  15
ENDBRANCH  13  14
ENDBRANCH  12  13
ENDBRANCH  11  12
ENDBRANCH  10  11
ENDBRANCH   1  10
TORSDOF 12
ENDMDL
MODEL 4
REMARK VINA RESULT:    -5.161      2.315      4.435
REMARK INTER + INTRA:          -9.494
REMARK INTER:                  -8.414
REMARK INTRA:                  -1.080
REMARK UNBOUND:                -0.713
REMARK SMILES CCCCCCCCCCCCCC(=O)[O-]
REMARK SMILES IDX 8 1 9 2 10 3 11 4 12 5 13 6 14 7 15 8 16 9 7 10 6 11 5 12
REMARK SMILES IDX 4 13 3 14 2 15 1 16
REMARK H PARENT
REMARK Flexibility Score: inf
ROOT
ATOM      1  C   UNL     1      12.499 -23.968 -28.510  1.00  0.00     0.000 C 
ENDROOT
BRANCH   1   2
ATOM      2  C   UNL     1      11.464 -23.268 -27.617  1.00  0.00     0.000 C 
BRANCH   2   3
ATOM      3  C   UNL     1      12.140 -22.593 -26.414  1.00  0.00     0.000 C 
BRANCH   3   4
ATOM      4  C   UNL     1      11.726 -21.121 -26.241  1.00  0.00     0.000 C 
BRANCH   4   5
ATOM      5  C   UNL     1      12.632 -20.100 -26.961  1.00  0.00     0.006 C 
BRANCH   5   6
ATOM      6  C   UNL     1      12.049 -19.542 -28.268  1.00  0.00     0.053 C 
BRANCH   6   7
ATOM      7  C   UNL     1      10.930 -18.578 -28.020  1.00  0.00     0.041 C 
ATOM      8  O   UNL     1      10.977 -17.795 -27.035  1.00  0.00    -0.550 OA
ATOM      9  O   UNL     1       9.819 -18.569 -28.854  1.00  0.00    -0.550 OA
ENDBRANCH   6   7
ENDBRANCH   5   6
ENDBRANCH   4   5
ENDBRANCH   3   4
ENDBRANCH   2   3
ENDBRANCH   1   2
BRANCH   1  10
ATOM     10  C   UNL     1      13.686 -23.047 -28.863  1.00  0.00     0.000 C 
BRANCH  10  11
ATOM     11  C   UNL     1      15.057 -23.632 -28.483  1.00  0.00    -0.000 C 
BRANCH  11  12
ATOM     12  C   UNL     1      15.728 -22.882 -27.321  1.00  0.00    -0.000 C 
BRANCH  12  13
ATOM     13  C   UNL     1      16.683 -23.789 -26.517  1.00  0.00    -0.000 C 
BRANCH  13  14
ATOM     14  C   UNL     1      17.631 -23.012 -25.587  1.00  0.00    -0.000 C 
BRANCH  14  15
ATOM     15  C   UNL     1      17.797 -23.677 -24.214  1.00  0.00    -0.003 C 
ATOM     16  C   UNL     1      16.527 -24.418 -23.806  1.00  0.00     0.004 C 
ENDBRANCH  14  15
ENDBRANCH  13  14
ENDBRANCH  12  13
ENDBRANCH  11  12
ENDBRANCH  10  11
ENDBRANCH   1  10
TORSDOF 12
ENDMDL
MODEL 5
REMARK VINA RESULT:    -5.120      1.305      2.266
REMARK INTER + INTRA:          -9.425
REMARK INTER:                  -8.652
REMARK INTRA:                  -0.772
REMARK UNBOUND:                -0.713
REMARK SMILES CCCCCCCCCCCCCC(=O)[O-]
REMARK SMILES IDX 8 1 9 2 10 3 11 4 12 5 13 6 14 7 15 8 16 9 7 10 6 11 5 12
REMARK SMILES IDX 4 13 3 14 2 15 1 16
REMARK H PARENT
REMARK Flexibility Score: inf
ROOT
ATOM      1  C   UNL     1      12.331 -20.052 -27.490  1.00  0.00     0.000 C 
ENDROOT
BRANCH   1   2
ATOM      2  C   UNL     1      12.870 -18.914 -26.609  1.00  0.00     0.000 C 
BRANCH   2   3
ATOM      3  C   UNL     1      11.995 -18.721 -25.362  1.00  0.00     0.000 C 
BRANCH   3   4
ATOM      4  C   UNL     1      10.500 -18.568 -25.695  1.00  0.00     0.000 C 
BRANCH   4   5
ATOM      5  C   UNL     1      10.152 -17.364 -26.595  1.00  0.00     0.006 C 
BRANCH   5   6
ATOM      6  C   UNL     1       8.954 -17.591 -27.530  1.00  0.00     0.053 C 
BRANCH   6   7
ATOM      7  C   UNL     1       9.364 -17.640 -28.969  1.00  0.00     0.041 C 
ATOM      8  O   UNL     1      10.583 -17.602 -29.282  1.00  0.00    -0.550 OA
ATOM      9  O   UNL     1       8.399 -17.689 -29.967  1.00  0.00    -0.550 OA
ENDBRANCH   6   7
ENDBRANCH   5   6
ENDBRANCH   4   5
ENDBRANCH   3   4
ENDBRANCH   2   3
ENDBRANCH   1   2
BRANCH   1  10
ATOM     10  C   UNL     1      12.597 -21.443 -26.877  1.00  0.00     0.000 C 
BRANCH  10  11
ATOM     11  C   UNL     1      12.539 -22.590 -27.900  1.00  0.00    -0.000 C 
BRANCH  11  12
ATOM     12  C   UNL     1      13.926 -22.996 -28.425  1.00  0.00    -0.000 C 
BRANCH  12  13
ATOM     13  C   UNL     1      14.987 -23.025 -27.306  1.00  0.00    -0.000 C 
BRANCH  13  14
ATOM     14  C   UNL     1      16.434 -23.006 -27.828  1.00  0.00    -0.000 C 
BRANCH  14  15
ATOM     15  C   UNL     1      17.476 -23.041 -26.702  1.00  0.00    -0.003 C 
ATOM     16  C   UNL     1      18.115 -21.670 -26.503  1.00  0.00     0.004 C 
ENDBRANCH  14  15
ENDBRANCH  13  14
ENDBRANCH  12  13
ENDBRANCH  11  12
ENDBRANCH  10  11
ENDBRANCH   1  10
TORSDOF 12
ENDMDL
MODEL 6
REMARK VINA RESULT:    -5.010      2.340      4.496
REMARK INTER + INTRA:          -9.238
REMARK INTER:                  -8.342
REMARK INTRA:                  -0.896
REMARK UNBOUND:                -0.713
REMARK SMILES CCCCCCCCCCCCCC(=O)[O-]
REMARK SMILES IDX 8 1 9 2 10 3 11 4 12 5 13 6 14 7 15 8 16 9 7 10 6 11 5 12
REMARK SMILES IDX 4 13 3 14 2 15 1 16
REMARK H PARENT
REMARK Flexibility Score: inf
ROOT
ATOM      1  C   UNL     1      14.015 -23.010 -28.940  1.00  0.00     0.000 C 
ENDROOT
BRANCH   1   2
ATOM      2  C   UNL     1      12.913 -22.885 -27.877  1.00  0.00     0.000 C 
BRANCH   2   3
ATOM      3  C   UNL     1      12.207 -21.525 -27.973  1.00  0.00     0.000 C 
BRANCH   3   4
ATOM      4  C   UNL     1      12.137 -20.788 -26.623  1.00  0.00     0.000 C 
BRANCH   4   5
ATOM      5  C   UNL     1      12.589 -19.313 -26.661  1.00  0.00     0.006 C 
BRANCH   5   6
ATOM      6  C   UNL     1      12.154 -18.545 -27.919  1.00  0.00     0.053 C 
BRANCH   6   7
ATOM      7  C   UNL     1      10.710 -18.151 -27.867  1.00  0.00     0.041 C 
ATOM      8  O   UNL     1      10.250 -17.566 -26.851  1.00  0.00    -0.550 OA
ATOM      9  O   UNL     1       9.864 -18.462 -28.924  1.00  0.00    -0.550 OA
ENDBRANCH   6   7
ENDBRANCH   5   6
ENDBRANCH   4   5
ENDBRANCH   3   4
ENDBRANCH   2   3
ENDBRANCH   1   2
BRANCH   1  10
ATOM     10  C   UNL     1      15.370 -23.430 -28.333  1.00  0.00     0.000 C 
BRANCH  10  11
ATOM     11  C   UNL     1      15.689 -22.738 -26.997  1.00  0.00    -0.000 C 
BRANCH  11  12
ATOM     12  C   UNL     1      17.089 -23.081 -26.462  1.00  0.00    -0.000 C 
BRANCH  12  13
ATOM     13  C   UNL     1      17.030 -24.010 -25.231  1.00  0.00    -0.000 C 
BRANCH  13  14
ATOM     14  C   UNL     1      17.945 -25.242 -25.345  1.00  0.00    -0.000 C 
BRANCH  14  15
ATOM     15  C   UNL     1      17.745 -26.013 -26.656  1.00  0.00    -0.003 C 
ATOM     16  C   UNL     1      19.044 -26.084 -27.455  1.00  0.00     0.004 C 
ENDBRANCH  14  15
ENDBRANCH  13  14
ENDBRANCH  12  13
ENDBRANCH  11  12
ENDBRANCH  10  11
ENDBRANCH   1  10
TORSDOF 12
ENDMDL
MODEL 7
REMARK VINA RESULT:    -4.976      2.882      5.482
REMARK INTER + INTRA:          -9.180
REMARK INTER:                  -8.271
REMARK INTRA:                  -0.909
REMARK UNBOUND:                -0.713
REMARK SMILES CCCCCCCCCCCCCC(=O)[O-]
REMARK SMILES IDX 8 1 9 2 10 3 11 4 12 5 13 6 14 7 15 8 16 9 7 10 6 11 5 12
REMARK SMILES IDX 4 13 3 14 2 15 1 16
REMARK H PARENT
REMARK Flexibility Score: inf
ROOT
ATOM      1  C   UNL     1      15.238 -23.071 -26.988  1.00  0.00     0.000 C 
ENDROOT
BRANCH   1   2
ATOM      2  C   UNL     1      14.424 -22.955 -28.286  1.00  0.00     0.000 C 
BRANCH   2   3
ATOM      3  C   UNL     1      12.926 -23.159 -28.016  1.00  0.00     0.000 C 
BRANCH   3   4
ATOM      4  C   UNL     1      12.428 -22.389 -26.780  1.00  0.00     0.000 C 
BRANCH   4   5
ATOM      5  C   UNL     1      12.305 -20.863 -26.967  1.00  0.00     0.006 C 
BRANCH   5   6
ATOM      6  C   UNL     1      11.860 -20.427 -28.371  1.00  0.00     0.053 C 
BRANCH   6   7
ATOM      7  C   UNL     1      11.483 -18.978 -28.418  1.00  0.00     0.041 C 
ATOM      8  O   UNL     1      12.294 -18.100 -28.020  1.00  0.00    -0.550 OA
ATOM      9  O   UNL     1      10.224 -18.599 -28.865  1.00  0.00    -0.550 OA
ENDBRANCH   6   7
ENDBRANCH   5   6
ENDBRANCH   4   5
ENDBRANCH   3   4
ENDBRANCH   2   3
ENDBRANCH   1   2
BRANCH   1  10
ATOM     10  C   UNL     1      16.755 -23.175 -27.256  1.00  0.00     0.000 C 
BRANCH  10  11
ATOM     11  C   UNL     1      17.606 -22.275 -26.345  1.00  0.00    -0.000 C 
BRANCH  11  12
ATOM     12  C   UNL     1      18.907 -22.949 -25.881  1.00  0.00    -0.000 C 
BRANCH  12  13
ATOM     13  C   UNL     1      18.660 -23.989 -24.768  1.00  0.00    -0.000 C 
BRANCH  13  14
ATOM     14  C   UNL     1      18.165 -23.372 -23.448  1.00  0.00    -0.000 C 
BRANCH  14  15
ATOM     15  C   UNL     1      16.937 -24.092 -22.876  1.00  0.00    -0.003 C 
ATOM     16  C   UNL     1      16.508 -25.247 -23.776  1.00  0.00     0.004 C 
ENDBRANCH  14  15
ENDBRANCH  13  14
ENDBRANCH  12  13
ENDBRANCH  11  12
ENDBRANCH  10  11
ENDBRANCH   1  10
TORSDOF 12
ENDMDL
MODEL 8
REMARK VINA RESULT:    -4.975      3.749      5.925
REMARK INTER + INTRA:          -9.179
REMARK INTER:                  -8.254
REMARK INTRA:                  -0.925
REMARK UNBOUND:                -0.713
REMARK SMILES CCCCCCCCCCCCCC(=O)[O-]
REMARK SMILES IDX 8 1 9 2 10 3 11 4 12 5 13 6 14 7 15 8 16 9 7 10 6 11 5 12
REMARK SMILES IDX 4 13 3 14 2 15 1 16
REMARK H PARENT
REMARK Flexibility Score: inf
ROOT
ATOM      1  C   UNL     1      15.513 -23.674 -28.130  1.00  0.00     0.000 C 
ENDROOT
BRANCH   1   2
ATOM      2  C   UNL     1      14.214 -22.984 -28.575  1.00  0.00     0.000 C 
BRANCH   2   3
ATOM      3  C   UNL     1      13.325 -22.654 -27.367  1.00  0.00     0.000 C 
BRANCH   3   4
ATOM      4  C   UNL     1      12.459 -21.400 -27.584  1.00  0.00     0.000 C 
BRANCH   4   5
ATOM      5  C   UNL     1      12.168 -20.579 -26.311  1.00  0.00     0.006 C 
BRANCH   5   6
ATOM      6  C   UNL     1      12.812 -19.184 -26.291  1.00  0.00     0.053 C 
BRANCH   6   7
ATOM      7  C   UNL     1      12.234 -18.313 -25.219  1.00  0.00     0.041 C 
ATOM      8  O   UNL     1      11.120 -17.751 -25.392  1.00  0.00    -0.550 OA
ATOM      9  O   UNL     1      12.942 -18.090 -24.045  1.00  0.00    -0.550 OA
ENDBRANCH   6   7
ENDBRANCH   5   6
ENDBRANCH   4   5
ENDBRANCH   3   4
ENDBRANCH   2   3
ENDBRANCH   1   2
BRANCH   1  10
ATOM     10  C   UNL     1      16.238 -22.893 -27.013  1.00  0.00     0.000 C 
BRANCH  10  11
ATOM     11  C   UNL     1      16.636 -23.764 -25.810  1.00  0.00    -0.000 C 
BRANCH  11  12
ATOM     12  C   UNL     1      18.159 -23.908 -25.651  1.00  0.00    -0.000 C 
BRANCH  12  13
ATOM     13  C   UNL     1      18.654 -25.317 -26.040  1.00  0.00    -0.000 C 
BRANCH  13  14
ATOM     14  C   UNL     1      19.091 -25.432 -27.510  1.00  0.00    -0.000 C 
BRANCH  14  15
ATOM     15  C   UNL     1      18.545 -26.690 -28.198  1.00  0.00    -0.003 C 
ATOM     16  C   UNL     1      17.434 -27.330 -27.371  1.00  0.00     0.004 C 
ENDBRANCH  14  15
ENDBRANCH  13  14
ENDBRANCH  12  13
ENDBRANCH  11  12
ENDBRANCH  10  11
ENDBRANCH   1  10
TORSDOF 12
ENDMDL
MODEL 9
REMARK VINA RESULT:    -4.934      6.380      9.781
REMARK INTER + INTRA:          -9.108
REMARK INTER:                  -7.924
REMARK INTRA:                  -1.184
REMARK UNBOUND:                -0.713
REMARK SMILES CCCCCCCCCCCCCC(=O)[O-]
REMARK SMILES IDX 8 1 9 2 10 3 11 4 12 5 13 6 14 7 15 8 16 9 7 10 6 11 5 12
REMARK SMILES IDX 4 13 3 14 2 15 1 16
REMARK H PARENT
REMARK Flexibility Score: inf
ROOT
ATOM      1  C   UNL     1      17.817 -22.641 -28.512  1.00  0.00     0.000 C 
ENDROOT
BRANCH   1   2
ATOM      2  C   UNL     1      19.163 -23.382 -28.517  1.00  0.00     0.000 C 
BRANCH   2   3
ATOM      3  C   UNL     1      18.972 -24.868 -28.852  1.00  0.00     0.000 C 
BRANCH   3   4
ATOM      4  C   UNL     1      18.973 -25.770 -27.605  1.00  0.00     0.000 C 
BRANCH   4   5
ATOM      5  C   UNL     1      18.096 -27.035 -27.713  1.00  0.00     0.006 C 
BRANCH   5   6
ATOM      6  C   UNL     1      17.126 -27.037 -28.905  1.00  0.00     0.053 C 
BRANCH   6   7
ATOM      7  C   UNL     1      16.196 -28.210 -28.870  1.00  0.00     0.041 C 
ATOM      8  O   UNL     1      16.382 -29.142 -28.044  1.00  0.00    -0.550 OA
ATOM      9  O   UNL     1      15.144 -28.292 -29.775  1.00  0.00    -0.550 OA
ENDBRANCH   6   7
ENDBRANCH   5   6
ENDBRANCH   4   5
ENDBRANCH   3   4
ENDBRANCH   2   3
ENDBRANCH   1   2
BRANCH   1  10
ATOM     10  C   UNL     1      17.227 -22.507 -27.092  1.00  0.00     0.000 C 
BRANCH  10  11
ATOM     11  C   UNL     1      15.795 -23.053 -26.964  1.00  0.00    -0.000 C 
BRANCH  11  12
ATOM     12  C   UNL     1      15.176 -23.436 -28.318  1.00  0.00    -0.000 C 
BRANCH  12  13
ATOM     13  C   UNL     1      13.707 -22.976 -28.438  1.00  0.00    -0.000 C 
BRANCH  13  14
ATOM     14  C   UNL     1      13.230 -22.126 -27.248  1.00  0.00    -0.000 C 
BRANCH  14  15
ATOM     15  C   UNL     1      12.173 -22.837 -26.393  1.00  0.00    -0.003 C 
ATOM     16  C   UNL     1      11.194 -23.618 -27.265  1.00  0.00     0.004 C 
ENDBRANCH  14  15
ENDBRANCH  13  14
ENDBRANCH  12  13
ENDBRANCH  11  12
ENDBRANCH  10  11
ENDBRANCH   1  10
TORSDOF 12
ENDMDL
