MODEL 1
REMARK VINA RESULT:    -4.104      0.000      0.000
REMARK INTER + INTRA:          -8.233
REMARK INTER:                  -6.983
REMARK INTRA:                  -1.249
REMARK UNBOUND:                -1.249
REMARK SMILES CCCCCCCCCCCCCC(=O)[O-]
REMARK SMILES IDX 8 1 9 2 10 3 11 4 12 5 13 6 14 7 15 8 16 9 7 10 6 11 5 12
REMARK SMILES IDX 4 13 3 14 2 15 1 16
REMARK H PARENT
REMARK Flexibility Score: inf
ROOT
ATOM      1  C   UNL     1       5.176  10.194   7.163  1.00  0.00     0.000 C 
ENDROOT
BRANCH   1   2
ATOM      2  C   UNL     1       4.625  10.605   8.537  1.00  0.00     0.000 C 
BRANCH   2   3
ATOM      3  C   UNL     1       4.122   9.405   9.357  1.00  0.00     0.000 C 
BRANCH   3   4
ATOM      4  C   UNL     1       4.263   8.073   8.600  1.00  0.00     0.000 C 
BRANCH   4   5
ATOM      5  C   UNL     1       3.780   6.866   9.425  1.00  0.00     0.006 C 
BRANCH   5   6
ATOM      6  C   UNL     1       4.104   5.498   8.802  1.00  0.00     0.053 C 
BRANCH   6   7
ATOM      7  C   UNL     1       2.877   4.809   8.289  1.00  0.00     0.041 C 
ATOM      8  O   UNL     1       2.005   4.386   9.092  1.00  0.00    -0.550 OA
ATOM      9  O   UNL     1       2.681   4.663   6.921  1.00  0.00    -0.550 OA
ENDBRANCH   6   7
ENDBRANCH   5   6
ENDBRANCH   4   5
ENDBRANCH   3   4
ENDBRANCH   2   3
ENDBRANCH   1   2
BRANCH   1  10
ATOM     10  C   UNL     1       4.880  11.270   6.110  1.00  0.00     0.000 C 
BRANCH  10  11
ATOM     11  C   UNL     1       4.042  12.410   6.707  1.00  0.00    -0.000 C 
BRANCH  11  12
ATOM     12  C   UNL     1       4.666  13.793   6.466  1.00  0.00    -0.000 C 
BRANCH  12  13
ATOM     13  C   UNL     1       5.367  14.351   7.713  1.00  0.00    -0.000 C 
BRANCH  13  14
ATOM     14  C   UNL     1       6.884  14.429   7.502  1.00  0.00    -0.000 C 
BRANCH  14  15
ATOM     15  C   UNL     1       7.606  13.319   8.276  1.00  0.00    -0.003 C 
ATOM     16  C   UNL     1       8.220  12.295   7.326  1.00  0.00     0.004 C 
ENDBRANCH  14  15
ENDBRANCH  13  14
ENDBRANCH  12  13
ENDBRANCH  11  12
ENDBRANCH  10  11
ENDBRANCH   1  10
TORSDOF 12
ENDMDL
MODEL 2
REMARK VINA RESULT:    -3.963      3.631      7.747
REMARK INTER + INTRA:          -7.993
REMARK INTER:                  -6.939
REMARK INTRA:                  -1.053
REMARK UNBOUND:                -1.249
REMARK SMILES CCCCCCCCCCCCCC(=O)[O-]
REMARK SMILES IDX 8 1 9 2 10 3 11 4 12 5 13 6 14 7 15 8 16 9 7 10 6 11 5 12
REMARK SMILES IDX 4 13 3 14 2 15 1 16
REMARK H PARENT
REMARK Flexibility Score: inf
ROOT
ATOM      1  C   UNL     1       4.619  10.436   8.807  1.00  0.00     0.000 C 
ENDROOT
BRANCH   1   2
ATOM      2  C   UNL     1       5.301  10.082   7.477  1.00  0.00     0.000 C 
BRANCH   2   3
ATOM      3  C   UNL     1       4.832  10.973   6.314  1.00  0.00     0.000 C 
BRANCH   3   4
ATOM      4  C   UNL     1       4.013  12.185   6.793  1.00  0.00     0.000 C 
BRANCH   4   5
ATOM      5  C   UNL     1       4.657  13.528   6.402  1.00  0.00     0.006 C 
BRANCH   5   6
ATOM      6  C   UNL     1       5.129  14.378   7.593  1.00  0.00     0.053 C 
BRANCH   6   7
ATOM      7  C   UNL     1       6.232  13.714   8.357  1.00  0.00     0.041 C 
ATOM      8  O   UNL     1       6.137  13.558   9.602  1.00  0.00    -0.550 OA
ATOM      9  O   UNL     1       7.352  13.235   7.687  1.00  0.00    -0.550 OA
ENDBRANCH   6   7
ENDBRANCH   5   6
ENDBRANCH   4   5
ENDBRANCH   3   4
ENDBRANCH   2   3
ENDBRANCH   1   2
BRANCH   1  10
ATOM     10  C   UNL     1       3.744   9.276   9.300  1.00  0.00     0.000 C 
BRANCH  10  11
ATOM     11  C   UNL     1       4.198   7.944   8.686  1.00  0.00    -0.000 C 
BRANCH  11  12
ATOM     12  C   UNL     1       4.639   6.922   9.746  1.00  0.00    -0.000 C 
BRANCH  12  13
ATOM     13  C   UNL     1       3.835   5.615   9.679  1.00  0.00    -0.000 C 
BRANCH  13  14
ATOM     14  C   UNL     1       3.551   5.219   8.225  1.00  0.00    -0.000 C 
BRANCH  14  15
ATOM     15  C   UNL     1       2.352   4.267   8.137  1.00  0.00    -0.003 C 
ATOM     16  C   UNL     1       1.575   4.238   9.450  1.00  0.00     0.004 C 
ENDBRANCH  14  15
ENDBRANCH  13  14
ENDBRANCH  12  13
ENDBRANCH  11  12
ENDBRANCH  10  11
ENDBRANCH   1  10
TORSDOF 12
ENDMDL
MODEL 3
REMARK VINA RESULT:    -3.814      1.394      2.724
REMARK INTER + INTRA:          -7.739
REMARK INTER:                  -7.087
REMARK INTRA:                  -0.652
REMARK UNBOUND:                -1.249
REMARK SMILES CCCCCCCCCCCCCC(=O)[O-]
REMARK SMILES IDX 8 1 9 2 10 3 11 4 12 5 13 6 14 7 15 8 16 9 7 10 6 11 5 12
REMARK SMILES IDX 4 13 3 14 2 15 1 16
REMARK H PARENT
REMARK Flexibility Score: inf
ROOT
ATOM      1  C   UNL     1       3.787   9.090   8.762  1.00  0.00     0.000 C 
ENDROOT
BRANCH   1   2
ATOM      2  C   UNL     1       4.632   7.856   9.118  1.00  0.00     0.000 C 
BRANCH   2   3
ATOM      3  C   UNL     1       3.774   6.652   9.539  1.00  0.00     0.000 C 
BRANCH   3   4
ATOM      4  C   UNL     1       3.864   5.485   8.539  1.00  0.00     0.000 C 
BRANCH   4   5
ATOM      5  C   UNL     1       2.598   4.608   8.534  1.00  0.00     0.006 C 
BRANCH   5   6
ATOM      6  C   UNL     1       1.822   4.603   9.862  1.00  0.00     0.053 C 
BRANCH   6   7
ATOM      7  C   UNL     1       0.615   3.720   9.804  1.00  0.00     0.041 C 
ATOM      8  O   UNL     1      -0.539   4.224   9.788  1.00  0.00    -0.550 OA
ATOM      9  O   UNL     1       0.763   2.340   9.734  1.00  0.00    -0.550 OA
ENDBRANCH   6   7
ENDBRANCH   5   6
ENDBRANCH   4   5
ENDBRANCH   3   4
ENDBRANCH   2   3
ENDBRANCH   1   2
BRANCH   1  10
ATOM     10  C   UNL     1       4.682  10.300   8.465  1.00  0.00     0.000 C 
BRANCH  10  11
ATOM     11  C   UNL     1       5.359  10.160   7.094  1.00  0.00    -0.000 C 
BRANCH  11  12
ATOM     12  C   UNL     1       5.040  11.333   6.153  1.00  0.00    -0.000 C 
BRANCH  12  13
ATOM     13  C   UNL     1       4.166  12.405   6.819  1.00  0.00    -0.000 C 
BRANCH  13  14
ATOM     14  C   UNL     1       4.656  13.814   6.462  1.00  0.00    -0.000 C 
BRANCH  14  15
ATOM     15  C   UNL     1       5.398  14.455   7.641  1.00  0.00    -0.003 C 
ATOM     16  C   UNL     1       6.831  13.937   7.736  1.00  0.00     0.004 C 
ENDBRANCH  14  15
ENDBRANCH  13  14
ENDBRANCH  12  13
ENDBRANCH  11  12
ENDBRANCH  10  11
ENDBRANCH   1  10
TORSDOF 12
ENDMDL
MODEL 4
REMARK VINA RESULT:    -3.725      3.078      6.320
REMARK INTER + INTRA:          -7.588
REMARK INTER:                  -6.177
REMARK INTRA:                  -1.411
REMARK UNBOUND:                -1.249
REMARK SMILES CCCCCCCCCCCCCC(=O)[O-]
REMARK SMILES IDX 8 1 9 2 10 3 11 4 12 5 13 6 14 7 15 8 16 9 7 10 6 11 5 12
REMARK SMILES IDX 4 13 3 14 2 15 1 16
REMARK H PARENT
REMARK Flexibility Score: inf
ROOT
ATOM      1  C   UNL     1       4.536  13.396   6.164  1.00  0.00     0.000 C 
ENDROOT
BRANCH   1   2
ATOM      2  C   UNL     1       4.907  14.388   7.277  1.00  0.00     0.000 C 
BRANCH   2   3
ATOM      3  C   UNL     1       6.093  13.906   8.129  1.00  0.00     0.000 C 
BRANCH   3   4
ATOM      4  C   UNL     1       7.437  14.475   7.644  1.00  0.00     0.000 C 
BRANCH   4   5
ATOM      5  C   UNL     1       8.499  13.381   7.421  1.00  0.00     0.006 C 
BRANCH   5   6
ATOM      6  C   UNL     1       8.147  12.017   8.037  1.00  0.00     0.053 C 
BRANCH   6   7
ATOM      7  C   UNL     1       8.617  10.878   7.186  1.00  0.00     0.041 C 
ATOM      8  O   UNL     1       8.704   9.719   7.670  1.00  0.00    -0.550 OA
ATOM      9  O   UNL     1       8.925  11.089   5.848  1.00  0.00    -0.550 OA
ENDBRANCH   6   7
ENDBRANCH   5   6
ENDBRANCH   4   5
ENDBRANCH   3   4
ENDBRANCH   2   3
ENDBRANCH   1   2
BRANCH   1  10
ATOM     10  C   UNL     1       4.045  12.068   6.753  1.00  0.00     0.000 C 
BRANCH  10  11
ATOM     11  C   UNL     1       4.986  10.915   6.372  1.00  0.00    -0.000 C 
BRANCH  11  12
ATOM     12  C   UNL     1       5.147   9.885   7.500  1.00  0.00    -0.000 C 
BRANCH  12  13
ATOM     13  C   UNL     1       4.418  10.296   8.788  1.00  0.00    -0.000 C 
BRANCH  13  14
ATOM     14  C   UNL     1       3.794   9.079   9.479  1.00  0.00    -0.000 C 
BRANCH  14  15
ATOM     15  C   UNL     1       4.628   7.816   9.232  1.00  0.00    -0.003 C 
ATOM     16  C   UNL     1       3.735   6.591   9.057  1.00  0.00     0.004 C 
ENDBRANCH  14  15
ENDBRANCH  13  14
ENDBRANCH  12  13
ENDBRANCH  11  12
ENDBRANCH  10  11
ENDBRANCH   1  10
TORSDOF 12
ENDMDL
MODEL 5
REMARK VINA RESULT:    -3.673     15.743     17.065
REMARK INTER + INTRA:          -7.499
REMARK INTER:                  -6.269
REMARK INTRA:                  -1.230
REMARK UNBOUND:                -1.249
REMARK SMILES CCCCCCCCCCCCCC(=O)[O-]
REMARK SMILES IDX 8 1 9 2 10 3 11 4 12 5 13 6 14 7 15 8 16 9 7 10 6 11 5 12
REMARK SMILES IDX 4 13 3 14 2 15 1 16
REMARK H PARENT
REMARK Flexibility Score: inf
ROOT
ATOM      1  C   UNL     1       2.967   4.200  -9.023  1.00  0.00     0.000 C 
ENDROOT
BRANCH   1   2
ATOM      2  C   UNL     1       4.016   3.576  -9.955  1.00  0.00     0.000 C 
BRANCH   2   3
ATOM      3  C   UNL     1       5.457   3.819  -9.473  1.00  0.00     0.000 C 
BRANCH   3   4
ATOM      4  C   UNL     1       5.676   3.364  -8.020  1.00  0.00     0.000 C 
BRANCH   4   5
ATOM      5  C   UNL     1       6.085   1.883  -7.916  1.00  0.00     0.006 C 
BRANCH   5   6
ATOM      6  C   UNL     1       4.919   0.918  -7.643  1.00  0.00     0.053 C 
BRANCH   6   7
ATOM      7  C   UNL     1       4.635   0.779  -6.179  1.00  0.00     0.041 C 
ATOM      8  O   UNL     1       5.434   1.253  -5.330  1.00  0.00    -0.550 OA
ATOM      9  O   UNL     1       3.468   0.155  -5.753  1.00  0.00    -0.550 OA
ENDBRANCH   6   7
ENDBRANCH   5   6
ENDBRANCH   4   5
ENDBRANCH   3   4
ENDBRANCH   2   3
ENDBRANCH   1   2
BRANCH   1  10
ATOM     10  C   UNL     1       1.967   5.052  -9.815  1.00  0.00     0.000 C 
BRANCH  10  11
ATOM     11  C   UNL     1       1.908   6.485  -9.265  1.00  0.00    -0.000 C 
BRANCH  11  12
ATOM     12  C   UNL     1       3.273   7.189  -9.297  1.00  0.00    -0.000 C 
BRANCH  12  13
ATOM     13  C   UNL     1       3.390   8.303  -8.246  1.00  0.00    -0.000 C 
BRANCH  13  14
ATOM     14  C   UNL     1       4.837   8.449  -7.760  1.00  0.00    -0.000 C 
BRANCH  14  15
ATOM     15  C   UNL     1       5.653   7.188  -8.068  1.00  0.00    -0.003 C 
ATOM     16  C   UNL     1       7.092   7.331  -7.581  1.00  0.00     0.004 C 
ENDBRANCH  14  15
ENDBRANCH  13  14
ENDBRANCH  12  13
ENDBRANCH  11  12
ENDBRANCH  10  11
ENDBRANCH   1  10
TORSDOF 12
ENDMDL
MODEL 6
REMARK VINA RESULT:    -3.583      2.197      3.915
REMARK INTER + INTRA:          -7.347
REMARK INTER:                  -6.593
REMARK INTRA:                  -0.753
REMARK UNBOUND:                -1.249
REMARK SMILES CCCCCCCCCCCCCC(=O)[O-]
REMARK SMILES IDX 8 1 9 2 10 3 11 4 12 5 13 6 14 7 15 8 16 9 7 10 6 11 5 12
REMARK SMILES IDX 4 13 3 14 2 15 1 16
REMARK H PARENT
REMARK Flexibility Score: inf
ROOT
ATOM      1  C   UNL     1       4.131   7.679   8.923  1.00  0.00     0.000 C 
ENDROOT
BRANCH   1   2
ATOM      2  C   UNL     1       3.846   6.649  10.026  1.00  0.00     0.000 C 
BRANCH   2   3
ATOM      3  C   UNL     1       4.007   5.199   9.539  1.00  0.00     0.000 C 
BRANCH   3   4
ATOM      4  C   UNL     1       3.435   4.984   8.127  1.00  0.00     0.000 C 
BRANCH   4   5
ATOM      5  C   UNL     1       4.378   4.171   7.221  1.00  0.00     0.006 C 
BRANCH   5   6
ATOM      6  C   UNL     1       5.706   3.768   7.883  1.00  0.00     0.053 C 
BRANCH   6   7
ATOM      7  C   UNL     1       6.743   3.383   6.875  1.00  0.00     0.041 C 
ATOM      8  O   UNL     1       6.644   3.772   5.682  1.00  0.00    -0.550 OA
ATOM      9  O   UNL     1       7.840   2.622   7.261  1.00  0.00    -0.550 OA
ENDBRANCH   6   7
ENDBRANCH   5   6
ENDBRANCH   4   5
ENDBRANCH   3   4
ENDBRANCH   2   3
ENDBRANCH   1   2
BRANCH   1  10
ATOM     10  C   UNL     1       4.216   9.096   9.505  1.00  0.00     0.000 C 
BRANCH  10  11
ATOM     11  C   UNL     1       4.059  10.155   8.403  1.00  0.00    -0.000 C 
BRANCH  11  12
ATOM     12  C   UNL     1       5.244  10.172   7.425  1.00  0.00    -0.000 C 
BRANCH  12  13
ATOM     13  C   UNL     1       5.144  11.304   6.393  1.00  0.00    -0.000 C 
BRANCH  13  14
ATOM     14  C   UNL     1       3.996  12.261   6.736  1.00  0.00    -0.000 C 
BRANCH  14  15
ATOM     15  C   UNL     1       4.466  13.720   6.704  1.00  0.00    -0.003 C 
ATOM     16  C   UNL     1       5.627  13.946   7.668  1.00  0.00     0.004 C 
ENDBRANCH  14  15
ENDBRANCH  13  14
ENDBRANCH  12  13
ENDBRANCH  11  12
ENDBRANCH  10  11
ENDBRANCH   1  10
TORSDOF 12
ENDMDL
MODEL 7
REMARK VINA RESULT:    -3.548      1.003      2.022
REMARK INTER + INTRA:          -7.286
REMARK INTER:                  -6.269
REMARK INTRA:                  -1.017
REMARK UNBOUND:                -1.249
REMARK SMILES CCCCCCCCCCCCCC(=O)[O-]
REMARK SMILES IDX 8 1 9 2 10 3 11 4 12 5 13 6 14 7 15 8 16 9 7 10 6 11 5 12
REMARK SMILES IDX 4 13 3 14 2 15 1 16
REMARK H PARENT
REMARK Flexibility Score: inf
ROOT
ATOM      1  C   UNL     1       5.617   9.907   9.320  1.00  0.00     0.000 C 
ENDROOT
BRANCH   1   2
ATOM      2  C   UNL     1       5.572   8.378   9.467  1.00  0.00     0.000 C 
BRANCH   2   3
ATOM      3  C   UNL     1       4.149   7.847   9.709  1.00  0.00     0.000 C 
BRANCH   3   4
ATOM      4  C   UNL     1       3.801   6.658   8.795  1.00  0.00     0.000 C 
BRANCH   4   5
ATOM      5  C   UNL     1       4.695   5.430   9.051  1.00  0.00     0.006 C 
BRANCH   5   6
ATOM      6  C   UNL     1       4.638   4.361   7.947  1.00  0.00     0.053 C 
BRANCH   6   7
ATOM      7  C   UNL     1       3.232   4.057   7.530  1.00  0.00     0.041 C 
ATOM      8  O   UNL     1       2.844   4.328   6.363  1.00  0.00    -0.550 OA
ATOM      9  O   UNL     1       2.359   3.443   8.420  1.00  0.00    -0.550 OA
ENDBRANCH   6   7
ENDBRANCH   5   6
ENDBRANCH   4   5
ENDBRANCH   3   4
ENDBRANCH   2   3
ENDBRANCH   1   2
BRANCH   1  10
ATOM     10  C   UNL     1       6.018  10.309   7.895  1.00  0.00     0.000 C 
BRANCH  10  11
ATOM     11  C   UNL     1       4.785  10.423   6.987  1.00  0.00    -0.000 C 
BRANCH  11  12
ATOM     12  C   UNL     1       4.844  11.645   6.058  1.00  0.00    -0.000 C 
BRANCH  12  13
ATOM     13  C   UNL     1       4.169  12.884   6.667  1.00  0.00    -0.000 C 
BRANCH  13  14
ATOM     14  C   UNL     1       5.148  14.061   6.745  1.00  0.00    -0.000 C 
BRANCH  14  15
ATOM     15  C   UNL     1       5.869  14.090   8.098  1.00  0.00    -0.003 C 
ATOM     16  C   UNL     1       7.366  13.846   7.929  1.00  0.00     0.004 C 
ENDBRANCH  14  15
ENDBRANCH  13  14
ENDBRANCH  12  13
ENDBRANCH  11  12
ENDBRANCH  10  11
ENDBRANCH   1  10
TORSDOF 12
ENDMDL
MODEL 8
REMARK VINA RESULT:    -3.491     18.034     20.857
REMARK INTER + INTRA:          -7.190
REMARK INTER:                  -5.595
REMARK INTRA:                  -1.594
REMARK UNBOUND:                -1.249
REMARK SMILES CCCCCCCCCCCCCC(=O)[O-]
REMARK SMILES IDX 8 1 9 2 10 3 11 4 12 5 13 6 14 7 15 8 16 9 7 10 6 11 5 12
REMARK SMILES IDX 4 13 3 14 2 15 1 16
REMARK H PARENT
REMARK Flexibility Score: inf
ROOT
ATOM      1  C   UNL     1      -6.391   0.755  -6.356  1.00  0.00     0.000 C 
ENDROOT
BRANCH   1   2
ATOM      2  C   UNL     1      -7.336   1.958  -6.229  1.00  0.00     0.000 C 
BRANCH   2   3
ATOM      3  C   UNL     1      -7.200   2.680  -4.878  1.00  0.00     0.000 C 
BRANCH   3   4
ATOM      4  C   UNL     1      -8.501   2.647  -4.058  1.00  0.00     0.000 C 
BRANCH   4   5
ATOM      5  C   UNL     1      -8.401   1.736  -2.820  1.00  0.00     0.006 C 
BRANCH   5   6
ATOM      6  C   UNL     1      -7.050   1.017  -2.666  1.00  0.00     0.053 C 
BRANCH   6   7
ATOM      7  C   UNL     1      -6.949   0.282  -1.366  1.00  0.00     0.041 C 
ATOM      8  O   UNL     1      -7.157   0.883  -0.280  1.00  0.00    -0.550 OA
ATOM      9  O   UNL     1      -6.658  -1.077  -1.356  1.00  0.00    -0.550 OA
ENDBRANCH   6   7
ENDBRANCH   5   6
ENDBRANCH   4   5
ENDBRANCH   3   4
ENDBRANCH   2   3
ENDBRANCH   1   2
BRANCH   1  10
ATOM     10  C   UNL     1      -7.172  -0.524  -6.684  1.00  0.00     0.000 C 
BRANCH  10  11
ATOM     11  C   UNL     1      -8.636  -0.406  -6.235  1.00  0.00    -0.000 C 
BRANCH  11  12
ATOM     12  C   UNL     1      -9.160  -1.691  -5.576  1.00  0.00    -0.000 C 
BRANCH  12  13
ATOM     13  C   UNL     1      -8.842  -1.760  -4.075  1.00  0.00    -0.000 C 
BRANCH  13  14
ATOM     14  C   UNL     1      -8.479  -3.189  -3.655  1.00  0.00    -0.000 C 
BRANCH  14  15
ATOM     15  C   UNL     1      -8.449  -4.129  -4.866  1.00  0.00    -0.003 C 
ATOM     16  C   UNL     1      -7.174  -4.967  -4.880  1.00  0.00     0.004 C 
ENDBRANCH  14  15
ENDBRANCH  13  14
ENDBRANCH  12  13
ENDBRANCH  11  12
ENDBRANCH  10  11
ENDBRANCH   1  10
TORSDOF 12
ENDMDL
MODEL 9
REMARK VINA RESULT:    -3.476     18.441     20.883
REMARK INTER + INTRA:          -7.163
REMARK INTER:                  -5.555
REMARK INTRA:                  -1.608
REMARK UNBOUND:                -1.249
REMARK SMILES CCCCCCCCCCCCCC(=O)[O-]
REMARK SMILES IDX 8 1 9 2 10 3 11 4 12 5 13 6 14 7 15 8 16 9 7 10 6 11 5 12
REMARK SMILES IDX 4 13 3 14 2 15 1 16
REMARK H PARENT
REMARK Flexibility Score: inf
ROOT
ATOM      1  C   UNL     1      -6.840  -0.165  -1.719  1.00  0.00     0.000 C 
ENDROOT
BRANCH   1   2
ATOM      2  C   UNL     1      -6.368   1.123  -2.409  1.00  0.00     0.000 C 
BRANCH   2   3
ATOM      3  C   UNL     1      -6.639   1.120  -3.922  1.00  0.00     0.000 C 
BRANCH   3   4
ATOM      4  C   UNL     1      -6.729   2.540  -4.508  1.00  0.00     0.000 C 
BRANCH   4   5
ATOM      5  C   UNL     1      -8.180   3.042  -4.629  1.00  0.00     0.006 C 
BRANCH   5   6
ATOM      6  C   UNL     1      -8.588   3.475  -6.047  1.00  0.00     0.053 C 
BRANCH   6   7
ATOM      7  C   UNL     1      -8.509   2.344  -7.025  1.00  0.00     0.041 C 
ATOM      8  O   UNL     1      -7.656   2.364  -7.951  1.00  0.00    -0.550 OA
ATOM      9  O   UNL     1      -9.355   1.249  -6.894  1.00  0.00    -0.550 OA
ENDBRANCH   6   7
ENDBRANCH   5   6
ENDBRANCH   4   5
ENDBRANCH   3   4
ENDBRANCH   2   3
ENDBRANCH   1   2
BRANCH   1  10
ATOM     10  C   UNL     1      -7.990   0.123  -0.746  1.00  0.00     0.000 C 
BRANCH  10  11
ATOM     11  C   UNL     1      -9.259   0.543  -1.501  1.00  0.00    -0.000 C 
BRANCH  11  12
ATOM     12  C   UNL     1      -9.907  -0.622  -2.266  1.00  0.00    -0.000 C 
BRANCH  12  13
ATOM     13  C   UNL     1      -9.838  -0.441  -3.789  1.00  0.00    -0.000 C 
BRANCH  13  14
ATOM     14  C   UNL     1      -9.221  -1.673  -4.462  1.00  0.00    -0.000 C 
BRANCH  14  15
ATOM     15  C   UNL     1      -8.736  -2.686  -3.418  1.00  0.00    -0.003 C 
ATOM     16  C   UNL     1      -8.189  -3.945  -4.085  1.00  0.00     0.004 C 
ENDBRANCH  14  15
ENDBRANCH  13  14
ENDBRANCH  12  13
ENDBRANCH  11  12
ENDBRANCH  10  11
ENDBRANCH   1  10
TORSDOF 12
ENDMDL
