MODEL 1
REMARK VINA RESULT:    -7.528      0.000      0.000
REMARK INTER + INTRA:          -9.205
REMARK INTER:                  -9.069
REMARK INTRA:                  -0.137
REMARK UNBOUND:                -0.137
REMARK SMILES O=c1c(O)c(-c2ccc(O)c(O)c2)oc2cc(O)cc(O)c12
REMARK SMILES IDX 5 1 3 2 2 3 1 4 22 5 20 6 19 7 17 8 16 9 15 10 14 11 6 12
REMARK SMILES IDX 7 13 8 14 9 15 13 16 11 17 10 18 12 20 4 22 21 24 18 26
REMARK H PARENT 10 19 12 21 4 23 21 25 18 27
REMARK Flexibility Score: inf
ROOT
ATOM      1  C   UNL     1     -30.444  13.614   1.063  1.00  0.00     0.180 A 
ATOM      2  C   UNL     1     -30.427  12.616   0.072  1.00  0.00     0.208 A 
ATOM      3  C   UNL     1     -31.572  11.824  -0.115  1.00  0.00     0.238 A 
ATOM      4  O   UNL     1     -31.570  10.970  -1.040  1.00  0.00    -0.285 OA
ATOM      5  C   UNL     1     -32.711  12.028   0.699  1.00  0.00     0.111 A 
ATOM      6  C   UNL     1     -33.910  11.257   0.622  1.00  0.00     0.134 A 
ATOM      7  C   UNL     1     -35.021  11.632   1.387  1.00  0.00     0.093 A 
ATOM      8  C   UNL     1     -34.957  12.706   2.273  1.00  0.00     0.123 A 
ATOM      9  C   UNL     1     -33.771  13.431   2.399  1.00  0.00     0.094 A 
ATOM     10  C   UNL     1     -32.657  13.104   1.623  1.00  0.00     0.146 A 
ATOM     11  O   UNL     1     -31.550  13.824   1.766  1.00  0.00    -0.452 OA
ENDROOT
BRANCH   1  12
ATOM     12  C   UNL     1     -29.268  14.471   1.337  1.00  0.00     0.025 A 
ATOM     13  C   UNL     1     -28.615  14.372   2.576  1.00  0.00     0.016 A 
ATOM     14  C   UNL     1     -27.491  15.156   2.848  1.00  0.00     0.051 A 
ATOM     15  C   UNL     1     -26.993  16.036   1.883  1.00  0.00     0.157 A 
ATOM     16  C   UNL     1     -28.752  15.341   0.360  1.00  0.00     0.062 A 
ATOM     17  C   UNL     1     -27.623  16.127   0.631  1.00  0.00     0.158 A 
BRANCH  15  18
ATOM     18  O   UNL     1     -25.870  16.807   2.184  1.00  0.00    -0.504 OA
ATOM     19  H   UNL     1     -25.037  16.790   1.607  1.00  0.00     0.293 HD
ENDBRANCH  15  18
BRANCH  17  20
ATOM     20  O   UNL     1     -27.122  16.992  -0.341  1.00  0.00    -0.504 OA
ATOM     21  H   UNL     1     -27.196  16.779  -1.330  1.00  0.00     0.293 HD
ENDBRANCH  17  20
ENDBRANCH   1  12
BRANCH   2  22
ATOM     22  O   UNL     1     -29.299  12.446  -0.735  1.00  0.00    -0.502 OA
ATOM     23  H   UNL     1     -28.420  12.097  -0.375  1.00  0.00     0.293 HD
ENDBRANCH   2  22
BRANCH   6  24
ATOM     24  O   UNL     1     -34.051  10.109  -0.162  1.00  0.00    -0.507 OA
ATOM     25  H   UNL     1     -33.650   9.209   0.058  1.00  0.00     0.293 HD
ENDBRANCH   6  24
BRANCH   8  26
ATOM     26  O   UNL     1     -36.078  13.041   3.030  1.00  0.00    -0.508 OA
ATOM     27  H   UNL     1     -36.332  14.007   3.202  1.00  0.00     0.293 HD
ENDBRANCH   8  26
TORSDOF 6
ENDMDL
MODEL 2
REMARK VINA RESULT:    -7.489      2.342      6.864
REMARK INTER + INTRA:          -9.158
REMARK INTER:                  -8.824
REMARK INTRA:                  -0.334
REMARK UNBOUND:                -0.137
REMARK SMILES O=c1c(O)c(-c2ccc(O)c(O)c2)oc2cc(O)cc(O)c12
REMARK SMILES IDX 5 1 3 2 2 3 1 4 22 5 20 6 19 7 17 8 16 9 15 10 14 11 6 12
REMARK SMILES IDX 7 13 8 14 9 15 13 16 11 17 10 18 12 20 4 22 21 24 18 26
REMARK H PARENT 10 19 12 21 4 23 21 25 18 27
REMARK Flexibility Score: inf
ROOT
ATOM      1  C   UNL     1     -31.859  14.010   0.720  1.00  0.00     0.180 A 
ATOM      2  C   UNL     1     -31.051  14.909   1.439  1.00  0.00     0.208 A 
ATOM      3  C   UNL     1     -29.677  14.644   1.559  1.00  0.00     0.238 A 
ATOM      4  O   UNL     1     -28.951  15.480   2.157  1.00  0.00    -0.285 OA
ATOM      5  C   UNL     1     -29.131  13.477   0.973  1.00  0.00     0.111 A 
ATOM      6  C   UNL     1     -27.760  13.089   1.066  1.00  0.00     0.134 A 
ATOM      7  C   UNL     1     -27.305  11.984   0.338  1.00  0.00     0.093 A 
ATOM      8  C   UNL     1     -28.181  11.214  -0.426  1.00  0.00     0.123 A 
ATOM      9  C   UNL     1     -29.535  11.549  -0.477  1.00  0.00     0.094 A 
ATOM     10  C   UNL     1     -30.012  12.668   0.210  1.00  0.00     0.146 A 
ATOM     11  O   UNL     1     -31.305  12.959   0.127  1.00  0.00    -0.452 OA
ENDROOT
BRANCH   1  12
ATOM     12  C   UNL     1     -33.318  14.209   0.572  1.00  0.00     0.025 A 
ATOM     13  C   UNL     1     -33.814  14.852  -0.573  1.00  0.00     0.016 A 
ATOM     14  C   UNL     1     -35.190  15.032  -0.745  1.00  0.00     0.051 A 
ATOM     15  C   UNL     1     -36.089  14.559   0.215  1.00  0.00     0.157 A 
ATOM     16  C   UNL     1     -34.226  13.715   1.525  1.00  0.00     0.062 A 
ATOM     17  C   UNL     1     -35.606  13.893   1.355  1.00  0.00     0.158 A 
BRANCH  15  18
ATOM     18  O   UNL     1     -37.456  14.754   0.018  1.00  0.00    -0.504 OA
ATOM     19  H   UNL     1     -38.043  15.191   0.718  1.00  0.00     0.293 HD
ENDBRANCH  15  18
BRANCH  17  20
ATOM     20  O   UNL     1     -36.499  13.405   2.308  1.00  0.00    -0.504 OA
ATOM     21  H   UNL     1     -36.547  12.418   2.534  1.00  0.00     0.293 HD
ENDBRANCH  17  20
ENDBRANCH   1  12
BRANCH   2  22
ATOM     22  O   UNL     1     -31.607  16.067   1.990  1.00  0.00    -0.502 OA
ATOM     23  H   UNL     1     -31.505  16.307   2.969  1.00  0.00     0.293 HD
ENDBRANCH   2  22
BRANCH   6  24
ATOM     24  O   UNL     1     -26.820  13.735   1.875  1.00  0.00    -0.507 OA
ATOM     25  H   UNL     1     -26.957  14.635   2.310  1.00  0.00     0.293 HD
ENDBRANCH   6  24
BRANCH   8  26
ATOM     26  O   UNL     1     -27.695  10.111  -1.125  1.00  0.00    -0.508 OA
ATOM     27  H   UNL     1     -27.521   9.225  -0.662  1.00  0.00     0.293 HD
ENDBRANCH   8  26
TORSDOF 6
ENDMDL
MODEL 3
REMARK VINA RESULT:    -7.351      1.470      3.065
REMARK INTER + INTRA:          -8.992
REMARK INTER:                  -8.658
REMARK INTRA:                  -0.334
REMARK UNBOUND:                -0.137
REMARK SMILES O=c1c(O)c(-c2ccc(O)c(O)c2)oc2cc(O)cc(O)c12
REMARK SMILES IDX 5 1 3 2 2 3 1 4 22 5 20 6 19 7 17 8 16 9 15 10 14 11 6 12
REMARK SMILES IDX 7 13 8 14 9 15 13 16 11 17 10 18 12 20 4 22 21 24 18 26
REMARK H PARENT 10 19 12 21 4 23 21 25 18 27
REMARK Flexibility Score: inf
ROOT
ATOM      1  C   UNL     1     -30.187  13.542   0.916  1.00  0.00     0.180 A 
ATOM      2  C   UNL     1     -31.531  13.927   1.069  1.00  0.00     0.208 A 
ATOM      3  C   UNL     1     -32.543  13.029   0.693  1.00  0.00     0.238 A 
ATOM      4  O   UNL     1     -33.743  13.359   0.883  1.00  0.00    -0.285 OA
ATOM      5  C   UNL     1     -32.201  11.766   0.155  1.00  0.00     0.111 A 
ATOM      6  C   UNL     1     -33.145  10.794  -0.296  1.00  0.00     0.134 A 
ATOM      7  C   UNL     1     -32.696   9.527  -0.688  1.00  0.00     0.093 A 
ATOM      8  C   UNL     1     -31.337   9.218  -0.709  1.00  0.00     0.123 A 
ATOM      9  C   UNL     1     -30.401  10.181  -0.326  1.00  0.00     0.094 A 
ATOM     10  C   UNL     1     -30.820  11.441   0.104  1.00  0.00     0.146 A 
ATOM     11  O   UNL     1     -29.899  12.325   0.470  1.00  0.00    -0.452 OA
ENDROOT
BRANCH   1  12
ATOM     12  C   UNL     1     -29.066  14.443   1.266  1.00  0.00     0.025 A 
ATOM     13  C   UNL     1     -28.470  14.342   2.533  1.00  0.00     0.016 A 
ATOM     14  C   UNL     1     -27.396  15.168   2.879  1.00  0.00     0.051 A 
ATOM     15  C   UNL     1     -26.892  16.093   1.960  1.00  0.00     0.157 A 
ATOM     16  C   UNL     1     -28.544  15.359   0.337  1.00  0.00     0.062 A 
ATOM     17  C   UNL     1     -27.465  16.187   0.680  1.00  0.00     0.158 A 
BRANCH  15  18
ATOM     18  O   UNL     1     -25.821  16.904   2.333  1.00  0.00    -0.504 OA
ATOM     19  H   UNL     1     -25.420  17.588   1.702  1.00  0.00     0.293 HD
ENDBRANCH  15  18
BRANCH  17  20
ATOM     20  O   UNL     1     -26.957  17.097  -0.246  1.00  0.00    -0.504 OA
ATOM     21  H   UNL     1     -27.226  18.074  -0.232  1.00  0.00     0.293 HD
ENDBRANCH  17  20
ENDBRANCH   1  12
BRANCH   2  22
ATOM     22  O   UNL     1     -31.847  15.171   1.623  1.00  0.00    -0.502 OA
ATOM     23  H   UNL     1     -32.652  15.709   1.327  1.00  0.00     0.293 HD
ENDBRANCH   2  22
BRANCH   6  24
ATOM     24  O   UNL     1     -34.518  11.032  -0.403  1.00  0.00    -0.507 OA
ATOM     25  H   UNL     1     -34.930  11.904  -0.697  1.00  0.00     0.293 HD
ENDBRANCH   6  24
BRANCH   8  26
ATOM     26  O   UNL     1     -30.927   7.952  -1.121  1.00  0.00    -0.508 OA
ATOM     27  H   UNL     1     -31.596   7.214  -1.309  1.00  0.00     0.293 HD
ENDBRANCH   8  26
TORSDOF 6
ENDMDL
MODEL 4
REMARK VINA RESULT:    -7.108      2.051      7.564
REMARK INTER + INTRA:          -8.699
REMARK INTER:                  -8.886
REMARK INTRA:                   0.187
REMARK UNBOUND:                -0.137
REMARK SMILES O=c1c(O)c(-c2ccc(O)c(O)c2)oc2cc(O)cc(O)c12
REMARK SMILES IDX 5 1 3 2 2 3 1 4 22 5 20 6 19 7 17 8 16 9 15 10 14 11 6 12
REMARK SMILES IDX 7 13 8 14 9 15 13 16 11 17 10 18 12 20 4 22 21 24 18 26
REMARK H PARENT 10 19 12 21 4 23 21 25 18 27
REMARK Flexibility Score: inf
ROOT
ATOM      1  C   UNL     1     -33.494  13.110   2.066  1.00  0.00     0.180 A 
ATOM      2  C   UNL     1     -33.216  14.372   2.619  1.00  0.00     0.208 A 
ATOM      3  C   UNL     1     -31.976  14.975   2.353  1.00  0.00     0.238 A 
ATOM      4  O   UNL     1     -31.755  16.128   2.807  1.00  0.00    -0.285 OA
ATOM      5  C   UNL     1     -31.024  14.302   1.552  1.00  0.00     0.111 A 
ATOM      6  C   UNL     1     -29.720  14.801   1.251  1.00  0.00     0.134 A 
ATOM      7  C   UNL     1     -28.910  14.112   0.341  1.00  0.00     0.093 A 
ATOM      8  C   UNL     1     -29.327  12.909  -0.228  1.00  0.00     0.123 A 
ATOM      9  C   UNL     1     -30.576  12.382   0.105  1.00  0.00     0.094 A 
ATOM     10  C   UNL     1     -31.421  13.065   0.981  1.00  0.00     0.146 A 
ATOM     11  O   UNL     1     -32.605  12.535   1.264  1.00  0.00    -0.452 OA
ENDROOT
BRANCH   1  12
ATOM     12  C   UNL     1     -34.768  12.401   2.321  1.00  0.00     0.025 A 
ATOM     13  C   UNL     1     -35.972  13.123   2.316  1.00  0.00     0.016 A 
ATOM     14  C   UNL     1     -37.189  12.471   2.533  1.00  0.00     0.051 A 
ATOM     15  C   UNL     1     -37.223  11.090   2.744  1.00  0.00     0.157 A 
ATOM     16  C   UNL     1     -34.807  11.009   2.511  1.00  0.00     0.062 A 
ATOM     17  C   UNL     1     -36.027  10.353   2.728  1.00  0.00     0.158 A 
BRANCH  15  18
ATOM     18  O   UNL     1     -38.452  10.467   2.960  1.00  0.00    -0.504 OA
ATOM     19  H   UNL     1     -38.920   9.936   2.235  1.00  0.00     0.293 HD
ENDBRANCH  15  18
BRANCH  17  20
ATOM     20  O   UNL     1     -36.056   8.972   2.922  1.00  0.00    -0.504 OA
ATOM     21  H   UNL     1     -36.867   8.418   2.672  1.00  0.00     0.293 HD
ENDBRANCH  17  20
ENDBRANCH   1  12
BRANCH   2  22
ATOM     22  O   UNL     1     -34.180  15.029   3.390  1.00  0.00    -0.502 OA
ATOM     23  H   UNL     1     -34.405  14.746   4.336  1.00  0.00     0.293 HD
ENDBRANCH   2  22
BRANCH   6  24
ATOM     24  O   UNL     1     -29.169  15.945   1.835  1.00  0.00    -0.507 OA
ATOM     25  H   UNL     1     -28.368  16.444   1.478  1.00  0.00     0.293 HD
ENDBRANCH   6  24
BRANCH   8  26
ATOM     26  O   UNL     1     -28.488  12.242  -1.118  1.00  0.00    -0.508 OA
ATOM     27  H   UNL     1     -27.546  12.568  -1.302  1.00  0.00     0.293 HD
ENDBRANCH   8  26
TORSDOF 6
ENDMDL
MODEL 5
REMARK VINA RESULT:    -7.001      1.341      3.228
REMARK INTER + INTRA:          -8.570
REMARK INTER:                  -8.507
REMARK INTRA:                  -0.064
REMARK UNBOUND:                -0.137
REMARK SMILES O=c1c(O)c(-c2ccc(O)c(O)c2)oc2cc(O)cc(O)c12
REMARK SMILES IDX 5 1 3 2 2 3 1 4 22 5 20 6 19 7 17 8 16 9 15 10 14 11 6 12
REMARK SMILES IDX 7 13 8 14 9 15 13 16 11 17 10 18 12 20 4 22 21 24 18 26
REMARK H PARENT 10 19 12 21 4 23 21 25 18 27
REMARK Flexibility Score: inf
ROOT
ATOM      1  C   UNL     1     -31.131  14.539   1.127  1.00  0.00     0.180 A 
ATOM      2  C   UNL     1     -31.923  15.141   2.120  1.00  0.00     0.208 A 
ATOM      3  C   UNL     1     -33.136  14.535   2.484  1.00  0.00     0.238 A 
ATOM      4  O   UNL     1     -33.814  15.050   3.411  1.00  0.00    -0.285 OA
ATOM      5  C   UNL     1     -33.549  13.344   1.841  1.00  0.00     0.111 A 
ATOM      6  C   UNL     1     -34.778  12.666   2.103  1.00  0.00     0.134 A 
ATOM      7  C   UNL     1     -35.024  11.426   1.501  1.00  0.00     0.093 A 
ATOM      8  C   UNL     1     -34.118  10.871   0.599  1.00  0.00     0.123 A 
ATOM      9  C   UNL     1     -32.940  11.553   0.291  1.00  0.00     0.094 A 
ATOM     10  C   UNL     1     -32.650  12.775   0.902  1.00  0.00     0.146 A 
ATOM     11  O   UNL     1     -31.514  13.387   0.589  1.00  0.00    -0.452 OA
ENDROOT
BRANCH   1  12
ATOM     12  C   UNL     1     -29.852  15.132   0.672  1.00  0.00     0.025 A 
ATOM     13  C   UNL     1     -29.696  15.483  -0.677  1.00  0.00     0.016 A 
ATOM     14  C   UNL     1     -28.506  16.064  -1.125  1.00  0.00     0.051 A 
ATOM     15  C   UNL     1     -27.463  16.316  -0.229  1.00  0.00     0.157 A 
ATOM     16  C   UNL     1     -28.810  15.406   1.575  1.00  0.00     0.062 A 
ATOM     17  C   UNL     1     -27.616  15.991   1.129  1.00  0.00     0.158 A 
BRANCH  15  18
ATOM     18  O   UNL     1     -26.287  16.895  -0.705  1.00  0.00    -0.504 OA
ATOM     19  H   UNL     1     -25.373  16.599  -0.382  1.00  0.00     0.293 HD
ENDBRANCH  15  18
BRANCH  17  20
ATOM     20  O   UNL     1     -26.585  16.254   2.030  1.00  0.00    -0.504 OA
ATOM     21  H   UNL     1     -25.794  16.836   1.776  1.00  0.00     0.293 HD
ENDBRANCH  17  20
ENDBRANCH   1  12
BRANCH   2  22
ATOM     22  O   UNL     1     -31.485  16.305   2.758  1.00  0.00    -0.502 OA
ATOM     23  H   UNL     1     -32.052  16.801   3.434  1.00  0.00     0.293 HD
ENDBRANCH   2  22
BRANCH   6  24
ATOM     24  O   UNL     1     -35.793  13.178   2.916  1.00  0.00    -0.507 OA
ATOM     25  H   UNL     1     -36.686  13.509   2.583  1.00  0.00     0.293 HD
ENDBRANCH   6  24
BRANCH   8  26
ATOM     26  O   UNL     1     -34.403   9.642   0.008  1.00  0.00    -0.508 OA
ATOM     27  H   UNL     1     -34.868   9.582  -0.892  1.00  0.00     0.293 HD
ENDBRANCH   8  26
TORSDOF 6
ENDMDL
MODEL 6
REMARK VINA RESULT:    -6.984      2.394      6.767
REMARK INTER + INTRA:          -8.549
REMARK INTER:                  -8.572
REMARK INTRA:                   0.022
REMARK UNBOUND:                -0.137
REMARK SMILES O=c1c(O)c(-c2ccc(O)c(O)c2)oc2cc(O)cc(O)c12
REMARK SMILES IDX 5 1 3 2 2 3 1 4 22 5 20 6 19 7 17 8 16 9 15 10 14 11 6 12
REMARK SMILES IDX 7 13 8 14 9 15 13 16 11 17 10 18 12 20 4 22 21 24 18 26
REMARK H PARENT 10 19 12 21 4 23 21 25 18 27
REMARK Flexibility Score: inf
ROOT
ATOM      1  C   UNL     1     -32.088  13.564   0.528  1.00  0.00     0.180 A 
ATOM      2  C   UNL     1     -31.489  14.802   0.235  1.00  0.00     0.208 A 
ATOM      3  C   UNL     1     -30.170  14.823  -0.246  1.00  0.00     0.238 A 
ATOM      4  O   UNL     1     -29.658  15.930  -0.557  1.00  0.00    -0.285 OA
ATOM      5  C   UNL     1     -29.462  13.609  -0.413  1.00  0.00     0.111 A 
ATOM      6  C   UNL     1     -28.107  13.516  -0.856  1.00  0.00     0.134 A 
ATOM      7  C   UNL     1     -27.550  12.257  -1.110  1.00  0.00     0.093 A 
ATOM      8  C   UNL     1     -28.273  11.088  -0.876  1.00  0.00     0.123 A 
ATOM      9  C   UNL     1     -29.578  11.166  -0.387  1.00  0.00     0.094 A 
ATOM     10  C   UNL     1     -30.173  12.408  -0.158  1.00  0.00     0.146 A 
ATOM     11  O   UNL     1     -31.420  12.440   0.298  1.00  0.00    -0.452 OA
ENDROOT
BRANCH   1  12
ATOM     12  C   UNL     1     -33.466  13.463   1.062  1.00  0.00     0.025 A 
ATOM     13  C   UNL     1     -33.699  12.726   2.233  1.00  0.00     0.016 A 
ATOM     14  C   UNL     1     -34.987  12.634   2.767  1.00  0.00     0.051 A 
ATOM     15  C   UNL     1     -36.056  13.289   2.149  1.00  0.00     0.157 A 
ATOM     16  C   UNL     1     -34.538  14.138   0.454  1.00  0.00     0.062 A 
ATOM     17  C   UNL     1     -35.832  14.049   0.989  1.00  0.00     0.158 A 
BRANCH  15  18
ATOM     18  O   UNL     1     -37.331  13.178   2.704  1.00  0.00    -0.504 OA
ATOM     19  H   UNL     1     -37.655  13.802   3.434  1.00  0.00     0.293 HD
ENDBRANCH  15  18
BRANCH  17  20
ATOM     20  O   UNL     1     -36.891  14.717   0.376  1.00  0.00    -0.504 OA
ATOM     21  H   UNL     1     -36.983  15.726   0.427  1.00  0.00     0.293 HD
ENDBRANCH  17  20
ENDBRANCH   1  12
BRANCH   2  22
ATOM     22  O   UNL     1     -32.214  15.987   0.387  1.00  0.00    -0.502 OA
ATOM     23  H   UNL     1     -33.206  15.996   0.592  1.00  0.00     0.293 HD
ENDBRANCH   2  22
BRANCH   6  24
ATOM     24  O   UNL     1     -27.267  14.618  -1.033  1.00  0.00    -0.507 OA
ATOM     25  H   UNL     1     -26.866  14.901  -1.915  1.00  0.00     0.293 HD
ENDBRANCH   6  24
BRANCH   8  26
ATOM     26  O   UNL     1     -27.680   9.852  -1.125  1.00  0.00    -0.508 OA
ATOM     27  H   UNL     1     -27.458   9.210  -0.372  1.00  0.00     0.293 HD
ENDBRANCH   8  26
TORSDOF 6
ENDMDL
MODEL 7
REMARK VINA RESULT:    -6.938      2.142      7.100
REMARK INTER + INTRA:          -8.494
REMARK INTER:                  -8.341
REMARK INTRA:                  -0.152
REMARK UNBOUND:                -0.137
REMARK SMILES O=c1c(O)c(-c2ccc(O)c(O)c2)oc2cc(O)cc(O)c12
REMARK SMILES IDX 5 1 3 2 2 3 1 4 22 5 20 6 19 7 17 8 16 9 15 10 14 11 6 12
REMARK SMILES IDX 7 13 8 14 9 15 13 16 11 17 10 18 12 20 4 22 21 24 18 26
REMARK H PARENT 10 19 12 21 4 23 21 25 18 27
REMARK Flexibility Score: inf
ROOT
ATOM      1  C   UNL     1     -32.384  13.314   0.846  1.00  0.00     0.180 A 
ATOM      2  C   UNL     1     -32.526  14.615   0.334  1.00  0.00     0.208 A 
ATOM      3  C   UNL     1     -31.405  15.256  -0.218  1.00  0.00     0.238 A 
ATOM      4  O   UNL     1     -31.551  16.400  -0.723  1.00  0.00    -0.285 OA
ATOM      5  C   UNL     1     -30.154  14.596  -0.236  1.00  0.00     0.111 A 
ATOM      6  C   UNL     1     -28.944  15.166  -0.734  1.00  0.00     0.134 A 
ATOM      7  C   UNL     1     -27.793  14.374  -0.822  1.00  0.00     0.093 A 
ATOM      8  C   UNL     1     -27.789  13.055  -0.371  1.00  0.00     0.123 A 
ATOM      9  C   UNL     1     -28.952  12.505   0.172  1.00  0.00     0.094 A 
ATOM     10  C   UNL     1     -30.125  13.259   0.241  1.00  0.00     0.146 A 
ATOM     11  O   UNL     1     -31.212  12.697   0.755  1.00  0.00    -0.452 OA
ENDROOT
BRANCH   1  12
ATOM     12  C   UNL     1     -33.513  12.584   1.466  1.00  0.00     0.025 A 
ATOM     13  C   UNL     1     -34.107  13.092   2.632  1.00  0.00     0.016 A 
ATOM     14  C   UNL     1     -35.188  12.431   3.222  1.00  0.00     0.051 A 
ATOM     15  C   UNL     1     -35.701  11.265   2.648  1.00  0.00     0.157 A 
ATOM     16  C   UNL     1     -34.045  11.423   0.879  1.00  0.00     0.062 A 
ATOM     17  C   UNL     1     -35.131  10.759   1.468  1.00  0.00     0.158 A 
BRANCH  15  18
ATOM     18  O   UNL     1     -36.780  10.626   3.260  1.00  0.00    -0.504 OA
ATOM     19  H   UNL     1     -37.636  10.419   2.760  1.00  0.00     0.293 HD
ENDBRANCH  15  18
BRANCH  17  20
ATOM     20  O   UNL     1     -35.649   9.605   0.882  1.00  0.00    -0.504 OA
ATOM     21  H   UNL     1     -36.490   9.162   1.234  1.00  0.00     0.293 HD
ENDBRANCH  17  20
ENDBRANCH   1  12
BRANCH   2  22
ATOM     22  O   UNL     1     -33.776  15.241   0.342  1.00  0.00    -0.502 OA
ATOM     23  H   UNL     1     -34.537  14.930   0.934  1.00  0.00     0.293 HD
ENDBRANCH   2  22
BRANCH   6  24
ATOM     24  O   UNL     1     -28.814  16.502  -1.125  1.00  0.00    -0.507 OA
ATOM     25  H   UNL     1     -27.936  16.991  -1.218  1.00  0.00     0.293 HD
ENDBRANCH   6  24
BRANCH   8  26
ATOM     26  O   UNL     1     -26.621  12.301  -0.460  1.00  0.00    -0.508 OA
ATOM     27  H   UNL     1     -26.547  11.386  -0.029  1.00  0.00     0.293 HD
ENDBRANCH   8  26
TORSDOF 6
ENDMDL
MODEL 8
REMARK VINA RESULT:    -6.895      1.998      6.531
REMARK INTER + INTRA:          -8.442
REMARK INTER:                  -8.128
REMARK INTRA:                  -0.314
REMARK UNBOUND:                -0.137
REMARK SMILES O=c1c(O)c(-c2ccc(O)c(O)c2)oc2cc(O)cc(O)c12
REMARK SMILES IDX 5 1 3 2 2 3 1 4 22 5 20 6 19 7 17 8 16 9 15 10 14 11 6 12
REMARK SMILES IDX 7 13 8 14 9 15 13 16 11 17 10 18 12 20 4 22 21 24 18 26
REMARK H PARENT 10 19 12 21 4 23 21 25 18 27
REMARK Flexibility Score: inf
ROOT
ATOM      1  C   UNL     1     -31.982  13.459   0.396  1.00  0.00     0.180 A 
ATOM      2  C   UNL     1     -31.505  12.322  -0.278  1.00  0.00     0.208 A 
ATOM      3  C   UNL     1     -30.140  12.003  -0.194  1.00  0.00     0.238 A 
ATOM      4  O   UNL     1     -29.730  10.953  -0.755  1.00  0.00    -0.285 OA
ATOM      5  C   UNL     1     -29.267  12.833   0.548  1.00  0.00     0.111 A 
ATOM      6  C   UNL     1     -27.859  12.627   0.668  1.00  0.00     0.134 A 
ATOM      7  C   UNL     1     -27.115  13.435   1.534  1.00  0.00     0.093 A 
ATOM      8  C   UNL     1     -27.712  14.483   2.234  1.00  0.00     0.123 A 
ATOM      9  C   UNL     1     -29.077  14.730   2.080  1.00  0.00     0.094 A 
ATOM     10  C   UNL     1     -29.853  13.918   1.250  1.00  0.00     0.146 A 
ATOM     11  O   UNL     1     -31.150  14.180   1.138  1.00  0.00    -0.452 OA
ENDROOT
BRANCH   1  12
ATOM     12  C   UNL     1     -33.402  13.874   0.335  1.00  0.00     0.025 A 
ATOM     13  C   UNL     1     -33.853  14.630  -0.758  1.00  0.00     0.016 A 
ATOM     14  C   UNL     1     -35.194  15.015  -0.848  1.00  0.00     0.051 A 
ATOM     15  C   UNL     1     -36.106  14.635   0.142  1.00  0.00     0.157 A 
ATOM     16  C   UNL     1     -34.325  13.475   1.317  1.00  0.00     0.062 A 
ATOM     17  C   UNL     1     -35.671  13.858   1.228  1.00  0.00     0.158 A 
BRANCH  15  18
ATOM     18  O   UNL     1     -37.437  15.035   0.026  1.00  0.00    -0.504 OA
ATOM     19  H   UNL     1     -37.770  15.569  -0.768  1.00  0.00     0.293 HD
ENDBRANCH  15  18
BRANCH  17  20
ATOM     20  O   UNL     1     -36.579  13.464   2.211  1.00  0.00    -0.504 OA
ATOM     21  H   UNL     1     -36.303  13.372   3.182  1.00  0.00     0.293 HD
ENDBRANCH  17  20
ENDBRANCH   1  12
BRANCH   2  22
ATOM     22  O   UNL     1     -32.389  11.504  -0.988  1.00  0.00    -0.502 OA
ATOM     23  H   UNL     1     -32.666  10.587  -0.658  1.00  0.00     0.293 HD
ENDBRANCH   2  22
BRANCH   6  24
ATOM     24  O   UNL     1     -27.147  11.668  -0.058  1.00  0.00    -0.507 OA
ATOM     25  H   UNL     1     -26.262  11.273   0.224  1.00  0.00     0.293 HD
ENDBRANCH   6  24
BRANCH   8  26
ATOM     26  O   UNL     1     -26.936  15.277   3.076  1.00  0.00    -0.508 OA
ATOM     27  H   UNL     1     -26.593  16.184   2.780  1.00  0.00     0.293 HD
ENDBRANCH   8  26
TORSDOF 6
ENDMDL
MODEL 9
REMARK VINA RESULT:    -6.782      0.936      1.602
REMARK INTER + INTRA:          -8.306
REMARK INTER:                  -8.106
REMARK INTRA:                  -0.200
REMARK UNBOUND:                -0.137
REMARK SMILES O=c1c(O)c(-c2ccc(O)c(O)c2)oc2cc(O)cc(O)c12
REMARK SMILES IDX 5 1 3 2 2 3 1 4 22 5 20 6 19 7 17 8 16 9 15 10 14 11 6 12
REMARK SMILES IDX 7 13 8 14 9 15 13 16 11 17 10 18 12 20 4 22 21 24 18 26
REMARK H PARENT 10 19 12 21 4 23 21 25 18 27
REMARK Flexibility Score: inf
ROOT
ATOM      1  C   UNL     1     -31.092  13.282   0.689  1.00  0.00     0.180 A 
ATOM      2  C   UNL     1     -31.158  12.198  -0.204  1.00  0.00     0.208 A 
ATOM      3  C   UNL     1     -32.287  11.364  -0.181  1.00  0.00     0.238 A 
ATOM      4  O   UNL     1     -32.365  10.428  -1.019  1.00  0.00    -0.285 OA
ATOM      5  C   UNL     1     -33.328  11.613   0.745  1.00  0.00     0.111 A 
ATOM      6  C   UNL     1     -34.500  10.808   0.883  1.00  0.00     0.134 A 
ATOM      7  C   UNL     1     -35.525  11.224   1.741  1.00  0.00     0.093 A 
ATOM      8  C   UNL     1     -35.394  12.377   2.515  1.00  0.00     0.123 A 
ATOM      9  C   UNL     1     -34.228  13.139   2.431  1.00  0.00     0.094 A 
ATOM     10  C   UNL     1     -33.204  12.770   1.557  1.00  0.00     0.146 A 
ATOM     11  O   UNL     1     -32.115  13.528   1.500  1.00  0.00    -0.452 OA
ENDROOT
BRANCH   1  12
ATOM     12  C   UNL     1     -29.924  14.189   0.741  1.00  0.00     0.025 A 
ATOM     13  C   UNL     1     -29.700  15.085  -0.316  1.00  0.00     0.016 A 
ATOM     14  C   UNL     1     -28.615  15.966  -0.279  1.00  0.00     0.051 A 
ATOM     15  C   UNL     1     -27.750  15.976   0.819  1.00  0.00     0.157 A 
ATOM     16  C   UNL     1     -29.066  14.216   1.853  1.00  0.00     0.062 A 
ATOM     17  C   UNL     1     -27.978  15.100   1.893  1.00  0.00     0.158 A 
BRANCH  15  18
ATOM     18  O   UNL     1     -26.676  16.866   0.827  1.00  0.00    -0.504 OA
ATOM     19  H   UNL     1     -26.361  17.320   1.676  1.00  0.00     0.293 HD
ENDBRANCH  15  18
BRANCH  17  20
ATOM     20  O   UNL     1     -27.127  15.116   2.998  1.00  0.00    -0.504 OA
ATOM     21  H   UNL     1     -27.309  14.545   3.816  1.00  0.00     0.293 HD
ENDBRANCH  17  20
ENDBRANCH   1  12
BRANCH   2  22
ATOM     22  O   UNL     1     -30.129  11.983  -1.125  1.00  0.00    -0.502 OA
ATOM     23  H   UNL     1     -29.747  11.063  -1.309  1.00  0.00     0.293 HD
ENDBRANCH   2  22
BRANCH   6  24
ATOM     24  O   UNL     1     -34.691   9.590   0.226  1.00  0.00    -0.507 OA
ATOM     25  H   UNL     1     -34.486   8.684   0.623  1.00  0.00     0.293 HD
ENDBRANCH   6  24
BRANCH   8  26
ATOM     26  O   UNL     1     -36.429  12.751   3.370  1.00  0.00    -0.508 OA
ATOM     27  H   UNL     1     -36.513  13.701   3.715  1.00  0.00     0.293 HD
ENDBRANCH   8  26
TORSDOF 6
ENDMDL
