MODEL 1
REMARK VINA RESULT:    -6.928      0.000      0.000
REMARK INTER + INTRA:          -8.439
REMARK INTER:                  -8.144
REMARK INTRA:                  -0.295
REMARK UNBOUND:                -0.295
REMARK SMILES O=c1cc(-c2ccc(O)c(O)c2)oc2cc(O)cc(O)c12
REMARK SMILES IDX 4 1 3 2 2 3 1 4 21 5 19 6 18 7 16 8 15 9 14 10 13 11 5 12
REMARK SMILES IDX 6 13 7 14 8 15 12 16 10 17 9 18 11 20 20 22 17 24
REMARK H PARENT 9 19 11 21 20 23 17 25
REMARK Flexibility Score: inf
ROOT
ATOM      1  C   UNL     1     -30.135 -47.839  22.992  1.00  0.00     0.138 A 
ATOM      2  C   UNL     1     -30.790 -48.983  22.516  1.00  0.00     0.100 A 
ATOM      3  C   UNL     1     -30.114 -50.203  22.486  1.00  0.00     0.197 A 
ATOM      4  O   UNL     1     -30.707 -51.199  21.996  1.00  0.00    -0.289 OA
ATOM      5  C   UNL     1     -28.784 -50.283  22.965  1.00  0.00     0.107 A 
ATOM      6  C   UNL     1     -28.011 -51.481  23.020  1.00  0.00     0.134 A 
ATOM      7  C   UNL     1     -26.666 -51.418  23.404  1.00  0.00     0.093 A 
ATOM      8  C   UNL     1     -26.084 -50.212  23.793  1.00  0.00     0.123 A 
ATOM      9  C   UNL     1     -26.847 -49.043  23.795  1.00  0.00     0.094 A 
ATOM     10  C   UNL     1     -28.181 -49.067  23.383  1.00  0.00     0.146 A 
ATOM     11  O   UNL     1     -28.868 -47.930  23.385  1.00  0.00    -0.456 OA
ENDROOT
BRANCH   1  12
ATOM     12  C   UNL     1     -30.806 -46.516  23.047  1.00  0.00     0.021 A 
ATOM     13  C   UNL     1     -32.124 -46.374  23.523  1.00  0.00     0.016 A 
ATOM     14  C   UNL     1     -32.728 -45.115  23.575  1.00  0.00     0.051 A 
ATOM     15  C   UNL     1     -32.026 -43.977  23.160  1.00  0.00     0.157 A 
ATOM     16  C   UNL     1     -30.105 -45.365  22.645  1.00  0.00     0.062 A 
ATOM     17  C   UNL     1     -30.708 -44.104  22.695  1.00  0.00     0.158 A 
BRANCH  15  18
ATOM     18  O   UNL     1     -32.633 -42.723  23.210  1.00  0.00    -0.504 OA
ATOM     19  H   UNL     1     -32.214 -41.950  23.714  1.00  0.00     0.293 HD
ENDBRANCH  15  18
BRANCH  17  20
ATOM     20  O   UNL     1     -29.981 -42.989  22.277  1.00  0.00    -0.504 OA
ATOM     21  H   UNL     1     -30.413 -42.220  21.778  1.00  0.00     0.293 HD
ENDBRANCH  17  20
ENDBRANCH   1  12
BRANCH   6  22
ATOM     22  O   UNL     1     -28.519 -52.753  22.734  1.00  0.00    -0.507 OA
ATOM     23  H   UNL     1     -27.966 -53.543  22.442  1.00  0.00     0.293 HD
ENDBRANCH   6  22
BRANCH   8  24
ATOM     24  O   UNL     1     -24.747 -50.189  24.185  1.00  0.00    -0.508 OA
ATOM     25  H   UNL     1     -24.157 -49.385  24.009  1.00  0.00     0.293 HD
ENDBRANCH   8  24
TORSDOF 5
ENDMDL
MODEL 2
REMARK VINA RESULT:    -6.827      4.442      6.940
REMARK INTER + INTRA:          -8.320
REMARK INTER:                  -8.054
REMARK INTRA:                  -0.266
REMARK UNBOUND:                -0.295
REMARK SMILES O=c1cc(-c2ccc(O)c(O)c2)oc2cc(O)cc(O)c12
REMARK SMILES IDX 4 1 3 2 2 3 1 4 21 5 19 6 18 7 16 8 15 9 14 10 13 11 5 12
REMARK SMILES IDX 6 13 7 14 8 15 12 16 10 17 9 18 11 20 20 22 17 24
REMARK H PARENT 9 19 11 21 20 23 17 25
REMARK Flexibility Score: inf
ROOT
ATOM      1  C   UNL     1     -33.306 -44.936  26.508  1.00  0.00     0.138 A 
ATOM      2  C   UNL     1     -33.669 -44.033  25.500  1.00  0.00     0.100 A 
ATOM      3  C   UNL     1     -32.892 -43.939  24.345  1.00  0.00     0.197 A 
ATOM      4  O   UNL     1     -33.207 -43.076  23.485  1.00  0.00    -0.289 OA
ATOM      5  C   UNL     1     -31.762 -44.778  24.187  1.00  0.00     0.107 A 
ATOM      6  C   UNL     1     -30.920 -44.798  23.035  1.00  0.00     0.134 A 
ATOM      7  C   UNL     1     -29.763 -45.587  23.040  1.00  0.00     0.093 A 
ATOM      8  C   UNL     1     -29.450 -46.401  24.128  1.00  0.00     0.123 A 
ATOM      9  C   UNL     1     -30.296 -46.429  25.238  1.00  0.00     0.094 A 
ATOM     10  C   UNL     1     -31.438 -45.628  25.278  1.00  0.00     0.146 A 
ATOM     11  O   UNL     1     -32.210 -45.672  26.359  1.00  0.00    -0.456 OA
ENDROOT
BRANCH   1  12
ATOM     12  C   UNL     1     -34.097 -45.077  27.757  1.00  0.00     0.021 A 
ATOM     13  C   UNL     1     -34.630 -46.317  28.159  1.00  0.00     0.016 A 
ATOM     14  C   UNL     1     -35.361 -46.423  29.345  1.00  0.00     0.051 A 
ATOM     15  C   UNL     1     -35.567 -45.299  30.152  1.00  0.00     0.157 A 
ATOM     16  C   UNL     1     -34.297 -43.955  28.581  1.00  0.00     0.062 A 
ATOM     17  C   UNL     1     -35.029 -44.059  29.768  1.00  0.00     0.158 A 
BRANCH  15  18
ATOM     18  O   UNL     1     -36.299 -45.409  31.333  1.00  0.00    -0.504 OA
ATOM     19  H   UNL     1     -37.083 -46.046  31.415  1.00  0.00     0.293 HD
ENDBRANCH  15  18
BRANCH  17  20
ATOM     20  O   UNL     1     -35.214 -42.921  30.553  1.00  0.00    -0.504 OA
ATOM     21  H   UNL     1     -34.441 -42.448  31.006  1.00  0.00     0.293 HD
ENDBRANCH  17  20
ENDBRANCH   1  12
BRANCH   6  22
ATOM     22  O   UNL     1     -31.186 -44.087  21.860  1.00  0.00    -0.507 OA
ATOM     23  H   UNL     1     -30.954 -43.119  21.706  1.00  0.00     0.293 HD
ENDBRANCH   6  22
BRANCH   8  24
ATOM     24  O   UNL     1     -28.299 -47.184  24.091  1.00  0.00    -0.508 OA
ATOM     25  H   UNL     1     -28.286 -48.125  24.464  1.00  0.00     0.293 HD
ENDBRANCH   8  24
TORSDOF 5
ENDMDL
MODEL 3
REMARK VINA RESULT:    -6.819      2.478      7.783
REMARK INTER + INTRA:          -8.311
REMARK INTER:                  -8.010
REMARK INTRA:                  -0.301
REMARK UNBOUND:                -0.295
REMARK SMILES O=c1cc(-c2ccc(O)c(O)c2)oc2cc(O)cc(O)c12
REMARK SMILES IDX 4 1 3 2 2 3 1 4 21 5 19 6 18 7 16 8 15 9 14 10 13 11 5 12
REMARK SMILES IDX 6 13 7 14 8 15 12 16 10 17 9 18 11 20 20 22 17 24
REMARK H PARENT 9 19 11 21 20 23 17 25
REMARK Flexibility Score: inf
ROOT
ATOM      1  C   UNL     1     -30.588 -50.169  23.014  1.00  0.00     0.138 A 
ATOM      2  C   UNL     1     -29.904 -49.017  22.601  1.00  0.00     0.100 A 
ATOM      3  C   UNL     1     -30.563 -47.787  22.598  1.00  0.00     0.197 A 
ATOM      4  O   UNL     1     -29.944 -46.781  22.165  1.00  0.00    -0.289 OA
ATOM      5  C   UNL     1     -31.906 -47.707  23.040  1.00  0.00     0.107 A 
ATOM      6  C   UNL     1     -32.665 -46.502  23.119  1.00  0.00     0.134 A 
ATOM      7  C   UNL     1     -34.022 -46.562  23.461  1.00  0.00     0.093 A 
ATOM      8  C   UNL     1     -34.631 -47.773  23.785  1.00  0.00     0.123 A 
ATOM      9  C   UNL     1     -33.883 -48.952  23.765  1.00  0.00     0.094 A 
ATOM     10  C   UNL     1     -32.537 -48.930  23.394  1.00  0.00     0.146 A 
ATOM     11  O   UNL     1     -31.864 -50.075  23.372  1.00  0.00    -0.456 OA
ENDROOT
BRANCH   1  12
ATOM     12  C   UNL     1     -29.935 -51.502  23.037  1.00  0.00     0.021 A 
ATOM     13  C   UNL     1     -28.590 -51.660  23.422  1.00  0.00     0.016 A 
ATOM     14  C   UNL     1     -28.003 -52.928  23.446  1.00  0.00     0.051 A 
ATOM     15  C   UNL     1     -28.750 -54.059  23.094  1.00  0.00     0.157 A 
ATOM     16  C   UNL     1     -30.681 -52.645  22.699  1.00  0.00     0.062 A 
ATOM     17  C   UNL     1     -30.096 -53.916  22.721  1.00  0.00     0.158 A 
BRANCH  15  18
ATOM     18  O   UNL     1     -28.160 -55.322  23.117  1.00  0.00    -0.504 OA
ATOM     19  H   UNL     1     -27.681 -55.670  23.940  1.00  0.00     0.293 HD
ENDBRANCH  15  18
BRANCH  17  20
ATOM     20  O   UNL     1     -30.867 -55.023  22.369  1.00  0.00    -0.504 OA
ATOM     21  H   UNL     1     -30.454 -55.874  22.006  1.00  0.00     0.293 HD
ENDBRANCH  17  20
ENDBRANCH   1  12
BRANCH   6  22
ATOM     22  O   UNL     1     -32.133 -45.227  22.897  1.00  0.00    -0.507 OA
ATOM     23  H   UNL     1     -31.518 -44.741  23.530  1.00  0.00     0.293 HD
ENDBRANCH   6  22
BRANCH   8  24
ATOM     24  O   UNL     1     -35.979 -47.793  24.136  1.00  0.00    -0.508 OA
ATOM     25  H   UNL     1     -36.274 -47.814  25.104  1.00  0.00     0.293 HD
ENDBRANCH   8  24
TORSDOF 5
ENDMDL
MODEL 4
REMARK VINA RESULT:    -6.784     12.029     12.695
REMARK INTER + INTRA:          -8.269
REMARK INTER:                  -7.967
REMARK INTRA:                  -0.303
REMARK UNBOUND:                -0.295
REMARK SMILES O=c1cc(-c2ccc(O)c(O)c2)oc2cc(O)cc(O)c12
REMARK SMILES IDX 4 1 3 2 2 3 1 4 21 5 19 6 18 7 16 8 15 9 14 10 13 11 5 12
REMARK SMILES IDX 6 13 7 14 8 15 12 16 10 17 9 18 11 20 20 22 17 24
REMARK H PARENT 9 19 11 21 20 23 17 25
REMARK Flexibility Score: inf
ROOT
ATOM      1  C   UNL     1     -31.570 -49.407  35.087  1.00  0.00     0.138 A 
ATOM      2  C   UNL     1     -30.517 -48.613  35.561  1.00  0.00     0.100 A 
ATOM      3  C   UNL     1     -29.221 -49.128  35.585  1.00  0.00     0.197 A 
ATOM      4  O   UNL     1     -28.306 -48.414  36.073  1.00  0.00    -0.289 OA
ATOM      5  C   UNL     1     -28.974 -50.436  35.102  1.00  0.00     0.107 A 
ATOM      6  C   UNL     1     -27.688 -51.050  35.040  1.00  0.00     0.134 A 
ATOM      7  C   UNL     1     -27.582 -52.392  34.652  1.00  0.00     0.093 A 
ATOM      8  C   UNL     1     -28.705 -53.121  34.265  1.00  0.00     0.123 A 
ATOM      9  C   UNL     1     -29.962 -52.513  34.270  1.00  0.00     0.094 A 
ATOM     10  C   UNL     1     -30.105 -51.188  34.686  1.00  0.00     0.146 A 
ATOM     11  O   UNL     1     -31.320 -50.650  34.690  1.00  0.00    -0.456 OA
ENDROOT
BRANCH   1  12
ATOM     12  C   UNL     1     -32.968 -48.909  35.039  1.00  0.00     0.021 A 
ATOM     13  C   UNL     1     -33.265 -47.568  34.728  1.00  0.00     0.016 A 
ATOM     14  C   UNL     1     -34.591 -47.128  34.678  1.00  0.00     0.051 A 
ATOM     15  C   UNL     1     -35.641 -48.019  34.931  1.00  0.00     0.157 A 
ATOM     16  C   UNL     1     -34.030 -49.799  35.278  1.00  0.00     0.062 A 
ATOM     17  C   UNL     1     -35.357 -49.361  35.230  1.00  0.00     0.158 A 
BRANCH  15  18
ATOM     18  O   UNL     1     -36.962 -47.576  34.883  1.00  0.00    -0.504 OA
ATOM     19  H   UNL     1     -37.567 -47.621  35.694  1.00  0.00     0.293 HD
ENDBRANCH  15  18
BRANCH  17  20
ATOM     20  O   UNL     1     -36.382 -50.274  35.482  1.00  0.00    -0.504 OA
ATOM     21  H   UNL     1     -36.848 -50.780  34.739  1.00  0.00     0.293 HD
ENDBRANCH  17  20
ENDBRANCH   1  12
BRANCH   6  22
ATOM     22  O   UNL     1     -26.490 -50.385  35.323  1.00  0.00    -0.507 OA
ATOM     23  H   UNL     1     -26.396 -49.614  35.965  1.00  0.00     0.293 HD
ENDBRANCH   6  22
BRANCH   8  24
ATOM     24  O   UNL     1     -28.560 -54.449  33.870  1.00  0.00    -0.508 OA
ATOM     25  H   UNL     1     -29.333 -55.102  33.911  1.00  0.00     0.293 HD
ENDBRANCH   8  24
TORSDOF 5
ENDMDL
MODEL 5
REMARK VINA RESULT:    -6.772     11.329     13.284
REMARK INTER + INTRA:          -8.255
REMARK INTER:                  -7.943
REMARK INTRA:                  -0.312
REMARK UNBOUND:                -0.295
REMARK SMILES O=c1cc(-c2ccc(O)c(O)c2)oc2cc(O)cc(O)c12
REMARK SMILES IDX 4 1 3 2 2 3 1 4 21 5 19 6 18 7 16 8 15 9 14 10 13 11 5 12
REMARK SMILES IDX 6 13 7 14 8 15 12 16 10 17 9 18 11 20 20 22 17 24
REMARK H PARENT 9 19 11 21 20 23 17 25
REMARK Flexibility Score: inf
ROOT
ATOM      1  C   UNL     1     -31.009 -47.500  34.221  1.00  0.00     0.138 A 
ATOM      2  C   UNL     1     -31.378 -46.482  33.331  1.00  0.00     0.100 A 
ATOM      3  C   UNL     1     -32.725 -46.284  33.029  1.00  0.00     0.197 A 
ATOM      4  O   UNL     1     -33.021 -45.404  32.179  1.00  0.00    -0.289 OA
ATOM      5  C   UNL     1     -33.711 -47.091  33.647  1.00  0.00     0.107 A 
ATOM      6  C   UNL     1     -35.117 -46.953  33.446  1.00  0.00     0.134 A 
ATOM      7  C   UNL     1     -35.991 -47.885  34.021  1.00  0.00     0.093 A 
ATOM      8  C   UNL     1     -35.516 -48.911  34.837  1.00  0.00     0.123 A 
ATOM      9  C   UNL     1     -34.146 -49.022  35.084  1.00  0.00     0.094 A 
ATOM     10  C   UNL     1     -33.246 -48.130  34.497  1.00  0.00     0.146 A 
ATOM     11  O   UNL     1     -31.950 -48.279  34.745  1.00  0.00    -0.456 OA
ENDROOT
BRANCH   1  12
ATOM     12  C   UNL     1     -29.590 -47.754  34.578  1.00  0.00     0.021 A 
ATOM     13  C   UNL     1     -28.531 -47.302  33.767  1.00  0.00     0.016 A 
ATOM     14  C   UNL     1     -27.205 -47.545  34.134  1.00  0.00     0.051 A 
ATOM     15  C   UNL     1     -26.912 -48.236  35.315  1.00  0.00     0.157 A 
ATOM     16  C   UNL     1     -29.287 -48.435  35.770  1.00  0.00     0.062 A 
ATOM     17  C   UNL     1     -27.960 -48.681  36.138  1.00  0.00     0.158 A 
BRANCH  15  18
ATOM     18  O   UNL     1     -25.588 -48.478  35.676  1.00  0.00    -0.504 OA
ATOM     19  H   UNL     1     -25.328 -48.695  36.631  1.00  0.00     0.293 HD
ENDBRANCH  15  18
BRANCH  17  20
ATOM     20  O   UNL     1     -27.701 -49.368  37.324  1.00  0.00    -0.504 OA
ATOM     21  H   UNL     1     -27.980 -49.007  38.228  1.00  0.00     0.293 HD
ENDBRANCH  17  20
ENDBRANCH   1  12
BRANCH   6  22
ATOM     22  O   UNL     1     -35.704 -45.914  32.717  1.00  0.00    -0.507 OA
ATOM     23  H   UNL     1     -35.198 -45.168  32.266  1.00  0.00     0.293 HD
ENDBRANCH   6  22
BRANCH   8  24
ATOM     24  O   UNL     1     -36.416 -49.810  35.405  1.00  0.00    -0.508 OA
ATOM     25  H   UNL     1     -37.238 -49.493  35.902  1.00  0.00     0.293 HD
ENDBRANCH   8  24
TORSDOF 5
ENDMDL
MODEL 6
REMARK VINA RESULT:    -6.766      2.345      3.422
REMARK INTER + INTRA:          -8.248
REMARK INTER:                  -7.954
REMARK INTRA:                  -0.294
REMARK UNBOUND:                -0.295
REMARK SMILES O=c1cc(-c2ccc(O)c(O)c2)oc2cc(O)cc(O)c12
REMARK SMILES IDX 4 1 3 2 2 3 1 4 21 5 19 6 18 7 16 8 15 9 14 10 13 11 5 12
REMARK SMILES IDX 6 13 7 14 8 15 12 16 10 17 9 18 11 20 20 22 17 24
REMARK H PARENT 9 19 11 21 20 23 17 25
REMARK Flexibility Score: inf
ROOT
ATOM      1  C   UNL     1     -29.037 -50.362  23.406  1.00  0.00     0.138 A 
ATOM      2  C   UNL     1     -29.458 -51.586  22.866  1.00  0.00     0.100 A 
ATOM      3  C   UNL     1     -28.921 -52.777  23.356  1.00  0.00     0.197 A 
ATOM      4  O   UNL     1     -29.271 -53.855  22.810  1.00  0.00    -0.289 OA
ATOM      5  C   UNL     1     -27.982 -52.743  24.415  1.00  0.00     0.107 A 
ATOM      6  C   UNL     1     -27.399 -53.895  25.022  1.00  0.00     0.134 A 
ATOM      7  C   UNL     1     -26.393 -53.735  25.983  1.00  0.00     0.093 A 
ATOM      8  C   UNL     1     -25.992 -52.467  26.402  1.00  0.00     0.123 A 
ATOM      9  C   UNL     1     -26.595 -51.333  25.854  1.00  0.00     0.094 A 
ATOM     10  C   UNL     1     -27.576 -51.459  24.869  1.00  0.00     0.146 A 
ATOM     11  O   UNL     1     -28.114 -50.355  24.362  1.00  0.00    -0.456 OA
ENDROOT
BRANCH   1  12
ATOM     12  C   UNL     1     -29.575 -49.065  22.923  1.00  0.00     0.021 A 
ATOM     13  C   UNL     1     -29.047 -47.836  23.361  1.00  0.00     0.016 A 
ATOM     14  C   UNL     1     -29.565 -46.630  22.881  1.00  0.00     0.051 A 
ATOM     15  C   UNL     1     -30.612 -46.630  21.952  1.00  0.00     0.157 A 
ATOM     16  C   UNL     1     -30.618 -49.056  21.980  1.00  0.00     0.062 A 
ATOM     17  C   UNL     1     -31.139 -47.850  21.499  1.00  0.00     0.158 A 
BRANCH  15  18
ATOM     18  O   UNL     1     -31.128 -45.425  21.478  1.00  0.00    -0.504 OA
ATOM     19  H   UNL     1     -31.535 -44.739  22.103  1.00  0.00     0.293 HD
ENDBRANCH  15  18
BRANCH  17  20
ATOM     20  O   UNL     1     -32.180 -47.884  20.571  1.00  0.00    -0.504 OA
ATOM     21  H   UNL     1     -32.677 -48.738  20.349  1.00  0.00     0.293 HD
ENDBRANCH  17  20
ENDBRANCH   1  12
BRANCH   6  22
ATOM     22  O   UNL     1     -27.787 -55.208  24.737  1.00  0.00    -0.507 OA
ATOM     23  H   UNL     1     -28.626 -55.650  25.080  1.00  0.00     0.293 HD
ENDBRANCH   6  22
BRANCH   8  24
ATOM     24  O   UNL     1     -25.000 -52.346  27.372  1.00  0.00    -0.508 OA
ATOM     25  H   UNL     1     -25.100 -52.765  28.288  1.00  0.00     0.293 HD
ENDBRANCH   8  24
TORSDOF 5
ENDMDL
MODEL 7
REMARK VINA RESULT:    -6.745      8.159     10.572
REMARK INTER + INTRA:          -8.224
REMARK INTER:                  -7.934
REMARK INTRA:                  -0.289
REMARK UNBOUND:                -0.295
REMARK SMILES O=c1cc(-c2ccc(O)c(O)c2)oc2cc(O)cc(O)c12
REMARK SMILES IDX 4 1 3 2 2 3 1 4 21 5 19 6 18 7 16 8 15 9 14 10 13 11 5 12
REMARK SMILES IDX 6 13 7 14 8 15 12 16 10 17 9 18 11 20 20 22 17 24
REMARK H PARENT 9 19 11 21 20 23 17 25
REMARK Flexibility Score: inf
ROOT
ATOM      1  C   UNL     1     -26.492 -52.469  31.256  1.00  0.00     0.138 A 
ATOM      2  C   UNL     1     -25.132 -52.314  30.955  1.00  0.00     0.100 A 
ATOM      3  C   UNL     1     -24.670 -52.617  29.673  1.00  0.00     0.197 A 
ATOM      4  O   UNL     1     -23.435 -52.527  29.450  1.00  0.00    -0.289 OA
ATOM      5  C   UNL     1     -25.583 -53.047  28.680  1.00  0.00     0.107 A 
ATOM      6  C   UNL     1     -25.233 -53.345  27.329  1.00  0.00     0.134 A 
ATOM      7  C   UNL     1     -26.200 -53.875  26.467  1.00  0.00     0.093 A 
ATOM      8  C   UNL     1     -27.517 -54.060  26.887  1.00  0.00     0.123 A 
ATOM      9  C   UNL     1     -27.882 -53.721  28.190  1.00  0.00     0.094 A 
ATOM     10  C   UNL     1     -26.933 -53.224  29.085  1.00  0.00     0.146 A 
ATOM     11  O   UNL     1     -27.318 -52.927  30.322  1.00  0.00    -0.456 OA
ENDROOT
BRANCH   1  12
ATOM     12  C   UNL     1     -27.036 -52.160  32.603  1.00  0.00     0.021 A 
ATOM     13  C   UNL     1     -28.219 -52.761  33.077  1.00  0.00     0.016 A 
ATOM     14  C   UNL     1     -28.703 -52.461  34.354  1.00  0.00     0.051 A 
ATOM     15  C   UNL     1     -28.014 -51.565  35.179  1.00  0.00     0.157 A 
ATOM     16  C   UNL     1     -26.343 -51.272  33.444  1.00  0.00     0.062 A 
ATOM     17  C   UNL     1     -26.827 -50.969  34.721  1.00  0.00     0.158 A 
BRANCH  15  18
ATOM     18  O   UNL     1     -28.501 -51.266  36.450  1.00  0.00    -0.504 OA
ATOM     19  H   UNL     1     -28.360 -51.893  37.234  1.00  0.00     0.293 HD
ENDBRANCH  15  18
BRANCH  17  20
ATOM     20  O   UNL     1     -26.116 -50.075  35.521  1.00  0.00    -0.504 OA
ATOM     21  H   UNL     1     -26.575 -49.348  36.057  1.00  0.00     0.293 HD
ENDBRANCH  17  20
ENDBRANCH   1  12
BRANCH   6  22
ATOM     22  O   UNL     1     -23.966 -53.118  26.782  1.00  0.00    -0.507 OA
ATOM     23  H   UNL     1     -23.279 -53.833  26.601  1.00  0.00     0.293 HD
ENDBRANCH   6  22
BRANCH   8  24
ATOM     24  O   UNL     1     -28.456 -54.575  25.996  1.00  0.00    -0.508 OA
ATOM     25  H   UNL     1     -28.181 -55.145  25.206  1.00  0.00     0.293 HD
ENDBRANCH   8  24
TORSDOF 5
ENDMDL
MODEL 8
REMARK VINA RESULT:    -6.727      2.473      7.473
REMARK INTER + INTRA:          -8.202
REMARK INTER:                  -7.907
REMARK INTRA:                  -0.295
REMARK UNBOUND:                -0.295
REMARK SMILES O=c1cc(-c2ccc(O)c(O)c2)oc2cc(O)cc(O)c12
REMARK SMILES IDX 4 1 3 2 2 3 1 4 21 5 19 6 18 7 16 8 15 9 14 10 13 11 5 12
REMARK SMILES IDX 6 13 7 14 8 15 12 16 10 17 9 18 11 20 20 22 17 24
REMARK H PARENT 9 19 11 21 20 23 17 25
REMARK Flexibility Score: inf
ROOT
ATOM      1  C   UNL     1     -31.737 -47.646  23.444  1.00  0.00     0.138 A 
ATOM      2  C   UNL     1     -31.274 -46.410  22.972  1.00  0.00     0.100 A 
ATOM      3  C   UNL     1     -31.816 -45.229  23.480  1.00  0.00     0.197 A 
ATOM      4  O   UNL     1     -31.425 -44.137  22.993  1.00  0.00    -0.289 OA
ATOM      5  C   UNL     1     -32.805 -45.288  24.492  1.00  0.00     0.107 A 
ATOM      6  C   UNL     1     -33.400 -44.150  25.114  1.00  0.00     0.134 A 
ATOM      7  C   UNL     1     -34.453 -44.329  26.020  1.00  0.00     0.093 A 
ATOM      8  C   UNL     1     -34.891 -45.605  26.372  1.00  0.00     0.123 A 
ATOM      9  C   UNL     1     -34.279 -46.728  25.810  1.00  0.00     0.094 A 
ATOM     10  C   UNL     1     -33.251 -46.581  24.877  1.00  0.00     0.146 A 
ATOM     11  O   UNL     1     -32.705 -47.673  24.354  1.00  0.00    -0.456 OA
ENDROOT
BRANCH   1  12
ATOM     12  C   UNL     1     -31.195 -48.932  22.938  1.00  0.00     0.021 A 
ATOM     13  C   UNL     1     -31.710 -50.171  23.366  1.00  0.00     0.016 A 
ATOM     14  C   UNL     1     -31.189 -51.367  22.864  1.00  0.00     0.051 A 
ATOM     15  C   UNL     1     -30.151 -51.347  21.924  1.00  0.00     0.157 A 
ATOM     16  C   UNL     1     -30.162 -48.921  21.984  1.00  0.00     0.062 A 
ATOM     17  C   UNL     1     -29.637 -50.117  21.482  1.00  0.00     0.158 A 
BRANCH  15  18
ATOM     18  O   UNL     1     -29.632 -52.542  21.429  1.00  0.00    -0.504 OA
ATOM     19  H   UNL     1     -28.709 -52.868  21.689  1.00  0.00     0.293 HD
ENDBRANCH  15  18
BRANCH  17  20
ATOM     20  O   UNL     1     -28.607 -50.064  20.544  1.00  0.00    -0.504 OA
ATOM     21  H   UNL     1     -27.798 -49.466  20.665  1.00  0.00     0.293 HD
ENDBRANCH  17  20
ENDBRANCH   1  12
BRANCH   6  22
ATOM     22  O   UNL     1     -32.980 -42.833  24.897  1.00  0.00    -0.507 OA
ATOM     23  H   UNL     1     -32.478 -42.514  24.083  1.00  0.00     0.293 HD
ENDBRANCH   6  22
BRANCH   8  24
ATOM     24  O   UNL     1     -35.930 -45.747  27.288  1.00  0.00    -0.508 OA
ATOM     25  H   UNL     1     -36.681 -46.409  27.140  1.00  0.00     0.293 HD
ENDBRANCH   8  24
TORSDOF 5
ENDMDL
MODEL 9
REMARK VINA RESULT:    -6.633      1.252      2.736
REMARK INTER + INTRA:          -8.092
REMARK INTER:                  -7.804
REMARK INTRA:                  -0.287
REMARK UNBOUND:                -0.295
REMARK SMILES O=c1cc(-c2ccc(O)c(O)c2)oc2cc(O)cc(O)c12
REMARK SMILES IDX 4 1 3 2 2 3 1 4 21 5 19 6 18 7 16 8 15 9 14 10 13 11 5 12
REMARK SMILES IDX 6 13 7 14 8 15 12 16 10 17 9 18 11 20 20 22 17 24
REMARK H PARENT 9 19 11 21 20 23 17 25
REMARK Flexibility Score: inf
ROOT
ATOM      1  C   UNL     1     -29.906 -47.859  23.055  1.00  0.00     0.138 A 
ATOM      2  C   UNL     1     -28.516 -47.888  23.231  1.00  0.00     0.100 A 
ATOM      3  C   UNL     1     -27.845 -49.111  23.221  1.00  0.00     0.197 A 
ATOM      4  O   UNL     1     -26.606 -49.111  23.443  1.00  0.00    -0.289 OA
ATOM      5  C   UNL     1     -28.568 -50.309  23.003  1.00  0.00     0.107 A 
ATOM      6  C   UNL     1     -27.984 -51.609  22.932  1.00  0.00     0.134 A 
ATOM      7  C   UNL     1     -28.812 -52.733  22.829  1.00  0.00     0.093 A 
ATOM      8  C   UNL     1     -30.197 -52.601  22.732  1.00  0.00     0.123 A 
ATOM      9  C   UNL     1     -30.775 -51.330  22.745  1.00  0.00     0.094 A 
ATOM     10  C   UNL     1     -29.978 -50.192  22.883  1.00  0.00     0.146 A 
ATOM     11  O   UNL     1     -30.568 -49.002  22.907  1.00  0.00    -0.456 OA
ENDROOT
BRANCH   1  12
ATOM     12  C   UNL     1     -30.670 -46.586  23.056  1.00  0.00     0.021 A 
ATOM     13  C   UNL     1     -32.018 -46.532  23.461  1.00  0.00     0.016 A 
ATOM     14  C   UNL     1     -32.710 -45.318  23.463  1.00  0.00     0.051 A 
ATOM     15  C   UNL     1     -32.069 -44.138  23.068  1.00  0.00     0.157 A 
ATOM     16  C   UNL     1     -30.031 -45.393  22.673  1.00  0.00     0.062 A 
ATOM     17  C   UNL     1     -30.722 -44.177  22.673  1.00  0.00     0.158 A 
BRANCH  15  18
ATOM     18  O   UNL     1     -32.763 -42.930  23.069  1.00  0.00    -0.504 OA
ATOM     19  H   UNL     1     -33.652 -42.827  22.592  1.00  0.00     0.293 HD
ENDBRANCH  15  18
BRANCH  17  20
ATOM     20  O   UNL     1     -30.054 -43.018  22.277  1.00  0.00    -0.504 OA
ATOM     21  H   UNL     1     -29.049 -42.990  22.157  1.00  0.00     0.293 HD
ENDBRANCH  17  20
ENDBRANCH   1  12
BRANCH   6  22
ATOM     22  O   UNL     1     -26.605 -51.847  22.934  1.00  0.00    -0.507 OA
ATOM     23  H   UNL     1     -26.155 -52.626  23.390  1.00  0.00     0.293 HD
ENDBRANCH   6  22
BRANCH   8  24
ATOM     24  O   UNL     1     -30.989 -53.741  22.615  1.00  0.00    -0.508 OA
ATOM     25  H   UNL     1     -30.611 -54.616  22.274  1.00  0.00     0.293 HD
ENDBRANCH   8  24
TORSDOF 5
ENDMDL
