MODEL 1
REMARK VINA RESULT:    18.975      0.000      0.000
REMARK INTER + INTRA:          26.294
REMARK INTER:                  26.186
REMARK INTRA:                   0.108
REMARK UNBOUND:                 0.108
REMARK SMILES CC[C@H](CC[C@@H](C)[C@H]1CC[C@H]2[C@@H]3CC=C4C[C@H](O)CC[C@@]4(C)[C@@H]3CC[C@]12C)C(C)C
REMARK SMILES IDX 5 1 4 2 3 3 2 4 1 5 28 6 29 7 30 8 6 9 7 10 8 11 9 12 26 13
REMARK SMILES IDX 10 14 11 15 25 16 27 17 12 18 24 19 23 20 13 21 21 22 14 23
REMARK SMILES IDX 15 24 20 25 22 26 16 27 19 28 17 29 18 30
REMARK H PARENT 18 31
REMARK Flexibility Score: inf
ROOT
ATOM      1  C   UNL     1      14.644  21.892  -2.680  1.00  0.00     0.004 C 
ENDROOT
BRANCH   1   2
ATOM      2  C   UNL     1      14.882  23.427  -2.673  1.00  0.00     0.004 C 
BRANCH   2   3
ATOM      3  C   UNL     1      13.579  24.277  -2.554  1.00  0.00    -0.009 C 
BRANCH   3   4
ATOM      4  C   UNL     1      13.774  25.552  -1.680  1.00  0.00     0.000 C 
ATOM      5  C   UNL     1      15.064  25.600  -0.844  1.00  0.00     0.004 C 
ENDBRANCH   3   4
BRANCH   3   6
ATOM      6  C   UNL     1      12.860  24.601  -3.912  1.00  0.00    -0.014 C 
ATOM      7  C   UNL     1      12.065  25.917  -3.921  1.00  0.00     0.007 C 
ATOM      8  C   UNL     1      13.808  24.554  -5.119  1.00  0.00     0.007 C 
ENDBRANCH   3   6
ENDBRANCH   2   3
ENDBRANCH   1   2
BRANCH   1   9
ATOM      9  C   UNL     1      13.157  21.494  -2.900  1.00  0.00    -0.011 C 
ATOM     10  C   UNL     1      13.083  20.418  -4.002  1.00  0.00     0.008 C 
BRANCH   9  11
ATOM     11  C   UNL     1      12.511  20.991  -1.563  1.00  0.00    -0.002 C 
ATOM     12  C   UNL     1      12.316  19.451  -1.537  1.00  0.00     0.005 C 
ATOM     13  C   UNL     1      13.262  21.289  -0.226  1.00  0.00    -0.026 C 
ATOM     14  C   UNL     1      12.460  18.994  -0.080  1.00  0.00     0.005 C 
ATOM     15  C   UNL     1      12.556  20.288   0.710  1.00  0.00    -0.001 C 
ATOM     16  C   UNL     1      13.064  22.733   0.341  1.00  0.00     0.007 C 
ATOM     17  C   UNL     1      14.787  20.981  -0.374  1.00  0.00     0.012 C 
ATOM     18  C   UNL     1      13.199  20.221   2.114  1.00  0.00     0.000 C 
ATOM     19  C   UNL     1      12.734  22.780   1.856  1.00  0.00     0.005 C 
ATOM     20  C   UNL     1      13.445  21.669   2.693  1.00  0.00     0.003 C 
ATOM     21  C   UNL     1      12.370  19.341   3.056  1.00  0.00     0.031 C 
ATOM     22  C   UNL     1      13.217  21.825   4.264  1.00  0.00    -0.008 C 
ATOM     23  C   UNL     1      12.983  19.343   4.421  1.00  0.00    -0.027 C 
ATOM     24  C   UNL     1      13.431  20.482   4.982  1.00  0.00    -0.065 C 
ATOM     25  C   UNL     1      14.230  22.888   4.802  1.00  0.00     0.014 C 
ATOM     26  C   UNL     1      11.776  22.301   4.600  1.00  0.00     0.016 C 
ATOM     27  C   UNL     1      13.839  20.435   6.443  1.00  0.00     0.063 C 
ATOM     28  C   UNL     1      14.368  22.891   6.328  1.00  0.00     0.033 C 
ATOM     29  C   UNL     1      14.854  21.523   6.810  1.00  0.00     0.118 C 
BRANCH  29  30
ATOM     30  O   UNL     1      15.027  21.564   8.202  1.00  0.00    -0.393 OA
ATOM     31  H   UNL     1      15.272  22.498   8.434  1.00  0.00     0.210 HD
ENDBRANCH  29  30
ENDBRANCH   9  11
ENDBRANCH   1   9
TORSDOF 7
ENDMDL
MODEL 2
REMARK VINA RESULT:    20.682      1.226      3.091
REMARK INTER + INTRA:          28.649
REMARK INTER:                  26.970
REMARK INTRA:                   1.678
REMARK UNBOUND:                 0.108
REMARK SMILES CC[C@H](CC[C@@H](C)[C@H]1CC[C@H]2[C@@H]3CC=C4C[C@H](O)CC[C@@]4(C)[C@@H]3CC[C@]12C)C(C)C
REMARK SMILES IDX 5 1 4 2 3 3 2 4 1 5 28 6 29 7 30 8 6 9 7 10 8 11 9 12 26 13
REMARK SMILES IDX 10 14 11 15 25 16 27 17 12 18 24 19 23 20 13 21 21 22 14 23
REMARK SMILES IDX 15 24 20 25 22 26 16 27 19 28 17 29 18 30
REMARK H PARENT 18 31
REMARK Flexibility Score: inf
ROOT
ATOM      1  C   UNL     1      12.443  21.889  -3.879  1.00  0.00     0.004 C 
ENDROOT
BRANCH   1   2
ATOM      2  C   UNL     1      13.028  21.072  -5.062  1.00  0.00     0.004 C 
BRANCH   2   3
ATOM      3  C   UNL     1      12.849  19.527  -4.924  1.00  0.00    -0.009 C 
BRANCH   3   4
ATOM      4  C   UNL     1      13.947  18.876  -4.030  1.00  0.00     0.000 C 
ATOM      5  C   UNL     1      15.400  19.234  -4.385  1.00  0.00     0.004 C 
ENDBRANCH   3   4
BRANCH   3   6
ATOM      6  C   UNL     1      11.408  19.049  -4.524  1.00  0.00    -0.014 C 
ATOM      7  C   UNL     1      11.182  18.879  -3.013  1.00  0.00     0.007 C 
ATOM      8  C   UNL     1      10.297  19.923  -5.125  1.00  0.00     0.007 C 
ENDBRANCH   3   6
ENDBRANCH   2   3
ENDBRANCH   1   2
BRANCH   1   9
ATOM      9  C   UNL     1      13.409  22.009  -2.667  1.00  0.00    -0.011 C 
ATOM     10  C   UNL     1      13.811  23.487  -2.490  1.00  0.00     0.008 C 
BRANCH   9  11
ATOM     11  C   UNL     1      12.746  21.435  -1.367  1.00  0.00    -0.002 C 
ATOM     12  C   UNL     1      12.553  19.895  -1.427  1.00  0.00     0.005 C 
ATOM     13  C   UNL     1      13.477  21.662  -0.007  1.00  0.00    -0.026 C 
ATOM     14  C   UNL     1      12.677  19.362   0.006  1.00  0.00     0.005 C 
ATOM     15  C   UNL     1      12.760  20.612   0.865  1.00  0.00    -0.001 C 
ATOM     16  C   UNL     1      13.269  23.073   0.634  1.00  0.00     0.007 C 
ATOM     17  C   UNL     1      15.005  21.364  -0.149  1.00  0.00     0.012 C 
ATOM     18  C   UNL     1      13.384  20.471   2.273  1.00  0.00     0.000 C 
ATOM     19  C   UNL     1      12.917  23.039   2.145  1.00  0.00     0.005 C 
ATOM     20  C   UNL     1      13.619  21.886   2.931  1.00  0.00     0.003 C 
ATOM     21  C   UNL     1      12.543  19.541   3.154  1.00  0.00     0.031 C 
ATOM     22  C   UNL     1      13.369  21.958   4.505  1.00  0.00    -0.008 C 
ATOM     23  C   UNL     1      13.136  19.471   4.526  1.00  0.00    -0.027 C 
ATOM     24  C   UNL     1      13.575  20.579   5.153  1.00  0.00    -0.065 C 
ATOM     25  C   UNL     1      14.373  22.992   5.113  1.00  0.00     0.014 C 
ATOM     26  C   UNL     1      11.922  22.414   4.846  1.00  0.00     0.016 C 
ATOM     27  C   UNL     1      13.963  20.455   6.615  1.00  0.00     0.063 C 
ATOM     28  C   UNL     1      14.489  22.913   6.638  1.00  0.00     0.033 C 
ATOM     29  C   UNL     1      14.970  21.523   7.054  1.00  0.00     0.118 C 
BRANCH  29  30
ATOM     30  O   UNL     1      15.124  21.489   8.448  1.00  0.00    -0.393 OA
ATOM     31  H   UNL     1      16.099  21.431   8.629  1.00  0.00     0.210 HD
ENDBRANCH  29  30
ENDBRANCH   9  11
ENDBRANCH   1   9
TORSDOF 7
ENDMDL
