MODEL 1
REMARK VINA RESULT:    15.922      0.000      0.000
REMARK INTER + INTRA:          17.375
REMARK INTER:                  17.318
REMARK INTRA:                   0.057
REMARK UNBOUND:                 0.057
REMARK SMILES C[C@@H]1[C@H]2C3=CC[C@H]4[C@]5(C)CC[C@@H](O)C(C)(C)[C@H]5CC[C@@]4(C)[C@]3(C)CC[C@@]2(C(=O)[O-])CC[C@@H]1C
REMARK SMILES IDX 26 1 30 2 25 3 3 4 31 5 24 6 4 7 2 8 32 9 22 10 5 11 1 12
REMARK SMILES IDX 33 13 23 14 20 15 6 16 7 17 19 18 21 19 8 20 18 21 17 22
REMARK SMILES IDX 10 23 9 24 14 25 11 26 12 27 15 28 16 29 27 30 28 31 29 32
REMARK SMILES IDX 13 33
REMARK H PARENT 13 34
REMARK Flexibility Score: inf
ROOT
ATOM      1  C   UNL     1      21.774  17.354   3.762  1.00  0.00     0.017 C 
ATOM      2  C   UNL     1      22.379  18.102   2.533  1.00  0.00     0.014 C 
ATOM      3  C   UNL     1      20.886  18.336   4.579  1.00  0.00     0.014 C 
ATOM      4  C   UNL     1      22.852  16.720   4.727  1.00  0.00     0.030 C 
ATOM      5  C   UNL     1      23.548  17.361   1.876  1.00  0.00     0.004 C 
ATOM      6  C   UNL     1      21.650  19.444   5.347  1.00  0.00     0.013 C 
ATOM      7  C   UNL     1      23.040  17.492   6.058  1.00  0.00    -0.063 C 
ATOM      8  C   UNL     1      24.193  16.219   4.078  1.00  0.00    -0.003 C 
ATOM      9  C   UNL     1      24.674  17.087   2.877  1.00  0.00    -0.011 C 
ATOM     10  C   UNL     1      22.979  19.025   6.105  1.00  0.00    -0.006 C 
ATOM     11  C   UNL     1      22.914  16.766   7.180  1.00  0.00    -0.027 C 
ATOM     12  C   UNL     1      24.092  14.719   3.709  1.00  0.00     0.008 C 
ATOM     13  C   UNL     1      25.903  16.506   2.156  1.00  0.00     0.008 C 
ATOM     14  C   UNL     1      24.213  19.579   5.327  1.00  0.00     0.017 C 
ATOM     15  C   UNL     1      23.044  19.648   7.610  1.00  0.00    -0.020 C 
ATOM     16  C   UNL     1      22.617  17.314   8.528  1.00  0.00     0.032 C 
ATOM     17  C   UNL     1      22.142  18.804   8.607  1.00  0.00     0.006 C 
ATOM     18  C   UNL     1      24.509  19.615   8.217  1.00  0.00     0.008 C 
ATOM     19  C   UNL     1      22.595  21.160   7.486  1.00  0.00     0.012 C 
ATOM     20  C   UNL     1      22.110  19.319  10.153  1.00  0.00    -0.025 C 
ATOM     21  C   UNL     1      24.617  19.719   9.773  1.00  0.00     0.005 C 
ATOM     22  C   UNL     1      23.329  20.267  10.430  1.00  0.00     0.003 C 
ATOM     23  C   UNL     1      20.821  20.144  10.450  1.00  0.00     0.010 C 
ATOM     24  C   UNL     1      22.074  18.100  11.140  1.00  0.00     0.012 C 
ATOM     25  C   UNL     1      23.434  20.899  11.873  1.00  0.00    -0.006 C 
ATOM     26  C   UNL     1      20.805  20.782  11.861  1.00  0.00     0.033 C 
ATOM     27  C   UNL     1      22.068  21.616  12.184  1.00  0.00     0.120 C 
ATOM     28  C   UNL     1      24.530  22.008  11.875  1.00  0.00     0.014 C 
ATOM     29  C   UNL     1      23.823  19.883  12.984  1.00  0.00     0.014 C 
ENDROOT
BRANCH   1  30
ATOM     30  C   UNL     1      20.840  16.243   3.252  1.00  0.00     0.048 C 
ATOM     31  O   UNL     1      21.099  15.586   2.208  1.00  0.00    -0.550 OA
ATOM     32  O   UNL     1      19.693  15.915   3.970  1.00  0.00    -0.550 OA
ENDBRANCH   1  30
BRANCH  27  33
ATOM     33  O   UNL     1      22.030  22.023  13.530  1.00  0.00    -0.393 OA
ATOM     34  H   UNL     1      22.742  22.704  13.650  1.00  0.00     0.210 HD
ENDBRANCH  27  33
TORSDOF 2
ENDMDL
