MODEL 1
REMARK VINA RESULT:    -7.627      0.000      0.000
REMARK INTER + INTRA:          -9.582
REMARK INTER:                  -9.187
REMARK INTRA:                  -0.395
REMARK UNBOUND:                -0.395
REMARK SMILES O=c1c(O)c(-c2ccc(O)cc2O)oc2cc(O)cc(O)c12
REMARK SMILES IDX 5 1 3 2 2 3 1 4 22 5 20 6 19 7 17 8 16 9 15 10 14 11 6 12
REMARK SMILES IDX 8 13 7 14 9 15 11 16 12 17 10 18 13 20 4 22 21 24 18 26
REMARK H PARENT 10 19 13 21 4 23 21 25 18 27
REMARK Flexibility Score: inf
ROOT
ATOM      1  C   UNL     1     164.973 153.173 151.141  1.00  0.00     0.184 A 
ATOM      2  C   UNL     1     164.133 152.213 151.727  1.00  0.00     0.208 A 
ATOM      3  C   UNL     1     163.858 151.029 151.025  1.00  0.00     0.238 A 
ATOM      4  O   UNL     1     163.155 150.146 151.581  1.00  0.00    -0.285 OA
ATOM      5  C   UNL     1     164.404 150.835 149.732  1.00  0.00     0.111 A 
ATOM      6  C   UNL     1     164.161 149.692 148.913  1.00  0.00     0.134 A 
ATOM      7  C   UNL     1     164.852 149.551 147.703  1.00  0.00     0.093 A 
ATOM      8  C   UNL     1     165.728 150.541 147.252  1.00  0.00     0.123 A 
ATOM      9  C   UNL     1     165.927 151.687 148.018  1.00  0.00     0.094 A 
ATOM     10  C   UNL     1     165.281 151.841 149.247  1.00  0.00     0.146 A 
ATOM     11  O   UNL     1     165.511 152.943 149.951  1.00  0.00    -0.451 OA
ENDROOT
BRANCH   1  12
ATOM     12  C   UNL     1     165.277 154.449 151.825  1.00  0.00     0.063 A 
ATOM     13  C   UNL     1     164.865 156.835 152.065  1.00  0.00     0.047 A 
ATOM     14  C   UNL     1     164.561 155.606 151.476  1.00  0.00     0.020 A 
ATOM     15  C   UNL     1     165.897 156.926 153.006  1.00  0.00     0.119 A 
ATOM     16  C   UNL     1     166.617 155.781 153.359  1.00  0.00     0.093 A 
ATOM     17  C   UNL     1     166.314 154.541 152.783  1.00  0.00     0.130 A 
BRANCH  15  18
ATOM     18  O   UNL     1     166.214 158.147 153.597  1.00  0.00    -0.508 OA
ATOM     19  H   UNL     1     166.113 159.021 153.094  1.00  0.00     0.293 HD
ENDBRANCH  15  18
BRANCH  17  20
ATOM     20  O   UNL     1     167.042 153.425 153.199  1.00  0.00    -0.507 OA
ATOM     21  H   UNL     1     166.721 152.475 153.065  1.00  0.00     0.293 HD
ENDBRANCH  17  20
ENDBRANCH   1  12
BRANCH   2  22
ATOM     22  O   UNL     1     163.605 152.434 153.002  1.00  0.00    -0.502 OA
ATOM     23  H   UNL     1     162.760 152.972 153.154  1.00  0.00     0.293 HD
ENDBRANCH   2  22
BRANCH   6  24
ATOM     24  O   UNL     1     163.240 148.688 149.226  1.00  0.00    -0.507 OA
ATOM     25  H   UNL     1     162.596 148.273 148.569  1.00  0.00     0.293 HD
ENDBRANCH   6  24
BRANCH   8  26
ATOM     26  O   UNL     1     166.398 150.399 146.040  1.00  0.00    -0.508 OA
ATOM     27  H   UNL     1     167.074 151.087 145.725  1.00  0.00     0.293 HD
ENDBRANCH   8  26
TORSDOF 6
ENDMDL
MODEL 2
REMARK VINA RESULT:    -7.447      1.207      2.841
REMARK INTER + INTRA:          -9.366
REMARK INTER:                  -9.026
REMARK INTRA:                  -0.340
REMARK UNBOUND:                -0.395
REMARK SMILES O=c1c(O)c(-c2ccc(O)cc2O)oc2cc(O)cc(O)c12
REMARK SMILES IDX 5 1 3 2 2 3 1 4 22 5 20 6 19 7 17 8 16 9 15 10 14 11 6 12
REMARK SMILES IDX 8 13 7 14 9 15 11 16 12 17 10 18 13 20 4 22 21 24 18 26
REMARK H PARENT 10 19 13 21 4 23 21 25 18 27
REMARK Flexibility Score: inf
ROOT
ATOM      1  C   UNL     1     165.200 153.298 150.648  1.00  0.00     0.184 A 
ATOM      2  C   UNL     1     165.635 153.264 149.315  1.00  0.00     0.208 A 
ATOM      3  C   UNL     1     165.388 152.117 148.546  1.00  0.00     0.238 A 
ATOM      4  O   UNL     1     165.727 152.116 147.334  1.00  0.00    -0.285 OA
ATOM      5  C   UNL     1     164.733 151.005 149.132  1.00  0.00     0.111 A 
ATOM      6  C   UNL     1     164.465 149.775 148.459  1.00  0.00     0.134 A 
ATOM      7  C   UNL     1     163.702 148.790 149.099  1.00  0.00     0.093 A 
ATOM      8  C   UNL     1     163.253 148.965 150.410  1.00  0.00     0.123 A 
ATOM      9  C   UNL     1     163.558 150.138 151.095  1.00  0.00     0.094 A 
ATOM     10  C   UNL     1     164.286 151.154 150.471  1.00  0.00     0.146 A 
ATOM     11  O   UNL     1     164.544 152.262 151.156  1.00  0.00    -0.451 OA
ENDROOT
BRANCH   1  12
ATOM     12  C   UNL     1     165.454 154.471 151.512  1.00  0.00     0.063 A 
ATOM     13  C   UNL     1     165.097 156.832 151.978  1.00  0.00     0.047 A 
ATOM     14  C   UNL     1     164.832 155.695 151.213  1.00  0.00     0.020 A 
ATOM     15  C   UNL     1     165.995 156.765 153.049  1.00  0.00     0.119 A 
ATOM     16  C   UNL     1     166.620 155.553 153.355  1.00  0.00     0.093 A 
ATOM     17  C   UNL     1     166.355 154.402 152.601  1.00  0.00     0.130 A 
BRANCH  15  18
ATOM     18  O   UNL     1     166.272 157.893 153.817  1.00  0.00    -0.508 OA
ATOM     19  H   UNL     1     165.592 158.273 154.465  1.00  0.00     0.293 HD
ENDBRANCH  15  18
BRANCH  17  20
ATOM     20  O   UNL     1     166.980 153.211 152.973  1.00  0.00    -0.507 OA
ATOM     21  H   UNL     1     167.545 152.662 152.337  1.00  0.00     0.293 HD
ENDBRANCH  17  20
ENDBRANCH   1  12
BRANCH   2  22
ATOM     22  O   UNL     1     166.283 154.374 148.765  1.00  0.00    -0.502 OA
ATOM     23  H   UNL     1     165.847 155.287 148.715  1.00  0.00     0.293 HD
ENDBRANCH   2  22
BRANCH   6  24
ATOM     24  O   UNL     1     164.943 149.462 147.183  1.00  0.00    -0.507 OA
ATOM     25  H   UNL     1     165.563 150.044 146.642  1.00  0.00     0.293 HD
ENDBRANCH   6  24
BRANCH   8  26
ATOM     26  O   UNL     1     162.508 147.973 151.045  1.00  0.00    -0.508 OA
ATOM     27  H   UNL     1     162.346 147.991 152.046  1.00  0.00     0.293 HD
ENDBRANCH   8  26
TORSDOF 6
ENDMDL
MODEL 3
REMARK VINA RESULT:    -7.280      1.538      3.114
REMARK INTER + INTRA:          -9.164
REMARK INTER:                  -8.798
REMARK INTRA:                  -0.366
REMARK UNBOUND:                -0.395
REMARK SMILES O=c1c(O)c(-c2ccc(O)cc2O)oc2cc(O)cc(O)c12
REMARK SMILES IDX 5 1 3 2 2 3 1 4 22 5 20 6 19 7 17 8 16 9 15 10 14 11 6 12
REMARK SMILES IDX 8 13 7 14 9 15 11 16 12 17 10 18 13 20 4 22 21 24 18 26
REMARK H PARENT 10 19 13 21 4 23 21 25 18 27
REMARK Flexibility Score: inf
ROOT
ATOM      1  C   UNL     1     166.324 153.508 150.007  1.00  0.00     0.184 A 
ATOM      2  C   UNL     1     167.434 153.432 149.152  1.00  0.00     0.208 A 
ATOM      3  C   UNL     1     167.527 152.361 148.251  1.00  0.00     0.238 A 
ATOM      4  O   UNL     1     168.493 152.331 147.444  1.00  0.00    -0.285 OA
ATOM      5  C   UNL     1     166.522 151.362 148.239  1.00  0.00     0.111 A 
ATOM      6  C   UNL     1     166.534 150.210 147.396  1.00  0.00     0.134 A 
ATOM      7  C   UNL     1     165.426 149.353 147.383  1.00  0.00     0.093 A 
ATOM      8  C   UNL     1     164.336 149.571 148.229  1.00  0.00     0.123 A 
ATOM      9  C   UNL     1     164.341 150.660 149.096  1.00  0.00     0.094 A 
ATOM     10  C   UNL     1     165.415 151.554 149.107  1.00  0.00     0.146 A 
ATOM     11  O   UNL     1     165.372 152.587 149.940  1.00  0.00    -0.451 OA
ENDROOT
BRANCH   1  12
ATOM     12  C   UNL     1     166.186 154.602 150.993  1.00  0.00     0.063 A 
ATOM     13  C   UNL     1     165.816 156.964 151.448  1.00  0.00     0.047 A 
ATOM     14  C   UNL     1     165.897 155.902 150.544  1.00  0.00     0.020 A 
ATOM     15  C   UNL     1     166.030 156.743 152.813  1.00  0.00     0.119 A 
ATOM     16  C   UNL     1     166.319 155.454 153.270  1.00  0.00     0.093 A 
ATOM     17  C   UNL     1     166.393 154.379 152.375  1.00  0.00     0.130 A 
BRANCH  15  18
ATOM     18  O   UNL     1     165.957 157.794 153.723  1.00  0.00    -0.508 OA
ATOM     19  H   UNL     1     165.481 158.660 153.495  1.00  0.00     0.293 HD
ENDBRANCH  15  18
BRANCH  17  20
ATOM     20  O   UNL     1     166.650 153.107 152.891  1.00  0.00    -0.507 OA
ATOM     21  H   UNL     1     166.463 152.255 152.378  1.00  0.00     0.293 HD
ENDBRANCH  17  20
ENDBRANCH   1  12
BRANCH   2  22
ATOM     22  O   UNL     1     168.413 154.430 149.189  1.00  0.00    -0.502 OA
ATOM     23  H   UNL     1     169.388 154.241 148.988  1.00  0.00     0.293 HD
ENDBRANCH   2  22
BRANCH   6  24
ATOM     24  O   UNL     1     167.610 149.850 146.579  1.00  0.00    -0.507 OA
ATOM     25  H   UNL     1     167.813 150.261 145.681  1.00  0.00     0.293 HD
ENDBRANCH   6  24
BRANCH   8  26
ATOM     26  O   UNL     1     163.245 148.705 148.220  1.00  0.00    -0.508 OA
ATOM     27  H   UNL     1     162.569 148.697 148.976  1.00  0.00     0.293 HD
ENDBRANCH   8  26
TORSDOF 6
ENDMDL
MODEL 4
REMARK VINA RESULT:    -7.209      8.286      9.327
REMARK INTER + INTRA:          -9.079
REMARK INTER:                  -8.671
REMARK INTRA:                  -0.408
REMARK UNBOUND:                -0.395
REMARK SMILES O=c1c(O)c(-c2ccc(O)cc2O)oc2cc(O)cc(O)c12
REMARK SMILES IDX 5 1 3 2 2 3 1 4 22 5 20 6 19 7 17 8 16 9 15 10 14 11 6 12
REMARK SMILES IDX 8 13 7 14 9 15 11 16 12 17 10 18 13 20 4 22 21 24 18 26
REMARK H PARENT 10 19 13 21 4 23 21 25 18 27
REMARK Flexibility Score: inf
ROOT
ATOM      1  C   UNL     1     168.653 144.958 154.165  1.00  0.00     0.184 A 
ATOM      2  C   UNL     1     168.552 143.597 154.491  1.00  0.00     0.208 A 
ATOM      3  C   UNL     1     168.391 142.659 153.461  1.00  0.00     0.238 A 
ATOM      4  O   UNL     1     168.362 141.436 153.755  1.00  0.00    -0.285 OA
ATOM      5  C   UNL     1     168.303 143.099 152.116  1.00  0.00     0.111 A 
ATOM      6  C   UNL     1     168.100 142.241 150.994  1.00  0.00     0.134 A 
ATOM      7  C   UNL     1     168.153 142.773 149.700  1.00  0.00     0.093 A 
ATOM      8  C   UNL     1     168.336 144.142 149.490  1.00  0.00     0.123 A 
ATOM      9  C   UNL     1     168.478 144.996 150.581  1.00  0.00     0.094 A 
ATOM     10  C   UNL     1     168.467 144.490 151.883  1.00  0.00     0.146 A 
ATOM     11  O   UNL     1     168.619 145.338 152.894  1.00  0.00    -0.451 OA
ENDROOT
BRANCH   1  12
ATOM     12  C   UNL     1     168.800 145.992 155.211  1.00  0.00     0.063 A 
ATOM     13  C   UNL     1     167.777 147.693 156.619  1.00  0.00     0.047 A 
ATOM     14  C   UNL     1     167.661 146.674 155.671  1.00  0.00     0.020 A 
ATOM     15  C   UNL     1     169.036 148.052 157.114  1.00  0.00     0.119 A 
ATOM     16  C   UNL     1     170.176 147.381 156.663  1.00  0.00     0.093 A 
ATOM     17  C   UNL     1     170.071 146.349 155.721  1.00  0.00     0.130 A 
BRANCH  15  18
ATOM     18  O   UNL     1     169.166 149.070 158.056  1.00  0.00    -0.508 OA
ATOM     19  H   UNL     1     170.042 149.240 158.534  1.00  0.00     0.293 HD
ENDBRANCH  15  18
BRANCH  17  20
ATOM     20  O   UNL     1     171.238 145.690 155.332  1.00  0.00    -0.507 OA
ATOM     21  H   UNL     1     171.867 146.051 154.625  1.00  0.00     0.293 HD
ENDBRANCH  17  20
ENDBRANCH   1  12
BRANCH   2  22
ATOM     22  O   UNL     1     168.637 143.193 155.827  1.00  0.00    -0.502 OA
ATOM     23  H   UNL     1     168.009 142.505 156.227  1.00  0.00     0.293 HD
ENDBRANCH   2  22
BRANCH   6  24
ATOM     24  O   UNL     1     167.819 140.875 151.095  1.00  0.00    -0.507 OA
ATOM     25  H   UNL     1     168.504 140.159 151.282  1.00  0.00     0.293 HD
ENDBRANCH   6  24
BRANCH   8  26
ATOM     26  O   UNL     1     168.372 144.665 148.199  1.00  0.00    -0.508 OA
ATOM     27  H   UNL     1     167.895 144.208 147.429  1.00  0.00     0.293 HD
ENDBRANCH   8  26
TORSDOF 6
ENDMDL
MODEL 5
REMARK VINA RESULT:    -7.149      0.914      1.039
REMARK INTER + INTRA:          -9.006
REMARK INTER:                  -8.596
REMARK INTRA:                  -0.410
REMARK UNBOUND:                -0.395
REMARK SMILES O=c1c(O)c(-c2ccc(O)cc2O)oc2cc(O)cc(O)c12
REMARK SMILES IDX 5 1 3 2 2 3 1 4 22 5 20 6 19 7 17 8 16 9 15 10 14 11 6 12
REMARK SMILES IDX 8 13 7 14 9 15 11 16 12 17 10 18 13 20 4 22 21 24 18 26
REMARK H PARENT 10 19 13 21 4 23 21 25 18 27
REMARK Flexibility Score: inf
ROOT
ATOM      1  C   UNL     1     165.469 153.340 150.663  1.00  0.00     0.184 A 
ATOM      2  C   UNL     1     164.460 152.397 150.910  1.00  0.00     0.208 A 
ATOM      3  C   UNL     1     164.334 151.293 150.053  1.00  0.00     0.238 A 
ATOM      4  O   UNL     1     163.468 150.419 150.315  1.00  0.00    -0.285 OA
ATOM      5  C   UNL     1     165.203 151.164 148.940  1.00  0.00     0.111 A 
ATOM      6  C   UNL     1     165.141 150.108 147.983  1.00  0.00     0.134 A 
ATOM      7  C   UNL     1     166.128 150.015 146.994  1.00  0.00     0.093 A 
ATOM      8  C   UNL     1     167.137 150.976 146.888  1.00  0.00     0.123 A 
ATOM      9  C   UNL     1     167.171 152.042 147.783  1.00  0.00     0.094 A 
ATOM     10  C   UNL     1     166.223 152.143 148.804  1.00  0.00     0.146 A 
ATOM     11  O   UNL     1     166.301 153.168 149.644  1.00  0.00    -0.451 OA
ENDROOT
BRANCH   1  12
ATOM     12  C   UNL     1     165.633 154.535 151.520  1.00  0.00     0.063 A 
ATOM     13  C   UNL     1     165.230 156.906 151.889  1.00  0.00     0.047 A 
ATOM     14  C   UNL     1     165.045 155.749 151.128  1.00  0.00     0.020 A 
ATOM     15  C   UNL     1     166.012 156.866 153.049  1.00  0.00     0.119 A 
ATOM     16  C   UNL     1     166.602 155.663 153.447  1.00  0.00     0.093 A 
ATOM     17  C   UNL     1     166.415 154.494 152.698  1.00  0.00     0.130 A 
BRANCH  15  18
ATOM     18  O   UNL     1     166.208 158.014 153.813  1.00  0.00    -0.508 OA
ATOM     19  H   UNL     1     167.136 158.381 153.988  1.00  0.00     0.293 HD
ENDBRANCH  15  18
BRANCH  17  20
ATOM     20  O   UNL     1     166.999 153.314 153.162  1.00  0.00    -0.507 OA
ATOM     21  H   UNL     1     167.809 153.300 153.768  1.00  0.00     0.293 HD
ENDBRANCH  17  20
ENDBRANCH   1  12
BRANCH   2  22
ATOM     22  O   UNL     1     163.615 152.552 152.013  1.00  0.00    -0.502 OA
ATOM     23  H   UNL     1     162.659 152.877 151.923  1.00  0.00     0.293 HD
ENDBRANCH   2  22
BRANCH   6  24
ATOM     24  O   UNL     1     164.126 149.148 147.942  1.00  0.00    -0.507 OA
ATOM     25  H   UNL     1     164.276 148.155 147.852  1.00  0.00     0.293 HD
ENDBRANCH   6  24
BRANCH   8  26
ATOM     26  O   UNL     1     168.106 150.884 145.892  1.00  0.00    -0.508 OA
ATOM     27  H   UNL     1     168.074 150.155 145.188  1.00  0.00     0.293 HD
ENDBRANCH   8  26
TORSDOF 6
ENDMDL
MODEL 6
REMARK VINA RESULT:    -7.004      2.227      6.275
REMARK INTER + INTRA:          -8.832
REMARK INTER:                  -8.474
REMARK INTRA:                  -0.358
REMARK UNBOUND:                -0.395
REMARK SMILES O=c1c(O)c(-c2ccc(O)cc2O)oc2cc(O)cc(O)c12
REMARK SMILES IDX 5 1 3 2 2 3 1 4 22 5 20 6 19 7 17 8 16 9 15 10 14 11 6 12
REMARK SMILES IDX 8 13 7 14 9 15 11 16 12 17 10 18 13 20 4 22 21 24 18 26
REMARK H PARENT 10 19 13 21 4 23 21 25 18 27
REMARK Flexibility Score: inf
ROOT
ATOM      1  C   UNL     1     166.360 153.529 149.865  1.00  0.00     0.184 A 
ATOM      2  C   UNL     1     165.450 152.737 150.582  1.00  0.00     0.208 A 
ATOM      3  C   UNL     1     164.663 153.336 151.577  1.00  0.00     0.238 A 
ATOM      4  O   UNL     1     163.806 152.634 152.174  1.00  0.00    -0.285 OA
ATOM      5  C   UNL     1     164.818 154.715 151.862  1.00  0.00     0.111 A 
ATOM      6  C   UNL     1     164.102 155.419 152.876  1.00  0.00     0.134 A 
ATOM      7  C   UNL     1     164.247 156.807 152.987  1.00  0.00     0.093 A 
ATOM      8  C   UNL     1     165.131 157.508 152.163  1.00  0.00     0.123 A 
ATOM      9  C   UNL     1     165.878 156.821 151.208  1.00  0.00     0.094 A 
ATOM     10  C   UNL     1     165.728 155.442 151.049  1.00  0.00     0.146 A 
ATOM     11  O   UNL     1     166.449 154.828 150.117  1.00  0.00    -0.451 OA
ENDROOT
BRANCH   1  12
ATOM     12  C   UNL     1     167.232 152.947 148.822  1.00  0.00     0.063 A 
ATOM     13  C   UNL     1     167.453 151.887 146.642  1.00  0.00     0.047 A 
ATOM     14  C   UNL     1     166.661 152.492 147.621  1.00  0.00     0.020 A 
ATOM     15  C   UNL     1     168.826 151.722 146.853  1.00  0.00     0.119 A 
ATOM     16  C   UNL     1     169.404 152.170 148.044  1.00  0.00     0.093 A 
ATOM     17  C   UNL     1     168.623 152.787 149.029  1.00  0.00     0.130 A 
BRANCH  15  18
ATOM     18  O   UNL     1     169.625 151.116 145.887  1.00  0.00    -0.508 OA
ATOM     19  H   UNL     1     170.098 151.659 145.174  1.00  0.00     0.293 HD
ENDBRANCH  15  18
BRANCH  17  20
ATOM     20  O   UNL     1     169.259 153.247 150.183  1.00  0.00    -0.507 OA
ATOM     21  H   UNL     1     168.823 153.885 150.837  1.00  0.00     0.293 HD
ENDBRANCH  17  20
ENDBRANCH   1  12
BRANCH   2  22
ATOM     22  O   UNL     1     165.322 151.378 150.282  1.00  0.00    -0.502 OA
ATOM     23  H   UNL     1     165.963 150.895 149.663  1.00  0.00     0.293 HD
ENDBRANCH   2  22
BRANCH   6  24
ATOM     24  O   UNL     1     163.263 154.804 153.810  1.00  0.00    -0.507 OA
ATOM     25  H   UNL     1     162.529 155.272 154.320  1.00  0.00     0.293 HD
ENDBRANCH   6  24
BRANCH   8  26
ATOM     26  O   UNL     1     165.281 158.887 152.290  1.00  0.00    -0.508 OA
ATOM     27  H   UNL     1     164.766 159.532 151.701  1.00  0.00     0.293 HD
ENDBRANCH   8  26
TORSDOF 6
ENDMDL
MODEL 7
REMARK VINA RESULT:    -6.970      4.945      8.624
REMARK INTER + INTRA:          -8.790
REMARK INTER:                  -8.539
REMARK INTRA:                  -0.251
REMARK UNBOUND:                -0.395
REMARK SMILES O=c1c(O)c(-c2ccc(O)cc2O)oc2cc(O)cc(O)c12
REMARK SMILES IDX 5 1 3 2 2 3 1 4 22 5 20 6 19 7 17 8 16 9 15 10 14 11 6 12
REMARK SMILES IDX 8 13 7 14 9 15 11 16 12 17 10 18 13 20 4 22 21 24 18 26
REMARK H PARENT 10 19 13 21 4 23 21 25 18 27
REMARK Flexibility Score: inf
ROOT
ATOM      1  C   UNL     1     169.212 149.469 146.954  1.00  0.00     0.184 A 
ATOM      2  C   UNL     1     169.808 150.595 147.542  1.00  0.00     0.208 A 
ATOM      3  C   UNL     1     169.060 151.776 147.664  1.00  0.00     0.238 A 
ATOM      4  O   UNL     1     169.580 152.763 148.248  1.00  0.00    -0.285 OA
ATOM      5  C   UNL     1     167.734 151.824 147.168  1.00  0.00     0.111 A 
ATOM      6  C   UNL     1     166.897 152.979 147.202  1.00  0.00     0.134 A 
ATOM      7  C   UNL     1     165.561 152.876 146.794  1.00  0.00     0.093 A 
ATOM      8  C   UNL     1     165.051 151.676 146.294  1.00  0.00     0.123 A 
ATOM      9  C   UNL     1     165.876 150.558 146.203  1.00  0.00     0.094 A 
ATOM     10  C   UNL     1     167.203 150.619 146.636  1.00  0.00     0.146 A 
ATOM     11  O   UNL     1     167.951 149.526 146.544  1.00  0.00    -0.451 OA
ENDROOT
BRANCH   1  12
ATOM     12  C   UNL     1     169.960 148.206 146.778  1.00  0.00     0.063 A 
ATOM     13  C   UNL     1     171.895 147.037 145.877  1.00  0.00     0.047 A 
ATOM     14  C   UNL     1     171.194 148.223 146.106  1.00  0.00     0.020 A 
ATOM     15  C   UNL     1     171.368 145.815 146.309  1.00  0.00     0.119 A 
ATOM     16  C   UNL     1     170.140 145.786 146.977  1.00  0.00     0.093 A 
ATOM     17  C   UNL     1     169.433 146.970 147.222  1.00  0.00     0.130 A 
BRANCH  15  18
ATOM     18  O   UNL     1     172.055 144.625 146.082  1.00  0.00    -0.508 OA
ATOM     19  H   UNL     1     171.564 143.759 145.888  1.00  0.00     0.293 HD
ENDBRANCH  15  18
BRANCH  17  20
ATOM     20  O   UNL     1     168.229 146.885 147.925  1.00  0.00    -0.507 OA
ATOM     21  H   UNL     1     168.089 147.309 148.833  1.00  0.00     0.293 HD
ENDBRANCH  17  20
ENDBRANCH   1  12
BRANCH   2  22
ATOM     22  O   UNL     1     171.120 150.520 148.018  1.00  0.00    -0.502 OA
ATOM     23  H   UNL     1     171.475 151.147 148.732  1.00  0.00     0.293 HD
ENDBRANCH   2  22
BRANCH   6  24
ATOM     24  O   UNL     1     167.331 154.248 147.599  1.00  0.00    -0.507 OA
ATOM     25  H   UNL     1     167.951 154.837 147.065  1.00  0.00     0.293 HD
ENDBRANCH   6  24
BRANCH   8  26
ATOM     26  O   UNL     1     163.725 151.586 145.876  1.00  0.00    -0.508 OA
ATOM     27  H   UNL     1     162.962 151.917 146.457  1.00  0.00     0.293 HD
ENDBRANCH   8  26
TORSDOF 6
ENDMDL
MODEL 8
REMARK VINA RESULT:    -6.939      8.766     11.481
REMARK INTER + INTRA:          -8.754
REMARK INTER:                  -8.337
REMARK INTRA:                  -0.416
REMARK UNBOUND:                -0.395
REMARK SMILES O=c1c(O)c(-c2ccc(O)cc2O)oc2cc(O)cc(O)c12
REMARK SMILES IDX 5 1 3 2 2 3 1 4 22 5 20 6 19 7 17 8 16 9 15 10 14 11 6 12
REMARK SMILES IDX 8 13 7 14 9 15 11 16 12 17 10 18 13 20 4 22 21 24 18 26
REMARK H PARENT 10 19 13 21 4 23 21 25 18 27
REMARK Flexibility Score: inf
ROOT
ATOM      1  C   UNL     1     168.859 145.199 154.683  1.00  0.00     0.184 A 
ATOM      2  C   UNL     1     167.915 146.113 155.175  1.00  0.00     0.208 A 
ATOM      3  C   UNL     1     168.294 147.002 156.192  1.00  0.00     0.238 A 
ATOM      4  O   UNL     1     167.462 147.860 156.586  1.00  0.00    -0.285 OA
ATOM      5  C   UNL     1     169.606 146.945 156.724  1.00  0.00     0.111 A 
ATOM      6  C   UNL     1     170.088 147.771 157.783  1.00  0.00     0.134 A 
ATOM      7  C   UNL     1     171.440 147.711 158.145  1.00  0.00     0.093 A 
ATOM      8  C   UNL     1     172.312 146.810 157.530  1.00  0.00     0.123 A 
ATOM      9  C   UNL     1     171.837 145.959 156.535  1.00  0.00     0.094 A 
ATOM     10  C   UNL     1     170.503 146.020 156.126  1.00  0.00     0.146 A 
ATOM     11  O   UNL     1     170.096 145.201 155.164  1.00  0.00    -0.451 OA
ENDROOT
BRANCH   1  12
ATOM     12  C   UNL     1     168.509 144.222 153.629  1.00  0.00     0.063 A 
ATOM     13  C   UNL     1     167.730 141.998 153.024  1.00  0.00     0.047 A 
ATOM     14  C   UNL     1     168.017 142.958 153.996  1.00  0.00     0.020 A 
ATOM     15  C   UNL     1     167.939 142.284 151.670  1.00  0.00     0.119 A 
ATOM     16  C   UNL     1     168.429 143.538 151.294  1.00  0.00     0.093 A 
ATOM     17  C   UNL     1     168.710 144.514 152.259  1.00  0.00     0.130 A 
BRANCH  15  18
ATOM     18  O   UNL     1     167.662 141.333 150.691  1.00  0.00    -0.508 OA
ATOM     19  H   UNL     1     168.043 140.395 150.741  1.00  0.00     0.293 HD
ENDBRANCH  15  18
BRANCH  17  20
ATOM     20  O   UNL     1     169.164 145.760 151.824  1.00  0.00    -0.507 OA
ATOM     21  H   UNL     1     170.122 145.933 151.547  1.00  0.00     0.293 HD
ENDBRANCH  17  20
ENDBRANCH   1  12
BRANCH   2  22
ATOM     22  O   UNL     1     166.627 146.144 154.634  1.00  0.00    -0.502 OA
ATOM     23  H   UNL     1     165.906 146.764 154.984  1.00  0.00     0.293 HD
ENDBRANCH   2  22
BRANCH   6  24
ATOM     24  O   UNL     1     169.282 148.640 158.525  1.00  0.00    -0.507 OA
ATOM     25  H   UNL     1     169.518 149.010 159.433  1.00  0.00     0.293 HD
ENDBRANCH   6  24
BRANCH   8  26
ATOM     26  O   UNL     1     173.651 146.746 157.907  1.00  0.00    -0.508 OA
ATOM     27  H   UNL     1     174.394 147.010 157.269  1.00  0.00     0.293 HD
ENDBRANCH   8  26
TORSDOF 6
ENDMDL
MODEL 9
REMARK VINA RESULT:    -6.701      2.345      3.532
REMARK INTER + INTRA:          -8.466
REMARK INTER:                  -8.336
REMARK INTRA:                  -0.130
REMARK UNBOUND:                -0.395
REMARK SMILES O=c1c(O)c(-c2ccc(O)cc2O)oc2cc(O)cc(O)c12
REMARK SMILES IDX 5 1 3 2 2 3 1 4 22 5 20 6 19 7 17 8 16 9 15 10 14 11 6 12
REMARK SMILES IDX 8 13 7 14 9 15 11 16 12 17 10 18 13 20 4 22 21 24 18 26
REMARK H PARENT 10 19 13 21 4 23 21 25 18 27
REMARK Flexibility Score: inf
ROOT
ATOM      1  C   UNL     1     165.755 152.553 150.220  1.00  0.00     0.184 A 
ATOM      2  C   UNL     1     165.240 151.464 149.501  1.00  0.00     0.208 A 
ATOM      3  C   UNL     1     165.949 150.983 148.391  1.00  0.00     0.238 A 
ATOM      4  O   UNL     1     165.514 149.968 147.787  1.00  0.00    -0.285 OA
ATOM      5  C   UNL     1     167.153 151.619 147.996  1.00  0.00     0.111 A 
ATOM      6  C   UNL     1     167.934 151.243 146.863  1.00  0.00     0.134 A 
ATOM      7  C   UNL     1     169.170 151.864 146.640  1.00  0.00     0.093 A 
ATOM      8  C   UNL     1     169.621 152.892 147.471  1.00  0.00     0.123 A 
ATOM      9  C   UNL     1     168.838 153.306 148.545  1.00  0.00     0.094 A 
ATOM     10  C   UNL     1     167.618 152.681 148.816  1.00  0.00     0.146 A 
ATOM     11  O   UNL     1     166.909 153.097 149.859  1.00  0.00    -0.451 OA
ENDROOT
BRANCH   1  12
ATOM     12  C   UNL     1     165.037 153.116 151.384  1.00  0.00     0.063 A 
ATOM     13  C   UNL     1     162.964 153.940 152.355  1.00  0.00     0.047 A 
ATOM     14  C   UNL     1     163.656 153.358 151.291  1.00  0.00     0.020 A 
ATOM     15  C   UNL     1     163.644 154.297 153.525  1.00  0.00     0.119 A 
ATOM     16  C   UNL     1     165.018 154.062 153.628  1.00  0.00     0.093 A 
ATOM     17  C   UNL     1     165.722 153.468 152.571  1.00  0.00     0.130 A 
BRANCH  15  18
ATOM     18  O   UNL     1     162.966 154.883 154.591  1.00  0.00    -0.508 OA
ATOM     19  H   UNL     1     162.958 154.459 155.511  1.00  0.00     0.293 HD
ENDBRANCH  15  18
BRANCH  17  20
ATOM     20  O   UNL     1     167.085 153.225 152.742  1.00  0.00    -0.507 OA
ATOM     21  H   UNL     1     167.571 152.460 152.290  1.00  0.00     0.293 HD
ENDBRANCH  17  20
ENDBRANCH   1  12
BRANCH   2  22
ATOM     22  O   UNL     1     164.048 150.859 149.911  1.00  0.00    -0.502 OA
ATOM     23  H   UNL     1     163.886 150.573 150.870  1.00  0.00     0.293 HD
ENDBRANCH   2  22
BRANCH   6  24
ATOM     24  O   UNL     1     167.536 150.291 145.919  1.00  0.00    -0.507 OA
ATOM     25  H   UNL     1     167.784 150.311 144.942  1.00  0.00     0.293 HD
ENDBRANCH   6  24
BRANCH   8  26
ATOM     26  O   UNL     1     170.843 153.515 147.232  1.00  0.00    -0.508 OA
ATOM     27  H   UNL     1     171.714 152.995 147.243  1.00  0.00     0.293 HD
ENDBRANCH   8  26
TORSDOF 6
ENDMDL
