MODEL 1
REMARK VINA RESULT:    -3.923      0.000      0.000
REMARK INTER + INTRA:         -13.698
REMARK INTER:                 -10.344
REMARK INTRA:                  -3.354
REMARK UNBOUND:                -3.354
REMARK SMILES CCCCCCCCCCCCCCCCCCCCCCCCCCCCCC(=O)[O-]
REMARK SMILES IDX 16 1 17 2 18 3 19 4 20 5 21 6 22 7 23 8 24 9 25 10 26 11
REMARK SMILES IDX 27 12 28 13 29 14 30 15 31 16 32 17 15 18 14 19 13 20 12 21
REMARK SMILES IDX 11 22 10 23 9 24 8 25 7 26 6 27 5 28 4 29 3 30 2 31 1 32
REMARK H PARENT
REMARK Flexibility Score: inf
ROOT
ATOM      1  C   UNL     1      55.420  46.915  13.638  1.00  0.00     0.000 C 
ENDROOT
BRANCH   1   2
ATOM      2  C   UNL     1      54.212  47.868  13.650  1.00  0.00     0.000 C 
BRANCH   2   3
ATOM      3  C   UNL     1      54.527  49.244  13.035  1.00  0.00     0.000 C 
BRANCH   3   4
ATOM      4  C   UNL     1      53.342  49.791  12.209  1.00  0.00     0.000 C 
BRANCH   4   5
ATOM      5  C   UNL     1      52.151  48.821  12.114  1.00  0.00     0.000 C 
BRANCH   5   6
ATOM      6  C   UNL     1      50.827  49.451  12.576  1.00  0.00     0.000 C 
BRANCH   6   7
ATOM      7  C   UNL     1      50.823  49.764  14.082  1.00  0.00     0.000 C 
BRANCH   7   8
ATOM      8  C   UNL     1      50.563  48.511  14.938  1.00  0.00     0.000 C 
BRANCH   8   9
ATOM      9  C   UNL     1      49.354  47.695  14.436  1.00  0.00     0.000 C 
BRANCH   9  10
ATOM     10  C   UNL     1      49.377  46.217  14.878  1.00  0.00     0.000 C 
BRANCH  10  11
ATOM     11  C   UNL     1      50.746  45.529  14.754  1.00  0.00     0.000 C 
BRANCH  11  12
ATOM     12  C   UNL     1      51.252  44.973  16.095  1.00  0.00     0.000 C 
BRANCH  12  13
ATOM     13  C   UNL     1      52.319  45.888  16.707  1.00  0.00     0.006 C 
BRANCH  13  14
ATOM     14  C   UNL     1      53.718  45.286  16.540  1.00  0.00     0.053 C 
BRANCH  14  15
ATOM     15  C   UNL     1      53.749  43.866  17.010  1.00  0.00     0.041 C 
ATOM     16  O   UNL     1      53.767  43.606  18.243  1.00  0.00    -0.550 OA
ATOM     17  O   UNL     1      53.757  42.825  16.089  1.00  0.00    -0.550 OA
ENDBRANCH  14  15
ENDBRANCH  13  14
ENDBRANCH  12  13
ENDBRANCH  11  12
ENDBRANCH  10  11
ENDBRANCH   9  10
ENDBRANCH   8   9
ENDBRANCH   7   8
ENDBRANCH   6   7
ENDBRANCH   5   6
ENDBRANCH   4   5
ENDBRANCH   3   4
ENDBRANCH   2   3
ENDBRANCH   1   2
BRANCH   1  18
ATOM     18  C   UNL     1      56.694  47.468  14.308  1.00  0.00     0.000 C 
BRANCH  18  19
ATOM     19  C   UNL     1      57.414  46.488  15.255  1.00  0.00     0.000 C 
BRANCH  19  20
ATOM     20  C   UNL     1      56.897  45.039  15.203  1.00  0.00     0.000 C 
BRANCH  20  21
ATOM     21  C   UNL     1      57.896  44.030  15.789  1.00  0.00     0.000 C 
BRANCH  21  22
ATOM     22  C   UNL     1      57.218  42.943  16.640  1.00  0.00     0.000 C 
BRANCH  22  23
ATOM     23  C   UNL     1      57.514  43.066  18.151  1.00  0.00     0.000 C 
BRANCH  23  24
ATOM     24  C   UNL     1      58.177  44.405  18.509  1.00  0.00    -0.000 C 
BRANCH  24  25
ATOM     25  C   UNL     1      59.267  44.211  19.573  1.00  0.00    -0.000 C 
BRANCH  25  26
ATOM     26  C   UNL     1      60.692  44.239  18.988  1.00  0.00    -0.000 C 
BRANCH  26  27
ATOM     27  C   UNL     1      60.834  45.004  17.660  1.00  0.00    -0.000 C 
BRANCH  27  28
ATOM     28  C   UNL     1      62.283  45.183  17.165  1.00  0.00    -0.000 C 
BRANCH  28  29
ATOM     29  C   UNL     1      62.978  43.857  16.790  1.00  0.00    -0.000 C 
BRANCH  29  30
ATOM     30  C   UNL     1      63.642  43.911  15.407  1.00  0.00    -0.000 C 
BRANCH  30  31
ATOM     31  C   UNL     1      63.688  42.519  14.768  1.00  0.00    -0.003 C 
ATOM     32  C   UNL     1      64.017  41.445  15.802  1.00  0.00     0.004 C 
ENDBRANCH  30  31
ENDBRANCH  29  30
ENDBRANCH  28  29
ENDBRANCH  27  28
ENDBRANCH  26  27
ENDBRANCH  25  26
ENDBRANCH  24  25
ENDBRANCH  23  24
ENDBRANCH  22  23
ENDBRANCH  21  22
ENDBRANCH  20  21
ENDBRANCH  19  20
ENDBRANCH  18  19
ENDBRANCH   1  18
TORSDOF 28
ENDMDL
MODEL 2
REMARK VINA RESULT:    -3.913      2.970      7.773
REMARK INTER + INTRA:         -13.673
REMARK INTER:                  -7.980
REMARK INTRA:                  -5.692
REMARK UNBOUND:                -3.354
REMARK SMILES CCCCCCCCCCCCCCCCCCCCCCCCCCCCCC(=O)[O-]
REMARK SMILES IDX 16 1 17 2 18 3 19 4 20 5 21 6 22 7 23 8 24 9 25 10 26 11
REMARK SMILES IDX 27 12 28 13 29 14 30 15 31 16 32 17 15 18 14 19 13 20 12 21
REMARK SMILES IDX 11 22 10 23 9 24 8 25 7 26 6 27 5 28 4 29 3 30 2 31 1 32
REMARK H PARENT
REMARK Flexibility Score: inf
ROOT
ATOM      1  C   UNL     1      49.819  47.482  16.097  1.00  0.00     0.000 C 
ENDROOT
BRANCH   1   2
ATOM      2  C   UNL     1      49.947  47.570  14.567  1.00  0.00     0.000 C 
BRANCH   2   3
ATOM      3  C   UNL     1      50.873  46.489  13.979  1.00  0.00     0.000 C 
BRANCH   3   4
ATOM      4  C   UNL     1      51.912  47.088  13.005  1.00  0.00     0.000 C 
BRANCH   4   5
ATOM      5  C   UNL     1      51.631  48.550  12.621  1.00  0.00     0.000 C 
BRANCH   5   6
ATOM      6  C   UNL     1      52.837  49.238  11.960  1.00  0.00     0.000 C 
BRANCH   6   7
ATOM      7  C   UNL     1      54.047  49.328  12.905  1.00  0.00     0.000 C 
BRANCH   7   8
ATOM      8  C   UNL     1      54.744  50.699  12.834  1.00  0.00     0.000 C 
BRANCH   8   9
ATOM      9  C   UNL     1      56.068  50.729  13.626  1.00  0.00     0.000 C 
BRANCH   9  10
ATOM     10  C   UNL     1      56.175  49.623  14.696  1.00  0.00     0.000 C 
BRANCH  10  11
ATOM     11  C   UNL     1      57.429  48.740  14.587  1.00  0.00     0.000 C 
BRANCH  11  12
ATOM     12  C   UNL     1      57.212  47.513  13.687  1.00  0.00     0.000 C 
BRANCH  12  13
ATOM     13  C   UNL     1      57.005  46.244  14.522  1.00  0.00     0.006 C 
BRANCH  13  14
ATOM     14  C   UNL     1      57.579  46.416  15.932  1.00  0.00     0.053 C 
BRANCH  14  15
ATOM     15  C   UNL     1      58.330  45.193  16.357  1.00  0.00     0.041 C 
ATOM     16  O   UNL     1      59.237  45.276  17.228  1.00  0.00    -0.550 OA
ATOM     17  O   UNL     1      58.031  43.958  15.793  1.00  0.00    -0.550 OA
ENDBRANCH  14  15
ENDBRANCH  13  14
ENDBRANCH  12  13
ENDBRANCH  11  12
ENDBRANCH  10  11
ENDBRANCH   9  10
ENDBRANCH   8   9
ENDBRANCH   7   8
ENDBRANCH   6   7
ENDBRANCH   5   6
ENDBRANCH   4   5
ENDBRANCH   3   4
ENDBRANCH   2   3
ENDBRANCH   1   2
BRANCH   1  18
ATOM     18  C   UNL     1      50.516  48.617  16.876  1.00  0.00     0.000 C 
BRANCH  18  19
ATOM     19  C   UNL     1      51.358  49.581  16.017  1.00  0.00     0.000 C 
BRANCH  19  20
ATOM     20  C   UNL     1      52.842  49.674  16.414  1.00  0.00     0.000 C 
BRANCH  20  21
ATOM     21  C   UNL     1      53.349  48.405  17.117  1.00  0.00     0.000 C 
BRANCH  21  22
ATOM     22  C   UNL     1      53.929  47.370  16.139  1.00  0.00     0.000 C 
BRANCH  22  23
ATOM     23  C   UNL     1      53.335  45.955  16.312  1.00  0.00     0.000 C 
BRANCH  23  24
ATOM     24  C   UNL     1      54.213  45.058  17.199  1.00  0.00    -0.000 C 
BRANCH  24  25
ATOM     25  C   UNL     1      54.587  43.760  16.469  1.00  0.00    -0.000 C 
BRANCH  25  26
ATOM     26  C   UNL     1      53.371  42.861  16.178  1.00  0.00    -0.000 C 
BRANCH  26  27
ATOM     27  C   UNL     1      52.549  42.458  17.416  1.00  0.00    -0.000 C 
BRANCH  27  28
ATOM     28  C   UNL     1      51.021  42.463  17.211  1.00  0.00    -0.000 C 
BRANCH  28  29
ATOM     29  C   UNL     1      50.473  43.797  16.663  1.00  0.00    -0.000 C 
BRANCH  29  30
ATOM     30  C   UNL     1      49.305  43.598  15.687  1.00  0.00    -0.000 C 
BRANCH  30  31
ATOM     31  C   UNL     1      47.991  44.098  16.298  1.00  0.00    -0.003 C 
ATOM     32  C   UNL     1      47.159  44.864  15.272  1.00  0.00     0.004 C 
ENDBRANCH  30  31
ENDBRANCH  29  30
ENDBRANCH  28  29
ENDBRANCH  27  28
ENDBRANCH  26  27
ENDBRANCH  25  26
ENDBRANCH  24  25
ENDBRANCH  23  24
ENDBRANCH  22  23
ENDBRANCH  21  22
ENDBRANCH  20  21
ENDBRANCH  19  20
ENDBRANCH  18  19
ENDBRANCH   1  18
TORSDOF 28
ENDMDL
MODEL 3
REMARK VINA RESULT:    -3.730      3.087      8.837
REMARK INTER + INTRA:         -13.190
REMARK INTER:                  -8.286
REMARK INTRA:                  -4.904
REMARK UNBOUND:                -3.354
REMARK SMILES CCCCCCCCCCCCCCCCCCCCCCCCCCCCCC(=O)[O-]
REMARK SMILES IDX 16 1 17 2 18 3 19 4 20 5 21 6 22 7 23 8 24 9 25 10 26 11
REMARK SMILES IDX 27 12 28 13 29 14 30 15 31 16 32 17 15 18 14 19 13 20 12 21
REMARK SMILES IDX 11 22 10 23 9 24 8 25 7 26 6 27 5 28 4 29 3 30 2 31 1 32
REMARK H PARENT
REMARK Flexibility Score: inf
ROOT
ATOM      1  C   UNL     1      50.993  48.510  13.412  1.00  0.00     0.000 C 
ENDROOT
BRANCH   1   2
ATOM      2  C   UNL     1      52.027  47.440  13.022  1.00  0.00     0.000 C 
BRANCH   2   3
ATOM      3  C   UNL     1      53.479  47.929  13.162  1.00  0.00     0.000 C 
BRANCH   3   4
ATOM      4  C   UNL     1      53.680  49.326  12.533  1.00  0.00     0.000 C 
BRANCH   4   5
ATOM      5  C   UNL     1      54.253  50.368  13.509  1.00  0.00     0.000 C 
BRANCH   5   6
ATOM      6  C   UNL     1      55.286  49.774  14.481  1.00  0.00     0.000 C 
BRANCH   6   7
ATOM      7  C   UNL     1      56.689  49.682  13.857  1.00  0.00     0.000 C 
BRANCH   7   8
ATOM      8  C   UNL     1      57.375  48.337  14.157  1.00  0.00     0.000 C 
BRANCH   8   9
ATOM      9  C   UNL     1      56.551  47.458  15.122  1.00  0.00     0.000 C 
BRANCH   9  10
ATOM     10  C   UNL     1      56.520  45.968  14.727  1.00  0.00     0.000 C 
BRANCH  10  11
ATOM     11  C   UNL     1      57.432  45.059  15.569  1.00  0.00     0.000 C 
BRANCH  11  12
ATOM     12  C   UNL     1      56.836  44.739  16.949  1.00  0.00     0.000 C 
BRANCH  12  13
ATOM     13  C   UNL     1      55.931  43.503  16.887  1.00  0.00     0.006 C 
BRANCH  13  14
ATOM     14  C   UNL     1      56.697  42.242  17.300  1.00  0.00     0.053 C 
BRANCH  14  15
ATOM     15  C   UNL     1      56.574  41.998  18.772  1.00  0.00     0.041 C 
ATOM     16  O   UNL     1      57.599  41.752  19.462  1.00  0.00    -0.550 OA
ATOM     17  O   UNL     1      55.327  42.042  19.385  1.00  0.00    -0.550 OA
ENDBRANCH  14  15
ENDBRANCH  13  14
ENDBRANCH  12  13
ENDBRANCH  11  12
ENDBRANCH  10  11
ENDBRANCH   9  10
ENDBRANCH   8   9
ENDBRANCH   7   8
ENDBRANCH   6   7
ENDBRANCH   5   6
ENDBRANCH   4   5
ENDBRANCH   3   4
ENDBRANCH   2   3
ENDBRANCH   1   2
BRANCH   1  18
ATOM     18  C   UNL     1      50.539  48.473  14.886  1.00  0.00     0.000 C 
BRANCH  18  19
ATOM     19  C   UNL     1      51.423  49.274  15.863  1.00  0.00     0.000 C 
BRANCH  19  20
ATOM     20  C   UNL     1      51.887  48.492  17.105  1.00  0.00     0.000 C 
BRANCH  20  21
ATOM     21  C   UNL     1      53.304  47.919  16.951  1.00  0.00     0.000 C 
BRANCH  21  22
ATOM     22  C   UNL     1      53.367  46.404  17.203  1.00  0.00     0.000 C 
BRANCH  22  23
ATOM     23  C   UNL     1      52.895  45.556  16.001  1.00  0.00     0.000 C 
BRANCH  23  24
ATOM     24  C   UNL     1      51.500  44.953  16.225  1.00  0.00    -0.000 C 
BRANCH  24  25
ATOM     25  C   UNL     1      50.714  44.882  14.907  1.00  0.00    -0.000 C 
BRANCH  25  26
ATOM     26  C   UNL     1      49.188  44.905  15.113  1.00  0.00    -0.000 C 
BRANCH  26  27
ATOM     27  C   UNL     1      48.729  44.851  16.582  1.00  0.00    -0.000 C 
BRANCH  27  28
ATOM     28  C   UNL     1      47.294  44.332  16.796  1.00  0.00    -0.000 C 
BRANCH  28  29
ATOM     29  C   UNL     1      46.383  44.502  15.562  1.00  0.00    -0.000 C 
BRANCH  29  30
ATOM     30  C   UNL     1      45.634  43.210  15.201  1.00  0.00    -0.000 C 
BRANCH  30  31
ATOM     31  C   UNL     1      46.574  42.201  14.533  1.00  0.00    -0.003 C 
ATOM     32  C   UNL     1      46.563  40.863  15.267  1.00  0.00     0.004 C 
ENDBRANCH  30  31
ENDBRANCH  29  30
ENDBRANCH  28  29
ENDBRANCH  27  28
ENDBRANCH  26  27
ENDBRANCH  25  26
ENDBRANCH  24  25
ENDBRANCH  23  24
ENDBRANCH  22  23
ENDBRANCH  21  22
ENDBRANCH  20  21
ENDBRANCH  19  20
ENDBRANCH  18  19
ENDBRANCH   1  18
TORSDOF 28
ENDMDL
MODEL 4
REMARK VINA RESULT:    -3.725      4.012      9.625
REMARK INTER + INTRA:         -13.176
REMARK INTER:                  -7.850
REMARK INTRA:                  -5.326
REMARK UNBOUND:                -3.354
REMARK SMILES CCCCCCCCCCCCCCCCCCCCCCCCCCCCCC(=O)[O-]
REMARK SMILES IDX 16 1 17 2 18 3 19 4 20 5 21 6 22 7 23 8 24 9 25 10 26 11
REMARK SMILES IDX 27 12 28 13 29 14 30 15 31 16 32 17 15 18 14 19 13 20 12 21
REMARK SMILES IDX 11 22 10 23 9 24 8 25 7 26 6 27 5 28 4 29 3 30 2 31 1 32
REMARK H PARENT
REMARK Flexibility Score: inf
ROOT
ATOM      1  C   UNL     1      51.598  45.067  16.558  1.00  0.00     0.000 C 
ENDROOT
BRANCH   1   2
ATOM      2  C   UNL     1      50.950  44.918  15.171  1.00  0.00     0.000 C 
BRANCH   2   3
ATOM      3  C   UNL     1      50.849  46.251  14.409  1.00  0.00     0.000 C 
BRANCH   3   4
ATOM      4  C   UNL     1      51.379  47.436  15.247  1.00  0.00     0.000 C 
BRANCH   4   5
ATOM      5  C   UNL     1      50.613  48.750  15.015  1.00  0.00     0.000 C 
BRANCH   5   6
ATOM      6  C   UNL     1      49.731  48.715  13.756  1.00  0.00     0.000 C 
BRANCH   6   7
ATOM      7  C   UNL     1      50.278  49.616  12.636  1.00  0.00     0.000 C 
BRANCH   7   8
ATOM      8  C   UNL     1      51.381  50.567  13.136  1.00  0.00     0.000 C 
BRANCH   8   9
ATOM      9  C   UNL     1      52.675  50.457  12.302  1.00  0.00     0.000 C 
BRANCH   9  10
ATOM     10  C   UNL     1      53.454  49.147  12.537  1.00  0.00     0.000 C 
BRANCH  10  11
ATOM     11  C   UNL     1      54.304  49.123  13.818  1.00  0.00     0.000 C 
BRANCH  11  12
ATOM     12  C   UNL     1      55.722  48.582  13.576  1.00  0.00     0.000 C 
BRANCH  12  13
ATOM     13  C   UNL     1      55.735  47.049  13.558  1.00  0.00     0.006 C 
BRANCH  13  14
ATOM     14  C   UNL     1      54.949  46.482  14.745  1.00  0.00     0.053 C 
BRANCH  14  15
ATOM     15  C   UNL     1      55.765  45.476  15.495  1.00  0.00     0.041 C 
ATOM     16  O   UNL     1      55.273  44.873  16.486  1.00  0.00    -0.550 OA
ATOM     17  O   UNL     1      57.070  45.201  15.102  1.00  0.00    -0.550 OA
ENDBRANCH  14  15
ENDBRANCH  13  14
ENDBRANCH  12  13
ENDBRANCH  11  12
ENDBRANCH  10  11
ENDBRANCH   9  10
ENDBRANCH   8   9
ENDBRANCH   7   8
ENDBRANCH   6   7
ENDBRANCH   5   6
ENDBRANCH   4   5
ENDBRANCH   3   4
ENDBRANCH   2   3
ENDBRANCH   1   2
BRANCH   1  18
ATOM     18  C   UNL     1      51.295  43.922  17.547  1.00  0.00     0.000 C 
BRANCH  18  19
ATOM     19  C   UNL     1      50.020  43.111  17.240  1.00  0.00     0.000 C 
BRANCH  19  20
ATOM     20  C   UNL     1      48.859  43.334  18.225  1.00  0.00     0.000 C 
BRANCH  20  21
ATOM     21  C   UNL     1      49.213  44.322  19.347  1.00  0.00     0.000 C 
BRANCH  21  22
ATOM     22  C   UNL     1      48.311  45.568  19.354  1.00  0.00     0.000 C 
BRANCH  22  23
ATOM     23  C   UNL     1      48.841  46.720  18.473  1.00  0.00     0.000 C 
BRANCH  23  24
ATOM     24  C   UNL     1      48.186  46.740  17.083  1.00  0.00    -0.000 C 
BRANCH  24  25
ATOM     25  C   UNL     1      46.671  46.505  17.185  1.00  0.00    -0.000 C 
BRANCH  25  26
ATOM     26  C   UNL     1      46.131  45.570  16.087  1.00  0.00    -0.000 C 
BRANCH  26  27
ATOM     27  C   UNL     1      47.206  44.787  15.313  1.00  0.00    -0.000 C 
BRANCH  27  28
ATOM     28  C   UNL     1      46.675  43.600  14.484  1.00  0.00    -0.000 C 
BRANCH  28  29
ATOM     29  C   UNL     1      47.096  42.222  15.036  1.00  0.00    -0.000 C 
BRANCH  29  30
ATOM     30  C   UNL     1      45.904  41.412  15.567  1.00  0.00    -0.000 C 
BRANCH  30  31
ATOM     31  C   UNL     1      45.344  42.039  16.848  1.00  0.00    -0.003 C 
ATOM     32  C   UNL     1      45.905  41.353  18.092  1.00  0.00     0.004 C 
ENDBRANCH  30  31
ENDBRANCH  29  30
ENDBRANCH  28  29
ENDBRANCH  27  28
ENDBRANCH  26  27
ENDBRANCH  25  26
ENDBRANCH  24  25
ENDBRANCH  23  24
ENDBRANCH  22  23
ENDBRANCH  21  22
ENDBRANCH  20  21
ENDBRANCH  19  20
ENDBRANCH  18  19
ENDBRANCH   1  18
TORSDOF 28
ENDMDL
MODEL 5
REMARK VINA RESULT:    -3.698      3.726      7.140
REMARK INTER + INTRA:         -13.104
REMARK INTER:                  -7.481
REMARK INTRA:                  -5.624
REMARK UNBOUND:                -3.354
REMARK SMILES CCCCCCCCCCCCCCCCCCCCCCCCCCCCCC(=O)[O-]
REMARK SMILES IDX 16 1 17 2 18 3 19 4 20 5 21 6 22 7 23 8 24 9 25 10 26 11
REMARK SMILES IDX 27 12 28 13 29 14 30 15 31 16 32 17 15 18 14 19 13 20 12 21
REMARK SMILES IDX 11 22 10 23 9 24 8 25 7 26 6 27 5 28 4 29 3 30 2 31 1 32
REMARK H PARENT
REMARK Flexibility Score: inf
ROOT
ATOM      1  C   UNL     1      52.842  46.319  16.913  1.00  0.00     0.000 C 
ENDROOT
BRANCH   1   2
ATOM      2  C   UNL     1      52.708  44.912  16.306  1.00  0.00     0.000 C 
BRANCH   2   3
ATOM      3  C   UNL     1      52.379  43.835  17.355  1.00  0.00     0.000 C 
BRANCH   3   4
ATOM      4  C   UNL     1      51.887  42.524  16.701  1.00  0.00     0.000 C 
BRANCH   4   5
ATOM      5  C   UNL     1      50.356  42.385  16.666  1.00  0.00     0.000 C 
BRANCH   5   6
ATOM      6  C   UNL     1      49.662  43.115  17.827  1.00  0.00     0.000 C 
BRANCH   6   7
ATOM      7  C   UNL     1      48.716  44.225  17.337  1.00  0.00     0.000 C 
BRANCH   7   8
ATOM      8  C   UNL     1      48.848  44.479  15.825  1.00  0.00     0.000 C 
BRANCH   8   9
ATOM      9  C   UNL     1      47.554  45.054  15.209  1.00  0.00     0.000 C 
BRANCH   9  10
ATOM     10  C   UNL     1      46.479  43.987  14.921  1.00  0.00     0.000 C 
BRANCH  10  11
ATOM     11  C   UNL     1      47.025  42.643  14.411  1.00  0.00     0.000 C 
BRANCH  11  12
ATOM     12  C   UNL     1      46.259  41.439  14.982  1.00  0.00     0.000 C 
BRANCH  12  13
ATOM     13  C   UNL     1      46.400  41.366  16.507  1.00  0.00     0.006 C 
BRANCH  13  14
ATOM     14  C   UNL     1      47.338  40.225  16.916  1.00  0.00     0.053 C 
BRANCH  14  15
ATOM     15  C   UNL     1      46.590  38.934  17.035  1.00  0.00     0.041 C 
ATOM     16  O   UNL     1      45.939  38.672  18.082  1.00  0.00    -0.550 OA
ATOM     17  O   UNL     1      46.610  38.016  15.991  1.00  0.00    -0.550 OA
ENDBRANCH  14  15
ENDBRANCH  13  14
ENDBRANCH  12  13
ENDBRANCH  11  12
ENDBRANCH  10  11
ENDBRANCH   9  10
ENDBRANCH   8   9
ENDBRANCH   7   8
ENDBRANCH   6   7
ENDBRANCH   5   6
ENDBRANCH   4   5
ENDBRANCH   3   4
ENDBRANCH   2   3
ENDBRANCH   1   2
BRANCH   1  18
ATOM     18  C   UNL     1      51.686  46.742  17.843  1.00  0.00     0.000 C 
BRANCH  18  19
ATOM     19  C   UNL     1      50.494  47.421  17.139  1.00  0.00     0.000 C 
BRANCH  19  20
ATOM     20  C   UNL     1      50.867  48.277  15.915  1.00  0.00     0.000 C 
BRANCH  20  21
ATOM     21  C   UNL     1      50.198  47.787  14.622  1.00  0.00     0.000 C 
BRANCH  21  22
ATOM     22  C   UNL     1      51.140  46.951  13.740  1.00  0.00     0.000 C 
BRANCH  22  23
ATOM     23  C   UNL     1      52.227  47.787  13.030  1.00  0.00     0.000 C 
BRANCH  23  24
ATOM     24  C   UNL     1      53.648  47.357  13.428  1.00  0.00    -0.000 C 
BRANCH  24  25
ATOM     25  C   UNL     1      54.291  48.388  14.367  1.00  0.00    -0.000 C 
BRANCH  25  26
ATOM     26  C   UNL     1      55.644  47.922  14.938  1.00  0.00    -0.000 C 
BRANCH  26  27
ATOM     27  C   UNL     1      55.900  46.407  14.849  1.00  0.00    -0.000 C 
BRANCH  27  28
ATOM     28  C   UNL     1      57.328  45.966  15.226  1.00  0.00    -0.000 C 
BRANCH  28  29
ATOM     29  C   UNL     1      57.481  44.440  15.395  1.00  0.00    -0.000 C 
BRANCH  29  30
ATOM     30  C   UNL     1      56.308  43.813  16.164  1.00  0.00    -0.000 C 
BRANCH  30  31
ATOM     31  C   UNL     1      56.632  43.701  17.658  1.00  0.00    -0.003 C 
ATOM     32  C   UNL     1      55.783  44.666  18.482  1.00  0.00     0.004 C 
ENDBRANCH  30  31
ENDBRANCH  29  30
ENDBRANCH  28  29
ENDBRANCH  27  28
ENDBRANCH  26  27
ENDBRANCH  25  26
ENDBRANCH  24  25
ENDBRANCH  23  24
ENDBRANCH  22  23
ENDBRANCH  21  22
ENDBRANCH  20  21
ENDBRANCH  19  20
ENDBRANCH  18  19
ENDBRANCH   1  18
TORSDOF 28
ENDMDL
MODEL 6
REMARK VINA RESULT:    -3.693      1.777      3.807
REMARK INTER + INTRA:         -13.093
REMARK INTER:                  -8.755
REMARK INTRA:                  -4.338
REMARK UNBOUND:                -3.354
REMARK SMILES CCCCCCCCCCCCCCCCCCCCCCCCCCCCCC(=O)[O-]
REMARK SMILES IDX 16 1 17 2 18 3 19 4 20 5 21 6 22 7 23 8 24 9 25 10 26 11
REMARK SMILES IDX 27 12 28 13 29 14 30 15 31 16 32 17 15 18 14 19 13 20 12 21
REMARK SMILES IDX 11 22 10 23 9 24 8 25 7 26 6 27 5 28 4 29 3 30 2 31 1 32
REMARK H PARENT
REMARK Flexibility Score: inf
ROOT
ATOM      1  C   UNL     1      53.506  47.382  13.351  1.00  0.00     0.000 C 
ENDROOT
BRANCH   1   2
ATOM      2  C   UNL     1      52.026  47.371  12.931  1.00  0.00     0.000 C 
BRANCH   2   3
ATOM      3  C   UNL     1      51.106  48.051  13.960  1.00  0.00     0.000 C 
BRANCH   3   4
ATOM      4  C   UNL     1      50.200  47.032  14.686  1.00  0.00     0.000 C 
BRANCH   4   5
ATOM      5  C   UNL     1      50.530  45.566  14.359  1.00  0.00     0.000 C 
BRANCH   5   6
ATOM      6  C   UNL     1      50.933  44.752  15.600  1.00  0.00     0.000 C 
BRANCH   6   7
ATOM      7  C   UNL     1      51.645  45.612  16.656  1.00  0.00     0.000 C 
BRANCH   7   8
ATOM      8  C   UNL     1      53.156  45.733  16.390  1.00  0.00     0.000 C 
BRANCH   8   9
ATOM      9  C   UNL     1      54.005  45.249  17.585  1.00  0.00     0.000 C 
BRANCH   9  10
ATOM     10  C   UNL     1      53.944  43.724  17.811  1.00  0.00     0.000 C 
BRANCH  10  11
ATOM     11  C   UNL     1      54.034  42.879  16.529  1.00  0.00     0.000 C 
BRANCH  11  12
ATOM     12  C   UNL     1      52.961  41.781  16.469  1.00  0.00     0.000 C 
BRANCH  12  13
ATOM     13  C   UNL     1      52.032  41.847  17.687  1.00  0.00     0.006 C 
BRANCH  13  14
ATOM     14  C   UNL     1      52.035  40.519  18.451  1.00  0.00     0.053 C 
BRANCH  14  15
ATOM     15  C   UNL     1      52.931  40.591  19.648  1.00  0.00     0.041 C 
ATOM     16  O   UNL     1      53.879  39.771  19.780  1.00  0.00    -0.550 OA
ATOM     17  O   UNL     1      52.722  41.563  20.619  1.00  0.00    -0.550 OA
ENDBRANCH  14  15
ENDBRANCH  13  14
ENDBRANCH  12  13
ENDBRANCH  11  12
ENDBRANCH  10  11
ENDBRANCH   9  10
ENDBRANCH   8   9
ENDBRANCH   7   8
ENDBRANCH   6   7
ENDBRANCH   5   6
ENDBRANCH   4   5
ENDBRANCH   3   4
ENDBRANCH   2   3
ENDBRANCH   1   2
BRANCH   1  18
ATOM     18  C   UNL     1      54.245  48.713  13.102  1.00  0.00     0.000 C 
BRANCH  18  19
ATOM     19  C   UNL     1      55.590  48.864  13.841  1.00  0.00     0.000 C 
BRANCH  19  20
ATOM     20  C   UNL     1      55.565  48.447  15.322  1.00  0.00     0.000 C 
BRANCH  20  21
ATOM     21  C   UNL     1      56.787  47.606  15.723  1.00  0.00     0.000 C 
BRANCH  21  22
ATOM     22  C   UNL     1      57.114  46.503  14.704  1.00  0.00     0.000 C 
BRANCH  22  23
ATOM     23  C   UNL     1      56.676  45.092  15.155  1.00  0.00     0.000 C 
BRANCH  23  24
ATOM     24  C   UNL     1      57.866  44.223  15.590  1.00  0.00    -0.000 C 
BRANCH  24  25
ATOM     25  C   UNL     1      57.685  43.725  17.032  1.00  0.00    -0.000 C 
BRANCH  25  26
ATOM     26  C   UNL     1      58.645  44.402  18.028  1.00  0.00    -0.000 C 
BRANCH  26  27
ATOM     27  C   UNL     1      59.457  45.577  17.453  1.00  0.00    -0.000 C 
BRANCH  27  28
ATOM     28  C   UNL     1      60.966  45.538  17.763  1.00  0.00    -0.000 C 
BRANCH  28  29
ATOM     29  C   UNL     1      61.704  44.357  17.099  1.00  0.00    -0.000 C 
BRANCH  29  30
ATOM     30  C   UNL     1      63.136  44.719  16.678  1.00  0.00    -0.000 C 
BRANCH  30  31
ATOM     31  C   UNL     1      63.525  43.995  15.384  1.00  0.00    -0.003 C 
ATOM     32  C   UNL     1      63.946  42.554  15.661  1.00  0.00     0.004 C 
ENDBRANCH  30  31
ENDBRANCH  29  30
ENDBRANCH  28  29
ENDBRANCH  27  28
ENDBRANCH  26  27
ENDBRANCH  25  26
ENDBRANCH  24  25
ENDBRANCH  23  24
ENDBRANCH  22  23
ENDBRANCH  21  22
ENDBRANCH  20  21
ENDBRANCH  19  20
ENDBRANCH  18  19
ENDBRANCH   1  18
TORSDOF 28
ENDMDL
MODEL 7
REMARK VINA RESULT:    -3.688      3.103      5.381
REMARK INTER + INTRA:         -13.079
REMARK INTER:                  -7.320
REMARK INTRA:                  -5.760
REMARK UNBOUND:                -3.354
REMARK SMILES CCCCCCCCCCCCCCCCCCCCCCCCCCCCCC(=O)[O-]
REMARK SMILES IDX 16 1 17 2 18 3 19 4 20 5 21 6 22 7 23 8 24 9 25 10 26 11
REMARK SMILES IDX 27 12 28 13 29 14 30 15 31 16 32 17 15 18 14 19 13 20 12 21
REMARK SMILES IDX 11 22 10 23 9 24 8 25 7 26 6 27 5 28 4 29 3 30 2 31 1 32
REMARK H PARENT
REMARK Flexibility Score: inf
ROOT
ATOM      1  C   UNL     1      54.218  50.507  13.917  1.00  0.00     0.000 C 
ENDROOT
BRANCH   1   2
ATOM      2  C   UNL     1      53.854  49.711  12.652  1.00  0.00     0.000 C 
BRANCH   2   3
ATOM      3  C   UNL     1      52.391  49.910  12.217  1.00  0.00     0.000 C 
BRANCH   3   4
ATOM      4  C   UNL     1      51.455  48.850  12.838  1.00  0.00     0.000 C 
BRANCH   4   5
ATOM      5  C   UNL     1      51.961  47.406  12.679  1.00  0.00     0.000 C 
BRANCH   5   6
ATOM      6  C   UNL     1      52.005  46.638  14.010  1.00  0.00     0.000 C 
BRANCH   6   7
ATOM      7  C   UNL     1      50.648  46.007  14.365  1.00  0.00     0.000 C 
BRANCH   7   8
ATOM      8  C   UNL     1      49.947  46.740  15.523  1.00  0.00     0.000 C 
BRANCH   8   9
ATOM      9  C   UNL     1      50.878  46.954  16.734  1.00  0.00     0.000 C 
BRANCH   9  10
ATOM     10  C   UNL     1      51.007  48.430  17.163  1.00  0.00     0.000 C 
BRANCH  10  11
ATOM     11  C   UNL     1      52.336  49.100  16.775  1.00  0.00     0.000 C 
BRANCH  11  12
ATOM     12  C   UNL     1      53.494  48.096  16.664  1.00  0.00     0.000 C 
BRANCH  12  13
ATOM     13  C   UNL     1      54.357  48.104  17.931  1.00  0.00     0.006 C 
BRANCH  13  14
ATOM     14  C   UNL     1      55.151  46.800  18.061  1.00  0.00     0.053 C 
BRANCH  14  15
ATOM     15  C   UNL     1      56.023  46.823  19.277  1.00  0.00     0.041 C 
ATOM     16  O   UNL     1      57.047  46.091  19.336  1.00  0.00    -0.550 OA
ATOM     17  O   UNL     1      55.709  47.652  20.347  1.00  0.00    -0.550 OA
ENDBRANCH  14  15
ENDBRANCH  13  14
ENDBRANCH  12  13
ENDBRANCH  11  12
ENDBRANCH  10  11
ENDBRANCH   9  10
ENDBRANCH   8   9
ENDBRANCH   7   8
ENDBRANCH   6   7
ENDBRANCH   5   6
ENDBRANCH   4   5
ENDBRANCH   3   4
ENDBRANCH   2   3
ENDBRANCH   1   2
BRANCH   1  18
ATOM     18  C   UNL     1      55.719  50.815  14.085  1.00  0.00     0.000 C 
BRANCH  18  19
ATOM     19  C   UNL     1      56.348  50.312  15.400  1.00  0.00     0.000 C 
BRANCH  19  20
ATOM     20  C   UNL     1      57.171  49.018  15.270  1.00  0.00     0.000 C 
BRANCH  20  21
ATOM     21  C   UNL     1      57.529  48.685  13.813  1.00  0.00     0.000 C 
BRANCH  21  22
ATOM     22  C   UNL     1      57.226  47.224  13.442  1.00  0.00     0.000 C 
BRANCH  22  23
ATOM     23  C   UNL     1      55.816  46.757  13.865  1.00  0.00     0.000 C 
BRANCH  23  24
ATOM     24  C   UNL     1      55.863  45.598  14.873  1.00  0.00    -0.000 C 
BRANCH  24  25
ATOM     25  C   UNL     1      57.309  45.296  15.296  1.00  0.00    -0.000 C 
BRANCH  25  26
ATOM     26  C   UNL     1      57.556  43.801  15.573  1.00  0.00    -0.000 C 
BRANCH  26  27
ATOM     27  C   UNL     1      57.470  43.391  17.054  1.00  0.00    -0.000 C 
BRANCH  27  28
ATOM     28  C   UNL     1      56.263  42.503  17.413  1.00  0.00    -0.000 C 
BRANCH  28  29
ATOM     29  C   UNL     1      54.971  43.299  17.697  1.00  0.00    -0.000 C 
BRANCH  29  30
ATOM     30  C   UNL     1      53.722  42.618  17.120  1.00  0.00    -0.000 C 
BRANCH  30  31
ATOM     31  C   UNL     1      52.828  43.635  16.401  1.00  0.00    -0.003 C 
ATOM     32  C   UNL     1      51.353  43.264  16.529  1.00  0.00     0.004 C 
ENDBRANCH  30  31
ENDBRANCH  29  30
ENDBRANCH  28  29
ENDBRANCH  27  28
ENDBRANCH  26  27
ENDBRANCH  25  26
ENDBRANCH  24  25
ENDBRANCH  23  24
ENDBRANCH  22  23
ENDBRANCH  21  22
ENDBRANCH  20  21
ENDBRANCH  19  20
ENDBRANCH  18  19
ENDBRANCH   1  18
TORSDOF 28
ENDMDL
MODEL 8
REMARK VINA RESULT:    -3.680      3.704      9.303
REMARK INTER + INTRA:         -13.058
REMARK INTER:                  -7.747
REMARK INTRA:                  -5.311
REMARK UNBOUND:                -3.354
REMARK SMILES CCCCCCCCCCCCCCCCCCCCCCCCCCCCCC(=O)[O-]
REMARK SMILES IDX 16 1 17 2 18 3 19 4 20 5 21 6 22 7 23 8 24 9 25 10 26 11
REMARK SMILES IDX 27 12 28 13 29 14 30 15 31 16 32 17 15 18 14 19 13 20 12 21
REMARK SMILES IDX 11 22 10 23 9 24 8 25 7 26 6 27 5 28 4 29 3 30 2 31 1 32
REMARK H PARENT
REMARK Flexibility Score: inf
ROOT
ATOM      1  C   UNL     1      51.278  46.892  13.759  1.00  0.00     0.000 C 
ENDROOT
BRANCH   1   2
ATOM      2  C   UNL     1      52.201  47.515  12.698  1.00  0.00     0.000 C 
BRANCH   2   3
ATOM      3  C   UNL     1      51.680  48.862  12.166  1.00  0.00     0.000 C 
BRANCH   3   4
ATOM      4  C   UNL     1      52.828  49.858  11.894  1.00  0.00     0.000 C 
BRANCH   4   5
ATOM      5  C   UNL     1      52.780  51.116  12.778  1.00  0.00     0.000 C 
BRANCH   5   6
ATOM      6  C   UNL     1      51.844  50.963  13.988  1.00  0.00     0.000 C 
BRANCH   6   7
ATOM      7  C   UNL     1      52.613  50.903  15.318  1.00  0.00     0.000 C 
BRANCH   7   8
ATOM      8  C   UNL     1      53.183  49.501  15.601  1.00  0.00     0.000 C 
BRANCH   8   9
ATOM      9  C   UNL     1      54.707  49.523  15.841  1.00  0.00     0.000 C 
BRANCH   9  10
ATOM     10  C   UNL     1      55.538  49.585  14.543  1.00  0.00     0.000 C 
BRANCH  10  11
ATOM     11  C   UNL     1      55.732  48.232  13.837  1.00  0.00     0.000 C 
BRANCH  11  12
ATOM     12  C   UNL     1      57.138  47.650  14.052  1.00  0.00     0.000 C 
BRANCH  12  13
ATOM     13  C   UNL     1      57.067  46.203  14.553  1.00  0.00     0.006 C 
BRANCH  13  14
ATOM     14  C   UNL     1      55.733  45.932  15.257  1.00  0.00     0.053 C 
BRANCH  14  15
ATOM     15  C   UNL     1      55.907  45.911  16.744  1.00  0.00     0.041 C 
ATOM     16  O   UNL     1      54.918  46.101  17.501  1.00  0.00    -0.550 OA
ATOM     17  O   UNL     1      57.161  45.680  17.297  1.00  0.00    -0.550 OA
ENDBRANCH  14  15
ENDBRANCH  13  14
ENDBRANCH  12  13
ENDBRANCH  11  12
ENDBRANCH  10  11
ENDBRANCH   9  10
ENDBRANCH   8   9
ENDBRANCH   7   8
ENDBRANCH   6   7
ENDBRANCH   5   6
ENDBRANCH   4   5
ENDBRANCH   3   4
ENDBRANCH   2   3
ENDBRANCH   1   2
BRANCH   1  18
ATOM     18  C   UNL     1      50.062  47.754  14.154  1.00  0.00     0.000 C 
BRANCH  18  19
ATOM     19  C   UNL     1      49.408  47.387  15.501  1.00  0.00     0.000 C 
BRANCH  19  20
ATOM     20  C   UNL     1      50.098  47.987  16.740  1.00  0.00     0.000 C 
BRANCH  20  21
ATOM     21  C   UNL     1      50.494  46.921  17.773  1.00  0.00     0.000 C 
BRANCH  21  22
ATOM     22  C   UNL     1      51.369  45.806  17.176  1.00  0.00     0.000 C 
BRANCH  22  23
ATOM     23  C   UNL     1      50.915  44.384  17.573  1.00  0.00     0.000 C 
BRANCH  23  24
ATOM     24  C   UNL     1      49.463  44.098  17.157  1.00  0.00    -0.000 C 
BRANCH  24  25
ATOM     25  C   UNL     1      49.376  43.770  15.658  1.00  0.00    -0.000 C 
BRANCH  25  26
ATOM     26  C   UNL     1      47.951  43.402  15.204  1.00  0.00    -0.000 C 
BRANCH  26  27
ATOM     27  C   UNL     1      46.967  44.583  15.127  1.00  0.00    -0.000 C 
BRANCH  27  28
ATOM     28  C   UNL     1      45.846  44.566  16.184  1.00  0.00    -0.000 C 
BRANCH  28  29
ATOM     29  C   UNL     1      45.044  45.882  16.258  1.00  0.00    -0.000 C 
BRANCH  29  30
ATOM     30  C   UNL     1      45.223  46.605  17.601  1.00  0.00    -0.000 C 
BRANCH  30  31
ATOM     31  C   UNL     1      46.704  46.886  17.877  1.00  0.00    -0.003 C 
ATOM     32  C   UNL     1      47.103  46.430  19.278  1.00  0.00     0.004 C 
ENDBRANCH  30  31
ENDBRANCH  29  30
ENDBRANCH  28  29
ENDBRANCH  27  28
ENDBRANCH  26  27
ENDBRANCH  25  26
ENDBRANCH  24  25
ENDBRANCH  23  24
ENDBRANCH  22  23
ENDBRANCH  21  22
ENDBRANCH  20  21
ENDBRANCH  19  20
ENDBRANCH  18  19
ENDBRANCH   1  18
TORSDOF 28
ENDMDL
MODEL 9
REMARK VINA RESULT:    -3.673      3.332      8.617
REMARK INTER + INTRA:         -13.039
REMARK INTER:                  -7.587
REMARK INTRA:                  -5.452
REMARK UNBOUND:                -3.354
REMARK SMILES CCCCCCCCCCCCCCCCCCCCCCCCCCCCCC(=O)[O-]
REMARK SMILES IDX 16 1 17 2 18 3 19 4 20 5 21 6 22 7 23 8 24 9 25 10 26 11
REMARK SMILES IDX 27 12 28 13 29 14 30 15 31 16 32 17 15 18 14 19 13 20 12 21
REMARK SMILES IDX 11 22 10 23 9 24 8 25 7 26 6 27 5 28 4 29 3 30 2 31 1 32
REMARK H PARENT
REMARK Flexibility Score: inf
ROOT
ATOM      1  C   UNL     1      56.690  41.971  18.950  1.00  0.00     0.000 C 
ENDROOT
BRANCH   1   2
ATOM      2  C   UNL     1      56.859  42.198  17.438  1.00  0.00     0.000 C 
BRANCH   2   3
ATOM      3  C   UNL     1      55.634  42.870  16.791  1.00  0.00     0.000 C 
BRANCH   3   4
ATOM      4  C   UNL     1      56.041  44.025  15.850  1.00  0.00     0.000 C 
BRANCH   4   5
ATOM      5  C   UNL     1      57.562  44.210  15.715  1.00  0.00     0.000 C 
BRANCH   5   6
ATOM      6  C   UNL     1      58.043  45.586  16.206  1.00  0.00     0.000 C 
BRANCH   6   7
ATOM      7  C   UNL     1      57.138  46.729  15.717  1.00  0.00     0.000 C 
BRANCH   7   8
ATOM      8  C   UNL     1      57.382  47.077  14.238  1.00  0.00     0.000 C 
BRANCH   8   9
ATOM      9  C   UNL     1      56.069  47.188  13.434  1.00  0.00     0.000 C 
BRANCH   9  10
ATOM     10  C   UNL     1      54.800  47.055  14.301  1.00  0.00     0.000 C 
BRANCH  10  11
ATOM     11  C   UNL     1      53.955  48.335  14.406  1.00  0.00     0.000 C 
BRANCH  11  12
ATOM     12  C   UNL     1      54.093  49.238  13.170  1.00  0.00     0.000 C 
BRANCH  12  13
ATOM     13  C   UNL     1      52.938  49.013  12.187  1.00  0.00     0.006 C 
BRANCH  13  14
ATOM     14  C   UNL     1      51.729  48.392  12.897  1.00  0.00     0.053 C 
BRANCH  14  15
ATOM     15  C   UNL     1      50.578  49.348  12.928  1.00  0.00     0.041 C 
ATOM     16  O   UNL     1      49.491  49.014  13.470  1.00  0.00    -0.550 OA
ATOM     17  O   UNL     1      50.703  50.611  12.361  1.00  0.00    -0.550 OA
ENDBRANCH  14  15
ENDBRANCH  13  14
ENDBRANCH  12  13
ENDBRANCH  11  12
ENDBRANCH  10  11
ENDBRANCH   9  10
ENDBRANCH   8   9
ENDBRANCH   7   8
ENDBRANCH   6   7
ENDBRANCH   5   6
ENDBRANCH   4   5
ENDBRANCH   3   4
ENDBRANCH   2   3
ENDBRANCH   1   2
BRANCH   1  18
ATOM     18  C   UNL     1      57.686  42.741  19.841  1.00  0.00     0.000 C 
BRANCH  18  19
ATOM     19  C   UNL     1      57.951  44.200  19.418  1.00  0.00     0.000 C 
BRANCH  19  20
ATOM     20  C   UNL     1      57.049  45.245  20.098  1.00  0.00     0.000 C 
BRANCH  20  21
ATOM     21  C   UNL     1      55.933  45.757  19.174  1.00  0.00     0.000 C 
BRANCH  21  22
ATOM     22  C   UNL     1      54.556  45.162  19.513  1.00  0.00     0.000 C 
BRANCH  22  23
ATOM     23  C   UNL     1      53.538  45.257  18.356  1.00  0.00     0.000 C 
BRANCH  23  24
ATOM     24  C   UNL     1      52.488  44.136  18.408  1.00  0.00    -0.000 C 
BRANCH  24  25
ATOM     25  C   UNL     1      51.835  43.931  17.033  1.00  0.00    -0.000 C 
BRANCH  25  26
ATOM     26  C   UNL     1      52.330  44.935  15.975  1.00  0.00    -0.000 C 
BRANCH  26  27
ATOM     27  C   UNL     1      51.228  45.537  15.084  1.00  0.00    -0.000 C 
BRANCH  27  28
ATOM     28  C   UNL     1      49.922  44.721  15.025  1.00  0.00    -0.000 C 
BRANCH  28  29
ATOM     29  C   UNL     1      48.647  45.583  15.149  1.00  0.00    -0.000 C 
BRANCH  29  30
ATOM     30  C   UNL     1      48.836  46.782  16.090  1.00  0.00    -0.000 C 
BRANCH  30  31
ATOM     31  C   UNL     1      48.599  46.375  17.548  1.00  0.00    -0.003 C 
ATOM     32  C   UNL     1      49.819  46.677  18.414  1.00  0.00     0.004 C 
ENDBRANCH  30  31
ENDBRANCH  29  30
ENDBRANCH  28  29
ENDBRANCH  27  28
ENDBRANCH  26  27
ENDBRANCH  25  26
ENDBRANCH  24  25
ENDBRANCH  23  24
ENDBRANCH  22  23
ENDBRANCH  21  22
ENDBRANCH  20  21
ENDBRANCH  19  20
ENDBRANCH  18  19
ENDBRANCH   1  18
TORSDOF 28
ENDMDL
