MODEL 1
REMARK VINA RESULT:    -5.315      0.000      0.000
REMARK INTER + INTRA:         -13.384
REMARK INTER:                 -11.529
REMARK INTRA:                  -1.855
REMARK UNBOUND:                -1.855
REMARK SMILES CCCCCCCCCCCCCCCCCCCCCC(=O)[O-]
REMARK SMILES IDX 12 1 11 2 10 3 9 4 8 5 7 6 6 7 5 8 4 9 3 10 2 11 1 12 13 13
REMARK SMILES IDX 14 14 15 15 16 16 17 17 18 18 19 19 20 20 21 21 22 22 23 23
REMARK SMILES IDX 24 24
REMARK H PARENT
REMARK Flexibility Score: inf
ROOT
ATOM      1  C   UNL     1      -9.445  -3.242  -9.490  1.00  0.00     0.000 C 
ENDROOT
BRANCH   1   2
ATOM      2  C   UNL     1     -10.796  -2.525  -9.659  1.00  0.00     0.000 C 
BRANCH   2   3
ATOM      3  C   UNL     1     -10.649  -1.000  -9.801  1.00  0.00     0.000 C 
BRANCH   3   4
ATOM      4  C   UNL     1     -11.908  -0.335 -10.380  1.00  0.00    -0.000 C 
BRANCH   4   5
ATOM      5  C   UNL     1     -13.141  -1.250 -10.325  1.00  0.00    -0.000 C 
BRANCH   5   6
ATOM      6  C   UNL     1     -14.407  -0.491 -10.752  1.00  0.00    -0.000 C 
BRANCH   6   7
ATOM      7  C   UNL     1     -15.020   0.335  -9.610  1.00  0.00    -0.000 C 
BRANCH   7   8
ATOM      8  C   UNL     1     -14.743   1.842  -9.756  1.00  0.00    -0.000 C 
BRANCH   8   9
ATOM      9  C   UNL     1     -14.677   2.564  -8.401  1.00  0.00    -0.000 C 
BRANCH   9  10
ATOM     10  C   UNL     1     -13.969   3.925  -8.486  1.00  0.00    -0.000 C 
BRANCH  10  11
ATOM     11  C   UNL     1     -12.682   3.821  -9.314  1.00  0.00    -0.003 C 
ATOM     12  C   UNL     1     -11.495   3.425  -8.440  1.00  0.00     0.004 C 
ENDBRANCH  10  11
ENDBRANCH   9  10
ENDBRANCH   8   9
ENDBRANCH   7   8
ENDBRANCH   6   7
ENDBRANCH   5   6
ENDBRANCH   4   5
ENDBRANCH   3   4
ENDBRANCH   2   3
ENDBRANCH   1   2
BRANCH   1  13
ATOM     13  C   UNL     1      -9.478  -4.512  -8.615  1.00  0.00     0.000 C 
BRANCH  13  14
ATOM     14  C   UNL     1     -10.842  -4.846  -7.986  1.00  0.00     0.000 C 
BRANCH  14  15
ATOM     15  C   UNL     1     -10.744  -5.173  -6.486  1.00  0.00     0.000 C 
BRANCH  15  16
ATOM     16  C   UNL     1     -10.767  -6.686  -6.202  1.00  0.00     0.000 C 
BRANCH  16  17
ATOM     17  C   UNL     1     -11.715  -7.124  -5.068  1.00  0.00     0.000 C 
BRANCH  17  18
ATOM     18  C   UNL     1     -13.104  -7.611  -5.526  1.00  0.00     0.000 C 
BRANCH  18  19
ATOM     19  C   UNL     1     -14.018  -6.483  -6.049  1.00  0.00     0.000 C 
BRANCH  19  20
ATOM     20  C   UNL     1     -14.795  -6.892  -7.309  1.00  0.00     0.006 C 
BRANCH  20  21
ATOM     21  C   UNL     1     -14.268  -6.153  -8.543  1.00  0.00     0.053 C 
BRANCH  21  22
ATOM     22  C   UNL     1     -13.576  -7.104  -9.467  1.00  0.00     0.041 C 
ATOM     23  O   UNL     1     -14.050  -7.335 -10.611  1.00  0.00    -0.550 OA
ATOM     24  O   UNL     1     -12.434  -7.774  -9.048  1.00  0.00    -0.550 OA
ENDBRANCH  21  22
ENDBRANCH  20  21
ENDBRANCH  19  20
ENDBRANCH  18  19
ENDBRANCH  17  18
ENDBRANCH  16  17
ENDBRANCH  15  16
ENDBRANCH  14  15
ENDBRANCH  13  14
ENDBRANCH   1  13
TORSDOF 20
ENDMDL
MODEL 2
REMARK VINA RESULT:    -5.309      3.381      8.270
REMARK INTER + INTRA:         -13.372
REMARK INTER:                 -11.189
REMARK INTRA:                  -2.183
REMARK UNBOUND:                -1.855
REMARK SMILES CCCCCCCCCCCCCCCCCCCCCC(=O)[O-]
REMARK SMILES IDX 12 1 11 2 10 3 9 4 8 5 7 6 6 7 5 8 4 9 3 10 2 11 1 12 13 13
REMARK SMILES IDX 14 14 15 15 16 16 17 17 18 18 19 19 20 20 21 21 22 22 23 23
REMARK SMILES IDX 24 24
REMARK H PARENT
REMARK Flexibility Score: inf
ROOT
ATOM      1  C   UNL     1      -9.997  -4.027  -7.659  1.00  0.00     0.000 C 
ENDROOT
BRANCH   1   2
ATOM      2  C   UNL     1      -9.748  -5.327  -8.444  1.00  0.00     0.000 C 
BRANCH   2   3
ATOM      3  C   UNL     1     -10.972  -6.259  -8.458  1.00  0.00     0.000 C 
BRANCH   3   4
ATOM      4  C   UNL     1     -10.618  -7.705  -8.074  1.00  0.00    -0.000 C 
BRANCH   4   5
ATOM      5  C   UNL     1     -10.644  -7.940  -6.556  1.00  0.00    -0.000 C 
BRANCH   5   6
ATOM      6  C   UNL     1     -11.423  -6.824  -5.842  1.00  0.00    -0.000 C 
BRANCH   6   7
ATOM      7  C   UNL     1     -12.814  -7.277  -5.371  1.00  0.00    -0.000 C 
BRANCH   7   8
ATOM      8  C   UNL     1     -13.944  -6.748  -6.272  1.00  0.00    -0.000 C 
BRANCH   8   9
ATOM      9  C   UNL     1     -14.327  -7.740  -7.382  1.00  0.00    -0.000 C 
BRANCH   9  10
ATOM     10  C   UNL     1     -14.561  -7.055  -8.738  1.00  0.00    -0.000 C 
BRANCH  10  11
ATOM     11  C   UNL     1     -14.659  -5.534  -8.572  1.00  0.00    -0.003 C 
ATOM     12  C   UNL     1     -14.020  -4.809  -9.753  1.00  0.00     0.004 C 
ENDBRANCH  10  11
ENDBRANCH   9  10
ENDBRANCH   8   9
ENDBRANCH   7   8
ENDBRANCH   6   7
ENDBRANCH   5   6
ENDBRANCH   4   5
ENDBRANCH   3   4
ENDBRANCH   2   3
ENDBRANCH   1   2
BRANCH   1  13
ATOM     13  C   UNL     1      -9.780  -2.723  -8.455  1.00  0.00     0.000 C 
BRANCH  13  14
ATOM     14  C   UNL     1     -10.759  -2.489  -9.619  1.00  0.00     0.000 C 
BRANCH  14  15
ATOM     15  C   UNL     1     -10.642  -1.079 -10.223  1.00  0.00     0.000 C 
BRANCH  15  16
ATOM     16  C   UNL     1     -12.003  -0.368 -10.346  1.00  0.00     0.000 C 
BRANCH  16  17
ATOM     17  C   UNL     1     -13.230  -1.300 -10.345  1.00  0.00     0.000 C 
BRANCH  17  18
ATOM     18  C   UNL     1     -14.574  -0.614 -10.660  1.00  0.00     0.000 C 
BRANCH  18  19
ATOM     19  C   UNL     1     -15.060   0.341  -9.550  1.00  0.00     0.000 C 
BRANCH  19  20
ATOM     20  C   UNL     1     -14.892   1.820  -9.931  1.00  0.00     0.006 C 
BRANCH  20  21
ATOM     21  C   UNL     1     -14.489   2.658  -8.714  1.00  0.00     0.053 C 
BRANCH  21  22
ATOM     22  C   UNL     1     -13.175   3.330  -8.954  1.00  0.00     0.041 C 
ATOM     23  O   UNL     1     -12.133   2.643  -9.123  1.00  0.00    -0.550 OA
ATOM     24  O   UNL     1     -13.090   4.717  -8.944  1.00  0.00    -0.550 OA
ENDBRANCH  21  22
ENDBRANCH  20  21
ENDBRANCH  19  20
ENDBRANCH  18  19
ENDBRANCH  17  18
ENDBRANCH  16  17
ENDBRANCH  15  16
ENDBRANCH  14  15
ENDBRANCH  13  14
ENDBRANCH   1  13
TORSDOF 20
ENDMDL
MODEL 3
REMARK VINA RESULT:    -5.176      1.544      2.820
REMARK INTER + INTRA:         -13.084
REMARK INTER:                 -10.787
REMARK INTRA:                  -2.297
REMARK UNBOUND:                -1.855
REMARK SMILES CCCCCCCCCCCCCCCCCCCCCC(=O)[O-]
REMARK SMILES IDX 12 1 11 2 10 3 9 4 8 5 7 6 6 7 5 8 4 9 3 10 2 11 1 12 13 13
REMARK SMILES IDX 14 14 15 15 16 16 17 17 18 18 19 19 20 20 21 21 22 22 23 23
REMARK SMILES IDX 24 24
REMARK H PARENT
REMARK Flexibility Score: inf
ROOT
ATOM      1  C   UNL     1      -9.685  -3.242  -8.125  1.00  0.00     0.000 C 
ENDROOT
BRANCH   1   2
ATOM      2  C   UNL     1      -9.238  -3.133  -9.594  1.00  0.00     0.000 C 
BRANCH   2   3
ATOM      3  C   UNL     1     -10.031  -2.077 -10.382  1.00  0.00     0.000 C 
BRANCH   3   4
ATOM      4  C   UNL     1     -10.712  -1.045  -9.468  1.00  0.00    -0.000 C 
BRANCH   4   5
ATOM      5  C   UNL     1     -11.835  -0.273 -10.177  1.00  0.00    -0.000 C 
BRANCH   5   6
ATOM      6  C   UNL     1     -13.098  -1.138 -10.308  1.00  0.00    -0.000 C 
BRANCH   6   7
ATOM      7  C   UNL     1     -14.350  -0.315 -10.652  1.00  0.00    -0.000 C 
BRANCH   7   8
ATOM      8  C   UNL     1     -14.873   0.494  -9.451  1.00  0.00    -0.000 C 
BRANCH   8   9
ATOM      9  C   UNL     1     -14.828   2.011  -9.697  1.00  0.00    -0.000 C 
BRANCH   9  10
ATOM     10  C   UNL     1     -14.555   2.813  -8.416  1.00  0.00    -0.000 C 
BRANCH  10  11
ATOM     11  C   UNL     1     -13.583   3.967  -8.690  1.00  0.00    -0.003 C 
ATOM     12  C   UNL     1     -12.164   3.450  -8.913  1.00  0.00     0.004 C 
ENDBRANCH  10  11
ENDBRANCH   9  10
ENDBRANCH   8   9
ENDBRANCH   7   8
ENDBRANCH   6   7
ENDBRANCH   5   6
ENDBRANCH   4   5
ENDBRANCH   3   4
ENDBRANCH   2   3
ENDBRANCH   1   2
BRANCH   1  13
ATOM     13  C   UNL     1     -10.306  -4.596  -7.723  1.00  0.00     0.000 C 
BRANCH  13  14
ATOM     14  C   UNL     1     -10.965  -5.386  -8.868  1.00  0.00     0.000 C 
BRANCH  14  15
ATOM     15  C   UNL     1     -12.336  -4.819  -9.274  1.00  0.00     0.000 C 
BRANCH  15  16
ATOM     16  C   UNL     1     -13.314  -5.907  -9.755  1.00  0.00     0.000 C 
BRANCH  16  17
ATOM     17  C   UNL     1     -14.779  -5.707  -9.319  1.00  0.00     0.000 C 
BRANCH  17  18
ATOM     18  C   UNL     1     -15.112  -6.198  -7.897  1.00  0.00     0.000 C 
BRANCH  18  19
ATOM     19  C   UNL     1     -14.504  -7.574  -7.554  1.00  0.00     0.000 C 
BRANCH  19  20
ATOM     20  C   UNL     1     -13.919  -7.622  -6.135  1.00  0.00     0.006 C 
BRANCH  20  21
ATOM     21  C   UNL     1     -13.078  -6.374  -5.845  1.00  0.00     0.053 C 
BRANCH  21  22
ATOM     22  C   UNL     1     -11.710  -6.761  -5.380  1.00  0.00     0.041 C 
ATOM     23  O   UNL     1     -11.142  -7.777  -5.861  1.00  0.00    -0.550 OA
ATOM     24  O   UNL     1     -11.081  -6.029  -4.382  1.00  0.00    -0.550 OA
ENDBRANCH  21  22
ENDBRANCH  20  21
ENDBRANCH  19  20
ENDBRANCH  18  19
ENDBRANCH  17  18
ENDBRANCH  16  17
ENDBRANCH  15  16
ENDBRANCH  14  15
ENDBRANCH  13  14
ENDBRANCH   1  13
TORSDOF 20
ENDMDL
MODEL 4
REMARK VINA RESULT:    -5.054     15.722     18.412
REMARK INTER + INTRA:         -12.819
REMARK INTER:                  -9.547
REMARK INTRA:                  -3.272
REMARK UNBOUND:                -1.855
REMARK SMILES CCCCCCCCCCCCCCCCCCCCCC(=O)[O-]
REMARK SMILES IDX 12 1 11 2 10 3 9 4 8 5 7 6 6 7 5 8 4 9 3 10 2 11 1 12 13 13
REMARK SMILES IDX 14 14 15 15 16 16 17 17 18 18 19 19 20 20 21 21 22 22 23 23
REMARK SMILES IDX 24 24
REMARK H PARENT
REMARK Flexibility Score: inf
ROOT
ATOM      1  C   UNL     1     -10.505   4.580   8.060  1.00  0.00     0.000 C 
ENDROOT
BRANCH   1   2
ATOM      2  C   UNL     1     -11.347   5.386   9.066  1.00  0.00     0.000 C 
BRANCH   2   3
ATOM      3  C   UNL     1     -12.846   5.049   8.995  1.00  0.00     0.000 C 
BRANCH   3   4
ATOM      4  C   UNL     1     -13.700   6.244   8.540  1.00  0.00    -0.000 C 
BRANCH   4   5
ATOM      5  C   UNL     1     -12.852   7.453   8.116  1.00  0.00    -0.000 C 
BRANCH   5   6
ATOM      6  C   UNL     1     -13.224   7.913   6.698  1.00  0.00    -0.000 C 
BRANCH   6   7
ATOM      7  C   UNL     1     -12.256   8.970   6.143  1.00  0.00    -0.000 C 
BRANCH   7   8
ATOM      8  C   UNL     1     -11.740   9.928   7.232  1.00  0.00    -0.000 C 
BRANCH   8   9
ATOM      9  C   UNL     1     -10.831  11.031   6.665  1.00  0.00    -0.000 C 
BRANCH   9  10
ATOM     10  C   UNL     1      -9.950  10.539   5.507  1.00  0.00    -0.000 C 
BRANCH  10  11
ATOM     11  C   UNL     1      -8.590  10.054   6.022  1.00  0.00    -0.003 C 
ATOM     12  C   UNL     1      -8.383   8.572   5.723  1.00  0.00     0.004 C 
ENDBRANCH  10  11
ENDBRANCH   9  10
ENDBRANCH   8   9
ENDBRANCH   7   8
ENDBRANCH   6   7
ENDBRANCH   5   6
ENDBRANCH   4   5
ENDBRANCH   3   4
ENDBRANCH   2   3
ENDBRANCH   1   2
BRANCH   1  13
ATOM     13  C   UNL     1      -9.900   5.399   6.901  1.00  0.00     0.000 C 
BRANCH  13  14
ATOM     14  C   UNL     1     -10.711   5.391   5.592  1.00  0.00     0.000 C 
BRANCH  14  15
ATOM     15  C   UNL     1     -11.631   4.165   5.468  1.00  0.00     0.000 C 
BRANCH  15  16
ATOM     16  C   UNL     1     -13.111   4.546   5.279  1.00  0.00     0.000 C 
BRANCH  16  17
ATOM     17  C   UNL     1     -13.503   4.951   3.844  1.00  0.00     0.000 C 
BRANCH  17  18
ATOM     18  C   UNL     1     -14.519   6.106   3.744  1.00  0.00     0.000 C 
BRANCH  18  19
ATOM     19  C   UNL     1     -14.375   6.951   2.461  1.00  0.00     0.000 C 
BRANCH  19  20
ATOM     20  C   UNL     1     -14.150   8.441   2.762  1.00  0.00     0.006 C 
BRANCH  20  21
ATOM     21  C   UNL     1     -13.728   9.199   1.499  1.00  0.00     0.053 C 
BRANCH  21  22
ATOM     22  C   UNL     1     -13.041  10.476   1.860  1.00  0.00     0.041 C 
ATOM     23  O   UNL     1     -13.141  10.942   3.026  1.00  0.00    -0.550 OA
ATOM     24  O   UNL     1     -12.328  11.180   0.898  1.00  0.00    -0.550 OA
ENDBRANCH  21  22
ENDBRANCH  20  21
ENDBRANCH  19  20
ENDBRANCH  18  19
ENDBRANCH  17  18
ENDBRANCH  16  17
ENDBRANCH  15  16
ENDBRANCH  14  15
ENDBRANCH  13  14
ENDBRANCH   1  13
TORSDOF 20
ENDMDL
MODEL 5
REMARK VINA RESULT:    -4.978      3.582      8.260
REMARK INTER + INTRA:         -12.654
REMARK INTER:                 -10.402
REMARK INTRA:                  -2.252
REMARK UNBOUND:                -1.855
REMARK SMILES CCCCCCCCCCCCCCCCCCCCCC(=O)[O-]
REMARK SMILES IDX 12 1 11 2 10 3 9 4 8 5 7 6 6 7 5 8 4 9 3 10 2 11 1 12 13 13
REMARK SMILES IDX 14 14 15 15 16 16 17 17 18 18 19 19 20 20 21 21 22 22 23 23
REMARK SMILES IDX 24 24
REMARK H PARENT
REMARK Flexibility Score: inf
ROOT
ATOM      1  C   UNL     1      -9.920  -2.637  -8.431  1.00  0.00     0.000 C 
ENDROOT
BRANCH   1   2
ATOM      2  C   UNL     1     -10.054  -4.170  -8.370  1.00  0.00     0.000 C 
BRANCH   2   3
ATOM      3  C   UNL     1     -10.986  -4.730  -9.459  1.00  0.00     0.000 C 
BRANCH   3   4
ATOM      4  C   UNL     1     -11.572  -6.102  -9.086  1.00  0.00    -0.000 C 
BRANCH   4   5
ATOM      5  C   UNL     1     -12.893  -6.401  -9.813  1.00  0.00    -0.000 C 
BRANCH   5   6
ATOM      6  C   UNL     1     -13.918  -7.023  -8.853  1.00  0.00    -0.000 C 
BRANCH   6   7
ATOM      7  C   UNL     1     -14.500  -6.003  -7.861  1.00  0.00    -0.000 C 
BRANCH   7   8
ATOM      8  C   UNL     1     -14.560  -6.547  -6.422  1.00  0.00    -0.000 C 
BRANCH   8   9
ATOM      9  C   UNL     1     -13.240  -7.202  -5.983  1.00  0.00    -0.000 C 
BRANCH   9  10
ATOM     10  C   UNL     1     -12.244  -6.193  -5.390  1.00  0.00    -0.000 C 
BRANCH  10  11
ATOM     11  C   UNL     1     -10.799  -6.649  -5.626  1.00  0.00    -0.003 C 
ATOM     12  C   UNL     1     -10.754  -8.044  -6.243  1.00  0.00     0.004 C 
ENDBRANCH  10  11
ENDBRANCH   9  10
ENDBRANCH   8   9
ENDBRANCH   7   8
ENDBRANCH   6   7
ENDBRANCH   5   6
ENDBRANCH   4   5
ENDBRANCH   3   4
ENDBRANCH   2   3
ENDBRANCH   1   2
BRANCH   1  13
ATOM     13  C   UNL     1     -10.272  -1.998  -9.790  1.00  0.00     0.000 C 
BRANCH  13  14
ATOM     14  C   UNL     1     -11.066  -0.681  -9.715  1.00  0.00     0.000 C 
BRANCH  14  15
ATOM     15  C   UNL     1     -12.309  -0.682 -10.620  1.00  0.00     0.000 C 
BRANCH  15  16
ATOM     16  C   UNL     1     -13.225  -1.896 -10.377  1.00  0.00     0.000 C 
BRANCH  16  17
ATOM     17  C   UNL     1     -14.680  -1.553 -10.005  1.00  0.00     0.000 C 
BRANCH  17  18
ATOM     18  C   UNL     1     -15.124  -0.118 -10.351  1.00  0.00     0.000 C 
BRANCH  18  19
ATOM     19  C   UNL     1     -14.846   0.907  -9.231  1.00  0.00     0.000 C 
BRANCH  19  20
ATOM     20  C   UNL     1     -14.374   2.262  -9.779  1.00  0.00     0.006 C 
BRANCH  20  21
ATOM     21  C   UNL     1     -12.907   2.518  -9.420  1.00  0.00     0.053 C 
BRANCH  21  22
ATOM     22  C   UNL     1     -12.782   3.742  -8.570  1.00  0.00     0.041 C 
ATOM     23  O   UNL     1     -13.695   4.609  -8.570  1.00  0.00    -0.550 OA
ATOM     24  O   UNL     1     -11.636   3.950  -7.813  1.00  0.00    -0.550 OA
ENDBRANCH  21  22
ENDBRANCH  20  21
ENDBRANCH  19  20
ENDBRANCH  18  19
ENDBRANCH  17  18
ENDBRANCH  16  17
ENDBRANCH  15  16
ENDBRANCH  14  15
ENDBRANCH  13  14
ENDBRANCH   1  13
TORSDOF 20
ENDMDL
MODEL 6
REMARK VINA RESULT:    -4.925     16.348     18.858
REMARK INTER + INTRA:         -12.539
REMARK INTER:                  -9.546
REMARK INTRA:                  -2.992
REMARK UNBOUND:                -1.855
REMARK SMILES CCCCCCCCCCCCCCCCCCCCCC(=O)[O-]
REMARK SMILES IDX 12 1 11 2 10 3 9 4 8 5 7 6 6 7 5 8 4 9 3 10 2 11 1 12 13 13
REMARK SMILES IDX 14 14 15 15 16 16 17 17 18 18 19 19 20 20 21 21 22 22 23 23
REMARK SMILES IDX 24 24
REMARK H PARENT
REMARK Flexibility Score: inf
ROOT
ATOM      1  C   UNL     1     -10.538   5.360   5.564  1.00  0.00     0.000 C 
ENDROOT
BRANCH   1   2
ATOM      2  C   UNL     1      -9.351   5.699   6.483  1.00  0.00     0.000 C 
BRANCH   2   3
ATOM      3  C   UNL     1      -9.141   7.213   6.652  1.00  0.00     0.000 C 
BRANCH   3   4
ATOM      4  C   UNL     1      -8.480   7.859   5.423  1.00  0.00    -0.000 C 
BRANCH   4   5
ATOM      5  C   UNL     1      -8.595   9.391   5.423  1.00  0.00    -0.000 C 
BRANCH   5   6
ATOM      6  C   UNL     1      -9.844   9.847   6.193  1.00  0.00    -0.000 C 
BRANCH   6   7
ATOM      7  C   UNL     1      -9.594  11.103   7.042  1.00  0.00    -0.000 C 
BRANCH   7   8
ATOM      8  C   UNL     1      -8.154  11.630   6.908  1.00  0.00    -0.000 C 
BRANCH   8   9
ATOM      9  C   UNL     1      -7.269  11.239   8.103  1.00  0.00    -0.000 C 
BRANCH   9  10
ATOM     10  C   UNL     1      -5.768  11.366   7.798  1.00  0.00    -0.000 C 
BRANCH  10  11
ATOM     11  C   UNL     1      -5.343  10.367   6.716  1.00  0.00    -0.003 C 
ATOM     12  C   UNL     1      -4.704  11.079   5.527  1.00  0.00     0.004 C 
ENDBRANCH  10  11
ENDBRANCH   9  10
ENDBRANCH   8   9
ENDBRANCH   7   8
ENDBRANCH   6   7
ENDBRANCH   5   6
ENDBRANCH   4   5
ENDBRANCH   3   4
ENDBRANCH   2   3
ENDBRANCH   1   2
BRANCH   1  13
ATOM     13  C   UNL     1     -11.326   4.089   5.944  1.00  0.00     0.000 C 
BRANCH  13  14
ATOM     14  C   UNL     1     -11.017   3.514   7.338  1.00  0.00     0.000 C 
BRANCH  14  15
ATOM     15  C   UNL     1     -12.159   3.740   8.343  1.00  0.00     0.000 C 
BRANCH  15  16
ATOM     16  C   UNL     1     -12.109   5.132   9.001  1.00  0.00     0.000 C 
BRANCH  16  17
ATOM     17  C   UNL     1     -13.144   6.143   8.471  1.00  0.00     0.000 C 
BRANCH  17  18
ATOM     18  C   UNL     1     -12.557   7.466   7.942  1.00  0.00     0.000 C 
BRANCH  18  19
ATOM     19  C   UNL     1     -13.241   7.981   6.658  1.00  0.00     0.000 C 
BRANCH  19  20
ATOM     20  C   UNL     1     -13.864   6.848   5.829  1.00  0.00     0.006 C 
BRANCH  20  21
ATOM     21  C   UNL     1     -14.275   7.346   4.440  1.00  0.00     0.053 C 
BRANCH  21  22
ATOM     22  C   UNL     1     -14.145   6.249   3.431  1.00  0.00     0.041 C 
ATOM     23  O   UNL     1     -14.328   6.488   2.208  1.00  0.00    -0.550 OA
ATOM     24  O   UNL     1     -13.871   4.952   3.845  1.00  0.00    -0.550 OA
ENDBRANCH  21  22
ENDBRANCH  20  21
ENDBRANCH  19  20
ENDBRANCH  18  19
ENDBRANCH  17  18
ENDBRANCH  16  17
ENDBRANCH  15  16
ENDBRANCH  14  15
ENDBRANCH  13  14
ENDBRANCH   1  13
TORSDOF 20
ENDMDL
MODEL 7
REMARK VINA RESULT:    -4.830     16.186     18.649
REMARK INTER + INTRA:         -12.333
REMARK INTER:                  -9.147
REMARK INTRA:                  -3.186
REMARK UNBOUND:                -1.855
REMARK SMILES CCCCCCCCCCCCCCCCCCCCCC(=O)[O-]
REMARK SMILES IDX 12 1 11 2 10 3 9 4 8 5 7 6 6 7 5 8 4 9 3 10 2 11 1 12 13 13
REMARK SMILES IDX 14 14 15 15 16 16 17 17 18 18 19 19 20 20 21 21 22 22 23 23
REMARK SMILES IDX 24 24
REMARK H PARENT
REMARK Flexibility Score: inf
ROOT
ATOM      1  C   UNL     1      -9.846   5.817   5.873  1.00  0.00     0.000 C 
ENDROOT
BRANCH   1   2
ATOM      2  C   UNL     1      -9.126   6.992   6.557  1.00  0.00     0.000 C 
BRANCH   2   3
ATOM      3  C   UNL     1      -8.418   7.923   5.557  1.00  0.00     0.000 C 
BRANCH   3   4
ATOM      4  C   UNL     1      -7.650   9.061   6.250  1.00  0.00    -0.000 C 
BRANCH   4   5
ATOM      5  C   UNL     1      -7.450  10.282   5.339  1.00  0.00    -0.000 C 
BRANCH   5   6
ATOM      6  C   UNL     1      -8.038  11.547   5.982  1.00  0.00    -0.000 C 
BRANCH   6   7
ATOM      7  C   UNL     1      -8.850  11.247   7.252  1.00  0.00    -0.000 C 
BRANCH   7   8
ATOM      8  C   UNL     1     -10.330  11.645   7.115  1.00  0.00    -0.000 C 
BRANCH   8   9
ATOM      9  C   UNL     1     -11.068  10.818   6.051  1.00  0.00    -0.000 C 
BRANCH   9  10
ATOM     10  C   UNL     1     -11.649   9.510   6.611  1.00  0.00    -0.000 C 
BRANCH  10  11
ATOM     11  C   UNL     1     -13.125   9.684   6.987  1.00  0.00    -0.003 C 
ATOM     12  C   UNL     1     -13.298   9.801   8.499  1.00  0.00     0.004 C 
ENDBRANCH  10  11
ENDBRANCH   9  10
ENDBRANCH   8   9
ENDBRANCH   7   8
ENDBRANCH   6   7
ENDBRANCH   5   6
ENDBRANCH   4   5
ENDBRANCH   3   4
ENDBRANCH   2   3
ENDBRANCH   1   2
BRANCH   1  13
ATOM     13  C   UNL     1     -10.237   4.651   6.804  1.00  0.00     0.000 C 
BRANCH  13  14
ATOM     14  C   UNL     1     -10.232   4.976   8.309  1.00  0.00     0.000 C 
BRANCH  14  15
ATOM     15  C   UNL     1     -11.626   4.866   8.948  1.00  0.00     0.000 C 
BRANCH  15  16
ATOM     16  C   UNL     1     -12.479   6.132   8.742  1.00  0.00     0.000 C 
BRANCH  16  17
ATOM     17  C   UNL     1     -13.845   5.898   8.068  1.00  0.00     0.000 C 
BRANCH  17  18
ATOM     18  C   UNL     1     -13.868   6.111   6.541  1.00  0.00     0.000 C 
BRANCH  18  19
ATOM     19  C   UNL     1     -13.587   4.829   5.729  1.00  0.00     0.000 C 
BRANCH  19  20
ATOM     20  C   UNL     1     -13.430   5.108   4.227  1.00  0.00     0.006 C 
BRANCH  20  21
ATOM     21  C   UNL     1     -14.706   5.724   3.646  1.00  0.00     0.053 C 
BRANCH  21  22
ATOM     22  C   UNL     1     -14.397   7.015   2.957  1.00  0.00     0.041 C 
ATOM     23  O   UNL     1     -14.181   7.036   1.717  1.00  0.00    -0.550 OA
ATOM     24  O   UNL     1     -14.300   8.190   3.692  1.00  0.00    -0.550 OA
ENDBRANCH  21  22
ENDBRANCH  20  21
ENDBRANCH  19  20
ENDBRANCH  18  19
ENDBRANCH  17  18
ENDBRANCH  16  17
ENDBRANCH  15  16
ENDBRANCH  14  15
ENDBRANCH  13  14
ENDBRANCH   1  13
TORSDOF 20
ENDMDL
MODEL 8
REMARK VINA RESULT:    -4.815     15.985     19.472
REMARK INTER + INTRA:         -12.299
REMARK INTER:                  -9.021
REMARK INTRA:                  -3.278
REMARK UNBOUND:                -1.855
REMARK SMILES CCCCCCCCCCCCCCCCCCCCCC(=O)[O-]
REMARK SMILES IDX 12 1 11 2 10 3 9 4 8 5 7 6 6 7 5 8 4 9 3 10 2 11 1 12 13 13
REMARK SMILES IDX 14 14 15 15 16 16 17 17 18 18 19 19 20 20 21 21 22 22 23 23
REMARK SMILES IDX 24 24
REMARK H PARENT
REMARK Flexibility Score: inf
ROOT
ATOM      1  C   UNL     1     -13.963   5.992   4.556  1.00  0.00     0.000 C 
ENDROOT
BRANCH   1   2
ATOM      2  C   UNL     1     -14.003   6.422   6.033  1.00  0.00     0.000 C 
BRANCH   2   3
ATOM      3  C   UNL     1     -13.041   7.582   6.343  1.00  0.00     0.000 C 
BRANCH   3   4
ATOM      4  C   UNL     1     -12.816   7.776   7.852  1.00  0.00    -0.000 C 
BRANCH   4   5
ATOM      5  C   UNL     1     -13.267   6.564   8.681  1.00  0.00    -0.000 C 
BRANCH   5   6
ATOM      6  C   UNL     1     -12.070   5.672   9.044  1.00  0.00    -0.000 C 
BRANCH   6   7
ATOM      7  C   UNL     1     -12.427   4.177   9.065  1.00  0.00    -0.000 C 
BRANCH   7   8
ATOM      8  C   UNL     1     -11.875   3.421   7.844  1.00  0.00    -0.000 C 
BRANCH   8   9
ATOM      9  C   UNL     1     -10.617   4.083   7.259  1.00  0.00    -0.000 C 
BRANCH   9  10
ATOM     10  C   UNL     1     -10.814   4.562   5.812  1.00  0.00    -0.000 C 
BRANCH  10  11
ATOM     11  C   UNL     1      -9.915   5.765   5.506  1.00  0.00    -0.003 C 
ATOM     12  C   UNL     1      -9.193   6.247   6.762  1.00  0.00     0.004 C 
ENDBRANCH  10  11
ENDBRANCH   9  10
ENDBRANCH   8   9
ENDBRANCH   7   8
ENDBRANCH   6   7
ENDBRANCH   5   6
ENDBRANCH   4   5
ENDBRANCH   3   4
ENDBRANCH   2   3
ENDBRANCH   1   2
BRANCH   1  13
ATOM     13  C   UNL     1     -14.895   6.782   3.614  1.00  0.00     0.000 C 
BRANCH  13  14
ATOM     14  C   UNL     1     -14.356   7.012   2.190  1.00  0.00     0.000 C 
BRANCH  14  15
ATOM     15  C   UNL     1     -14.037   8.489   1.904  1.00  0.00     0.000 C 
BRANCH  15  16
ATOM     16  C   UNL     1     -14.172   9.381   3.152  1.00  0.00     0.000 C 
BRANCH  16  17
ATOM     17  C   UNL     1     -13.602  10.806   3.001  1.00  0.00     0.000 C 
BRANCH  17  18
ATOM     18  C   UNL     1     -12.193  11.013   3.590  1.00  0.00     0.000 C 
BRANCH  18  19
ATOM     19  C   UNL     1     -12.155  11.007   5.132  1.00  0.00     0.000 C 
BRANCH  19  20
ATOM     20  C   UNL     1     -10.738  11.218   5.687  1.00  0.00     0.006 C 
BRANCH  20  21
ATOM     21  C   UNL     1     -10.083   9.880   6.043  1.00  0.00     0.053 C 
BRANCH  21  22
ATOM     22  C   UNL     1      -8.612  10.056   6.247  1.00  0.00     0.041 C 
ATOM     23  O   UNL     1      -8.171  10.479   7.349  1.00  0.00    -0.550 OA
ATOM     24  O   UNL     1      -7.729   9.800   5.206  1.00  0.00    -0.550 OA
ENDBRANCH  21  22
ENDBRANCH  20  21
ENDBRANCH  19  20
ENDBRANCH  18  19
ENDBRANCH  17  18
ENDBRANCH  16  17
ENDBRANCH  15  16
ENDBRANCH  14  15
ENDBRANCH  13  14
ENDBRANCH   1  13
TORSDOF 20
ENDMDL
MODEL 9
REMARK VINA RESULT:    -4.795     15.571     18.486
REMARK INTER + INTRA:         -12.256
REMARK INTER:                  -9.285
REMARK INTRA:                  -2.971
REMARK UNBOUND:                -1.855
REMARK SMILES CCCCCCCCCCCCCCCCCCCCCC(=O)[O-]
REMARK SMILES IDX 12 1 11 2 10 3 9 4 8 5 7 6 6 7 5 8 4 9 3 10 2 11 1 12 13 13
REMARK SMILES IDX 14 14 15 15 16 16 17 17 18 18 19 19 20 20 21 21 22 22 23 23
REMARK SMILES IDX 24 24
REMARK H PARENT
REMARK Flexibility Score: inf
ROOT
ATOM      1  C   UNL     1     -10.673   4.587   7.012  1.00  0.00     0.000 C 
ENDROOT
BRANCH   1   2
ATOM      2  C   UNL     1     -10.758   5.808   7.946  1.00  0.00     0.000 C 
BRANCH   2   3
ATOM      3  C   UNL     1     -12.156   5.990   8.562  1.00  0.00     0.000 C 
BRANCH   3   4
ATOM      4  C   UNL     1     -12.879   7.238   8.029  1.00  0.00    -0.000 C 
BRANCH   4   5
ATOM      5  C   UNL     1     -12.090   7.954   6.923  1.00  0.00    -0.000 C 
BRANCH   5   6
ATOM      6  C   UNL     1     -12.115   9.477   7.129  1.00  0.00    -0.000 C 
BRANCH   6   7
ATOM      7  C   UNL     1     -11.648  10.253   5.887  1.00  0.00    -0.000 C 
BRANCH   7   8
ATOM      8  C   UNL     1     -10.619  11.346   6.227  1.00  0.00    -0.000 C 
BRANCH   8   9
ATOM      9  C   UNL     1      -9.199  10.984   5.765  1.00  0.00    -0.000 C 
BRANCH   9  10
ATOM     10  C   UNL     1      -8.283  10.570   6.927  1.00  0.00    -0.000 C 
BRANCH  10  11
ATOM     11  C   UNL     1      -7.575   9.245   6.621  1.00  0.00    -0.003 C 
ATOM     12  C   UNL     1      -8.366   8.418   5.612  1.00  0.00     0.004 C 
ENDBRANCH  10  11
ENDBRANCH   9  10
ENDBRANCH   8   9
ENDBRANCH   7   8
ENDBRANCH   6   7
ENDBRANCH   5   6
ENDBRANCH   4   5
ENDBRANCH   3   4
ENDBRANCH   2   3
ENDBRANCH   1   2
BRANCH   1  13
ATOM     13  C   UNL     1     -10.593   4.913   5.506  1.00  0.00     0.000 C 
BRANCH  13  14
ATOM     14  C   UNL     1     -11.743   4.357   4.648  1.00  0.00     0.000 C 
BRANCH  14  15
ATOM     15  C   UNL     1     -13.118   4.516   5.317  1.00  0.00     0.000 C 
BRANCH  15  16
ATOM     16  C   UNL     1     -13.907   5.726   4.783  1.00  0.00     0.000 C 
BRANCH  16  17
ATOM     17  C   UNL     1     -14.035   5.796   3.248  1.00  0.00     0.000 C 
BRANCH  17  18
ATOM     18  C   UNL     1     -14.415   7.180   2.685  1.00  0.00     0.000 C 
BRANCH  18  19
ATOM     19  C   UNL     1     -14.259   8.330   3.702  1.00  0.00     0.000 C 
BRANCH  19  20
ATOM     20  C   UNL     1     -14.148   9.704   3.023  1.00  0.00     0.006 C 
BRANCH  20  21
ATOM     21  C   UNL     1     -13.577   9.573   1.608  1.00  0.00     0.053 C 
BRANCH  21  22
ATOM     22  C   UNL     1     -12.608  10.678   1.331  1.00  0.00     0.041 C 
ATOM     23  O   UNL     1     -11.809  10.591   0.361  1.00  0.00    -0.550 OA
ATOM     24  O   UNL     1     -12.554  11.783   2.170  1.00  0.00    -0.550 OA
ENDBRANCH  21  22
ENDBRANCH  20  21
ENDBRANCH  19  20
ENDBRANCH  18  19
ENDBRANCH  17  18
ENDBRANCH  16  17
ENDBRANCH  15  16
ENDBRANCH  14  15
ENDBRANCH  13  14
ENDBRANCH   1  13
TORSDOF 20
ENDMDL
