MODEL 1
REMARK VINA RESULT:    -6.609      0.000      0.000
REMARK INTER + INTRA:         -11.694
REMARK INTER:                  -9.700
REMARK INTRA:                  -1.994
REMARK UNBOUND:                -1.994
REMARK SMILES O=c1c(O[C@@H]2O[C@@H](CO)[C@H](O)[C@H](O)[C@@H]2O)c(-c2ccc(O)c(O)c2)oc2cc(O)cc(O)c12
REMARK SMILES IDX 4 1 3 2 16 3 25 4 2 5 26 6 1 7 33 8 27 9 31 10 28 11 30 12
REMARK SMILES IDX 17 13 18 14 19 15 20 16 24 17 22 18 21 19 23 21 32 23 29 25
REMARK SMILES IDX 5 27 14 28 6 29 12 30 7 31 10 32 15 33 13 35 8 37 9 38 11 40
REMARK H PARENT 21 20 23 22 32 24 29 26 15 34 13 36 9 39 11 41
REMARK Flexibility Score: inf
ROOT
ATOM      1  O   UNL     1      14.408 -35.943   0.410  1.00  0.00    -0.454 OA
ENDROOT
BRANCH   1   2
ATOM      2  C   UNL     1      15.192 -36.326  -0.689  1.00  0.00     0.214 A 
ATOM      3  C   UNL     1      14.843 -36.004  -2.017  1.00  0.00     0.180 A 
ATOM      4  O   UNL     1      15.543 -36.512  -3.023  1.00  0.00    -0.452 OA
ATOM      5  C   UNL     1      16.360 -37.065  -0.461  1.00  0.00     0.239 A 
ATOM      6  C   UNL     1      16.625 -37.263  -2.854  1.00  0.00     0.146 A 
ATOM      7  O   UNL     1      16.674 -37.333   0.728  1.00  0.00    -0.285 OA
ATOM      8  C   UNL     1      17.126 -37.534  -1.555  1.00  0.00     0.111 A 
ATOM      9  C   UNL     1      17.266 -37.776  -3.984  1.00  0.00     0.094 A 
ATOM     10  C   UNL     1      18.330 -38.292  -1.434  1.00  0.00     0.134 A 
ATOM     11  C   UNL     1      18.410 -38.565  -3.851  1.00  0.00     0.123 A 
ATOM     12  C   UNL     1      18.931 -38.820  -2.584  1.00  0.00     0.093 A 
BRANCH   3  13
ATOM     13  C   UNL     1      13.736 -35.085  -2.343  1.00  0.00     0.025 A 
ATOM     14  C   UNL     1      13.780 -33.754  -1.898  1.00  0.00     0.016 A 
ATOM     15  C   UNL     1      12.723 -32.884  -2.176  1.00  0.00     0.051 A 
ATOM     16  C   UNL     1      11.601 -33.338  -2.881  1.00  0.00     0.157 A 
ATOM     17  C   UNL     1      12.604 -35.542  -3.035  1.00  0.00     0.062 A 
ATOM     18  C   UNL     1      11.536 -34.673  -3.303  1.00  0.00     0.158 A 
BRANCH  16  19
ATOM     19  O   UNL     1      10.543 -32.474  -3.158  1.00  0.00    -0.504 OA
ATOM     20  H   UNL     1       9.627 -32.824  -3.415  1.00  0.00     0.293 HD
ENDBRANCH  16  19
BRANCH  18  21
ATOM     21  O   UNL     1      10.407 -35.129  -3.980  1.00  0.00    -0.504 OA
ATOM     22  H   UNL     1      10.408 -35.259  -4.985  1.00  0.00     0.293 HD
ENDBRANCH  18  21
ENDBRANCH   3  13
BRANCH  10  23
ATOM     23  O   UNL     1      18.984 -38.533  -0.222  1.00  0.00    -0.507 OA
ATOM     24  H   UNL     1      19.509 -37.844   0.295  1.00  0.00     0.293 HD
ENDBRANCH  10  23
BRANCH  11  25
ATOM     25  O   UNL     1      19.042 -39.093  -4.975  1.00  0.00    -0.508 OA
ATOM     26  H   UNL     1      18.539 -39.655  -5.651  1.00  0.00     0.293 HD
ENDBRANCH  11  25
ENDBRANCH   1   2
BRANCH   1  27
ATOM     27  C   UNL     1      13.451 -36.800   1.051  1.00  0.00     0.339 C 
ATOM     28  C   UNL     1      13.533 -36.711   2.590  1.00  0.00     0.214 C 
ATOM     29  O   UNL     1      12.137 -36.511   0.606  1.00  0.00    -0.332 OA
ATOM     30  C   UNL     1      13.032 -35.353   3.125  1.00  0.00     0.180 C 
ATOM     31  C   UNL     1      11.752 -35.180   0.917  1.00  0.00     0.179 C 
ATOM     32  C   UNL     1      11.693 -34.968   2.454  1.00  0.00     0.177 C 
BRANCH  28  33
ATOM     33  O   UNL     1      14.816 -37.030   3.070  1.00  0.00    -0.384 OA
ATOM     34  H   UNL     1      14.891 -36.685   3.996  1.00  0.00     0.211 HD
ENDBRANCH  28  33
BRANCH  30  35
ATOM     35  O   UNL     1      14.003 -34.339   2.999  1.00  0.00    -0.387 OA
ATOM     36  H   UNL     1      13.543 -33.463   2.970  1.00  0.00     0.211 HD
ENDBRANCH  30  35
BRANCH  31  37
ATOM     37  C   UNL     1      10.378 -34.931   0.274  1.00  0.00     0.191 C 
BRANCH  37  38
ATOM     38  O   UNL     1      10.053 -33.566   0.274  1.00  0.00    -0.394 OA
ATOM     39  H   UNL     1       9.629 -33.374  -0.603  1.00  0.00     0.210 HD
ENDBRANCH  37  38
ENDBRANCH  31  37
BRANCH  32  40
ATOM     40  O   UNL     1      11.381 -33.630   2.747  1.00  0.00    -0.387 OA
ATOM     41  H   UNL     1      11.717 -33.085   1.989  1.00  0.00     0.211 HD
ENDBRANCH  32  40
ENDBRANCH   1  27
TORSDOF 12
ENDMDL
MODEL 2
REMARK VINA RESULT:    -6.572      2.523      6.293
REMARK INTER + INTRA:         -11.640
REMARK INTER:                 -10.124
REMARK INTRA:                  -1.516
REMARK UNBOUND:                -1.994
REMARK SMILES O=c1c(O[C@@H]2O[C@@H](CO)[C@H](O)[C@H](O)[C@@H]2O)c(-c2ccc(O)c(O)c2)oc2cc(O)cc(O)c12
REMARK SMILES IDX 4 1 3 2 16 3 25 4 2 5 26 6 1 7 33 8 27 9 31 10 28 11 30 12
REMARK SMILES IDX 17 13 18 14 19 15 20 16 24 17 22 18 21 19 23 21 32 23 29 25
REMARK SMILES IDX 5 27 14 28 6 29 12 30 7 31 10 32 15 33 13 35 8 37 9 38 11 40
REMARK H PARENT 21 20 23 22 32 24 29 26 15 34 13 36 9 39 11 41
REMARK Flexibility Score: inf
ROOT
ATOM      1  O   UNL     1      13.984 -35.928  -1.258  1.00  0.00    -0.454 OA
ENDROOT
BRANCH   1   2
ATOM      2  C   UNL     1      13.459 -36.737  -2.277  1.00  0.00     0.214 A 
ATOM      3  C   UNL     1      14.270 -37.569  -3.077  1.00  0.00     0.180 A 
ATOM      4  O   UNL     1      13.739 -38.202  -4.116  1.00  0.00    -0.452 OA
ATOM      5  C   UNL     1      12.079 -36.710  -2.517  1.00  0.00     0.239 A 
ATOM      6  C   UNL     1      12.446 -38.161  -4.414  1.00  0.00     0.146 A 
ATOM      7  O   UNL     1      11.360 -35.979  -1.787  1.00  0.00    -0.285 OA
ATOM      8  C   UNL     1      11.532 -37.453  -3.591  1.00  0.00     0.111 A 
ATOM      9  C   UNL     1      12.001 -38.837  -5.552  1.00  0.00     0.094 A 
ATOM     10  C   UNL     1      10.144 -37.497  -3.921  1.00  0.00     0.134 A 
ATOM     11  C   UNL     1      10.649 -38.824  -5.898  1.00  0.00     0.123 A 
ATOM     12  C   UNL     1       9.733 -38.156  -5.087  1.00  0.00     0.093 A 
BRANCH   3  13
ATOM     13  C   UNL     1      15.698 -37.798  -2.786  1.00  0.00     0.025 A 
ATOM     14  C   UNL     1      16.671 -37.416  -3.723  1.00  0.00     0.016 A 
ATOM     15  C   UNL     1      18.024 -37.655  -3.469  1.00  0.00     0.051 A 
ATOM     16  C   UNL     1      18.418 -38.298  -2.288  1.00  0.00     0.157 A 
ATOM     17  C   UNL     1      16.093 -38.456  -1.611  1.00  0.00     0.062 A 
ATOM     18  C   UNL     1      17.450 -38.708  -1.362  1.00  0.00     0.158 A 
BRANCH  16  19
ATOM     19  O   UNL     1      19.766 -38.541  -2.032  1.00  0.00    -0.504 OA
ATOM     20  H   UNL     1      20.138 -39.484  -1.998  1.00  0.00     0.293 HD
ENDBRANCH  16  19
BRANCH  18  21
ATOM     21  O   UNL     1      17.843 -39.373  -0.201  1.00  0.00    -0.504 OA
ATOM     22  H   UNL     1      18.746 -39.202   0.227  1.00  0.00     0.293 HD
ENDBRANCH  18  21
ENDBRANCH   3  13
BRANCH  10  23
ATOM     23  O   UNL     1       9.135 -36.936  -3.134  1.00  0.00    -0.507 OA
ATOM     24  H   UNL     1       9.293 -36.387  -2.302  1.00  0.00     0.293 HD
ENDBRANCH  10  23
BRANCH  11  25
ATOM     25  O   UNL     1      10.202 -39.482  -7.043  1.00  0.00    -0.508 OA
ATOM     26  H   UNL     1      10.778 -40.167  -7.519  1.00  0.00     0.293 HD
ENDBRANCH  11  25
ENDBRANCH   1   2
BRANCH   1  27
ATOM     27  C   UNL     1      14.818 -34.783  -1.490  1.00  0.00     0.339 C 
ATOM     28  C   UNL     1      14.029 -33.461  -1.386  1.00  0.00     0.214 C 
ATOM     29  O   UNL     1      15.923 -34.775  -0.603  1.00  0.00    -0.332 OA
ATOM     30  C   UNL     1      13.598 -33.150   0.063  1.00  0.00     0.180 C 
ATOM     31  C   UNL     1      15.512 -34.700   0.755  1.00  0.00     0.179 C 
ATOM     32  C   UNL     1      14.781 -33.359   1.036  1.00  0.00     0.177 C 
BRANCH  28  33
ATOM     33  O   UNL     1      12.946 -33.419  -2.282  1.00  0.00    -0.384 OA
ATOM     34  H   UNL     1      12.227 -33.998  -1.920  1.00  0.00     0.211 HD
ENDBRANCH  28  33
BRANCH  30  35
ATOM     35  O   UNL     1      12.455 -33.881   0.448  1.00  0.00    -0.387 OA
ATOM     36  H   UNL     1      12.742 -34.641   1.012  1.00  0.00     0.211 HD
ENDBRANCH  30  35
BRANCH  31  37
ATOM     37  C   UNL     1      16.769 -34.836   1.630  1.00  0.00     0.191 C 
BRANCH  37  38
ATOM     38  O   UNL     1      17.884 -35.215   0.866  1.00  0.00    -0.394 OA
ATOM     39  H   UNL     1      18.329 -35.953   1.359  1.00  0.00     0.210 HD
ENDBRANCH  37  38
ENDBRANCH  31  37
BRANCH  32  40
ATOM     40  O   UNL     1      14.318 -33.329   2.362  1.00  0.00    -0.387 OA
ATOM     41  H   UNL     1      15.113 -33.449   2.945  1.00  0.00     0.211 HD
ENDBRANCH  32  40
ENDBRANCH   1  27
TORSDOF 12
ENDMDL
MODEL 3
REMARK VINA RESULT:    -6.431      2.424      5.516
REMARK INTER + INTRA:         -11.433
REMARK INTER:                  -9.406
REMARK INTRA:                  -2.027
REMARK UNBOUND:                -1.994
REMARK SMILES O=c1c(O[C@@H]2O[C@@H](CO)[C@H](O)[C@H](O)[C@@H]2O)c(-c2ccc(O)c(O)c2)oc2cc(O)cc(O)c12
REMARK SMILES IDX 4 1 3 2 16 3 25 4 2 5 26 6 1 7 33 8 27 9 31 10 28 11 30 12
REMARK SMILES IDX 17 13 18 14 19 15 20 16 24 17 22 18 21 19 23 21 32 23 29 25
REMARK SMILES IDX 5 27 14 28 6 29 12 30 7 31 10 32 15 33 13 35 8 37 9 38 11 40
REMARK H PARENT 21 20 23 22 32 24 29 26 15 34 13 36 9 39 11 41
REMARK Flexibility Score: inf
ROOT
ATOM      1  O   UNL     1      14.772 -36.613  -1.159  1.00  0.00    -0.454 OA
ENDROOT
BRANCH   1   2
ATOM      2  C   UNL     1      13.631 -36.677  -1.973  1.00  0.00     0.214 A 
ATOM      3  C   UNL     1      12.421 -36.039  -1.632  1.00  0.00     0.180 A 
ATOM      4  O   UNL     1      11.335 -36.251  -2.366  1.00  0.00    -0.452 OA
ATOM      5  C   UNL     1      13.692 -37.411  -3.164  1.00  0.00     0.239 A 
ATOM      6  C   UNL     1      11.334 -36.985  -3.472  1.00  0.00     0.146 A 
ATOM      7  O   UNL     1      14.781 -37.963  -3.471  1.00  0.00    -0.285 OA
ATOM      8  C   UNL     1      12.533 -37.561  -3.965  1.00  0.00     0.111 A 
ATOM      9  C   UNL     1      10.126 -37.171  -4.149  1.00  0.00     0.094 A 
ATOM     10  C   UNL     1      12.486 -38.286  -5.194  1.00  0.00     0.134 A 
ATOM     11  C   UNL     1      10.081 -37.930  -5.319  1.00  0.00     0.123 A 
ATOM     12  C   UNL     1      11.254 -38.483  -5.831  1.00  0.00     0.093 A 
BRANCH   3  13
ATOM     13  C   UNL     1      12.313 -35.103  -0.496  1.00  0.00     0.025 A 
ATOM     14  C   UNL     1      11.314 -35.292   0.471  1.00  0.00     0.016 A 
ATOM     15  C   UNL     1      11.186 -34.395   1.534  1.00  0.00     0.051 A 
ATOM     16  C   UNL     1      12.038 -33.287   1.631  1.00  0.00     0.157 A 
ATOM     17  C   UNL     1      13.156 -33.984  -0.407  1.00  0.00     0.062 A 
ATOM     18  C   UNL     1      13.019 -33.076   0.653  1.00  0.00     0.158 A 
BRANCH  16  19
ATOM     19  O   UNL     1      11.912 -32.388   2.688  1.00  0.00    -0.504 OA
ATOM     20  H   UNL     1      12.402 -32.528   3.564  1.00  0.00     0.293 HD
ENDBRANCH  16  19
BRANCH  18  21
ATOM     21  O   UNL     1      13.848 -31.958   0.736  1.00  0.00    -0.504 OA
ATOM     22  H   UNL     1      14.790 -32.023   1.103  1.00  0.00     0.293 HD
ENDBRANCH  18  21
ENDBRANCH   3  13
BRANCH  10  23
ATOM     23  O   UNL     1      13.612 -38.806  -5.838  1.00  0.00    -0.507 OA
ATOM     24  H   UNL     1      14.263 -38.264  -6.387  1.00  0.00     0.293 HD
ENDBRANCH  10  23
BRANCH  11  25
ATOM     25  O   UNL     1       8.876 -38.134  -5.988  1.00  0.00    -0.508 OA
ATOM     26  H   UNL     1       8.775 -37.927  -6.974  1.00  0.00     0.293 HD
ENDBRANCH  11  25
ENDBRANCH   1   2
BRANCH   1  27
ATOM     27  C   UNL     1      15.010 -37.478  -0.039  1.00  0.00     0.339 C 
ATOM     28  C   UNL     1      16.362 -38.213  -0.150  1.00  0.00     0.214 C 
ATOM     29  O   UNL     1      14.933 -36.758   1.180  1.00  0.00    -0.332 OA
ATOM     30  C   UNL     1      17.562 -37.259   0.028  1.00  0.00     0.180 C 
ATOM     31  C   UNL     1      15.914 -35.734   1.252  1.00  0.00     0.179 C 
ATOM     32  C   UNL     1      17.344 -36.338   1.251  1.00  0.00     0.177 C 
BRANCH  28  33
ATOM     33  O   UNL     1      16.457 -38.969  -1.332  1.00  0.00    -0.384 OA
ATOM     34  H   UNL     1      15.803 -39.712  -1.274  1.00  0.00     0.211 HD
ENDBRANCH  28  33
BRANCH  30  35
ATOM     35  O   UNL     1      17.844 -36.531  -1.145  1.00  0.00    -0.387 OA
ATOM     36  H   UNL     1      17.661 -37.109  -1.927  1.00  0.00     0.211 HD
ENDBRANCH  30  35
BRANCH  31  37
ATOM     37  C   UNL     1      15.656 -34.933   2.540  1.00  0.00     0.191 C 
BRANCH  37  38
ATOM     38  O   UNL     1      16.030 -33.589   2.390  1.00  0.00    -0.394 OA
ATOM     39  H   UNL     1      15.902 -33.363   1.431  1.00  0.00     0.210 HD
ENDBRANCH  37  38
ENDBRANCH  31  37
BRANCH  32  40
ATOM     40  O   UNL     1      18.304 -35.312   1.251  1.00  0.00    -0.387 OA
ATOM     41  H   UNL     1      18.947 -35.521   0.525  1.00  0.00     0.211 HD
ENDBRANCH  32  40
ENDBRANCH   1  27
TORSDOF 12
ENDMDL
MODEL 4
REMARK VINA RESULT:    -6.169      2.779      5.962
REMARK INTER + INTRA:         -11.048
REMARK INTER:                  -9.296
REMARK INTRA:                  -1.752
REMARK UNBOUND:                -1.994
REMARK SMILES O=c1c(O[C@@H]2O[C@@H](CO)[C@H](O)[C@H](O)[C@@H]2O)c(-c2ccc(O)c(O)c2)oc2cc(O)cc(O)c12
REMARK SMILES IDX 4 1 3 2 16 3 25 4 2 5 26 6 1 7 33 8 27 9 31 10 28 11 30 12
REMARK SMILES IDX 17 13 18 14 19 15 20 16 24 17 22 18 21 19 23 21 32 23 29 25
REMARK SMILES IDX 5 27 14 28 6 29 12 30 7 31 10 32 15 33 13 35 8 37 9 38 11 40
REMARK H PARENT 21 20 23 22 32 24 29 26 15 34 13 36 9 39 11 41
REMARK Flexibility Score: inf
ROOT
ATOM      1  O   UNL     1      13.394 -35.571  -1.069  1.00  0.00    -0.454 OA
ENDROOT
BRANCH   1   2
ATOM      2  C   UNL     1      13.277 -36.744  -1.831  1.00  0.00     0.214 A 
ATOM      3  C   UNL     1      14.074 -37.883  -1.594  1.00  0.00     0.180 A 
ATOM      4  O   UNL     1      14.020 -38.910  -2.433  1.00  0.00    -0.452 OA
ATOM      5  C   UNL     1      12.343 -36.781  -2.873  1.00  0.00     0.239 A 
ATOM      6  C   UNL     1      13.189 -38.965  -3.467  1.00  0.00     0.146 A 
ATOM      7  O   UNL     1      11.623 -35.767  -3.067  1.00  0.00    -0.285 OA
ATOM      8  C   UNL     1      12.260 -37.920  -3.710  1.00  0.00     0.111 A 
ATOM      9  C   UNL     1      13.241 -40.080  -4.308  1.00  0.00     0.094 A 
ATOM     10  C   UNL     1      11.344 -38.063  -4.797  1.00  0.00     0.134 A 
ATOM     11  C   UNL     1      12.381 -40.180  -5.402  1.00  0.00     0.123 A 
ATOM     12  C   UNL     1      11.444 -39.176  -5.641  1.00  0.00     0.093 A 
BRANCH   3  13
ATOM     13  C   UNL     1      14.954 -38.001  -0.415  1.00  0.00     0.025 A 
ATOM     14  C   UNL     1      14.395 -38.037   0.872  1.00  0.00     0.016 A 
ATOM     15  C   UNL     1      15.221 -38.120   1.995  1.00  0.00     0.051 A 
ATOM     16  C   UNL     1      16.614 -38.143   1.847  1.00  0.00     0.157 A 
ATOM     17  C   UNL     1      16.350 -38.010  -0.561  1.00  0.00     0.062 A 
ATOM     18  C   UNL     1      17.180 -38.078   0.567  1.00  0.00     0.158 A 
BRANCH  16  19
ATOM     19  O   UNL     1      17.443 -38.222   2.965  1.00  0.00    -0.504 OA
ATOM     20  H   UNL     1      17.889 -39.092   3.234  1.00  0.00     0.293 HD
ENDBRANCH  16  19
BRANCH  18  21
ATOM     21  O   UNL     1      18.567 -38.074   0.424  1.00  0.00    -0.504 OA
ATOM     22  H   UNL     1      19.030 -37.460  -0.235  1.00  0.00     0.293 HD
ENDBRANCH  18  21
ENDBRANCH   3  13
BRANCH  10  23
ATOM     23  O   UNL     1      10.314 -37.161  -5.073  1.00  0.00    -0.507 OA
ATOM     24  H   UNL     1       9.428 -37.409  -5.490  1.00  0.00     0.293 HD
ENDBRANCH  10  23
BRANCH  11  25
ATOM     25  O   UNL     1      12.442 -41.281  -6.254  1.00  0.00    -0.508 OA
ATOM     26  H   UNL     1      11.625 -41.610  -6.754  1.00  0.00     0.293 HD
ENDBRANCH  11  25
ENDBRANCH   1   2
BRANCH   1  27
ATOM     27  C   UNL     1      14.340 -34.527  -1.342  1.00  0.00     0.339 C 
ATOM     28  C   UNL     1      13.678 -33.132  -1.350  1.00  0.00     0.214 C 
ATOM     29  O   UNL     1      15.413 -34.563  -0.416  1.00  0.00    -0.332 OA
ATOM     30  C   UNL     1      13.234 -32.688   0.060  1.00  0.00     0.180 C 
ATOM     31  C   UNL     1      14.968 -34.360   0.918  1.00  0.00     0.179 C 
ATOM     32  C   UNL     1      14.361 -32.942   1.087  1.00  0.00     0.177 C 
BRANCH  28  33
ATOM     33  O   UNL     1      12.633 -33.049  -2.286  1.00  0.00    -0.384 OA
ATOM     34  H   UNL     1      11.876 -33.594  -1.950  1.00  0.00     0.211 HD
ENDBRANCH  28  33
BRANCH  30  35
ATOM     35  O   UNL     1      12.015 -33.281   0.447  1.00  0.00    -0.387 OA
ATOM     36  H   UNL     1      11.372 -32.564   0.672  1.00  0.00     0.211 HD
ENDBRANCH  30  35
BRANCH  31  37
ATOM     37  C   UNL     1      16.179 -34.556   1.846  1.00  0.00     0.191 C 
BRANCH  37  38
ATOM     38  O   UNL     1      16.279 -33.515   2.782  1.00  0.00    -0.394 OA
ATOM     39  H   UNL     1      17.032 -33.748   3.386  1.00  0.00     0.210 HD
ENDBRANCH  37  38
ENDBRANCH  31  37
BRANCH  32  40
ATOM     40  O   UNL     1      13.862 -32.781   2.391  1.00  0.00    -0.387 OA
ATOM     41  H   UNL     1      13.559 -33.676   2.694  1.00  0.00     0.211 HD
ENDBRANCH  32  40
ENDBRANCH   1  27
TORSDOF 12
ENDMDL
MODEL 5
REMARK VINA RESULT:    -6.052      2.815      5.035
REMARK INTER + INTRA:         -10.876
REMARK INTER:                  -9.132
REMARK INTRA:                  -1.744
REMARK UNBOUND:                -1.994
REMARK SMILES O=c1c(O[C@@H]2O[C@@H](CO)[C@H](O)[C@H](O)[C@@H]2O)c(-c2ccc(O)c(O)c2)oc2cc(O)cc(O)c12
REMARK SMILES IDX 4 1 3 2 16 3 25 4 2 5 26 6 1 7 33 8 27 9 31 10 28 11 30 12
REMARK SMILES IDX 17 13 18 14 19 15 20 16 24 17 22 18 21 19 23 21 32 23 29 25
REMARK SMILES IDX 5 27 14 28 6 29 12 30 7 31 10 32 15 33 13 35 8 37 9 38 11 40
REMARK H PARENT 21 20 23 22 32 24 29 26 15 34 13 36 9 39 11 41
REMARK Flexibility Score: inf
ROOT
ATOM      1  O   UNL     1      13.299 -35.989  -1.895  1.00  0.00    -0.454 OA
ENDROOT
BRANCH   1   2
ATOM      2  C   UNL     1      14.421 -36.608  -1.323  1.00  0.00     0.214 A 
ATOM      3  C   UNL     1      14.770 -37.946  -1.599  1.00  0.00     0.180 A 
ATOM      4  O   UNL     1      15.756 -38.522  -0.922  1.00  0.00    -0.452 OA
ATOM      5  C   UNL     1      15.219 -35.874  -0.436  1.00  0.00     0.239 A 
ATOM      6  C   UNL     1      16.503 -37.880  -0.032  1.00  0.00     0.146 A 
ATOM      7  O   UNL     1      14.911 -34.675  -0.210  1.00  0.00    -0.285 OA
ATOM      8  C   UNL     1      16.309 -36.496   0.218  1.00  0.00     0.111 A 
ATOM      9  C   UNL     1      17.493 -38.593   0.649  1.00  0.00     0.094 A 
ATOM     10  C   UNL     1      17.184 -35.841   1.136  1.00  0.00     0.134 A 
ATOM     11  C   UNL     1      18.304 -37.954   1.588  1.00  0.00     0.123 A 
ATOM     12  C   UNL     1      18.145 -36.590   1.827  1.00  0.00     0.093 A 
BRANCH   3  13
ATOM     13  C   UNL     1      14.099 -38.739  -2.647  1.00  0.00     0.025 A 
ATOM     14  C   UNL     1      13.650 -40.037  -2.360  1.00  0.00     0.016 A 
ATOM     15  C   UNL     1      13.039 -40.805  -3.355  1.00  0.00     0.051 A 
ATOM     16  C   UNL     1      12.893 -40.296  -4.652  1.00  0.00     0.157 A 
ATOM     17  C   UNL     1      13.965 -38.235  -3.951  1.00  0.00     0.062 A 
ATOM     18  C   UNL     1      13.365 -39.012  -4.953  1.00  0.00     0.158 A 
BRANCH  16  19
ATOM     19  O   UNL     1      12.287 -41.060  -5.647  1.00  0.00    -0.504 OA
ATOM     20  H   UNL     1      12.776 -41.298  -6.503  1.00  0.00     0.293 HD
ENDBRANCH  16  19
BRANCH  18  21
ATOM     21  O   UNL     1      13.243 -38.517  -6.250  1.00  0.00    -0.504 OA
ATOM     22  H   UNL     1      13.977 -38.645  -6.938  1.00  0.00     0.293 HD
ENDBRANCH  18  21
ENDBRANCH   3  13
BRANCH  10  23
ATOM     23  O   UNL     1      17.168 -34.466   1.386  1.00  0.00    -0.507 OA
ATOM     24  H   UNL     1      16.444 -33.983   1.898  1.00  0.00     0.293 HD
ENDBRANCH  10  23
BRANCH  11  25
ATOM     25  O   UNL     1      19.281 -38.665   2.283  1.00  0.00    -0.508 OA
ATOM     26  H   UNL     1      19.595 -38.375   3.200  1.00  0.00     0.293 HD
ENDBRANCH  11  25
ENDBRANCH   1   2
BRANCH   1  27
ATOM     27  C   UNL     1      11.962 -36.126  -1.392  1.00  0.00     0.339 C 
ATOM     28  C   UNL     1      11.348 -34.766  -0.996  1.00  0.00     0.214 C 
ATOM     29  O   UNL     1      11.135 -36.791  -2.331  1.00  0.00    -0.332 OA
ATOM     30  C   UNL     1      11.050 -33.881  -2.225  1.00  0.00     0.180 C 
ATOM     31  C   UNL     1      11.030 -36.068  -3.549  1.00  0.00     0.179 C 
ATOM     32  C   UNL     1      10.332 -34.701  -3.321  1.00  0.00     0.177 C 
BRANCH  28  33
ATOM     33  O   UNL     1      12.125 -34.096  -0.035  1.00  0.00    -0.384 OA
ATOM     34  H   UNL     1      11.676 -34.192   0.843  1.00  0.00     0.211 HD
ENDBRANCH  28  33
BRANCH  30  35
ATOM     35  O   UNL     1      12.205 -33.236  -2.711  1.00  0.00    -0.387 OA
ATOM     36  H   UNL     1      12.938 -33.369  -2.059  1.00  0.00     0.211 HD
ENDBRANCH  30  35
BRANCH  31  37
ATOM     37  C   UNL     1      10.232 -36.936  -4.538  1.00  0.00     0.191 C 
BRANCH  37  38
ATOM     38  O   UNL     1       8.986 -36.363  -4.831  1.00  0.00    -0.394 OA
ATOM     39  H   UNL     1       9.155 -35.629  -5.478  1.00  0.00     0.210 HD
ENDBRANCH  37  38
ENDBRANCH  31  37
BRANCH  32  40
ATOM     40  O   UNL     1      10.298 -33.968  -4.519  1.00  0.00    -0.387 OA
ATOM     41  H   UNL     1      10.432 -34.618  -5.257  1.00  0.00     0.211 HD
ENDBRANCH  32  40
ENDBRANCH   1  27
TORSDOF 12
ENDMDL
MODEL 6
REMARK VINA RESULT:    -6.049      2.169      6.628
REMARK INTER + INTRA:         -10.871
REMARK INTER:                 -10.117
REMARK INTRA:                  -0.754
REMARK UNBOUND:                -1.994
REMARK SMILES O=c1c(O[C@@H]2O[C@@H](CO)[C@H](O)[C@H](O)[C@@H]2O)c(-c2ccc(O)c(O)c2)oc2cc(O)cc(O)c12
REMARK SMILES IDX 4 1 3 2 16 3 25 4 2 5 26 6 1 7 33 8 27 9 31 10 28 11 30 12
REMARK SMILES IDX 17 13 18 14 19 15 20 16 24 17 22 18 21 19 23 21 32 23 29 25
REMARK SMILES IDX 5 27 14 28 6 29 12 30 7 31 10 32 15 33 13 35 8 37 9 38 11 40
REMARK H PARENT 21 20 23 22 32 24 29 26 15 34 13 36 9 39 11 41
REMARK Flexibility Score: inf
ROOT
ATOM      1  O   UNL     1      16.127 -35.438   0.136  1.00  0.00    -0.454 OA
ENDROOT
BRANCH   1   2
ATOM      2  C   UNL     1      15.075 -35.347  -0.788  1.00  0.00     0.214 A 
ATOM      3  C   UNL     1      15.204 -35.772  -2.126  1.00  0.00     0.180 A 
ATOM      4  O   UNL     1      14.225 -35.532  -2.990  1.00  0.00    -0.452 OA
ATOM      5  C   UNL     1      13.853 -34.804  -0.369  1.00  0.00     0.239 A 
ATOM      6  C   UNL     1      13.072 -34.970  -2.649  1.00  0.00     0.146 A 
ATOM      7  O   UNL     1      13.740 -34.444   0.832  1.00  0.00    -0.285 OA
ATOM      8  C   UNL     1      12.801 -34.626  -1.299  1.00  0.00     0.111 A 
ATOM      9  C   UNL     1      12.123 -34.732  -3.647  1.00  0.00     0.094 A 
ATOM     10  C   UNL     1      11.519 -34.085  -0.978  1.00  0.00     0.134 A 
ATOM     11  C   UNL     1      10.895 -34.148  -3.330  1.00  0.00     0.123 A 
ATOM     12  C   UNL     1      10.602 -33.828  -2.005  1.00  0.00     0.093 A 
BRANCH   3  13
ATOM     13  C   UNL     1      16.384 -36.514  -2.610  1.00  0.00     0.025 A 
ATOM     14  C   UNL     1      17.469 -35.815  -3.161  1.00  0.00     0.016 A 
ATOM     15  C   UNL     1      18.579 -36.511  -3.648  1.00  0.00     0.051 A 
ATOM     16  C   UNL     1      18.606 -37.911  -3.613  1.00  0.00     0.157 A 
ATOM     17  C   UNL     1      16.406 -37.917  -2.590  1.00  0.00     0.062 A 
ATOM     18  C   UNL     1      17.514 -38.616  -3.092  1.00  0.00     0.158 A 
BRANCH  16  19
ATOM     19  O   UNL     1      19.710 -38.609  -4.100  1.00  0.00    -0.504 OA
ATOM     20  H   UNL     1      20.025 -38.499  -5.058  1.00  0.00     0.293 HD
ENDBRANCH  16  19
BRANCH  18  21
ATOM     21  O   UNL     1      17.532 -40.010  -3.083  1.00  0.00    -0.504 OA
ATOM     22  H   UNL     1      18.190 -40.535  -3.647  1.00  0.00     0.293 HD
ENDBRANCH  18  21
ENDBRANCH   3  13
BRANCH  10  23
ATOM     23  O   UNL     1      11.091 -33.809   0.323  1.00  0.00    -0.507 OA
ATOM     24  H   UNL     1      11.634 -33.982   1.157  1.00  0.00     0.293 HD
ENDBRANCH  10  23
BRANCH  11  25
ATOM     25  O   UNL     1       9.954 -33.892  -4.324  1.00  0.00    -0.508 OA
ATOM     26  H   UNL     1       8.999 -34.223  -4.248  1.00  0.00     0.293 HD
ENDBRANCH  11  25
ENDBRANCH   1   2
BRANCH   1  27
ATOM     27  C   UNL     1      15.969 -35.880   1.492  1.00  0.00     0.339 C 
ATOM     28  C   UNL     1      16.217 -37.396   1.641  1.00  0.00     0.214 C 
ATOM     29  O   UNL     1      16.816 -35.150   2.363  1.00  0.00    -0.332 OA
ATOM     30  C   UNL     1      17.702 -37.768   1.441  1.00  0.00     0.180 C 
ATOM     31  C   UNL     1      18.188 -35.330   2.043  1.00  0.00     0.179 C 
ATOM     32  C   UNL     1      18.611 -36.810   2.244  1.00  0.00     0.177 C 
BRANCH  28  33
ATOM     33  O   UNL     1      15.365 -38.154   0.817  1.00  0.00    -0.384 OA
ATOM     34  H   UNL     1      14.806 -37.525   0.293  1.00  0.00     0.211 HD
ENDBRANCH  28  33
BRANCH  30  35
ATOM     35  O   UNL     1      18.058 -37.827   0.079  1.00  0.00    -0.387 OA
ATOM     36  H   UNL     1      18.769 -38.506  -0.032  1.00  0.00     0.211 HD
ENDBRANCH  30  35
BRANCH  31  37
ATOM     37  C   UNL     1      19.004 -34.394   2.951  1.00  0.00     0.191 C 
BRANCH  37  38
ATOM     38  O   UNL     1      20.155 -33.926   2.299  1.00  0.00    -0.394 OA
ATOM     39  H   UNL     1      20.502 -34.682   1.756  1.00  0.00     0.210 HD
ENDBRANCH  37  38
ENDBRANCH  31  37
BRANCH  32  40
ATOM     40  O   UNL     1      19.950 -36.988   1.856  1.00  0.00    -0.387 OA
ATOM     41  H   UNL     1      19.957 -37.708   1.174  1.00  0.00     0.211 HD
ENDBRANCH  32  40
ENDBRANCH   1  27
TORSDOF 12
ENDMDL
MODEL 7
REMARK VINA RESULT:    -5.868      2.501      5.974
REMARK INTER + INTRA:         -10.606
REMARK INTER:                  -9.538
REMARK INTRA:                  -1.068
REMARK UNBOUND:                -1.994
REMARK SMILES O=c1c(O[C@@H]2O[C@@H](CO)[C@H](O)[C@H](O)[C@@H]2O)c(-c2ccc(O)c(O)c2)oc2cc(O)cc(O)c12
REMARK SMILES IDX 4 1 3 2 16 3 25 4 2 5 26 6 1 7 33 8 27 9 31 10 28 11 30 12
REMARK SMILES IDX 17 13 18 14 19 15 20 16 24 17 22 18 21 19 23 21 32 23 29 25
REMARK SMILES IDX 5 27 14 28 6 29 12 30 7 31 10 32 15 33 13 35 8 37 9 38 11 40
REMARK H PARENT 21 20 23 22 32 24 29 26 15 34 13 36 9 39 11 41
REMARK Flexibility Score: inf
ROOT
ATOM      1  O   UNL     1      15.011 -36.599  -0.416  1.00  0.00    -0.454 OA
ENDROOT
BRANCH   1   2
ATOM      2  C   UNL     1      14.184 -37.042  -1.460  1.00  0.00     0.214 A 
ATOM      3  C   UNL     1      14.694 -37.454  -2.708  1.00  0.00     0.180 A 
ATOM      4  O   UNL     1      13.858 -37.727  -3.703  1.00  0.00    -0.452 OA
ATOM      5  C   UNL     1      12.798 -37.068  -1.258  1.00  0.00     0.239 A 
ATOM      6  C   UNL     1      12.538 -37.709  -3.573  1.00  0.00     0.146 A 
ATOM      7  O   UNL     1      12.352 -36.717  -0.135  1.00  0.00    -0.285 OA
ATOM      8  C   UNL     1      11.934 -37.432  -2.318  1.00  0.00     0.111 A 
ATOM      9  C   UNL     1      11.751 -37.980  -4.695  1.00  0.00     0.094 A 
ATOM     10  C   UNL     1      10.511 -37.492  -2.220  1.00  0.00     0.134 A 
ATOM     11  C   UNL     1      10.359 -37.978  -4.600  1.00  0.00     0.123 A 
ATOM     12  C   UNL     1       9.749 -37.733  -3.371  1.00  0.00     0.093 A 
BRANCH   3  13
ATOM     13  C   UNL     1      16.138 -37.629  -2.953  1.00  0.00     0.025 A 
ATOM     14  C   UNL     1      16.933 -36.516  -3.269  1.00  0.00     0.016 A 
ATOM     15  C   UNL     1      18.296 -36.677  -3.531  1.00  0.00     0.051 A 
ATOM     16  C   UNL     1      18.875 -37.952  -3.503  1.00  0.00     0.157 A 
ATOM     17  C   UNL     1      16.717 -38.908  -2.941  1.00  0.00     0.062 A 
ATOM     18  C   UNL     1      18.082 -39.071  -3.218  1.00  0.00     0.158 A 
BRANCH  16  19
ATOM     19  O   UNL     1      20.234 -38.117  -3.767  1.00  0.00    -0.504 OA
ATOM     20  H   UNL     1      20.559 -38.700  -4.530  1.00  0.00     0.293 HD
ENDBRANCH  16  19
BRANCH  18  21
ATOM     21  O   UNL     1      18.655 -40.342  -3.218  1.00  0.00    -0.504 OA
ATOM     22  H   UNL     1      18.604 -40.947  -2.406  1.00  0.00     0.293 HD
ENDBRANCH  18  21
ENDBRANCH   3  13
BRANCH  10  23
ATOM     23  O   UNL     1       9.803 -37.348  -1.023  1.00  0.00    -0.507 OA
ATOM     24  H   UNL     1       9.174 -36.587  -0.815  1.00  0.00     0.293 HD
ENDBRANCH  10  23
BRANCH  11  25
ATOM     25  O   UNL     1       9.571 -38.229  -5.721  1.00  0.00    -0.508 OA
ATOM     26  H   UNL     1       9.315 -37.490  -6.365  1.00  0.00     0.293 HD
ENDBRANCH  11  25
ENDBRANCH   1   2
BRANCH   1  27
ATOM     27  C   UNL     1      15.168 -37.290   0.832  1.00  0.00     0.339 C 
ATOM     28  C   UNL     1      16.653 -37.520   1.185  1.00  0.00     0.214 C 
ATOM     29  O   UNL     1      14.510 -36.596   1.879  1.00  0.00    -0.332 OA
ATOM     30  C   UNL     1      17.378 -36.206   1.547  1.00  0.00     0.180 C 
ATOM     31  C   UNL     1      15.046 -35.295   2.072  1.00  0.00     0.179 C 
ATOM     32  C   UNL     1      16.527 -35.372   2.532  1.00  0.00     0.177 C 
BRANCH  28  33
ATOM     33  O   UNL     1      17.329 -38.240   0.184  1.00  0.00    -0.384 OA
ATOM     34  H   UNL     1      17.087 -39.196   0.278  1.00  0.00     0.211 HD
ENDBRANCH  28  33
BRANCH  30  35
ATOM     35  O   UNL     1      17.748 -35.468   0.404  1.00  0.00    -0.387 OA
ATOM     36  H   UNL     1      17.475 -35.975  -0.400  1.00  0.00     0.211 HD
ENDBRANCH  30  35
BRANCH  31  37
ATOM     37  C   UNL     1      14.178 -34.586   3.124  1.00  0.00     0.191 C 
BRANCH  37  38
ATOM     38  O   UNL     1      14.308 -33.192   3.039  1.00  0.00    -0.394 OA
ATOM     39  H   UNL     1      14.498 -32.981   2.087  1.00  0.00     0.210 HD
ENDBRANCH  37  38
ENDBRANCH  31  37
BRANCH  32  40
ATOM     40  O   UNL     1      17.065 -34.080   2.651  1.00  0.00    -0.387 OA
ATOM     41  H   UNL     1      16.522 -33.489   2.068  1.00  0.00     0.211 HD
ENDBRANCH  32  40
ENDBRANCH   1  27
TORSDOF 12
ENDMDL
MODEL 8
REMARK VINA RESULT:    -5.770      2.942      5.464
REMARK INTER + INTRA:         -10.463
REMARK INTER:                  -9.017
REMARK INTRA:                  -1.445
REMARK UNBOUND:                -1.994
REMARK SMILES O=c1c(O[C@@H]2O[C@@H](CO)[C@H](O)[C@H](O)[C@@H]2O)c(-c2ccc(O)c(O)c2)oc2cc(O)cc(O)c12
REMARK SMILES IDX 4 1 3 2 16 3 25 4 2 5 26 6 1 7 33 8 27 9 31 10 28 11 30 12
REMARK SMILES IDX 17 13 18 14 19 15 20 16 24 17 22 18 21 19 23 21 32 23 29 25
REMARK SMILES IDX 5 27 14 28 6 29 12 30 7 31 10 32 15 33 13 35 8 37 9 38 11 40
REMARK H PARENT 21 20 23 22 32 24 29 26 15 34 13 36 9 39 11 41
REMARK Flexibility Score: inf
ROOT
ATOM      1  O   UNL     1      13.944 -37.629  -2.832  1.00  0.00    -0.454 OA
ENDROOT
BRANCH   1   2
ATOM      2  C   UNL     1      14.680 -37.159  -1.733  1.00  0.00     0.214 A 
ATOM      3  C   UNL     1      14.479 -35.878  -1.178  1.00  0.00     0.180 A 
ATOM      4  O   UNL     1      15.298 -35.434  -0.233  1.00  0.00    -0.452 OA
ATOM      5  C   UNL     1      15.658 -37.989  -1.171  1.00  0.00     0.239 A 
ATOM      6  C   UNL     1      16.274 -36.166   0.290  1.00  0.00     0.146 A 
ATOM      7  O   UNL     1      15.819 -39.138  -1.659  1.00  0.00    -0.285 OA
ATOM      8  C   UNL     1      16.471 -37.512  -0.114  1.00  0.00     0.111 A 
ATOM      9  C   UNL     1      17.100 -35.586   1.256  1.00  0.00     0.094 A 
ATOM     10  C   UNL     1      17.493 -38.273   0.529  1.00  0.00     0.134 A 
ATOM     11  C   UNL     1      18.134 -36.323   1.836  1.00  0.00     0.123 A 
ATOM     12  C   UNL     1      18.325 -37.654   1.470  1.00  0.00     0.093 A 
BRANCH   3  13
ATOM     13  C   UNL     1      13.359 -35.007  -1.585  1.00  0.00     0.025 A 
ATOM     14  C   UNL     1      13.576 -33.982  -2.518  1.00  0.00     0.016 A 
ATOM     15  C   UNL     1      12.529 -33.134  -2.888  1.00  0.00     0.051 A 
ATOM     16  C   UNL     1      11.260 -33.286  -2.313  1.00  0.00     0.157 A 
ATOM     17  C   UNL     1      12.091 -35.149  -0.999  1.00  0.00     0.062 A 
ATOM     18  C   UNL     1      11.043 -34.289  -1.359  1.00  0.00     0.158 A 
BRANCH  16  19
ATOM     19  O   UNL     1      10.213 -32.441  -2.676  1.00  0.00    -0.504 OA
ATOM     20  H   UNL     1       9.688 -31.919  -1.983  1.00  0.00     0.293 HD
ENDBRANCH  16  19
BRANCH  18  21
ATOM     21  O   UNL     1       9.787 -34.421  -0.769  1.00  0.00    -0.504 OA
ATOM     22  H   UNL     1       9.680 -34.777   0.174  1.00  0.00     0.293 HD
ENDBRANCH  18  21
ENDBRANCH   3  13
BRANCH  10  23
ATOM     23  O   UNL     1      17.714 -39.634   0.301  1.00  0.00    -0.507 OA
ATOM     24  H   UNL     1      18.091 -40.278   0.981  1.00  0.00     0.293 HD
ENDBRANCH  10  23
BRANCH  11  25
ATOM     25  O   UNL     1      18.971 -35.743   2.787  1.00  0.00    -0.508 OA
ATOM     26  H   UNL     1      18.998 -34.740   2.928  1.00  0.00     0.293 HD
ENDBRANCH  11  25
ENDBRANCH   1   2
BRANCH   1  27
ATOM     27  C   UNL     1      12.565 -38.020  -2.766  1.00  0.00     0.339 C 
ATOM     28  C   UNL     1      11.808 -37.701  -4.073  1.00  0.00     0.214 C 
ATOM     29  O   UNL     1      12.445 -39.396  -2.445  1.00  0.00    -0.332 OA
ATOM     30  C   UNL     1      12.256 -38.603  -5.243  1.00  0.00     0.180 C 
ATOM     31  C   UNL     1      13.048 -40.223  -3.429  1.00  0.00     0.179 C 
ATOM     32  C   UNL     1      12.319 -40.081  -4.792  1.00  0.00     0.177 C 
BRANCH  28  33
ATOM     33  O   UNL     1      11.874 -36.335  -4.402  1.00  0.00    -0.384 OA
ATOM     34  H   UNL     1      10.969 -36.043  -4.679  1.00  0.00     0.211 HD
ENDBRANCH  28  33
BRANCH  30  35
ATOM     35  O   UNL     1      13.467 -38.169  -5.819  1.00  0.00    -0.387 OA
ATOM     36  H   UNL     1      14.201 -38.340  -5.177  1.00  0.00     0.211 HD
ENDBRANCH  30  35
BRANCH  31  37
ATOM     37  C   UNL     1      12.985 -41.673  -2.919  1.00  0.00     0.191 C 
BRANCH  37  38
ATOM     38  O   UNL     1      14.026 -42.449  -3.452  1.00  0.00    -0.394 OA
ATOM     39  H   UNL     1      14.838 -42.239  -2.921  1.00  0.00     0.210 HD
ENDBRANCH  37  38
ENDBRANCH  31  37
BRANCH  32  40
ATOM     40  O   UNL     1      12.969 -40.850  -5.772  1.00  0.00    -0.387 OA
ATOM     41  H   UNL     1      13.775 -41.239  -5.342  1.00  0.00     0.211 HD
ENDBRANCH  32  40
ENDBRANCH   1  27
TORSDOF 12
ENDMDL
MODEL 9
REMARK VINA RESULT:    -5.738      2.213      5.884
REMARK INTER + INTRA:         -10.415
REMARK INTER:                  -8.914
REMARK INTRA:                  -1.501
REMARK UNBOUND:                -1.994
REMARK SMILES O=c1c(O[C@@H]2O[C@@H](CO)[C@H](O)[C@H](O)[C@@H]2O)c(-c2ccc(O)c(O)c2)oc2cc(O)cc(O)c12
REMARK SMILES IDX 4 1 3 2 16 3 25 4 2 5 26 6 1 7 33 8 27 9 31 10 28 11 30 12
REMARK SMILES IDX 17 13 18 14 19 15 20 16 24 17 22 18 21 19 23 21 32 23 29 25
REMARK SMILES IDX 5 27 14 28 6 29 12 30 7 31 10 32 15 33 13 35 8 37 9 38 11 40
REMARK H PARENT 21 20 23 22 32 24 29 26 15 34 13 36 9 39 11 41
REMARK Flexibility Score: inf
ROOT
ATOM      1  O   UNL     1      14.814 -36.861  -0.499  1.00  0.00    -0.454 OA
ENDROOT
BRANCH   1   2
ATOM      2  C   UNL     1      13.756 -36.736  -1.412  1.00  0.00     0.214 A 
ATOM      3  C   UNL     1      12.781 -35.723  -1.308  1.00  0.00     0.180 A 
ATOM      4  O   UNL     1      11.727 -35.738  -2.114  1.00  0.00    -0.452 OA
ATOM      5  C   UNL     1      13.658 -37.658  -2.462  1.00  0.00     0.239 A 
ATOM      6  C   UNL     1      11.564 -36.626  -3.087  1.00  0.00     0.146 A 
ATOM      7  O   UNL     1      14.542 -38.548  -2.560  1.00  0.00    -0.285 OA
ATOM      8  C   UNL     1      12.557 -37.606  -3.351  1.00  0.00     0.111 A 
ATOM      9  C   UNL     1      10.399 -36.571  -3.855  1.00  0.00     0.094 A 
ATOM     10  C   UNL     1      12.362 -38.493  -4.452  1.00  0.00     0.134 A 
ATOM     11  C   UNL     1      10.192 -37.482  -4.892  1.00  0.00     0.123 A 
ATOM     12  C   UNL     1      11.167 -38.435  -5.182  1.00  0.00     0.093 A 
BRANCH   3  13
ATOM     13  C   UNL     1      12.899 -34.608  -0.348  1.00  0.00     0.025 A 
ATOM     14  C   UNL     1      13.653 -33.474  -0.686  1.00  0.00     0.016 A 
ATOM     15  C   UNL     1      13.795 -32.426   0.227  1.00  0.00     0.051 A 
ATOM     16  C   UNL     1      13.206 -32.509   1.495  1.00  0.00     0.157 A 
ATOM     17  C   UNL     1      12.322 -34.696   0.928  1.00  0.00     0.062 A 
ATOM     18  C   UNL     1      12.476 -33.651   1.850  1.00  0.00     0.158 A 
BRANCH  16  19
ATOM     19  O   UNL     1      13.347 -31.467   2.410  1.00  0.00    -0.504 OA
ATOM     20  H   UNL     1      12.715 -31.362   3.195  1.00  0.00     0.293 HD
ENDBRANCH  16  19
BRANCH  18  21
ATOM     21  O   UNL     1      11.913 -33.743   3.122  1.00  0.00    -0.504 OA
ATOM     22  H   UNL     1      11.500 -34.605   3.458  1.00  0.00     0.293 HD
ENDBRANCH  18  21
ENDBRANCH   3  13
BRANCH  10  23
ATOM     23  O   UNL     1      13.309 -39.426  -4.882  1.00  0.00    -0.507 OA
ATOM     24  H   UNL     1      13.095 -40.361  -5.197  1.00  0.00     0.293 HD
ENDBRANCH  10  23
BRANCH  11  25
ATOM     25  O   UNL     1       9.022 -37.443  -5.648  1.00  0.00    -0.508 OA
ATOM     26  H   UNL     1       8.982 -37.831  -6.583  1.00  0.00     0.293 HD
ENDBRANCH  11  25
ENDBRANCH   1   2
BRANCH   1  27
ATOM     27  C   UNL     1      16.054 -36.147  -0.604  1.00  0.00     0.339 C 
ATOM     28  C   UNL     1      16.657 -35.824   0.780  1.00  0.00     0.214 C 
ATOM     29  O   UNL     1      16.985 -36.866  -1.396  1.00  0.00    -0.332 OA
ATOM     30  C   UNL     1      17.170 -37.087   1.503  1.00  0.00     0.180 C 
ATOM     31  C   UNL     1      17.299 -38.129  -0.829  1.00  0.00     0.179 C 
ATOM     32  C   UNL     1      18.010 -37.958   0.540  1.00  0.00     0.177 C 
BRANCH  28  33
ATOM     33  O   UNL     1      15.773 -35.077   1.579  1.00  0.00    -0.384 OA
ATOM     34  H   UNL     1      15.054 -35.684   1.891  1.00  0.00     0.211 HD
ENDBRANCH  28  33
BRANCH  30  35
ATOM     35  O   UNL     1      16.127 -37.816   2.110  1.00  0.00    -0.387 OA
ATOM     36  H   UNL     1      16.521 -38.576   2.605  1.00  0.00     0.211 HD
ENDBRANCH  30  35
BRANCH  31  37
ATOM     37  C   UNL     1      18.199 -38.876  -1.828  1.00  0.00     0.191 C 
BRANCH  37  38
ATOM     38  O   UNL     1      19.548 -38.532  -1.656  1.00  0.00    -0.394 OA
ATOM     39  H   UNL     1      19.585 -37.892  -0.898  1.00  0.00     0.210 HD
ENDBRANCH  37  38
ENDBRANCH  31  37
BRANCH  32  40
ATOM     40  O   UNL     1      18.251 -39.214   1.122  1.00  0.00    -0.387 OA
ATOM     41  H   UNL     1      19.099 -39.551   0.732  1.00  0.00     0.211 HD
ENDBRANCH  32  40
ENDBRANCH   1  27
TORSDOF 12
ENDMDL
