MODEL 1
REMARK VINA RESULT:    -1.263      0.000      0.000
REMARK INTER + INTRA:          -9.005
REMARK INTER:                  -3.183
REMARK INTRA:                  -5.823
REMARK UNBOUND:                -5.823
REMARK SMILES CCCCCCCCCCCCCCCCCCCCCCCCCCCC(=O)[O-]
REMARK SMILES IDX 15 1 16 2 17 3 18 4 19 5 20 6 21 7 22 8 23 9 24 10 25 11
REMARK SMILES IDX 26 12 27 13 28 14 29 15 30 16 14 17 13 18 12 19 11 20 10 21
REMARK SMILES IDX 9 22 8 23 7 24 6 25 5 26 4 27 3 28 2 29 1 30
REMARK H PARENT
REMARK Flexibility Score: inf
ROOT
ATOM      1  C   UNL     1      20.748  26.233  15.426  1.00  0.00     0.000 C 
ENDROOT
BRANCH   1   2
ATOM      2  C   UNL     1      20.277  26.794  14.071  1.00  0.00     0.000 C 
BRANCH   2   3
ATOM      3  C   UNL     1      21.371  26.796  12.982  1.00  0.00     0.000 C 
BRANCH   3   4
ATOM      4  C   UNL     1      21.882  28.211  12.665  1.00  0.00     0.000 C 
BRANCH   4   5
ATOM      5  C   UNL     1      23.284  28.199  12.014  1.00  0.00     0.000 C 
BRANCH   5   6
ATOM      6  C   UNL     1      24.325  29.047  12.771  1.00  0.00     0.000 C 
BRANCH   6   7
ATOM      7  C   UNL     1      23.815  29.685  14.077  1.00  0.00     0.000 C 
BRANCH   7   8
ATOM      8  C   UNL     1      24.376  29.057  15.371  1.00  0.00     0.000 C 
BRANCH   8   9
ATOM      9  C   UNL     1      25.398  27.924  15.157  1.00  0.00     0.000 C 
BRANCH   9  10
ATOM     10  C   UNL     1      24.950  26.538  15.665  1.00  0.00     0.000 C 
BRANCH  10  11
ATOM     11  C   UNL     1      24.366  25.605  14.584  1.00  0.00     0.000 C 
BRANCH  11  12
ATOM     12  C   UNL     1      24.268  24.123  14.988  1.00  0.00     0.006 C 
BRANCH  12  13
ATOM     13  C   UNL     1      25.558  23.341  14.707  1.00  0.00     0.053 C 
BRANCH  13  14
ATOM     14  C   UNL     1      25.293  22.231  13.740  1.00  0.00     0.041 C 
ATOM     15  O   UNL     1      24.420  22.367  12.843  1.00  0.00    -0.550 OA
ATOM     16  O   UNL     1      26.051  21.069  13.792  1.00  0.00    -0.550 OA
ENDBRANCH  13  14
ENDBRANCH  12  13
ENDBRANCH  11  12
ENDBRANCH  10  11
ENDBRANCH   9  10
ENDBRANCH   8   9
ENDBRANCH   7   8
ENDBRANCH   6   7
ENDBRANCH   5   6
ENDBRANCH   4   5
ENDBRANCH   3   4
ENDBRANCH   2   3
ENDBRANCH   1   2
BRANCH   1  17
ATOM     17  C   UNL     1      21.424  27.255  16.355  1.00  0.00     0.000 C 
BRANCH  17  18
ATOM     18  C   UNL     1      20.453  28.339  16.852  1.00  0.00     0.000 C 
BRANCH  18  19
ATOM     19  C   UNL     1      21.137  29.699  17.081  1.00  0.00     0.000 C 
BRANCH  19  20
ATOM     20  C   UNL     1      21.642  29.952  18.518  1.00  0.00     0.000 C 
BRANCH  20  21
ATOM     21  C   UNL     1      23.163  29.827  18.717  1.00  0.00     0.000 C 
BRANCH  21  22
ATOM     22  C   UNL     1      23.601  28.406  19.114  1.00  0.00    -0.000 C 
BRANCH  22  23
ATOM     23  C   UNL     1      23.219  28.059  20.568  1.00  0.00    -0.000 C 
BRANCH  23  24
ATOM     24  C   UNL     1      22.788  26.594  20.776  1.00  0.00    -0.000 C 
BRANCH  24  25
ATOM     25  C   UNL     1      21.600  26.125  19.914  1.00  0.00    -0.000 C 
BRANCH  25  26
ATOM     26  C   UNL     1      21.808  24.764  19.217  1.00  0.00    -0.000 C 
BRANCH  26  27
ATOM     27  C   UNL     1      23.046  24.725  18.290  1.00  0.00    -0.000 C 
BRANCH  27  28
ATOM     28  C   UNL     1      24.153  23.777  18.787  1.00  0.00    -0.000 C 
BRANCH  28  29
ATOM     29  C   UNL     1      25.583  24.280  18.523  1.00  0.00    -0.003 C 
ATOM     30  C   UNL     1      26.035  25.335  19.533  1.00  0.00     0.004 C 
ENDBRANCH  28  29
ENDBRANCH  27  28
ENDBRANCH  26  27
ENDBRANCH  25  26
ENDBRANCH  24  25
ENDBRANCH  23  24
ENDBRANCH  22  23
ENDBRANCH  21  22
ENDBRANCH  20  21
ENDBRANCH  19  20
ENDBRANCH  18  19
ENDBRANCH  17  18
ENDBRANCH   1  17
TORSDOF 26
ENDMDL
MODEL 2
REMARK VINA RESULT:    -1.257      2.578      5.682
REMARK INTER + INTRA:          -8.990
REMARK INTER:                  -2.597
REMARK INTRA:                  -6.393
REMARK UNBOUND:                -5.823
REMARK SMILES CCCCCCCCCCCCCCCCCCCCCCCCCCCC(=O)[O-]
REMARK SMILES IDX 15 1 16 2 17 3 18 4 19 5 20 6 21 7 22 8 23 9 24 10 25 11
REMARK SMILES IDX 26 12 27 13 28 14 29 15 30 16 14 17 13 18 12 19 11 20 10 21
REMARK SMILES IDX 9 22 8 23 7 24 6 25 5 26 4 27 3 28 2 29 1 30
REMARK H PARENT
REMARK Flexibility Score: inf
ROOT
ATOM      1  C   UNL     1      22.814  25.487  16.061  1.00  0.00     0.000 C 
ENDROOT
BRANCH   1   2
ATOM      2  C   UNL     1      23.927  24.450  15.819  1.00  0.00     0.000 C 
BRANCH   2   3
ATOM      3  C   UNL     1      24.336  24.307  14.338  1.00  0.00     0.000 C 
BRANCH   3   4
ATOM      4  C   UNL     1      23.225  24.761  13.375  1.00  0.00     0.000 C 
BRANCH   4   5
ATOM      5  C   UNL     1      22.583  23.578  12.616  1.00  0.00     0.000 C 
BRANCH   5   6
ATOM      6  C   UNL     1      21.054  23.493  12.782  1.00  0.00     0.000 C 
BRANCH   6   7
ATOM      7  C   UNL     1      20.542  22.176  13.395  1.00  0.00     0.000 C 
BRANCH   7   8
ATOM      8  C   UNL     1      21.420  21.600  14.526  1.00  0.00     0.000 C 
BRANCH   8   9
ATOM      9  C   UNL     1      21.166  22.201  15.922  1.00  0.00     0.000 C 
BRANCH   9  10
ATOM     10  C   UNL     1      21.895  21.489  17.080  1.00  0.00     0.000 C 
BRANCH  10  11
ATOM     11  C   UNL     1      22.121  22.354  18.338  1.00  0.00     0.000 C 
BRANCH  11  12
ATOM     12  C   UNL     1      23.442  22.088  19.081  1.00  0.00     0.006 C 
BRANCH  12  13
ATOM     13  C   UNL     1      23.995  23.336  19.781  1.00  0.00     0.053 C 
BRANCH  13  14
ATOM     14  C   UNL     1      25.274  23.770  19.138  1.00  0.00     0.041 C 
ATOM     15  O   UNL     1      25.658  24.965  19.234  1.00  0.00    -0.550 OA
ATOM     16  O   UNL     1      26.073  22.841  18.485  1.00  0.00    -0.550 OA
ENDBRANCH  13  14
ENDBRANCH  12  13
ENDBRANCH  11  12
ENDBRANCH  10  11
ENDBRANCH   9  10
ENDBRANCH   8   9
ENDBRANCH   7   8
ENDBRANCH   6   7
ENDBRANCH   5   6
ENDBRANCH   4   5
ENDBRANCH   3   4
ENDBRANCH   2   3
ENDBRANCH   1   2
BRANCH   1  17
ATOM     17  C   UNL     1      22.644  25.933  17.522  1.00  0.00     0.000 C 
BRANCH  17  18
ATOM     18  C   UNL     1      21.842  27.239  17.655  1.00  0.00     0.000 C 
BRANCH  18  19
ATOM     19  C   UNL     1      22.726  28.454  17.992  1.00  0.00     0.000 C 
BRANCH  19  20
ATOM     20  C   UNL     1      24.170  28.121  18.426  1.00  0.00     0.000 C 
BRANCH  20  21
ATOM     21  C   UNL     1      25.277  28.624  17.480  1.00  0.00     0.000 C 
BRANCH  21  22
ATOM     22  C   UNL     1      25.966  27.486  16.706  1.00  0.00    -0.000 C 
BRANCH  22  23
ATOM     23  C   UNL     1      25.772  27.611  15.181  1.00  0.00    -0.000 C 
BRANCH  23  24
ATOM     24  C   UNL     1      24.645  28.575  14.765  1.00  0.00    -0.000 C 
BRANCH  24  25
ATOM     25  C   UNL     1      24.157  28.437  13.309  1.00  0.00    -0.000 C 
BRANCH  25  26
ATOM     26  C   UNL     1      22.625  28.358  13.149  1.00  0.00    -0.000 C 
BRANCH  26  27
ATOM     27  C   UNL     1      21.845  28.934  14.354  1.00  0.00    -0.000 C 
BRANCH  27  28
ATOM     28  C   UNL     1      20.398  28.414  14.452  1.00  0.00    -0.000 C 
BRANCH  28  29
ATOM     29  C   UNL     1      20.201  26.986  13.913  1.00  0.00    -0.003 C 
ATOM     30  C   UNL     1      19.413  26.095  14.873  1.00  0.00     0.004 C 
ENDBRANCH  28  29
ENDBRANCH  27  28
ENDBRANCH  26  27
ENDBRANCH  25  26
ENDBRANCH  24  25
ENDBRANCH  23  24
ENDBRANCH  22  23
ENDBRANCH  21  22
ENDBRANCH  20  21
ENDBRANCH  19  20
ENDBRANCH  18  19
ENDBRANCH  17  18
ENDBRANCH   1  17
TORSDOF 26
ENDMDL
MODEL 3
REMARK VINA RESULT:    -1.252     19.253     22.928
REMARK INTER + INTRA:          -8.979
REMARK INTER:                  -3.156
REMARK INTRA:                  -5.823
REMARK UNBOUND:                -5.823
REMARK SMILES CCCCCCCCCCCCCCCCCCCCCCCCCCCC(=O)[O-]
REMARK SMILES IDX 15 1 16 2 17 3 18 4 19 5 20 6 21 7 22 8 23 9 24 10 25 11
REMARK SMILES IDX 26 12 27 13 28 14 29 15 30 16 14 17 13 18 12 19 11 20 10 21
REMARK SMILES IDX 9 22 8 23 7 24 6 25 5 26 4 27 3 28 2 29 1 30
REMARK H PARENT
REMARK Flexibility Score: inf
ROOT
ATOM      1  C   UNL     1      13.016  12.638  29.600  1.00  0.00     0.000 C 
ENDROOT
BRANCH   1   2
ATOM      2  C   UNL     1      12.273  13.093  30.870  1.00  0.00     0.000 C 
BRANCH   2   3
ATOM      3  C   UNL     1      11.143  14.109  30.601  1.00  0.00     0.000 C 
BRANCH   3   4
ATOM      4  C   UNL     1      10.952  14.392  29.101  1.00  0.00     0.000 C 
BRANCH   4   5
ATOM      5  C   UNL     1       9.465  14.372  28.683  1.00  0.00     0.000 C 
BRANCH   5   6
ATOM      6  C   UNL     1       9.249  14.475  27.161  1.00  0.00     0.000 C 
BRANCH   6   7
ATOM      7  C   UNL     1      10.540  14.468  26.321  1.00  0.00     0.000 C 
BRANCH   7   8
ATOM      8  C   UNL     1      10.815  15.769  25.537  1.00  0.00     0.000 C 
BRANCH   8   9
ATOM      9  C   UNL     1      11.589  16.850  26.315  1.00  0.00     0.000 C 
BRANCH   9  10
ATOM     10  C   UNL     1      10.713  17.936  26.970  1.00  0.00     0.000 C 
BRANCH  10  11
ATOM     11  C   UNL     1       9.284  18.053  26.400  1.00  0.00     0.000 C 
BRANCH  11  12
ATOM     12  C   UNL     1       8.157  17.971  27.445  1.00  0.00     0.006 C 
BRANCH  12  13
ATOM     13  C   UNL     1       8.681  17.876  28.883  1.00  0.00     0.053 C 
BRANCH  13  14
ATOM     14  C   UNL     1       7.580  17.479  29.813  1.00  0.00     0.041 C 
ATOM     15  O   UNL     1       6.377  17.595  29.458  1.00  0.00    -0.550 OA
ATOM     16  O   UNL     1       7.881  16.923  31.050  1.00  0.00    -0.550 OA
ENDBRANCH  13  14
ENDBRANCH  12  13
ENDBRANCH  11  12
ENDBRANCH  10  11
ENDBRANCH   9  10
ENDBRANCH   8   9
ENDBRANCH   7   8
ENDBRANCH   6   7
ENDBRANCH   5   6
ENDBRANCH   4   5
ENDBRANCH   3   4
ENDBRANCH   2   3
ENDBRANCH   1   2
BRANCH   1  17
ATOM     17  C   UNL     1      12.962  11.127  29.320  1.00  0.00     0.000 C 
BRANCH  17  18
ATOM     18  C   UNL     1      11.577  10.661  28.839  1.00  0.00     0.000 C 
BRANCH  18  19
ATOM     19  C   UNL     1      11.310  11.000  27.361  1.00  0.00     0.000 C 
BRANCH  19  20
ATOM     20  C   UNL     1       9.843  10.848  26.903  1.00  0.00     0.000 C 
BRANCH  20  21
ATOM     21  C   UNL     1       8.798  10.803  28.033  1.00  0.00     0.000 C 
BRANCH  21  22
ATOM     22  C   UNL     1       7.353  10.724  27.509  1.00  0.00    -0.000 C 
BRANCH  22  23
ATOM     23  C   UNL     1       6.608  12.070  27.635  1.00  0.00    -0.000 C 
BRANCH  23  24
ATOM     24  C   UNL     1       5.892  12.518  26.347  1.00  0.00    -0.000 C 
BRANCH  24  25
ATOM     25  C   UNL     1       5.875  11.484  25.204  1.00  0.00    -0.000 C 
BRANCH  25  26
ATOM     26  C   UNL     1       6.802  11.821  24.018  1.00  0.00    -0.000 C 
BRANCH  26  27
ATOM     27  C   UNL     1       7.719  13.040  24.274  1.00  0.00    -0.000 C 
BRANCH  27  28
ATOM     28  C   UNL     1       7.373  14.262  23.402  1.00  0.00    -0.000 C 
BRANCH  28  29
ATOM     29  C   UNL     1       7.491  15.613  24.128  1.00  0.00    -0.003 C 
ATOM     30  C   UNL     1       6.253  15.947  24.961  1.00  0.00     0.004 C 
ENDBRANCH  28  29
ENDBRANCH  27  28
ENDBRANCH  26  27
ENDBRANCH  25  26
ENDBRANCH  24  25
ENDBRANCH  23  24
ENDBRANCH  22  23
ENDBRANCH  21  22
ENDBRANCH  20  21
ENDBRANCH  19  20
ENDBRANCH  18  19
ENDBRANCH  17  18
ENDBRANCH   1  17
TORSDOF 26
ENDMDL
MODEL 4
REMARK VINA RESULT:    -1.207      2.300      5.801
REMARK INTER + INTRA:          -8.864
REMARK INTER:                  -3.460
REMARK INTRA:                  -5.404
REMARK UNBOUND:                -5.823
REMARK SMILES CCCCCCCCCCCCCCCCCCCCCCCCCCCC(=O)[O-]
REMARK SMILES IDX 15 1 16 2 17 3 18 4 19 5 20 6 21 7 22 8 23 9 24 10 25 11
REMARK SMILES IDX 26 12 27 13 28 14 29 15 30 16 14 17 13 18 12 19 11 20 10 21
REMARK SMILES IDX 9 22 8 23 7 24 6 25 5 26 4 27 3 28 2 29 1 30
REMARK H PARENT
REMARK Flexibility Score: inf
ROOT
ATOM      1  C   UNL     1      23.464  23.621  15.917  1.00  0.00     0.000 C 
ENDROOT
BRANCH   1   2
ATOM      2  C   UNL     1      22.496  24.629  16.564  1.00  0.00     0.000 C 
BRANCH   2   3
ATOM      3  C   UNL     1      21.101  24.044  16.872  1.00  0.00     0.000 C 
BRANCH   3   4
ATOM      4  C   UNL     1      20.101  24.274  15.726  1.00  0.00     0.000 C 
BRANCH   4   5
ATOM      5  C   UNL     1      19.579  22.949  15.126  1.00  0.00     0.000 C 
BRANCH   5   6
ATOM      6  C   UNL     1      20.576  22.268  14.168  1.00  0.00     0.000 C 
BRANCH   6   7
ATOM      7  C   UNL     1      20.825  23.023  12.849  1.00  0.00     0.000 C 
BRANCH   7   8
ATOM      8  C   UNL     1      22.252  22.883  12.278  1.00  0.00     0.000 C 
BRANCH   8   9
ATOM      9  C   UNL     1      23.063  21.695  12.829  1.00  0.00     0.000 C 
BRANCH   9  10
ATOM     10  C   UNL     1      24.417  21.450  12.133  1.00  0.00     0.000 C 
BRANCH  10  11
ATOM     11  C   UNL     1      25.659  21.702  13.012  1.00  0.00     0.000 C 
BRANCH  11  12
ATOM     12  C   UNL     1      26.125  20.493  13.842  1.00  0.00     0.006 C 
BRANCH  12  13
ATOM     13  C   UNL     1      25.979  20.712  15.353  1.00  0.00     0.053 C 
BRANCH  13  14
ATOM     14  C   UNL     1      25.117  19.648  15.953  1.00  0.00     0.041 C 
ATOM     15  O   UNL     1      24.019  19.344  15.416  1.00  0.00    -0.550 OA
ATOM     16  O   UNL     1      25.553  18.948  17.070  1.00  0.00    -0.550 OA
ENDBRANCH  13  14
ENDBRANCH  12  13
ENDBRANCH  11  12
ENDBRANCH  10  11
ENDBRANCH   9  10
ENDBRANCH   8   9
ENDBRANCH   7   8
ENDBRANCH   6   7
ENDBRANCH   5   6
ENDBRANCH   4   5
ENDBRANCH   3   4
ENDBRANCH   2   3
ENDBRANCH   1   2
BRANCH   1  17
ATOM     17  C   UNL     1      24.784  24.222  15.404  1.00  0.00     0.000 C 
BRANCH  17  18
ATOM     18  C   UNL     1      25.491  25.089  16.461  1.00  0.00     0.000 C 
BRANCH  18  19
ATOM     19  C   UNL     1      26.050  26.402  15.883  1.00  0.00     0.000 C 
BRANCH  19  20
ATOM     20  C   UNL     1      25.745  27.671  16.709  1.00  0.00     0.000 C 
BRANCH  20  21
ATOM     21  C   UNL     1      24.371  27.693  17.403  1.00  0.00     0.000 C 
BRANCH  21  22
ATOM     22  C   UNL     1      23.323  28.516  16.631  1.00  0.00    -0.000 C 
BRANCH  22  23
ATOM     23  C   UNL     1      23.916  29.812  16.038  1.00  0.00    -0.000 C 
BRANCH  23  24
ATOM     24  C   UNL     1      23.556  30.050  14.559  1.00  0.00    -0.000 C 
BRANCH  24  25
ATOM     25  C   UNL     1      24.442  29.315  13.534  1.00  0.00    -0.000 C 
BRANCH  25  26
ATOM     26  C   UNL     1      23.687  28.326  12.623  1.00  0.00    -0.000 C 
BRANCH  26  27
ATOM     27  C   UNL     1      23.577  26.900  13.212  1.00  0.00    -0.000 C 
BRANCH  27  28
ATOM     28  C   UNL     1      22.130  26.379  13.289  1.00  0.00    -0.000 C 
BRANCH  28  29
ATOM     29  C   UNL     1      21.116  27.404  13.829  1.00  0.00    -0.003 C 
ATOM     30  C   UNL     1      19.685  27.117  13.373  1.00  0.00     0.004 C 
ENDBRANCH  28  29
ENDBRANCH  27  28
ENDBRANCH  26  27
ENDBRANCH  25  26
ENDBRANCH  24  25
ENDBRANCH  23  24
ENDBRANCH  22  23
ENDBRANCH  21  22
ENDBRANCH  20  21
ENDBRANCH  19  20
ENDBRANCH  18  19
ENDBRANCH  17  18
ENDBRANCH   1  17
TORSDOF 26
ENDMDL
MODEL 5
REMARK VINA RESULT:    -1.197      2.696      5.413
REMARK INTER + INTRA:          -8.840
REMARK INTER:                  -3.259
REMARK INTRA:                  -5.581
REMARK UNBOUND:                -5.823
REMARK SMILES CCCCCCCCCCCCCCCCCCCCCCCCCCCC(=O)[O-]
REMARK SMILES IDX 15 1 16 2 17 3 18 4 19 5 20 6 21 7 22 8 23 9 24 10 25 11
REMARK SMILES IDX 26 12 27 13 28 14 29 15 30 16 14 17 13 18 12 19 11 20 10 21
REMARK SMILES IDX 9 22 8 23 7 24 6 25 5 26 4 27 3 28 2 29 1 30
REMARK H PARENT
REMARK Flexibility Score: inf
ROOT
ATOM      1  C   UNL     1      22.530  27.667  20.132  1.00  0.00     0.000 C 
ENDROOT
BRANCH   1   2
ATOM      2  C   UNL     1      23.921  27.035  20.323  1.00  0.00     0.000 C 
BRANCH   2   3
ATOM      3  C   UNL     1      24.996  27.590  19.364  1.00  0.00     0.000 C 
BRANCH   3   4
ATOM      4  C   UNL     1      25.501  26.530  18.370  1.00  0.00     0.000 C 
BRANCH   4   5
ATOM      5  C   UNL     1      25.947  27.148  17.026  1.00  0.00     0.000 C 
BRANCH   5   6
ATOM      6  C   UNL     1      25.181  28.431  16.650  1.00  0.00     0.000 C 
BRANCH   6   7
ATOM      7  C   UNL     1      24.114  28.250  15.553  1.00  0.00     0.000 C 
BRANCH   7   8
ATOM      8  C   UNL     1      24.113  29.340  14.460  1.00  0.00     0.000 C 
BRANCH   8   9
ATOM      9  C   UNL     1      24.935  29.005  13.201  1.00  0.00     0.000 C 
BRANCH   9  10
ATOM     10  C   UNL     1      24.100  28.654  11.953  1.00  0.00     0.000 C 
BRANCH  10  11
ATOM     11  C   UNL     1      23.578  27.204  11.902  1.00  0.00     0.000 C 
BRANCH  11  12
ATOM     12  C   UNL     1      22.045  27.064  11.876  1.00  0.00     0.006 C 
BRANCH  12  13
ATOM     13  C   UNL     1      21.420  27.075  13.276  1.00  0.00     0.053 C 
BRANCH  13  14
ATOM     14  C   UNL     1      20.600  28.311  13.470  1.00  0.00     0.041 C 
ATOM     15  O   UNL     1      19.828  28.709  12.559  1.00  0.00    -0.550 OA
ATOM     16  O   UNL     1      20.642  28.989  14.681  1.00  0.00    -0.550 OA
ENDBRANCH  13  14
ENDBRANCH  12  13
ENDBRANCH  11  12
ENDBRANCH  10  11
ENDBRANCH   9  10
ENDBRANCH   8   9
ENDBRANCH   7   8
ENDBRANCH   6   7
ENDBRANCH   5   6
ENDBRANCH   4   5
ENDBRANCH   3   4
ENDBRANCH   2   3
ENDBRANCH   1   2
BRANCH   1  17
ATOM     17  C   UNL     1      21.455  26.720  19.572  1.00  0.00     0.000 C 
BRANCH  17  18
ATOM     18  C   UNL     1      20.783  27.268  18.302  1.00  0.00     0.000 C 
BRANCH  18  19
ATOM     19  C   UNL     1      21.088  26.425  17.050  1.00  0.00     0.000 C 
BRANCH  19  20
ATOM     20  C   UNL     1      22.254  25.423  17.195  1.00  0.00     0.000 C 
BRANCH  20  21
ATOM     21  C   UNL     1      21.865  23.937  17.095  1.00  0.00     0.000 C 
BRANCH  21  22
ATOM     22  C   UNL     1      22.160  23.152  18.386  1.00  0.00    -0.000 C 
BRANCH  22  23
ATOM     23  C   UNL     1      23.494  23.573  19.038  1.00  0.00    -0.000 C 
BRANCH  23  24
ATOM     24  C   UNL     1      24.672  22.631  18.728  1.00  0.00    -0.000 C 
BRANCH  24  25
ATOM     25  C   UNL     1      25.607  23.090  17.592  1.00  0.00    -0.000 C 
BRANCH  25  26
ATOM     26  C   UNL     1      25.240  22.544  16.197  1.00  0.00    -0.000 C 
BRANCH  26  27
ATOM     27  C   UNL     1      25.636  23.489  15.037  1.00  0.00    -0.000 C 
BRANCH  27  28
ATOM     28  C   UNL     1      24.505  24.444  14.612  1.00  0.00    -0.000 C 
BRANCH  28  29
ATOM     29  C   UNL     1      23.735  23.995  13.358  1.00  0.00    -0.003 C 
ATOM     30  C   UNL     1      22.536  23.104  13.687  1.00  0.00     0.004 C 
ENDBRANCH  28  29
ENDBRANCH  27  28
ENDBRANCH  26  27
ENDBRANCH  25  26
ENDBRANCH  24  25
ENDBRANCH  23  24
ENDBRANCH  22  23
ENDBRANCH  21  22
ENDBRANCH  20  21
ENDBRANCH  19  20
ENDBRANCH  18  19
ENDBRANCH  17  18
ENDBRANCH   1  17
TORSDOF 26
ENDMDL
MODEL 6
REMARK VINA RESULT:    -1.193     17.549     21.083
REMARK INTER + INTRA:          -8.830
REMARK INTER:                  -2.585
REMARK INTRA:                  -6.245
REMARK UNBOUND:                -5.823
REMARK SMILES CCCCCCCCCCCCCCCCCCCCCCCCCCCC(=O)[O-]
REMARK SMILES IDX 15 1 16 2 17 3 18 4 19 5 20 6 21 7 22 8 23 9 24 10 25 11
REMARK SMILES IDX 26 12 27 13 28 14 29 15 30 16 14 17 13 18 12 19 11 20 10 21
REMARK SMILES IDX 9 22 8 23 7 24 6 25 5 26 4 27 3 28 2 29 1 30
REMARK H PARENT
REMARK Flexibility Score: inf
ROOT
ATOM      1  C   UNL     1       6.685  13.849  26.357  1.00  0.00     0.000 C 
ENDROOT
BRANCH   1   2
ATOM      2  C   UNL     1       6.572  15.135  27.198  1.00  0.00     0.000 C 
BRANCH   2   3
ATOM      3  C   UNL     1       7.799  15.402  28.096  1.00  0.00     0.000 C 
BRANCH   3   4
ATOM      4  C   UNL     1       8.985  14.483  27.760  1.00  0.00     0.000 C 
BRANCH   4   5
ATOM      5  C   UNL     1      10.015  14.406  28.909  1.00  0.00     0.000 C 
BRANCH   5   6
ATOM      6  C   UNL     1      11.350  13.753  28.501  1.00  0.00     0.000 C 
BRANCH   6   7
ATOM      7  C   UNL     1      11.919  14.231  27.152  1.00  0.00     0.000 C 
BRANCH   7   8
ATOM      8  C   UNL     1      13.253  13.572  26.738  1.00  0.00     0.000 C 
BRANCH   8   9
ATOM      9  C   UNL     1      13.114  12.299  25.881  1.00  0.00     0.000 C 
BRANCH   9  10
ATOM     10  C   UNL     1      13.536  12.456  24.407  1.00  0.00     0.000 C 
BRANCH  10  11
ATOM     11  C   UNL     1      14.334  13.738  24.089  1.00  0.00     0.000 C 
BRANCH  11  12
ATOM     12  C   UNL     1      13.554  14.816  23.316  1.00  0.00     0.006 C 
BRANCH  12  13
ATOM     13  C   UNL     1      13.497  16.159  24.055  1.00  0.00     0.053 C 
BRANCH  13  14
ATOM     14  C   UNL     1      14.856  16.535  24.555  1.00  0.00     0.041 C 
ATOM     15  O   UNL     1      15.091  16.565  25.791  1.00  0.00    -0.550 OA
ATOM     16  O   UNL     1      15.879  16.794  23.653  1.00  0.00    -0.550 OA
ENDBRANCH  13  14
ENDBRANCH  12  13
ENDBRANCH  11  12
ENDBRANCH  10  11
ENDBRANCH   9  10
ENDBRANCH   8   9
ENDBRANCH   7   8
ENDBRANCH   6   7
ENDBRANCH   5   6
ENDBRANCH   4   5
ENDBRANCH   3   4
ENDBRANCH   2   3
ENDBRANCH   1   2
BRANCH   1  17
ATOM     17  C   UNL     1       5.875  12.653  26.884  1.00  0.00     0.000 C 
BRANCH  17  18
ATOM     18  C   UNL     1       6.645  11.325  26.786  1.00  0.00     0.000 C 
BRANCH  18  19
ATOM     19  C   UNL     1       7.540  11.060  28.011  1.00  0.00     0.000 C 
BRANCH  19  20
ATOM     20  C   UNL     1       8.855  10.303  27.718  1.00  0.00     0.000 C 
BRANCH  20  21
ATOM     21  C   UNL     1       9.813  10.999  26.735  1.00  0.00     0.000 C 
BRANCH  21  22
ATOM     22  C   UNL     1      10.009  10.208  25.429  1.00  0.00    -0.000 C 
BRANCH  22  23
ATOM     23  C   UNL     1       9.968  11.115  24.181  1.00  0.00    -0.000 C 
BRANCH  23  24
ATOM     24  C   UNL     1       9.254  12.462  24.403  1.00  0.00    -0.000 C 
BRANCH  24  25
ATOM     25  C   UNL     1      10.085  13.716  24.069  1.00  0.00    -0.000 C 
BRANCH  25  26
ATOM     26  C   UNL     1       9.270  15.022  23.975  1.00  0.00    -0.000 C 
BRANCH  26  27
ATOM     27  C   UNL     1       9.972  16.239  24.621  1.00  0.00    -0.000 C 
BRANCH  27  28
ATOM     28  C   UNL     1       8.990  17.276  25.200  1.00  0.00    -0.000 C 
BRANCH  28  29
ATOM     29  C   UNL     1       9.650  18.347  26.087  1.00  0.00    -0.003 C 
ATOM     30  C   UNL     1      10.607  17.752  27.120  1.00  0.00     0.004 C 
ENDBRANCH  28  29
ENDBRANCH  27  28
ENDBRANCH  26  27
ENDBRANCH  25  26
ENDBRANCH  24  25
ENDBRANCH  23  24
ENDBRANCH  22  23
ENDBRANCH  21  22
ENDBRANCH  20  21
ENDBRANCH  19  20
ENDBRANCH  18  19
ENDBRANCH  17  18
ENDBRANCH   1  17
TORSDOF 26
ENDMDL
MODEL 7
REMARK VINA RESULT:    -1.161      3.051      6.270
REMARK INTER + INTRA:          -8.748
REMARK INTER:                  -3.619
REMARK INTRA:                  -5.129
REMARK UNBOUND:                -5.823
REMARK SMILES CCCCCCCCCCCCCCCCCCCCCCCCCCCC(=O)[O-]
REMARK SMILES IDX 15 1 16 2 17 3 18 4 19 5 20 6 21 7 22 8 23 9 24 10 25 11
REMARK SMILES IDX 26 12 27 13 28 14 29 15 30 16 14 17 13 18 12 19 11 20 10 21
REMARK SMILES IDX 9 22 8 23 7 24 6 25 5 26 4 27 3 28 2 29 1 30
REMARK H PARENT
REMARK Flexibility Score: inf
ROOT
ATOM      1  C   UNL     1      24.147  23.927  18.419  1.00  0.00     0.000 C 
ENDROOT
BRANCH   1   2
ATOM      2  C   UNL     1      24.522  25.384  18.750  1.00  0.00     0.000 C 
BRANCH   2   3
ATOM      3  C   UNL     1      25.844  25.851  18.104  1.00  0.00     0.000 C 
BRANCH   3   4
ATOM      4  C   UNL     1      26.084  25.207  16.728  1.00  0.00     0.000 C 
BRANCH   4   5
ATOM      5  C   UNL     1      25.418  26.000  15.581  1.00  0.00     0.000 C 
BRANCH   5   6
ATOM      6  C   UNL     1      25.729  27.509  15.611  1.00  0.00     0.000 C 
BRANCH   6   7
ATOM      7  C   UNL     1      24.494  28.422  15.736  1.00  0.00     0.000 C 
BRANCH   7   8
ATOM      8  C   UNL     1      24.223  29.321  14.511  1.00  0.00     0.000 C 
BRANCH   8   9
ATOM      9  C   UNL     1      24.732  28.766  13.167  1.00  0.00     0.000 C 
BRANCH   9  10
ATOM     10  C   UNL     1      23.637  28.205  12.237  1.00  0.00     0.000 C 
BRANCH  10  11
ATOM     11  C   UNL     1      23.455  26.674  12.291  1.00  0.00     0.000 C 
BRANCH  11  12
ATOM     12  C   UNL     1      22.043  26.200  12.677  1.00  0.00     0.006 C 
BRANCH  12  13
ATOM     13  C   UNL     1      21.377  27.097  13.728  1.00  0.00     0.053 C 
BRANCH  13  14
ATOM     14  C   UNL     1      20.076  27.626  13.212  1.00  0.00     0.041 C 
ATOM     15  O   UNL     1      19.006  27.388  13.830  1.00  0.00    -0.550 OA
ATOM     16  O   UNL     1      20.054  28.432  12.081  1.00  0.00    -0.550 OA
ENDBRANCH  13  14
ENDBRANCH  12  13
ENDBRANCH  11  12
ENDBRANCH  10  11
ENDBRANCH   9  10
ENDBRANCH   8   9
ENDBRANCH   7   8
ENDBRANCH   6   7
ENDBRANCH   5   6
ENDBRANCH   4   5
ENDBRANCH   3   4
ENDBRANCH   2   3
ENDBRANCH   1   2
BRANCH   1  17
ATOM     17  C   UNL     1      22.673  23.703  18.044  1.00  0.00     0.000 C 
BRANCH  17  18
ATOM     18  C   UNL     1      22.198  24.637  16.918  1.00  0.00     0.000 C 
BRANCH  18  19
ATOM     19  C   UNL     1      22.393  24.033  15.515  1.00  0.00     0.000 C 
BRANCH  19  20
ATOM     20  C   UNL     1      21.580  22.752  15.227  1.00  0.00     0.000 C 
BRANCH  20  21
ATOM     21  C   UNL     1      22.347  21.632  14.501  1.00  0.00     0.000 C 
BRANCH  21  22
ATOM     22  C   UNL     1      22.485  21.885  12.988  1.00  0.00    -0.000 C 
BRANCH  22  23
ATOM     23  C   UNL     1      23.771  22.664  12.639  1.00  0.00    -0.000 C 
BRANCH  23  24
ATOM     24  C   UNL     1      25.074  21.926  13.002  1.00  0.00    -0.000 C 
BRANCH  24  25
ATOM     25  C   UNL     1      25.917  22.579  14.115  1.00  0.00    -0.000 C 
BRANCH  25  26
ATOM     26  C   UNL     1      25.957  21.790  15.439  1.00  0.00    -0.000 C 
BRANCH  26  27
ATOM     27  C   UNL     1      25.704  20.274  15.265  1.00  0.00    -0.000 C 
BRANCH  27  28
ATOM     28  C   UNL     1      25.208  19.584  16.550  1.00  0.00    -0.000 C 
BRANCH  28  29
ATOM     29  C   UNL     1      24.141  20.379  17.324  1.00  0.00    -0.003 C 
ATOM     30  C   UNL     1      23.766  19.726  18.655  1.00  0.00     0.004 C 
ENDBRANCH  28  29
ENDBRANCH  27  28
ENDBRANCH  26  27
ENDBRANCH  25  26
ENDBRANCH  24  25
ENDBRANCH  23  24
ENDBRANCH  22  23
ENDBRANCH  21  22
ENDBRANCH  20  21
ENDBRANCH  19  20
ENDBRANCH  18  19
ENDBRANCH  17  18
ENDBRANCH   1  17
TORSDOF 26
ENDMDL
MODEL 8
REMARK VINA RESULT:    -1.151     18.661     22.139
REMARK INTER + INTRA:          -8.725
REMARK INTER:                  -2.855
REMARK INTRA:                  -5.869
REMARK UNBOUND:                -5.823
REMARK SMILES CCCCCCCCCCCCCCCCCCCCCCCCCCCC(=O)[O-]
REMARK SMILES IDX 15 1 16 2 17 3 18 4 19 5 20 6 21 7 22 8 23 9 24 10 25 11
REMARK SMILES IDX 26 12 27 13 28 14 29 15 30 16 14 17 13 18 12 19 11 20 10 21
REMARK SMILES IDX 9 22 8 23 7 24 6 25 5 26 4 27 3 28 2 29 1 30
REMARK H PARENT
REMARK Flexibility Score: inf
ROOT
ATOM      1  C   UNL     1       7.879  14.220  24.137  1.00  0.00     0.000 C 
ENDROOT
BRANCH   1   2
ATOM      2  C   UNL     1       7.811  14.787  25.567  1.00  0.00     0.000 C 
BRANCH   2   3
ATOM      3  C   UNL     1       6.403  14.725  26.197  1.00  0.00     0.000 C 
BRANCH   3   4
ATOM      4  C   UNL     1       6.152  15.873  27.190  1.00  0.00     0.000 C 
BRANCH   4   5
ATOM      5  C   UNL     1       7.456  16.596  27.595  1.00  0.00     0.000 C 
BRANCH   5   6
ATOM      6  C   UNL     1       7.698  16.629  29.117  1.00  0.00     0.000 C 
BRANCH   6   7
ATOM      7  C   UNL     1       8.949  15.865  29.590  1.00  0.00     0.000 C 
BRANCH   7   8
ATOM      8  C   UNL     1       9.320  14.633  28.737  1.00  0.00     0.000 C 
BRANCH   8   9
ATOM      9  C   UNL     1      10.726  14.058  28.997  1.00  0.00     0.000 C 
BRANCH   9  10
ATOM     10  C   UNL     1      11.890  14.920  28.467  1.00  0.00     0.000 C 
BRANCH  10  11
ATOM     11  C   UNL     1      11.625  15.616  27.116  1.00  0.00     0.000 C 
BRANCH  11  12
ATOM     12  C   UNL     1      11.976  17.114  27.075  1.00  0.00     0.006 C 
BRANCH  12  13
ATOM     13  C   UNL     1      10.741  18.019  27.165  1.00  0.00     0.053 C 
BRANCH  13  14
ATOM     14  C   UNL     1      10.933  19.056  28.227  1.00  0.00     0.041 C 
ATOM     15  O   UNL     1      11.017  18.716  29.436  1.00  0.00    -0.550 OA
ATOM     16  O   UNL     1      11.079  20.391  27.875  1.00  0.00    -0.550 OA
ENDBRANCH  13  14
ENDBRANCH  12  13
ENDBRANCH  11  12
ENDBRANCH  10  11
ENDBRANCH   9  10
ENDBRANCH   8   9
ENDBRANCH   7   8
ENDBRANCH   6   7
ENDBRANCH   5   6
ENDBRANCH   4   5
ENDBRANCH   3   4
ENDBRANCH   2   3
ENDBRANCH   1   2
BRANCH   1  17
ATOM     17  C   UNL     1       6.828  13.147  23.811  1.00  0.00     0.000 C 
BRANCH  17  18
ATOM     18  C   UNL     1       7.457  11.808  23.388  1.00  0.00     0.000 C 
BRANCH  18  19
ATOM     19  C   UNL     1       7.058  10.641  24.309  1.00  0.00     0.000 C 
BRANCH  19  20
ATOM     20  C   UNL     1       6.185  11.025  25.524  1.00  0.00     0.000 C 
BRANCH  20  21
ATOM     21  C   UNL     1       6.689  10.517  26.887  1.00  0.00     0.000 C 
BRANCH  21  22
ATOM     22  C   UNL     1       7.601  11.529  27.604  1.00  0.00    -0.000 C 
BRANCH  22  23
ATOM     23  C   UNL     1       8.926  10.895  28.076  1.00  0.00    -0.000 C 
BRANCH  23  24
ATOM     24  C   UNL     1       9.973  10.717  26.960  1.00  0.00    -0.000 C 
BRANCH  24  25
ATOM     25  C   UNL     1      10.086  11.888  25.964  1.00  0.00    -0.000 C 
BRANCH  25  26
ATOM     26  C   UNL     1      11.530  12.255  25.563  1.00  0.00    -0.000 C 
BRANCH  26  27
ATOM     27  C   UNL     1      11.611  13.247  24.379  1.00  0.00    -0.000 C 
BRANCH  27  28
ATOM     28  C   UNL     1      11.161  12.637  23.037  1.00  0.00    -0.000 C 
BRANCH  28  29
ATOM     29  C   UNL     1      10.852  13.673  21.943  1.00  0.00    -0.003 C 
ATOM     30  C   UNL     1       9.791  13.190  20.953  1.00  0.00     0.004 C 
ENDBRANCH  28  29
ENDBRANCH  27  28
ENDBRANCH  26  27
ENDBRANCH  25  26
ENDBRANCH  24  25
ENDBRANCH  23  24
ENDBRANCH  22  23
ENDBRANCH  21  22
ENDBRANCH  20  21
ENDBRANCH  19  20
ENDBRANCH  18  19
ENDBRANCH  17  18
ENDBRANCH   1  17
TORSDOF 26
ENDMDL
MODEL 9
REMARK VINA RESULT:    -1.145     18.441     21.687
REMARK INTER + INTRA:          -8.708
REMARK INTER:                  -2.552
REMARK INTRA:                  -6.157
REMARK UNBOUND:                -5.823
REMARK SMILES CCCCCCCCCCCCCCCCCCCCCCCCCCCC(=O)[O-]
REMARK SMILES IDX 15 1 16 2 17 3 18 4 19 5 20 6 21 7 22 8 23 9 24 10 25 11
REMARK SMILES IDX 26 12 27 13 28 14 29 15 30 16 14 17 13 18 12 19 11 20 10 21
REMARK SMILES IDX 9 22 8 23 7 24 6 25 5 26 4 27 3 28 2 29 1 30
REMARK H PARENT
REMARK Flexibility Score: inf
ROOT
ATOM      1  C   UNL     1       8.207  15.889  26.100  1.00  0.00     0.000 C 
ENDROOT
BRANCH   1   2
ATOM      2  C   UNL     1       6.835  15.726  25.419  1.00  0.00     0.000 C 
BRANCH   2   3
ATOM      3  C   UNL     1       5.875  14.777  26.168  1.00  0.00     0.000 C 
BRANCH   3   4
ATOM      4  C   UNL     1       6.613  13.843  27.142  1.00  0.00     0.000 C 
BRANCH   4   5
ATOM      5  C   UNL     1       5.992  12.429  27.187  1.00  0.00     0.000 C 
BRANCH   5   6
ATOM      6  C   UNL     1       6.989  11.327  27.592  1.00  0.00     0.000 C 
BRANCH   6   7
ATOM      7  C   UNL     1       7.112  10.164  26.589  1.00  0.00     0.000 C 
BRANCH   7   8
ATOM      8  C   UNL     1       6.828  10.540  25.118  1.00  0.00     0.000 C 
BRANCH   8   9
ATOM      9  C   UNL     1       8.053  11.025  24.319  1.00  0.00     0.000 C 
BRANCH   9  10
ATOM     10  C   UNL     1       8.148  12.552  24.134  1.00  0.00     0.000 C 
BRANCH  10  11
ATOM     11  C   UNL     1       9.511  13.065  23.626  1.00  0.00     0.000 C 
BRANCH  11  12
ATOM     12  C   UNL     1       9.500  13.633  22.195  1.00  0.00     0.006 C 
BRANCH  12  13
ATOM     13  C   UNL     1       8.662  14.911  22.066  1.00  0.00     0.053 C 
BRANCH  13  14
ATOM     14  C   UNL     1       7.483  14.672  21.177  1.00  0.00     0.041 C 
ATOM     15  O   UNL     1       6.743  15.631  20.834  1.00  0.00    -0.550 OA
ATOM     16  O   UNL     1       7.236  13.400  20.678  1.00  0.00    -0.550 OA
ENDBRANCH  13  14
ENDBRANCH  12  13
ENDBRANCH  11  12
ENDBRANCH  10  11
ENDBRANCH   9  10
ENDBRANCH   8   9
ENDBRANCH   7   8
ENDBRANCH   6   7
ENDBRANCH   5   6
ENDBRANCH   4   5
ENDBRANCH   3   4
ENDBRANCH   2   3
ENDBRANCH   1   2
BRANCH   1  17
ATOM     17  C   UNL     1       9.278  16.593  25.250  1.00  0.00     0.000 C 
BRANCH  17  18
ATOM     18  C   UNL     1      10.707  16.313  25.745  1.00  0.00     0.000 C 
BRANCH  18  19
ATOM     19  C   UNL     1      11.646  15.832  24.624  1.00  0.00     0.000 C 
BRANCH  19  20
ATOM     20  C   UNL     1      12.626  14.705  25.021  1.00  0.00     0.000 C 
BRANCH  20  21
ATOM     21  C   UNL     1      13.399  14.932  26.332  1.00  0.00     0.000 C 
BRANCH  21  22
ATOM     22  C   UNL     1      14.654  14.049  26.448  1.00  0.00    -0.000 C 
BRANCH  22  23
ATOM     23  C   UNL     1      14.400  12.774  27.281  1.00  0.00    -0.000 C 
BRANCH  23  24
ATOM     24  C   UNL     1      14.306  11.483  26.446  1.00  0.00    -0.000 C 
BRANCH  24  25
ATOM     25  C   UNL     1      13.044  10.631  26.683  1.00  0.00    -0.000 C 
BRANCH  25  26
ATOM     26  C   UNL     1      11.765  11.177  26.015  1.00  0.00    -0.000 C 
BRANCH  26  27
ATOM     27  C   UNL     1      10.608  11.437  27.009  1.00  0.00    -0.000 C 
BRANCH  27  28
ATOM     28  C   UNL     1      10.290  12.932  27.201  1.00  0.00    -0.000 C 
BRANCH  28  29
ATOM     29  C   UNL     1      10.836  13.532  28.508  1.00  0.00    -0.003 C 
ATOM     30  C   UNL     1       9.927  14.618  29.085  1.00  0.00     0.004 C 
ENDBRANCH  28  29
ENDBRANCH  27  28
ENDBRANCH  26  27
ENDBRANCH  25  26
ENDBRANCH  24  25
ENDBRANCH  23  24
ENDBRANCH  22  23
ENDBRANCH  21  22
ENDBRANCH  20  21
ENDBRANCH  19  20
ENDBRANCH  18  19
ENDBRANCH  17  18
ENDBRANCH   1  17
TORSDOF 26
ENDMDL
