MODEL 1
REMARK VINA RESULT:    -3.859      0.000      0.000
REMARK INTER + INTRA:         -10.707
REMARK INTER:                  -7.469
REMARK INTRA:                  -3.239
REMARK UNBOUND:                -3.239
REMARK SMILES CCCCCCCCCCCCCCCCCC(=O)[O-]
REMARK SMILES IDX 10 1 11 2 12 3 13 4 14 5 15 6 16 7 17 8 18 9 19 10 20 11
REMARK SMILES IDX 9 12 8 13 7 14 6 15 5 16 4 17 3 18 2 19 1 20
REMARK H PARENT
REMARK Flexibility Score: inf
ROOT
ATOM      1  C   UNL     1       3.362  28.578  28.214  1.00  0.00     0.000 C 
ENDROOT
BRANCH   1   2
ATOM      2  C   UNL     1       4.089  28.816  26.881  1.00  0.00     0.000 C 
BRANCH   2   3
ATOM      3  C   UNL     1       4.442  30.297  26.701  1.00  0.00     0.000 C 
BRANCH   3   4
ATOM      4  C   UNL     1       5.961  30.490  26.583  1.00  0.00     0.000 C 
BRANCH   4   5
ATOM      5  C   UNL     1       6.637  29.370  25.777  1.00  0.00     0.000 C 
BRANCH   5   6
ATOM      6  C   UNL     1       8.173  29.434  25.851  1.00  0.00     0.000 C 
BRANCH   6   7
ATOM      7  C   UNL     1       8.672  30.608  26.709  1.00  0.00     0.006 C 
BRANCH   7   8
ATOM      8  C   UNL     1       9.888  30.233  27.568  1.00  0.00     0.053 C 
BRANCH   8   9
ATOM      9  C   UNL     1      11.128  30.869  27.024  1.00  0.00     0.041 C 
ATOM     10  O   UNL     1      11.735  31.746  27.694  1.00  0.00    -0.550 OA
ATOM     11  O   UNL     1      11.588  30.527  25.759  1.00  0.00    -0.550 OA
ENDBRANCH   8   9
ENDBRANCH   7   8
ENDBRANCH   6   7
ENDBRANCH   5   6
ENDBRANCH   4   5
ENDBRANCH   3   4
ENDBRANCH   2   3
ENDBRANCH   1   2
BRANCH   1  12
ATOM     12  C   UNL     1       3.226  29.870  29.045  1.00  0.00     0.000 C 
BRANCH  12  13
ATOM     13  C   UNL     1       4.035  29.853  30.357  1.00  0.00    -0.000 C 
BRANCH  13  14
ATOM     14  C   UNL     1       5.175  30.884  30.428  1.00  0.00    -0.000 C 
BRANCH  14  15
ATOM     15  C   UNL     1       6.543  30.286  30.066  1.00  0.00    -0.000 C 
BRANCH  15  16
ATOM     16  C   UNL     1       6.559  28.769  30.307  1.00  0.00    -0.000 C 
BRANCH  16  17
ATOM     17  C   UNL     1       7.166  27.995  29.118  1.00  0.00    -0.000 C 
BRANCH  17  18
ATOM     18  C   UNL     1       6.587  26.581  28.942  1.00  0.00    -0.000 C 
BRANCH  18  19
ATOM     19  C   UNL     1       7.010  25.922  27.623  1.00  0.00    -0.003 C 
ATOM     20  C   UNL     1       8.499  26.127  27.359  1.00  0.00     0.004 C 
ENDBRANCH  18  19
ENDBRANCH  17  18
ENDBRANCH  16  17
ENDBRANCH  15  16
ENDBRANCH  14  15
ENDBRANCH  13  14
ENDBRANCH  12  13
ENDBRANCH   1  12
TORSDOF 16
ENDMDL
MODEL 2
REMARK VINA RESULT:    -3.831      1.517      4.197
REMARK INTER + INTRA:         -10.654
REMARK INTER:                  -7.568
REMARK INTRA:                  -3.086
REMARK UNBOUND:                -3.239
REMARK SMILES CCCCCCCCCCCCCCCCCC(=O)[O-]
REMARK SMILES IDX 10 1 11 2 12 3 13 4 14 5 15 6 16 7 17 8 18 9 19 10 20 11
REMARK SMILES IDX 9 12 8 13 7 14 6 15 5 16 4 17 3 18 2 19 1 20
REMARK H PARENT
REMARK Flexibility Score: inf
ROOT
ATOM      1  C   UNL     1       5.609  27.367  29.627  1.00  0.00     0.000 C 
ENDROOT
BRANCH   1   2
ATOM      2  C   UNL     1       5.681  28.859  29.987  1.00  0.00     0.000 C 
BRANCH   2   3
ATOM      3  C   UNL     1       7.049  29.220  30.575  1.00  0.00     0.000 C 
BRANCH   3   4
ATOM      4  C   UNL     1       7.478  30.631  30.145  1.00  0.00     0.000 C 
BRANCH   4   5
ATOM      5  C   UNL     1       8.826  31.048  30.752  1.00  0.00     0.000 C 
BRANCH   5   6
ATOM      6  C   UNL     1       9.856  31.448  29.681  1.00  0.00     0.000 C 
BRANCH   6   7
ATOM      7  C   UNL     1      11.254  30.877  29.965  1.00  0.00     0.006 C 
BRANCH   7   8
ATOM      8  C   UNL     1      11.762  29.975  28.832  1.00  0.00     0.053 C 
BRANCH   8   9
ATOM      9  C   UNL     1      12.542  30.776  27.836  1.00  0.00     0.041 C 
ATOM     10  O   UNL     1      12.007  31.131  26.752  1.00  0.00    -0.550 OA
ATOM     11  O   UNL     1      13.871  31.092  28.085  1.00  0.00    -0.550 OA
ENDBRANCH   8   9
ENDBRANCH   7   8
ENDBRANCH   6   7
ENDBRANCH   5   6
ENDBRANCH   4   5
ENDBRANCH   3   4
ENDBRANCH   2   3
ENDBRANCH   1   2
BRANCH   1  12
ATOM     12  C   UNL     1       6.990  26.788  29.254  1.00  0.00     0.000 C 
BRANCH  12  13
ATOM     13  C   UNL     1       7.061  26.222  27.822  1.00  0.00    -0.000 C 
BRANCH  13  14
ATOM     14  C   UNL     1       8.081  26.916  26.902  1.00  0.00    -0.000 C 
BRANCH  14  15
ATOM     15  C   UNL     1       8.790  28.097  27.583  1.00  0.00    -0.000 C 
BRANCH  15  16
ATOM     16  C   UNL     1       8.597  29.391  26.777  1.00  0.00    -0.000 C 
BRANCH  16  17
ATOM     17  C   UNL     1       7.206  29.465  26.114  1.00  0.00    -0.000 C 
BRANCH  17  18
ATOM     18  C   UNL     1       6.294  30.550  26.713  1.00  0.00    -0.000 C 
BRANCH  18  19
ATOM     19  C   UNL     1       4.802  30.248  26.524  1.00  0.00    -0.003 C 
ATOM     20  C   UNL     1       4.561  28.751  26.350  1.00  0.00     0.004 C 
ENDBRANCH  18  19
ENDBRANCH  17  18
ENDBRANCH  16  17
ENDBRANCH  15  16
ENDBRANCH  14  15
ENDBRANCH  13  14
ENDBRANCH  12  13
ENDBRANCH   1  12
TORSDOF 16
ENDMDL
MODEL 3
REMARK VINA RESULT:    -3.803      3.204      6.193
REMARK INTER + INTRA:         -10.600
REMARK INTER:                  -8.082
REMARK INTRA:                  -2.517
REMARK UNBOUND:                -3.239
REMARK SMILES CCCCCCCCCCCCCCCCCC(=O)[O-]
REMARK SMILES IDX 10 1 11 2 12 3 13 4 14 5 15 6 16 7 17 8 18 9 19 10 20 11
REMARK SMILES IDX 9 12 8 13 7 14 6 15 5 16 4 17 3 18 2 19 1 20
REMARK H PARENT
REMARK Flexibility Score: inf
ROOT
ATOM      1  C   UNL     1       8.759  30.630  29.699  1.00  0.00     0.000 C 
ENDROOT
BRANCH   1   2
ATOM      2  C   UNL     1       8.663  30.446  28.176  1.00  0.00     0.000 C 
BRANCH   2   3
ATOM      3  C   UNL     1       9.247  29.096  27.745  1.00  0.00     0.000 C 
BRANCH   3   4
ATOM      4  C   UNL     1       8.844  28.757  26.303  1.00  0.00     0.000 C 
BRANCH   4   5
ATOM      5  C   UNL     1       7.636  29.574  25.821  1.00  0.00     0.000 C 
BRANCH   5   6
ATOM      6  C   UNL     1       6.352  28.730  25.729  1.00  0.00     0.000 C 
BRANCH   6   7
ATOM      7  C   UNL     1       5.078  29.584  25.812  1.00  0.00     0.006 C 
BRANCH   7   8
ATOM      8  C   UNL     1       5.204  30.732  26.823  1.00  0.00     0.053 C 
BRANCH   8   9
ATOM      9  C   UNL     1       4.524  30.375  28.108  1.00  0.00     0.041 C 
ATOM     10  O   UNL     1       5.110  30.564  29.207  1.00  0.00    -0.550 OA
ATOM     11  O   UNL     1       3.265  29.791  28.089  1.00  0.00    -0.550 OA
ENDBRANCH   8   9
ENDBRANCH   7   8
ENDBRANCH   6   7
ENDBRANCH   5   6
ENDBRANCH   4   5
ENDBRANCH   3   4
ENDBRANCH   2   3
ENDBRANCH   1   2
BRANCH   1  12
ATOM     12  C   UNL     1       9.567  31.886  30.087  1.00  0.00     0.000 C 
BRANCH  12  13
ATOM     13  C   UNL     1      10.938  31.573  30.718  1.00  0.00    -0.000 C 
BRANCH  13  14
ATOM     14  C   UNL     1      12.149  31.877  29.819  1.00  0.00    -0.000 C 
BRANCH  14  15
ATOM     15  C   UNL     1      12.508  30.708  28.889  1.00  0.00    -0.000 C 
BRANCH  15  16
ATOM     16  C   UNL     1      12.793  31.207  27.465  1.00  0.00    -0.000 C 
BRANCH  16  17
ATOM     17  C   UNL     1      11.672  32.124  26.932  1.00  0.00    -0.000 C 
BRANCH  17  18
ATOM     18  C   UNL     1      11.065  31.647  25.602  1.00  0.00    -0.000 C 
BRANCH  18  19
ATOM     19  C   UNL     1       9.796  32.416  25.214  1.00  0.00    -0.003 C 
ATOM     20  C   UNL     1      10.131  33.638  24.363  1.00  0.00     0.004 C 
ENDBRANCH  18  19
ENDBRANCH  17  18
ENDBRANCH  16  17
ENDBRANCH  15  16
ENDBRANCH  14  15
ENDBRANCH  13  14
ENDBRANCH  12  13
ENDBRANCH   1  12
TORSDOF 16
ENDMDL
MODEL 4
REMARK VINA RESULT:    -3.779      1.949      4.186
REMARK INTER + INTRA:         -10.552
REMARK INTER:                  -7.537
REMARK INTRA:                  -3.015
REMARK UNBOUND:                -3.239
REMARK SMILES CCCCCCCCCCCCCCCCCC(=O)[O-]
REMARK SMILES IDX 10 1 11 2 12 3 13 4 14 5 15 6 16 7 17 8 18 9 19 10 20 11
REMARK SMILES IDX 9 12 8 13 7 14 6 15 5 16 4 17 3 18 2 19 1 20
REMARK H PARENT
REMARK Flexibility Score: inf
ROOT
ATOM      1  C   UNL     1       5.656  25.178  24.734  1.00  0.00     0.000 C 
ENDROOT
BRANCH   1   2
ATOM      2  C   UNL     1       5.214  26.554  25.256  1.00  0.00     0.000 C 
BRANCH   2   3
ATOM      3  C   UNL     1       5.451  27.646  24.205  1.00  0.00     0.000 C 
BRANCH   3   4
ATOM      4  C   UNL     1       6.792  28.355  24.442  1.00  0.00     0.000 C 
BRANCH   4   5
ATOM      5  C   UNL     1       7.798  28.110  23.307  1.00  0.00     0.000 C 
BRANCH   5   6
ATOM      6  C   UNL     1       9.224  28.554  23.677  1.00  0.00     0.000 C 
BRANCH   6   7
ATOM      7  C   UNL     1       9.262  29.417  24.948  1.00  0.00     0.006 C 
BRANCH   7   8
ATOM      8  C   UNL     1      10.004  30.744  24.736  1.00  0.00     0.053 C 
BRANCH   8   9
ATOM      9  C   UNL     1      11.437  30.612  25.147  1.00  0.00     0.041 C 
ATOM     10  O   UNL     1      12.296  30.200  24.322  1.00  0.00    -0.550 OA
ATOM     11  O   UNL     1      11.816  30.900  26.451  1.00  0.00    -0.550 OA
ENDBRANCH   8   9
ENDBRANCH   7   8
ENDBRANCH   6   7
ENDBRANCH   5   6
ENDBRANCH   4   5
ENDBRANCH   3   4
ENDBRANCH   2   3
ENDBRANCH   1   2
BRANCH   1  12
ATOM     12  C   UNL     1       7.033  24.756  25.288  1.00  0.00     0.000 C 
BRANCH  12  13
ATOM     13  C   UNL     1       7.256  25.144  26.763  1.00  0.00    -0.000 C 
BRANCH  13  14
ATOM     14  C   UNL     1       8.517  25.984  27.027  1.00  0.00    -0.000 C 
BRANCH  14  15
ATOM     15  C   UNL     1       8.205  27.336  27.688  1.00  0.00    -0.000 C 
BRANCH  15  16
ATOM     16  C   UNL     1       6.860  27.286  28.428  1.00  0.00    -0.000 C 
BRANCH  16  17
ATOM     17  C   UNL     1       6.082  28.614  28.316  1.00  0.00    -0.000 C 
BRANCH  17  18
ATOM     18  C   UNL     1       6.957  29.808  27.898  1.00  0.00    -0.000 C 
BRANCH  18  19
ATOM     19  C   UNL     1       6.276  30.716  26.866  1.00  0.00    -0.003 C 
ATOM     20  C   UNL     1       4.766  30.494  26.849  1.00  0.00     0.004 C 
ENDBRANCH  18  19
ENDBRANCH  17  18
ENDBRANCH  16  17
ENDBRANCH  15  16
ENDBRANCH  14  15
ENDBRANCH  13  14
ENDBRANCH  12  13
ENDBRANCH   1  12
TORSDOF 16
ENDMDL
MODEL 5
REMARK VINA RESULT:    -3.744      1.671      4.697
REMARK INTER + INTRA:         -10.485
REMARK INTER:                  -7.371
REMARK INTRA:                  -3.114
REMARK UNBOUND:                -3.239
REMARK SMILES CCCCCCCCCCCCCCCCCC(=O)[O-]
REMARK SMILES IDX 10 1 11 2 12 3 13 4 14 5 15 6 16 7 17 8 18 9 19 10 20 11
REMARK SMILES IDX 9 12 8 13 7 14 6 15 5 16 4 17 3 18 2 19 1 20
REMARK H PARENT
REMARK Flexibility Score: inf
ROOT
ATOM      1  C   UNL     1       7.374  25.270  25.864  1.00  0.00     0.000 C 
ENDROOT
BRANCH   1   2
ATOM      2  C   UNL     1       8.234  25.798  27.024  1.00  0.00     0.000 C 
BRANCH   2   3
ATOM      3  C   UNL     1       7.358  26.256  28.196  1.00  0.00     0.000 C 
BRANCH   3   4
ATOM      4  C   UNL     1       7.325  27.788  28.292  1.00  0.00     0.000 C 
BRANCH   4   5
ATOM      5  C   UNL     1       8.483  28.452  27.532  1.00  0.00     0.000 C 
BRANCH   5   6
ATOM      6  C   UNL     1       8.586  29.961  27.815  1.00  0.00     0.000 C 
BRANCH   6   7
ATOM      7  C   UNL     1       8.568  30.805  26.531  1.00  0.00     0.006 C 
BRANCH   7   8
ATOM      8  C   UNL     1       8.927  29.986  25.284  1.00  0.00     0.053 C 
BRANCH   8   9
ATOM      9  C   UNL     1      10.212  30.473  24.691  1.00  0.00     0.041 C 
ATOM     10  O   UNL     1      10.837  29.759  23.862  1.00  0.00    -0.550 OA
ATOM     11  O   UNL     1      10.742  31.694  25.087  1.00  0.00    -0.550 OA
ENDBRANCH   8   9
ENDBRANCH   7   8
ENDBRANCH   6   7
ENDBRANCH   5   6
ENDBRANCH   4   5
ENDBRANCH   3   4
ENDBRANCH   2   3
ENDBRANCH   1   2
BRANCH   1  12
ATOM     12  C   UNL     1       7.492  26.148  24.601  1.00  0.00     0.000 C 
BRANCH  12  13
ATOM     13  C   UNL     1       6.491  27.319  24.561  1.00  0.00    -0.000 C 
BRANCH  13  14
ATOM     14  C   UNL     1       5.057  26.958  24.986  1.00  0.00    -0.000 C 
BRANCH  14  15
ATOM     15  C   UNL     1       4.366  28.085  25.768  1.00  0.00    -0.000 C 
BRANCH  15  16
ATOM     16  C   UNL     1       5.171  29.390  25.676  1.00  0.00    -0.000 C 
BRANCH  16  17
ATOM     17  C   UNL     1       4.724  30.428  26.727  1.00  0.00    -0.000 C 
BRANCH  17  18
ATOM     18  C   UNL     1       3.620  29.916  27.668  1.00  0.00    -0.000 C 
BRANCH  18  19
ATOM     19  C   UNL     1       4.000  30.028  29.150  1.00  0.00    -0.003 C 
ATOM     20  C   UNL     1       5.351  30.715  29.322  1.00  0.00     0.004 C 
ENDBRANCH  18  19
ENDBRANCH  17  18
ENDBRANCH  16  17
ENDBRANCH  15  16
ENDBRANCH  14  15
ENDBRANCH  13  14
ENDBRANCH  12  13
ENDBRANCH   1  12
TORSDOF 16
ENDMDL
MODEL 6
REMARK VINA RESULT:    -3.737      1.988      4.349
REMARK INTER + INTRA:         -10.470
REMARK INTER:                  -7.509
REMARK INTRA:                  -2.962
REMARK UNBOUND:                -3.239
REMARK SMILES CCCCCCCCCCCCCCCCCC(=O)[O-]
REMARK SMILES IDX 10 1 11 2 12 3 13 4 14 5 15 6 16 7 17 8 18 9 19 10 20 11
REMARK SMILES IDX 9 12 8 13 7 14 6 15 5 16 4 17 3 18 2 19 1 20
REMARK H PARENT
REMARK Flexibility Score: inf
ROOT
ATOM      1  C   UNL     1       7.585  25.368  24.194  1.00  0.00     0.000 C 
ENDROOT
BRANCH   1   2
ATOM      2  C   UNL     1       7.359  26.695  23.452  1.00  0.00     0.000 C 
BRANCH   2   3
ATOM      3  C   UNL     1       8.480  27.695  23.756  1.00  0.00     0.000 C 
BRANCH   3   4
ATOM      4  C   UNL     1       7.967  28.845  24.636  1.00  0.00     0.000 C 
BRANCH   4   5
ATOM      5  C   UNL     1       9.105  29.712  25.195  1.00  0.00     0.000 C 
BRANCH   5   6
ATOM      6  C   UNL     1       8.597  30.810  26.146  1.00  0.00     0.000 C 
BRANCH   6   7
ATOM      7  C   UNL     1       9.318  30.795  27.503  1.00  0.00     0.006 C 
BRANCH   7   8
ATOM      8  C   UNL     1      10.608  29.964  27.474  1.00  0.00     0.053 C 
BRANCH   8   9
ATOM      9  C   UNL     1      11.585  30.481  28.483  1.00  0.00     0.041 C 
ATOM     10  O   UNL     1      12.316  29.679  29.123  1.00  0.00    -0.550 OA
ATOM     11  O   UNL     1      11.656  31.842  28.748  1.00  0.00    -0.550 OA
ENDBRANCH   8   9
ENDBRANCH   7   8
ENDBRANCH   6   7
ENDBRANCH   5   6
ENDBRANCH   4   5
ENDBRANCH   3   4
ENDBRANCH   2   3
ENDBRANCH   1   2
BRANCH   1  12
ATOM     12  C   UNL     1       6.575  25.161  25.343  1.00  0.00     0.000 C 
BRANCH  12  13
ATOM     13  C   UNL     1       7.231  25.016  26.730  1.00  0.00    -0.000 C 
BRANCH  13  14
ATOM     14  C   UNL     1       8.575  25.749  26.888  1.00  0.00    -0.000 C 
BRANCH  14  15
ATOM     15  C   UNL     1       8.464  27.017  27.748  1.00  0.00    -0.000 C 
BRANCH  15  16
ATOM     16  C   UNL     1       7.059  27.148  28.354  1.00  0.00    -0.000 C 
BRANCH  16  17
ATOM     17  C   UNL     1       6.362  28.460  27.935  1.00  0.00    -0.000 C 
BRANCH  17  18
ATOM     18  C   UNL     1       5.041  28.242  27.176  1.00  0.00    -0.000 C 
BRANCH  18  19
ATOM     19  C   UNL     1       4.751  29.346  26.152  1.00  0.00    -0.003 C 
ATOM     20  C   UNL     1       4.925  30.730  26.771  1.00  0.00     0.004 C 
ENDBRANCH  18  19
ENDBRANCH  17  18
ENDBRANCH  16  17
ENDBRANCH  15  16
ENDBRANCH  14  15
ENDBRANCH  13  14
ENDBRANCH  12  13
ENDBRANCH   1  12
TORSDOF 16
ENDMDL
MODEL 7
REMARK VINA RESULT:    -3.735      1.509      3.891
REMARK INTER + INTRA:         -10.466
REMARK INTER:                  -7.609
REMARK INTRA:                  -2.858
REMARK UNBOUND:                -3.239
REMARK SMILES CCCCCCCCCCCCCCCCCC(=O)[O-]
REMARK SMILES IDX 10 1 11 2 12 3 13 4 14 5 15 6 16 7 17 8 18 9 19 10 20 11
REMARK SMILES IDX 9 12 8 13 7 14 6 15 5 16 4 17 3 18 2 19 1 20
REMARK H PARENT
REMARK Flexibility Score: inf
ROOT
ATOM      1  C   UNL     1       7.675  30.138  28.614  1.00  0.00     0.000 C 
ENDROOT
BRANCH   1   2
ATOM      2  C   UNL     1       9.117  29.684  28.340  1.00  0.00     0.000 C 
BRANCH   2   3
ATOM      3  C   UNL     1       9.233  29.018  26.964  1.00  0.00     0.000 C 
BRANCH   3   4
ATOM      4  C   UNL     1       8.536  29.860  25.885  1.00  0.00     0.000 C 
BRANCH   4   5
ATOM      5  C   UNL     1       9.518  30.743  25.100  1.00  0.00     0.000 C 
BRANCH   5   6
ATOM      6  C   UNL     1       9.362  32.237  25.433  1.00  0.00     0.000 C 
BRANCH   6   7
ATOM      7  C   UNL     1      10.682  32.881  25.888  1.00  0.00     0.006 C 
BRANCH   7   8
ATOM      8  C   UNL     1      10.823  32.916  27.416  1.00  0.00     0.053 C 
BRANCH   8   9
ATOM      9  C   UNL     1      11.860  31.937  27.868  1.00  0.00     0.041 C 
ATOM     10  O   UNL     1      12.154  31.847  29.090  1.00  0.00    -0.550 OA
ATOM     11  O   UNL     1      12.534  31.158  26.937  1.00  0.00    -0.550 OA
ENDBRANCH   8   9
ENDBRANCH   7   8
ENDBRANCH   6   7
ENDBRANCH   5   6
ENDBRANCH   4   5
ENDBRANCH   3   4
ENDBRANCH   2   3
ENDBRANCH   1   2
BRANCH   1  12
ATOM     12  C   UNL     1       7.128  29.580  29.945  1.00  0.00     0.000 C 
BRANCH  12  13
ATOM     13  C   UNL     1       6.074  28.470  29.768  1.00  0.00    -0.000 C 
BRANCH  13  14
ATOM     14  C   UNL     1       6.631  27.119  29.289  1.00  0.00    -0.000 C 
BRANCH  14  15
ATOM     15  C   UNL     1       5.805  26.503  28.150  1.00  0.00    -0.000 C 
BRANCH  15  16
ATOM     16  C   UNL     1       6.003  27.285  26.843  1.00  0.00    -0.000 C 
BRANCH  16  17
ATOM     17  C   UNL     1       4.687  27.901  26.325  1.00  0.00    -0.000 C 
BRANCH  17  18
ATOM     18  C   UNL     1       4.840  29.343  25.812  1.00  0.00    -0.000 C 
BRANCH  18  19
ATOM     19  C   UNL     1       4.467  30.395  26.865  1.00  0.00    -0.003 C 
ATOM     20  C   UNL     1       3.316  29.911  27.742  1.00  0.00     0.004 C 
ENDBRANCH  18  19
ENDBRANCH  17  18
ENDBRANCH  16  17
ENDBRANCH  15  16
ENDBRANCH  14  15
ENDBRANCH  13  14
ENDBRANCH  12  13
ENDBRANCH   1  12
TORSDOF 16
ENDMDL
MODEL 8
REMARK VINA RESULT:    -3.710      1.893      4.280
REMARK INTER + INTRA:         -10.418
REMARK INTER:                  -7.854
REMARK INTRA:                  -2.564
REMARK UNBOUND:                -3.239
REMARK SMILES CCCCCCCCCCCCCCCCCC(=O)[O-]
REMARK SMILES IDX 10 1 11 2 12 3 13 4 14 5 15 6 16 7 17 8 18 9 19 10 20 11
REMARK SMILES IDX 9 12 8 13 7 14 6 15 5 16 4 17 3 18 2 19 1 20
REMARK H PARENT
REMARK Flexibility Score: inf
ROOT
ATOM      1  C   UNL     1       8.556  26.102  27.144  1.00  0.00     0.000 C 
ENDROOT
BRANCH   1   2
ATOM      2  C   UNL     1       8.498  27.524  26.564  1.00  0.00     0.000 C 
BRANCH   2   3
ATOM      3  C   UNL     1       9.265  28.513  27.450  1.00  0.00     0.000 C 
BRANCH   3   4
ATOM      4  C   UNL     1       9.442  29.863  26.741  1.00  0.00     0.000 C 
BRANCH   4   5
ATOM      5  C   UNL     1       9.613  31.029  27.727  1.00  0.00     0.000 C 
BRANCH   5   6
ATOM      6  C   UNL     1      10.993  31.701  27.611  1.00  0.00     0.000 C 
BRANCH   6   7
ATOM      7  C   UNL     1      12.116  30.852  28.227  1.00  0.00     0.006 C 
BRANCH   7   8
ATOM      8  C   UNL     1      11.798  30.408  29.662  1.00  0.00     0.053 C 
BRANCH   8   9
ATOM      9  C   UNL     1      11.851  31.578  30.594  1.00  0.00     0.041 C 
ATOM     10  O   UNL     1      12.957  32.110  30.878  1.00  0.00    -0.550 OA
ATOM     11  O   UNL     1      10.686  32.050  31.184  1.00  0.00    -0.550 OA
ENDBRANCH   8   9
ENDBRANCH   7   8
ENDBRANCH   6   7
ENDBRANCH   5   6
ENDBRANCH   4   5
ENDBRANCH   3   4
ENDBRANCH   2   3
ENDBRANCH   1   2
BRANCH   1  12
ATOM     12  C   UNL     1       7.167  25.431  27.188  1.00  0.00     0.000 C 
BRANCH  12  13
ATOM     13  C   UNL     1       6.144  26.174  28.070  1.00  0.00    -0.000 C 
BRANCH  13  14
ATOM     14  C   UNL     1       6.603  26.428  29.517  1.00  0.00    -0.000 C 
BRANCH  14  15
ATOM     15  C   UNL     1       6.623  27.920  29.881  1.00  0.00    -0.000 C 
BRANCH  15  16
ATOM     16  C   UNL     1       5.201  28.444  30.128  1.00  0.00    -0.000 C 
BRANCH  16  17
ATOM     17  C   UNL     1       4.844  29.624  29.199  1.00  0.00    -0.000 C 
BRANCH  17  18
ATOM     18  C   UNL     1       6.056  30.216  28.460  1.00  0.00    -0.000 C 
BRANCH  18  19
ATOM     19  C   UNL     1       5.764  30.528  26.987  1.00  0.00    -0.003 C 
ATOM     20  C   UNL     1       5.196  29.308  26.269  1.00  0.00     0.004 C 
ENDBRANCH  18  19
ENDBRANCH  17  18
ENDBRANCH  16  17
ENDBRANCH  15  16
ENDBRANCH  14  15
ENDBRANCH  13  14
ENDBRANCH  12  13
ENDBRANCH   1  12
TORSDOF 16
ENDMDL
MODEL 9
REMARK VINA RESULT:    -3.676      1.660      4.345
REMARK INTER + INTRA:         -10.353
REMARK INTER:                  -7.724
REMARK INTRA:                  -2.629
REMARK UNBOUND:                -3.239
REMARK SMILES CCCCCCCCCCCCCCCCCC(=O)[O-]
REMARK SMILES IDX 10 1 11 2 12 3 13 4 14 5 15 6 16 7 17 8 18 9 19 10 20 11
REMARK SMILES IDX 9 12 8 13 7 14 6 15 5 16 4 17 3 18 2 19 1 20
REMARK H PARENT
REMARK Flexibility Score: inf
ROOT
ATOM      1  C   UNL     1       6.387  27.760  29.045  1.00  0.00     0.000 C 
ENDROOT
BRANCH   1   2
ATOM      2  C   UNL     1       6.665  28.364  30.431  1.00  0.00     0.000 C 
BRANCH   2   3
ATOM      3  C   UNL     1       7.421  29.693  30.312  1.00  0.00     0.000 C 
BRANCH   3   4
ATOM      4  C   UNL     1       7.965  29.891  28.890  1.00  0.00     0.000 C 
BRANCH   4   5
ATOM      5  C   UNL     1       9.425  30.368  28.879  1.00  0.00     0.000 C 
BRANCH   5   6
ATOM      6  C   UNL     1      10.253  29.707  27.762  1.00  0.00     0.000 C 
BRANCH   6   7
ATOM      7  C   UNL     1      11.343  30.638  27.206  1.00  0.00     0.006 C 
BRANCH   7   8
ATOM      8  C   UNL     1      11.104  32.108  27.575  1.00  0.00     0.053 C 
BRANCH   8   9
ATOM      9  C   UNL     1      10.735  32.899  26.359  1.00  0.00     0.041 C 
ATOM     10  O   UNL     1       9.773  32.531  25.634  1.00  0.00    -0.550 OA
ATOM     11  O   UNL     1      11.481  34.014  26.002  1.00  0.00    -0.550 OA
ENDBRANCH   8   9
ENDBRANCH   7   8
ENDBRANCH   6   7
ENDBRANCH   5   6
ENDBRANCH   4   5
ENDBRANCH   3   4
ENDBRANCH   2   3
ENDBRANCH   1   2
BRANCH   1  12
ATOM     12  C   UNL     1       6.666  26.242  29.002  1.00  0.00     0.000 C 
BRANCH  12  13
ATOM     13  C   UNL     1       7.246  25.755  27.659  1.00  0.00    -0.000 C 
BRANCH  13  14
ATOM     14  C   UNL     1       8.471  26.540  27.161  1.00  0.00    -0.000 C 
BRANCH  14  15
ATOM     15  C   UNL     1       8.346  26.971  25.692  1.00  0.00    -0.000 C 
BRANCH  15  16
ATOM     16  C   UNL     1       7.570  28.292  25.572  1.00  0.00    -0.000 C 
BRANCH  16  17
ATOM     17  C   UNL     1       6.221  28.113  24.844  1.00  0.00    -0.000 C 
BRANCH  17  18
ATOM     18  C   UNL     1       5.023  28.693  25.615  1.00  0.00    -0.000 C 
BRANCH  18  19
ATOM     19  C   UNL     1       5.333  30.042  26.275  1.00  0.00    -0.003 C 
ATOM     20  C   UNL     1       4.304  30.378  27.351  1.00  0.00     0.004 C 
ENDBRANCH  18  19
ENDBRANCH  17  18
ENDBRANCH  16  17
ENDBRANCH  15  16
ENDBRANCH  14  15
ENDBRANCH  13  14
ENDBRANCH  12  13
ENDBRANCH   1  12
TORSDOF 16
ENDMDL
