MODEL 1
REMARK VINA RESULT:    -5.920      0.000      0.000
REMARK INTER + INTRA:          -6.212
REMARK INTER:                  -6.959
REMARK INTRA:                   0.747
REMARK UNBOUND:                 0.747
REMARK SMILES O=C([O-])C=Cc1ccc(O)c(O)c1
REMARK SMILES IDX 6 1 13 2 7 3 11 4 8 5 9 6 5 7 4 8 2 9 1 10 3 11 12 12 10 14
REMARK H PARENT 12 13 10 15
REMARK Flexibility Score: inf
ROOT
ATOM      1  C   UNL     1     -36.986  70.625 -18.617  1.00  0.00    -0.022 A 
ATOM      2  C   UNL     1     -38.195  70.735 -19.319  1.00  0.00     0.058 A 
ATOM      3  C   UNL     1     -36.213  71.777 -18.393  1.00  0.00     0.012 A 
ATOM      4  C   UNL     1     -38.657  71.988 -19.747  1.00  0.00     0.157 A 
ATOM      5  C   UNL     1     -36.673  73.026 -18.818  1.00  0.00     0.051 A 
ATOM      6  C   UNL     1     -37.896  73.136 -19.493  1.00  0.00     0.157 A 
ENDROOT
BRANCH   1   7
ATOM      7  C   UNL     1     -36.497  69.287 -18.225  1.00  0.00     0.010 C 
ATOM      8  C   UNL     1     -35.306  68.765 -18.559  1.00  0.00     0.025 C 
BRANCH   8   9
ATOM      9  C   UNL     1     -34.202  69.489 -19.219  1.00  0.00     0.064 C 
ATOM     10  O   UNL     1     -34.412  70.278 -20.177  1.00  0.00    -0.545 OA
ATOM     11  O   UNL     1     -32.911  69.349 -18.727  1.00  0.00    -0.545 OA
ENDBRANCH   8   9
ENDBRANCH   1   7
BRANCH   4  12
ATOM     12  O   UNL     1     -39.868  72.099 -20.428  1.00  0.00    -0.504 OA
ATOM     13  H   UNL     1     -40.749  72.181 -19.933  1.00  0.00     0.293 HD
ENDBRANCH   4  12
BRANCH   6  14
ATOM     14  O   UNL     1     -38.359  74.380 -19.916  1.00  0.00    -0.504 OA
ATOM     15  H   UNL     1     -37.782  74.997 -20.477  1.00  0.00     0.293 HD
ENDBRANCH   6  14
TORSDOF 4
ENDMDL
MODEL 2
REMARK VINA RESULT:    -5.885      9.623     10.582
REMARK INTER + INTRA:          -6.171
REMARK INTER:                  -6.059
REMARK INTRA:                  -0.112
REMARK UNBOUND:                 0.747
REMARK SMILES O=C([O-])C=Cc1ccc(O)c(O)c1
REMARK SMILES IDX 6 1 13 2 7 3 11 4 8 5 9 6 5 7 4 8 2 9 1 10 3 11 12 12 10 14
REMARK H PARENT 12 13 10 15
REMARK Flexibility Score: inf
ROOT
ATOM      1  C   UNL     1     -39.022  72.750  -9.593  1.00  0.00    -0.022 A 
ATOM      2  C   UNL     1     -40.221  73.334  -9.162  1.00  0.00     0.058 A 
ATOM      3  C   UNL     1     -39.040  71.440 -10.104  1.00  0.00     0.012 A 
ATOM      4  C   UNL     1     -41.435  72.642  -9.286  1.00  0.00     0.157 A 
ATOM      5  C   UNL     1     -40.249  70.750 -10.229  1.00  0.00     0.051 A 
ATOM      6  C   UNL     1     -41.449  71.349  -9.824  1.00  0.00     0.157 A 
ENDROOT
BRANCH   1   7
ATOM      7  C   UNL     1     -37.752  73.479  -9.402  1.00  0.00     0.010 C 
ATOM      8  C   UNL     1     -37.377  74.579 -10.074  1.00  0.00     0.025 C 
BRANCH   8   9
ATOM      9  C   UNL     1     -38.230  75.363 -10.988  1.00  0.00     0.064 C 
ATOM     10  O   UNL     1     -38.279  75.112 -12.221  1.00  0.00    -0.545 OA
ATOM     11  O   UNL     1     -39.050  76.355 -10.466  1.00  0.00    -0.545 OA
ENDBRANCH   8   9
ENDBRANCH   1   7
BRANCH   4  12
ATOM     12  O   UNL     1     -42.628  73.232  -8.875  1.00  0.00    -0.504 OA
ATOM     13  H   UNL     1     -42.844  74.199  -9.090  1.00  0.00     0.293 HD
ENDBRANCH   4  12
BRANCH   6  14
ATOM     14  O   UNL     1     -42.656  70.665  -9.950  1.00  0.00    -0.504 OA
ATOM     15  H   UNL     1     -42.821  70.016 -10.711  1.00  0.00     0.293 HD
ENDBRANCH   6  14
TORSDOF 4
ENDMDL
MODEL 3
REMARK VINA RESULT:    -5.695      9.035      9.729
REMARK INTER + INTRA:          -5.948
REMARK INTER:                  -5.844
REMARK INTRA:                  -0.104
REMARK UNBOUND:                 0.747
REMARK SMILES O=C([O-])C=Cc1ccc(O)c(O)c1
REMARK SMILES IDX 6 1 13 2 7 3 11 4 8 5 9 6 5 7 4 8 2 9 1 10 3 11 12 12 10 14
REMARK H PARENT 12 13 10 15
REMARK Flexibility Score: inf
ROOT
ATOM      1  C   UNL     1     -39.192  73.929  -9.962  1.00  0.00    -0.022 A 
ATOM      2  C   UNL     1     -37.965  74.554  -9.699  1.00  0.00     0.058 A 
ATOM      3  C   UNL     1     -39.915  74.289 -11.113  1.00  0.00     0.012 A 
ATOM      4  C   UNL     1     -37.437  75.491 -10.600  1.00  0.00     0.157 A 
ATOM      5  C   UNL     1     -39.389  75.221 -12.011  1.00  0.00     0.051 A 
ATOM      6  C   UNL     1     -38.149  75.822 -11.760  1.00  0.00     0.157 A 
ENDROOT
BRANCH   1   7
ATOM      7  C   UNL     1     -39.750  72.986  -8.972  1.00  0.00     0.010 C 
ATOM      8  C   UNL     1     -39.770  71.649  -9.095  1.00  0.00     0.025 C 
BRANCH   8   9
ATOM      9  C   UNL     1     -39.085  70.870 -10.144  1.00  0.00     0.064 C 
ATOM     10  O   UNL     1     -39.699  70.020 -10.842  1.00  0.00    -0.545 OA
ATOM     11  O   UNL     1     -37.747  71.128 -10.414  1.00  0.00    -0.545 OA
ENDBRANCH   8   9
ENDBRANCH   1   7
BRANCH   4  12
ATOM     12  O   UNL     1     -36.209  76.098 -10.347  1.00  0.00    -0.504 OA
ATOM     13  H   UNL     1     -36.136  76.931  -9.772  1.00  0.00     0.293 HD
ENDBRANCH   4  12
BRANCH   6  14
ATOM     14  O   UNL     1     -37.621  76.751 -12.654  1.00  0.00    -0.504 OA
ATOM     15  H   UNL     1     -37.838  77.739 -12.583  1.00  0.00     0.293 HD
ENDBRANCH   6  14
TORSDOF 4
ENDMDL
MODEL 4
REMARK VINA RESULT:    -5.673      8.246      9.136
REMARK INTER + INTRA:          -5.921
REMARK INTER:                  -5.680
REMARK INTRA:                  -0.242
REMARK UNBOUND:                 0.747
REMARK SMILES O=C([O-])C=Cc1ccc(O)c(O)c1
REMARK SMILES IDX 6 1 13 2 7 3 11 4 8 5 9 6 5 7 4 8 2 9 1 10 3 11 12 12 10 14
REMARK H PARENT 12 13 10 15
REMARK Flexibility Score: inf
ROOT
ATOM      1  C   UNL     1     -36.705  74.345 -27.599  1.00  0.00    -0.022 A 
ATOM      2  C   UNL     1     -37.457  74.443 -26.420  1.00  0.00     0.058 A 
ATOM      3  C   UNL     1     -37.067  75.122 -28.713  1.00  0.00     0.012 A 
ATOM      4  C   UNL     1     -38.528  75.344 -26.332  1.00  0.00     0.157 A 
ATOM      5  C   UNL     1     -38.134  76.021 -28.626  1.00  0.00     0.051 A 
ATOM      6  C   UNL     1     -38.864  76.137 -27.436  1.00  0.00     0.157 A 
ENDROOT
BRANCH   1   7
ATOM      7  C   UNL     1     -35.616  73.350 -27.682  1.00  0.00     0.010 C 
ATOM      8  C   UNL     1     -34.316  73.599 -27.456  1.00  0.00     0.025 C 
BRANCH   8   9
ATOM      9  C   UNL     1     -33.760  74.853 -26.911  1.00  0.00     0.064 C 
ATOM     10  O   UNL     1     -33.980  75.211 -25.724  1.00  0.00    -0.545 OA
ATOM     11  O   UNL     1     -32.919  75.621 -27.705  1.00  0.00    -0.545 OA
ENDBRANCH   8   9
ENDBRANCH   1   7
BRANCH   4  12
ATOM     12  O   UNL     1     -39.263  75.454 -25.154  1.00  0.00    -0.504 OA
ATOM     13  H   UNL     1     -39.548  74.635 -24.627  1.00  0.00     0.293 HD
ENDBRANCH   4  12
BRANCH   6  14
ATOM     14  O   UNL     1     -39.927  77.034 -27.346  1.00  0.00    -0.504 OA
ATOM     15  H   UNL     1     -40.332  77.288 -26.452  1.00  0.00     0.293 HD
ENDBRANCH   6  14
TORSDOF 4
ENDMDL
MODEL 5
REMARK VINA RESULT:    -5.592      8.633     10.257
REMARK INTER + INTRA:          -5.826
REMARK INTER:                  -5.560
REMARK INTRA:                  -0.266
REMARK UNBOUND:                 0.747
REMARK SMILES O=C([O-])C=Cc1ccc(O)c(O)c1
REMARK SMILES IDX 6 1 13 2 7 3 11 4 8 5 9 6 5 7 4 8 2 9 1 10 3 11 12 12 10 14
REMARK H PARENT 12 13 10 15
REMARK Flexibility Score: inf
ROOT
ATOM      1  C   UNL     1     -35.776  74.543 -27.654  1.00  0.00    -0.022 A 
ATOM      2  C   UNL     1     -35.324  75.605 -28.450  1.00  0.00     0.058 A 
ATOM      3  C   UNL     1     -34.875  73.899 -26.789  1.00  0.00     0.012 A 
ATOM      4  C   UNL     1     -34.000  76.057 -28.348  1.00  0.00     0.157 A 
ATOM      5  C   UNL     1     -33.555  74.349 -26.686  1.00  0.00     0.051 A 
ATOM      6  C   UNL     1     -33.115  75.430 -27.461  1.00  0.00     0.157 A 
ENDROOT
BRANCH   1   7
ATOM      7  C   UNL     1     -37.160  74.053 -27.820  1.00  0.00     0.010 C 
ATOM      8  C   UNL     1     -38.236  74.526 -27.171  1.00  0.00     0.025 C 
BRANCH   8   9
ATOM      9  C   UNL     1     -38.268  75.729 -26.317  1.00  0.00     0.064 C 
ATOM     10  O   UNL     1     -38.210  75.648 -25.062  1.00  0.00    -0.545 OA
ATOM     11  O   UNL     1     -38.293  76.982 -26.914  1.00  0.00    -0.545 OA
ENDBRANCH   8   9
ENDBRANCH   1   7
BRANCH   4  12
ATOM     12  O   UNL     1     -33.557  77.125 -29.125  1.00  0.00    -0.504 OA
ATOM     13  H   UNL     1     -33.757  78.086 -28.870  1.00  0.00     0.293 HD
ENDBRANCH   4  12
BRANCH   6  14
ATOM     14  O   UNL     1     -31.802  75.883 -27.359  1.00  0.00    -0.504 OA
ATOM     15  H   UNL     1     -31.408  76.525 -28.038  1.00  0.00     0.293 HD
ENDBRANCH   6  14
TORSDOF 4
ENDMDL
MODEL 6
REMARK VINA RESULT:    -5.574      9.522     10.929
REMARK INTER + INTRA:          -5.805
REMARK INTER:                  -5.553
REMARK INTRA:                  -0.252
REMARK UNBOUND:                 0.747
REMARK SMILES O=C([O-])C=Cc1ccc(O)c(O)c1
REMARK SMILES IDX 6 1 13 2 7 3 11 4 8 5 9 6 5 7 4 8 2 9 1 10 3 11 12 12 10 14
REMARK H PARENT 12 13 10 15
REMARK Flexibility Score: inf
ROOT
ATOM      1  C   UNL     1     -38.974  74.448  -9.168  1.00  0.00    -0.022 A 
ATOM      2  C   UNL     1     -37.902  73.804  -9.802  1.00  0.00     0.058 A 
ATOM      3  C   UNL     1     -40.157  73.732  -8.918  1.00  0.00     0.012 A 
ATOM      4  C   UNL     1     -37.988  72.444 -10.137  1.00  0.00     0.157 A 
ATOM      5  C   UNL     1     -40.243  72.377  -9.250  1.00  0.00     0.051 A 
ATOM      6  C   UNL     1     -39.159  71.729  -9.857  1.00  0.00     0.157 A 
ENDROOT
BRANCH   1   7
ATOM      7  C   UNL     1     -38.878  75.893  -8.875  1.00  0.00     0.010 C 
ATOM      8  C   UNL     1     -38.999  76.880  -9.777  1.00  0.00     0.025 C 
BRANCH   8   9
ATOM      9  C   UNL     1     -39.427  76.717 -11.180  1.00  0.00     0.064 C 
ATOM     10  O   UNL     1     -38.593  76.555 -12.109  1.00  0.00    -0.545 OA
ATOM     11  O   UNL     1     -40.784  76.674 -11.473  1.00  0.00    -0.545 OA
ENDBRANCH   8   9
ENDBRANCH   1   7
BRANCH   4  12
ATOM     12  O   UNL     1     -36.915  71.800 -10.749  1.00  0.00    -0.504 OA
ATOM     13  H   UNL     1     -36.677  71.970 -11.720  1.00  0.00     0.293 HD
ENDBRANCH   4  12
BRANCH   6  14
ATOM     14  O   UNL     1     -39.240  70.378 -10.187  1.00  0.00    -0.504 OA
ATOM     15  H   UNL     1     -40.128  69.935 -10.394  1.00  0.00     0.293 HD
ENDBRANCH   6  14
TORSDOF 4
ENDMDL
MODEL 7
REMARK VINA RESULT:    -5.530      9.033      9.670
REMARK INTER + INTRA:          -5.754
REMARK INTER:                  -5.575
REMARK INTRA:                  -0.179
REMARK UNBOUND:                 0.747
REMARK SMILES O=C([O-])C=Cc1ccc(O)c(O)c1
REMARK SMILES IDX 6 1 13 2 7 3 11 4 8 5 9 6 5 7 4 8 2 9 1 10 3 11 12 12 10 14
REMARK H PARENT 12 13 10 15
REMARK Flexibility Score: inf
ROOT
ATOM      1  C   UNL     1     -38.871  73.798  -9.890  1.00  0.00    -0.022 A 
ATOM      2  C   UNL     1     -40.163  74.313 -10.061  1.00  0.00     0.058 A 
ATOM      3  C   UNL     1     -37.838  74.235 -10.737  1.00  0.00     0.012 A 
ATOM      4  C   UNL     1     -40.415  75.293 -11.032  1.00  0.00     0.157 A 
ATOM      5  C   UNL     1     -38.088  75.213 -11.704  1.00  0.00     0.051 A 
ATOM      6  C   UNL     1     -39.374  75.746 -11.853  1.00  0.00     0.157 A 
ENDROOT
BRANCH   1   7
ATOM      7  C   UNL     1     -38.644  72.728  -8.896  1.00  0.00     0.010 C 
ATOM      8  C   UNL     1     -39.122  71.477  -8.978  1.00  0.00     0.025 C 
BRANCH   8   9
ATOM      9  C   UNL     1     -39.803  70.888 -10.148  1.00  0.00     0.064 C 
ATOM     10  O   UNL     1     -39.157  70.465 -11.143  1.00  0.00    -0.545 OA
ATOM     11  O   UNL     1     -41.183  70.735 -10.122  1.00  0.00    -0.545 OA
ENDBRANCH   8   9
ENDBRANCH   1   7
BRANCH   4  12
ATOM     12  O   UNL     1     -41.696  75.819 -11.189  1.00  0.00    -0.504 OA
ATOM     13  H   UNL     1     -41.852  76.815 -11.293  1.00  0.00     0.293 HD
ENDBRANCH   4  12
BRANCH   6  14
ATOM     14  O   UNL     1     -39.626  76.723 -12.814  1.00  0.00    -0.504 OA
ATOM     15  H   UNL     1     -39.807  76.480 -13.782  1.00  0.00     0.293 HD
ENDBRANCH   6  14
TORSDOF 4
ENDMDL
MODEL 8
REMARK VINA RESULT:    -5.445      9.119     10.505
REMARK INTER + INTRA:          -5.654
REMARK INTER:                  -5.370
REMARK INTRA:                  -0.284
REMARK UNBOUND:                 0.747
REMARK SMILES O=C([O-])C=Cc1ccc(O)c(O)c1
REMARK SMILES IDX 6 1 13 2 7 3 11 4 8 5 9 6 5 7 4 8 2 9 1 10 3 11 12 12 10 14
REMARK H PARENT 12 13 10 15
REMARK Flexibility Score: inf
ROOT
ATOM      1  C   UNL     1     -40.501  72.485  -9.873  1.00  0.00    -0.022 A 
ATOM      2  C   UNL     1     -39.395  73.323  -9.677  1.00  0.00     0.058 A 
ATOM      3  C   UNL     1     -40.311  71.216 -10.446  1.00  0.00     0.012 A 
ATOM      4  C   UNL     1     -38.103  72.882 -10.001  1.00  0.00     0.157 A 
ATOM      5  C   UNL     1     -39.024  70.775 -10.768  1.00  0.00     0.051 A 
ATOM      6  C   UNL     1     -37.917  71.604 -10.543  1.00  0.00     0.157 A 
ENDROOT
BRANCH   1   7
ATOM      7  C   UNL     1     -41.855  72.994  -9.574  1.00  0.00     0.010 C 
ATOM      8  C   UNL     1     -42.600  73.754 -10.393  1.00  0.00     0.025 C 
BRANCH   8   9
ATOM      9  C   UNL     1     -42.285  74.068 -11.800  1.00  0.00     0.064 C 
ATOM     10  O   UNL     1     -41.773  75.171 -12.130  1.00  0.00    -0.545 OA
ATOM     11  O   UNL     1     -42.494  73.101 -12.773  1.00  0.00    -0.545 OA
ENDBRANCH   8   9
ENDBRANCH   1   7
BRANCH   4  12
ATOM     12  O   UNL     1     -37.001  73.708  -9.788  1.00  0.00    -0.504 OA
ATOM     13  H   UNL     1     -36.167  73.370  -9.321  1.00  0.00     0.293 HD
ENDBRANCH   4  12
BRANCH   6  14
ATOM     14  O   UNL     1     -36.633  71.167 -10.861  1.00  0.00    -0.504 OA
ATOM     15  H   UNL     1     -35.816  71.732 -10.661  1.00  0.00     0.293 HD
ENDBRANCH   6  14
TORSDOF 4
ENDMDL
MODEL 9
REMARK VINA RESULT:    -4.681      8.919     10.596
REMARK INTER + INTRA:          -4.756
REMARK INTER:                  -4.486
REMARK INTRA:                  -0.270
REMARK UNBOUND:                 0.747
REMARK SMILES O=C([O-])C=Cc1ccc(O)c(O)c1
REMARK SMILES IDX 6 1 13 2 7 3 11 4 8 5 9 6 5 7 4 8 2 9 1 10 3 11 12 12 10 14
REMARK H PARENT 12 13 10 15
REMARK Flexibility Score: inf
ROOT
ATOM      1  C   UNL     1     -35.824  74.685 -27.712  1.00  0.00    -0.022 A 
ATOM      2  C   UNL     1     -35.042  74.966 -26.582  1.00  0.00     0.058 A 
ATOM      3  C   UNL     1     -35.347  75.043 -28.985  1.00  0.00     0.012 A 
ATOM      4  C   UNL     1     -33.774  75.549 -26.722  1.00  0.00     0.157 A 
ATOM      5  C   UNL     1     -34.083  75.624 -29.125  1.00  0.00     0.051 A 
ATOM      6  C   UNL     1     -33.293  75.875 -27.996  1.00  0.00     0.157 A 
ENDROOT
BRANCH   1   7
ATOM      7  C   UNL     1     -37.177  74.120 -27.533  1.00  0.00     0.010 C 
ATOM      8  C   UNL     1     -38.305  74.832 -27.384  1.00  0.00     0.025 C 
BRANCH   8   9
ATOM      9  C   UNL     1     -38.429  76.293 -27.551  1.00  0.00     0.064 C 
ATOM     10  O   UNL     1     -38.846  76.801 -28.626  1.00  0.00    -0.545 OA
ATOM     11  O   UNL     1     -38.146  77.124 -26.475  1.00  0.00    -0.545 OA
ENDBRANCH   8   9
ENDBRANCH   1   7
BRANCH   4  12
ATOM     12  O   UNL     1     -32.990  75.810 -25.600  1.00  0.00    -0.504 OA
ATOM     13  H   UNL     1     -33.240  75.455 -24.684  1.00  0.00     0.293 HD
ENDBRANCH   4  12
BRANCH   6  14
ATOM     14  O   UNL     1     -32.032  76.451 -28.132  1.00  0.00    -0.504 OA
ATOM     15  H   UNL     1     -31.205  75.887 -28.291  1.00  0.00     0.293 HD
ENDBRANCH   6  14
TORSDOF 4
ENDMDL
