MODEL 1
REMARK VINA RESULT:    -6.416      0.000      0.000
REMARK INTER + INTRA:         -13.898
REMARK INTER:                 -12.042
REMARK INTRA:                  -1.856
REMARK UNBOUND:                -1.856
REMARK SMILES CCCCCCCCC=CCCCCCCCC(=O)[O-]
REMARK SMILES IDX 10 1 9 2 11 3 12 4 13 5 14 6 15 7 16 8 17 9 18 10 19 11
REMARK SMILES IDX 20 12 8 13 7 14 6 15 5 16 4 17 3 18 2 19 1 20
REMARK H PARENT
REMARK Flexibility Score: inf
ROOT
ATOM      1  C   UNL     1       3.797   9.258  16.449  1.00  0.00    -0.031 C 
ATOM      2  C   UNL     1       3.191   8.265  17.118  1.00  0.00    -0.031 C 
ENDROOT
BRANCH   1   3
ATOM      3  C   UNL     1       4.611   8.992  15.212  1.00  0.00     0.027 C 
BRANCH   3   4
ATOM      4  C   UNL     1       4.502  10.127  14.178  1.00  0.00     0.004 C 
BRANCH   4   5
ATOM      5  C   UNL     1       3.769  11.385  14.687  1.00  0.00     0.000 C 
BRANCH   5   6
ATOM      6  C   UNL     1       4.677  12.591  14.991  1.00  0.00     0.000 C 
BRANCH   6   7
ATOM      7  C   UNL     1       4.214  13.393  16.219  1.00  0.00     0.000 C 
BRANCH   7   8
ATOM      8  C   UNL     1       4.113  12.530  17.493  1.00  0.00     0.006 C 
BRANCH   8   9
ATOM      9  C   UNL     1       5.461  11.954  17.959  1.00  0.00     0.053 C 
BRANCH   9  10
ATOM     10  C   UNL     1       5.404  11.425  19.359  1.00  0.00     0.041 C 
ATOM     11  O   UNL     1       6.447  11.382  20.065  1.00  0.00    -0.550 OA
ATOM     12  O   UNL     1       4.198  10.979  19.887  1.00  0.00    -0.550 OA
ENDBRANCH   9  10
ENDBRANCH   8   9
ENDBRANCH   7   8
ENDBRANCH   6   7
ENDBRANCH   5   6
ENDBRANCH   4   5
ENDBRANCH   3   4
ENDBRANCH   1   3
BRANCH   2  13
ATOM     13  C   UNL     1       2.390   8.528  18.363  1.00  0.00     0.027 C 
BRANCH  13  14
ATOM     14  C   UNL     1       1.209   9.467  18.075  1.00  0.00     0.004 C 
BRANCH  14  15
ATOM     15  C   UNL     1      -0.142   8.731  18.030  1.00  0.00     0.000 C 
BRANCH  15  16
ATOM     16  C   UNL     1      -0.161   7.359  18.735  1.00  0.00     0.000 C 
BRANCH  16  17
ATOM     17  C   UNL     1      -0.145   6.139  17.794  1.00  0.00    -0.000 C 
BRANCH  17  18
ATOM     18  C   UNL     1       0.882   5.048  18.158  1.00  0.00    -0.000 C 
BRANCH  18  19
ATOM     19  C   UNL     1       1.507   5.191  19.557  1.00  0.00    -0.003 C 
ATOM     20  C   UNL     1       2.659   4.216  19.797  1.00  0.00     0.004 C 
ENDBRANCH  18  19
ENDBRANCH  17  18
ENDBRANCH  16  17
ENDBRANCH  15  16
ENDBRANCH  14  15
ENDBRANCH  13  14
ENDBRANCH   2  13
TORSDOF 15
ENDMDL
MODEL 2
REMARK VINA RESULT:    -6.365      2.399      3.500
REMARK INTER + INTRA:         -13.803
REMARK INTER:                 -12.091
REMARK INTRA:                  -1.712
REMARK UNBOUND:                -1.856
REMARK SMILES CCCCCCCCC=CCCCCCCCC(=O)[O-]
REMARK SMILES IDX 10 1 9 2 11 3 12 4 13 5 14 6 15 7 16 8 17 9 18 10 19 11
REMARK SMILES IDX 20 12 8 13 7 14 6 15 5 16 4 17 3 18 2 19 1 20
REMARK H PARENT
REMARK Flexibility Score: inf
ROOT
ATOM      1  C   UNL     1       4.707  10.760  18.514  1.00  0.00    -0.031 C 
ATOM      2  C   UNL     1       3.419  11.135  18.542  1.00  0.00    -0.031 C 
ENDROOT
BRANCH   1   3
ATOM      3  C   UNL     1       5.823  11.763  18.623  1.00  0.00     0.027 C 
BRANCH   3   4
ATOM      4  C   UNL     1       6.312  12.253  17.249  1.00  0.00     0.004 C 
BRANCH   4   5
ATOM      5  C   UNL     1       5.365  13.253  16.554  1.00  0.00     0.000 C 
BRANCH   5   6
ATOM      6  C   UNL     1       4.994  12.901  15.101  1.00  0.00     0.000 C 
BRANCH   6   7
ATOM      7  C   UNL     1       3.737  12.021  15.004  1.00  0.00     0.000 C 
BRANCH   7   8
ATOM      8  C   UNL     1       3.978  10.719  14.214  1.00  0.00     0.006 C 
BRANCH   8   9
ATOM      9  C   UNL     1       4.626   9.600  15.047  1.00  0.00     0.053 C 
BRANCH   9  10
ATOM     10  C   UNL     1       5.005   8.413  14.217  1.00  0.00     0.041 C 
ATOM     11  O   UNL     1       6.081   8.412  13.562  1.00  0.00    -0.550 OA
ATOM     12  O   UNL     1       4.169   7.304  14.165  1.00  0.00    -0.550 OA
ENDBRANCH   9  10
ENDBRANCH   8   9
ENDBRANCH   7   8
ENDBRANCH   6   7
ENDBRANCH   5   6
ENDBRANCH   4   5
ENDBRANCH   3   4
ENDBRANCH   1   3
BRANCH   2  13
ATOM     13  C   UNL     1       2.303  10.135  18.417  1.00  0.00     0.027 C 
BRANCH  13  14
ATOM     14  C   UNL     1       2.768   8.875  17.674  1.00  0.00     0.004 C 
BRANCH  14  15
ATOM     15  C   UNL     1       2.114   7.589  18.211  1.00  0.00     0.000 C 
BRANCH  15  16
ATOM     16  C   UNL     1       0.595   7.687  18.463  1.00  0.00     0.000 C 
BRANCH  16  17
ATOM     17  C   UNL     1      -0.166   6.348  18.406  1.00  0.00    -0.000 C 
BRANCH  17  18
ATOM     18  C   UNL     1       0.726   5.098  18.258  1.00  0.00    -0.000 C 
BRANCH  18  19
ATOM     19  C   UNL     1       1.033   4.364  19.575  1.00  0.00    -0.003 C 
ATOM     20  C   UNL     1       2.517   4.395  19.941  1.00  0.00     0.004 C 
ENDBRANCH  18  19
ENDBRANCH  17  18
ENDBRANCH  16  17
ENDBRANCH  15  16
ENDBRANCH  14  15
ENDBRANCH  13  14
ENDBRANCH   2  13
TORSDOF 15
ENDMDL
MODEL 3
REMARK VINA RESULT:    -6.328      2.078      3.282
REMARK INTER + INTRA:         -13.733
REMARK INTER:                 -11.972
REMARK INTRA:                  -1.761
REMARK UNBOUND:                -1.856
REMARK SMILES CCCCCCCCC=CCCCCCCCC(=O)[O-]
REMARK SMILES IDX 10 1 9 2 11 3 12 4 13 5 14 6 15 7 16 8 17 9 18 10 19 11
REMARK SMILES IDX 20 12 8 13 7 14 6 15 5 16 4 17 3 18 2 19 1 20
REMARK H PARENT
REMARK Flexibility Score: inf
ROOT
ATOM      1  C   UNL     1       3.395  11.089  18.903  1.00  0.00    -0.031 C 
ATOM      2  C   UNL     1       3.566   9.823  18.492  1.00  0.00    -0.031 C 
ENDROOT
BRANCH   1   3
ATOM      3  C   UNL     1       4.557  12.032  19.056  1.00  0.00     0.027 C 
BRANCH   3   4
ATOM      4  C   UNL     1       5.848  11.484  18.424  1.00  0.00     0.004 C 
BRANCH   4   5
ATOM      5  C   UNL     1       6.160  12.044  17.021  1.00  0.00     0.000 C 
BRANCH   5   6
ATOM      6  C   UNL     1       5.146  13.073  16.488  1.00  0.00     0.000 C 
BRANCH   6   7
ATOM      7  C   UNL     1       4.538  12.665  15.136  1.00  0.00     0.000 C 
BRANCH   7   8
ATOM      8  C   UNL     1       3.931  11.248  15.156  1.00  0.00     0.006 C 
BRANCH   8   9
ATOM      9  C   UNL     1       4.400  10.357  13.993  1.00  0.00     0.053 C 
BRANCH   9  10
ATOM     10  C   UNL     1       4.790   8.983  14.444  1.00  0.00     0.041 C 
ATOM     11  O   UNL     1       4.198   8.442  15.416  1.00  0.00    -0.550 OA
ATOM     12  O   UNL     1       5.807   8.298  13.792  1.00  0.00    -0.550 OA
ENDBRANCH   9  10
ENDBRANCH   8   9
ENDBRANCH   7   8
ENDBRANCH   6   7
ENDBRANCH   5   6
ENDBRANCH   4   5
ENDBRANCH   3   4
ENDBRANCH   1   3
BRANCH   2  13
ATOM     13  C   UNL     1       2.406   8.876  18.354  1.00  0.00     0.027 C 
BRANCH  13  14
ATOM     14  C   UNL     1       1.125   9.621  17.955  1.00  0.00     0.004 C 
BRANCH  14  15
ATOM     15  C   UNL     1      -0.127   8.727  18.005  1.00  0.00     0.000 C 
BRANCH  15  16
ATOM     16  C   UNL     1       0.061   7.383  18.739  1.00  0.00     0.000 C 
BRANCH  16  17
ATOM     17  C   UNL     1       0.023   6.134  17.837  1.00  0.00    -0.000 C 
BRANCH  17  18
ATOM     18  C   UNL     1       0.827   4.927  18.361  1.00  0.00    -0.000 C 
BRANCH  18  19
ATOM     19  C   UNL     1       1.620   5.192  19.653  1.00  0.00    -0.003 C 
ATOM     20  C   UNL     1       2.749   4.185  19.875  1.00  0.00     0.004 C 
ENDBRANCH  18  19
ENDBRANCH  17  18
ENDBRANCH  16  17
ENDBRANCH  15  16
ENDBRANCH  14  15
ENDBRANCH  13  14
ENDBRANCH   2  13
TORSDOF 15
ENDMDL
MODEL 4
REMARK VINA RESULT:    -6.146      2.528      6.253
REMARK INTER + INTRA:         -13.391
REMARK INTER:                 -11.431
REMARK INTRA:                  -1.960
REMARK UNBOUND:                -1.856
REMARK SMILES CCCCCCCCC=CCCCCCCCC(=O)[O-]
REMARK SMILES IDX 10 1 9 2 11 3 12 4 13 5 14 6 15 7 16 8 17 9 18 10 19 11
REMARK SMILES IDX 20 12 8 13 7 14 6 15 5 16 4 17 3 18 2 19 1 20
REMARK H PARENT
REMARK Flexibility Score: inf
ROOT
ATOM      1  C   UNL     1       4.284  10.807  14.836  1.00  0.00    -0.031 C 
ATOM      2  C   UNL     1       3.280  11.559  14.360  1.00  0.00    -0.031 C 
ENDROOT
BRANCH   1   3
ATOM      3  C   UNL     1       4.396   9.342  14.508  1.00  0.00     0.027 C 
BRANCH   3   4
ATOM      4  C   UNL     1       4.090   8.442  15.717  1.00  0.00     0.004 C 
BRANCH   4   5
ATOM      5  C   UNL     1       3.885   9.202  17.044  1.00  0.00     0.000 C 
BRANCH   5   6
ATOM      6  C   UNL     1       2.533   8.954  17.737  1.00  0.00     0.000 C 
BRANCH   6   7
ATOM      7  C   UNL     1       2.259   7.463  17.995  1.00  0.00     0.000 C 
BRANCH   7   8
ATOM      8  C   UNL     1       0.959   7.222  18.787  1.00  0.00     0.006 C 
BRANCH   8   9
ATOM      9  C   UNL     1       0.448   5.773  18.713  1.00  0.00     0.053 C 
BRANCH   9  10
ATOM     10  C   UNL     1       1.462   4.782  19.198  1.00  0.00     0.041 C 
ATOM     11  O   UNL     1       1.920   4.863  20.369  1.00  0.00    -0.550 OA
ATOM     12  O   UNL     1       1.902   3.768  18.356  1.00  0.00    -0.550 OA
ENDBRANCH   9  10
ENDBRANCH   8   9
ENDBRANCH   7   8
ENDBRANCH   6   7
ENDBRANCH   5   6
ENDBRANCH   4   5
ENDBRANCH   3   4
ENDBRANCH   1   3
BRANCH   2  13
ATOM     13  C   UNL     1       3.159  13.019  14.700  1.00  0.00     0.027 C 
BRANCH  13  14
ATOM     14  C   UNL     1       3.930  13.355  15.985  1.00  0.00     0.004 C 
BRANCH  14  15
ATOM     15  C   UNL     1       3.004  13.585  17.193  1.00  0.00     0.000 C 
BRANCH  15  16
ATOM     16  C   UNL     1       3.014  12.457  18.245  1.00  0.00     0.000 C 
BRANCH  16  17
ATOM     17  C   UNL     1       4.032  12.636  19.388  1.00  0.00    -0.000 C 
BRANCH  17  18
ATOM     18  C   UNL     1       4.846  11.374  19.739  1.00  0.00    -0.000 C 
BRANCH  18  19
ATOM     19  C   UNL     1       6.324  11.419  19.313  1.00  0.00    -0.003 C 
ATOM     20  C   UNL     1       6.504  11.676  17.817  1.00  0.00     0.004 C 
ENDBRANCH  18  19
ENDBRANCH  17  18
ENDBRANCH  16  17
ENDBRANCH  15  16
ENDBRANCH  14  15
ENDBRANCH  13  14
ENDBRANCH   2  13
TORSDOF 15
ENDMDL
MODEL 5
REMARK VINA RESULT:    -6.084      2.390      6.617
REMARK INTER + INTRA:         -13.276
REMARK INTER:                 -11.343
REMARK INTRA:                  -1.933
REMARK UNBOUND:                -1.856
REMARK SMILES CCCCCCCCC=CCCCCCCCC(=O)[O-]
REMARK SMILES IDX 10 1 9 2 11 3 12 4 13 5 14 6 15 7 16 8 17 9 18 10 19 11
REMARK SMILES IDX 20 12 8 13 7 14 6 15 5 16 4 17 3 18 2 19 1 20
REMARK H PARENT
REMARK Flexibility Score: inf
ROOT
ATOM      1  C   UNL     1       4.408  11.267  18.446  1.00  0.00    -0.031 C 
ATOM      2  C   UNL     1       5.417  11.089  17.579  1.00  0.00    -0.031 C 
ENDROOT
BRANCH   1   3
ATOM      3  C   UNL     1       3.608  10.106  18.972  1.00  0.00     0.027 C 
BRANCH   3   4
ATOM      4  C   UNL     1       2.759   9.432  17.881  1.00  0.00     0.004 C 
BRANCH   4   5
ATOM      5  C   UNL     1       1.983   8.185  18.355  1.00  0.00     0.000 C 
BRANCH   5   6
ATOM      6  C   UNL     1       0.449   8.315  18.312  1.00  0.00     0.000 C 
BRANCH   6   7
ATOM      7  C   UNL     1      -0.256   6.971  18.060  1.00  0.00     0.000 C 
BRANCH   7   8
ATOM      8  C   UNL     1       0.719   5.854  17.638  1.00  0.00     0.006 C 
BRANCH   8   9
ATOM      9  C   UNL     1       0.655   4.605  18.533  1.00  0.00     0.053 C 
BRANCH   9  10
ATOM     10  C   UNL     1       1.782   4.546  19.517  1.00  0.00     0.041 C 
ATOM     11  O   UNL     1       1.827   5.357  20.480  1.00  0.00    -0.550 OA
ATOM     12  O   UNL     1       2.784   3.595  19.373  1.00  0.00    -0.550 OA
ENDBRANCH   9  10
ENDBRANCH   8   9
ENDBRANCH   7   8
ENDBRANCH   6   7
ENDBRANCH   5   6
ENDBRANCH   4   5
ENDBRANCH   3   4
ENDBRANCH   1   3
BRANCH   2  13
ATOM     13  C   UNL     1       6.207  12.249  17.040  1.00  0.00     0.027 C 
BRANCH  13  14
ATOM     14  C   UNL     1       5.290  13.278  16.362  1.00  0.00     0.004 C 
BRANCH  14  15
ATOM     15  C   UNL     1       5.032  12.960  14.878  1.00  0.00     0.000 C 
BRANCH  15  16
ATOM     16  C   UNL     1       3.596  12.503  14.550  1.00  0.00     0.000 C 
BRANCH  16  17
ATOM     17  C   UNL     1       3.378  10.977  14.554  1.00  0.00    -0.000 C 
BRANCH  17  18
ATOM     18  C   UNL     1       4.600  10.144  14.115  1.00  0.00    -0.000 C 
BRANCH  18  19
ATOM     19  C   UNL     1       4.741   8.784  14.822  1.00  0.00    -0.003 C 
ATOM     20  C   UNL     1       4.231   7.618  13.976  1.00  0.00     0.004 C 
ENDBRANCH  18  19
ENDBRANCH  17  18
ENDBRANCH  16  17
ENDBRANCH  15  16
ENDBRANCH  14  15
ENDBRANCH  13  14
ENDBRANCH   2  13
TORSDOF 15
ENDMDL
MODEL 6
REMARK VINA RESULT:    -5.952      2.760      6.228
REMARK INTER + INTRA:         -13.028
REMARK INTER:                 -11.247
REMARK INTRA:                  -1.781
REMARK UNBOUND:                -1.856
REMARK SMILES CCCCCCCCC=CCCCCCCCC(=O)[O-]
REMARK SMILES IDX 10 1 9 2 11 3 12 4 13 5 14 6 15 7 16 8 17 9 18 10 19 11
REMARK SMILES IDX 20 12 8 13 7 14 6 15 5 16 4 17 3 18 2 19 1 20
REMARK H PARENT
REMARK Flexibility Score: inf
ROOT
ATOM      1  C   UNL     1       5.671  12.444  18.592  1.00  0.00    -0.031 C 
ATOM      2  C   UNL     1       5.996  12.106  17.335  1.00  0.00    -0.031 C 
ENDROOT
BRANCH   1   3
ATOM      3  C   UNL     1       5.894  11.504  19.745  1.00  0.00     0.027 C 
BRANCH   3   4
ATOM      4  C   UNL     1       4.605  10.784  20.178  1.00  0.00     0.004 C 
BRANCH   4   5
ATOM      5  C   UNL     1       3.478  10.805  19.125  1.00  0.00     0.000 C 
BRANCH   5   6
ATOM      6  C   UNL     1       3.378   9.543  18.249  1.00  0.00     0.000 C 
BRANCH   6   7
ATOM      7  C   UNL     1       1.970   8.924  18.253  1.00  0.00     0.000 C 
BRANCH   7   8
ATOM      8  C   UNL     1       1.992   7.387  18.138  1.00  0.00     0.006 C 
BRANCH   8   9
ATOM      9  C   UNL     1       1.232   6.670  19.267  1.00  0.00     0.053 C 
BRANCH   9  10
ATOM     10  C   UNL     1       1.221   5.182  19.096  1.00  0.00     0.041 C 
ATOM     11  O   UNL     1       1.594   4.432  20.037  1.00  0.00    -0.550 OA
ATOM     12  O   UNL     1       0.798   4.622  17.897  1.00  0.00    -0.550 OA
ENDBRANCH   9  10
ENDBRANCH   8   9
ENDBRANCH   7   8
ENDBRANCH   6   7
ENDBRANCH   5   6
ENDBRANCH   4   5
ENDBRANCH   3   4
ENDBRANCH   1   3
BRANCH   2  13
ATOM     13  C   UNL     1       5.759  13.039  16.181  1.00  0.00     0.027 C 
BRANCH  13  14
ATOM     14  C   UNL     1       4.270  13.390  16.047  1.00  0.00     0.004 C 
BRANCH  14  15
ATOM     15  C   UNL     1       3.408  12.185  15.629  1.00  0.00     0.000 C 
BRANCH  15  16
ATOM     16  C   UNL     1       3.468  11.829  14.129  1.00  0.00     0.000 C 
BRANCH  16  17
ATOM     17  C   UNL     1       4.039  10.434  13.810  1.00  0.00    -0.000 C 
BRANCH  17  18
ATOM     18  C   UNL     1       4.602   9.667  15.024  1.00  0.00    -0.000 C 
BRANCH  18  19
ATOM     19  C   UNL     1       4.316   8.155  15.021  1.00  0.00    -0.003 C 
ATOM     20  C   UNL     1       4.131   7.587  13.614  1.00  0.00     0.004 C 
ENDBRANCH  18  19
ENDBRANCH  17  18
ENDBRANCH  16  17
ENDBRANCH  15  16
ENDBRANCH  14  15
ENDBRANCH  13  14
ENDBRANCH   2  13
TORSDOF 15
ENDMDL
MODEL 7
REMARK VINA RESULT:    -5.919      2.431      6.694
REMARK INTER + INTRA:         -12.967
REMARK INTER:                 -10.748
REMARK INTRA:                  -2.219
REMARK UNBOUND:                -1.856
REMARK SMILES CCCCCCCCC=CCCCCCCCC(=O)[O-]
REMARK SMILES IDX 10 1 9 2 11 3 12 4 13 5 14 6 15 7 16 8 17 9 18 10 19 11
REMARK SMILES IDX 20 12 8 13 7 14 6 15 5 16 4 17 3 18 2 19 1 20
REMARK H PARENT
REMARK Flexibility Score: inf
ROOT
ATOM      1  C   UNL     1       3.563   9.337  16.211  1.00  0.00    -0.031 C 
ATOM      2  C   UNL     1       4.584   9.146  15.361  1.00  0.00    -0.031 C 
ENDROOT
BRANCH   1   3
ATOM      3  C   UNL     1       3.237   8.337  17.288  1.00  0.00     0.027 C 
BRANCH   3   4
ATOM      4  C   UNL     1       2.349   8.932  18.395  1.00  0.00     0.004 C 
BRANCH   4   5
ATOM      5  C   UNL     1       0.862   9.077  18.012  1.00  0.00     0.000 C 
BRANCH   5   6
ATOM      6  C   UNL     1      -0.076   8.017  18.620  1.00  0.00     0.000 C 
BRANCH   6   7
ATOM      7  C   UNL     1      -0.332   6.833  17.673  1.00  0.00     0.000 C 
BRANCH   7   8
ATOM      8  C   UNL     1       0.680   5.685  17.864  1.00  0.00     0.006 C 
BRANCH   8   9
ATOM      9  C   UNL     1       1.218   5.567  19.300  1.00  0.00     0.053 C 
BRANCH   9  10
ATOM     10  C   UNL     1       2.071   4.351  19.494  1.00  0.00     0.041 C 
ATOM     11  O   UNL     1       2.827   4.259  20.498  1.00  0.00    -0.550 OA
ATOM     12  O   UNL     1       2.032   3.318  18.566  1.00  0.00    -0.550 OA
ENDBRANCH   9  10
ENDBRANCH   8   9
ENDBRANCH   7   8
ENDBRANCH   6   7
ENDBRANCH   5   6
ENDBRANCH   4   5
ENDBRANCH   3   4
ENDBRANCH   1   3
BRANCH   2  13
ATOM     13  C   UNL     1       4.900  10.137  14.275  1.00  0.00     0.027 C 
BRANCH  13  14
ATOM     14  C   UNL     1       3.867  11.272  14.241  1.00  0.00     0.004 C 
BRANCH  14  15
ATOM     15  C   UNL     1       4.449  12.623  14.693  1.00  0.00     0.000 C 
BRANCH  15  16
ATOM     16  C   UNL     1       3.702  13.297  15.863  1.00  0.00     0.000 C 
BRANCH  16  17
ATOM     17  C   UNL     1       4.027  12.731  17.259  1.00  0.00    -0.000 C 
BRANCH  17  18
ATOM     18  C   UNL     1       5.497  12.313  17.466  1.00  0.00    -0.000 C 
BRANCH  18  19
ATOM     19  C   UNL     1       5.715  11.228  18.536  1.00  0.00    -0.003 C 
ATOM     20  C   UNL     1       4.756  11.358  19.719  1.00  0.00     0.004 C 
ENDBRANCH  18  19
ENDBRANCH  17  18
ENDBRANCH  16  17
ENDBRANCH  15  16
ENDBRANCH  14  15
ENDBRANCH  13  14
ENDBRANCH   2  13
TORSDOF 15
ENDMDL
MODEL 8
REMARK VINA RESULT:    -5.878      2.444      6.898
REMARK INTER + INTRA:         -12.889
REMARK INTER:                 -11.004
REMARK INTRA:                  -1.885
REMARK UNBOUND:                -1.856
REMARK SMILES CCCCCCCCC=CCCCCCCCC(=O)[O-]
REMARK SMILES IDX 10 1 9 2 11 3 12 4 13 5 14 6 15 7 16 8 17 9 18 10 19 11
REMARK SMILES IDX 20 12 8 13 7 14 6 15 5 16 4 17 3 18 2 19 1 20
REMARK H PARENT
REMARK Flexibility Score: inf
ROOT
ATOM      1  C   UNL     1       3.644   9.729  18.236  1.00  0.00    -0.031 C 
ATOM      2  C   UNL     1       3.604  10.804  19.038  1.00  0.00    -0.031 C 
ENDROOT
BRANCH   1   3
ATOM      3  C   UNL     1       2.425   8.880  17.994  1.00  0.00     0.027 C 
BRANCH   3   4
ATOM      4  C   UNL     1       1.115   9.631  18.290  1.00  0.00     0.004 C 
BRANCH   4   5
ATOM      5  C   UNL     1      -0.165   8.823  17.994  1.00  0.00     0.000 C 
BRANCH   5   6
ATOM      6  C   UNL     1      -0.277   7.481  18.741  1.00  0.00     0.000 C 
BRANCH   6   7
ATOM      7  C   UNL     1      -0.222   6.268  17.797  1.00  0.00     0.000 C 
BRANCH   7   8
ATOM      8  C   UNL     1       0.547   5.075  18.401  1.00  0.00     0.006 C 
BRANCH   8   9
ATOM      9  C   UNL     1       1.582   5.481  19.465  1.00  0.00     0.053 C 
BRANCH   9  10
ATOM     10  C   UNL     1       2.454   4.337  19.881  1.00  0.00     0.041 C 
ATOM     11  O   UNL     1       2.588   3.334  19.129  1.00  0.00    -0.550 OA
ATOM     12  O   UNL     1       3.121   4.377  21.099  1.00  0.00    -0.550 OA
ENDBRANCH   9  10
ENDBRANCH   8   9
ENDBRANCH   7   8
ENDBRANCH   6   7
ENDBRANCH   5   6
ENDBRANCH   4   5
ENDBRANCH   3   4
ENDBRANCH   1   3
BRANCH   2  13
ATOM     13  C   UNL     1       4.825  11.644  19.293  1.00  0.00     0.027 C 
BRANCH  13  14
ATOM     14  C   UNL     1       5.984  11.229  18.375  1.00  0.00     0.004 C 
BRANCH  14  15
ATOM     15  C   UNL     1       6.274  12.265  17.274  1.00  0.00     0.000 C 
BRANCH  15  16
ATOM     16  C   UNL     1       5.025  12.930  16.659  1.00  0.00     0.000 C 
BRANCH  16  17
ATOM     17  C   UNL     1       4.791  12.627  15.166  1.00  0.00    -0.000 C 
BRANCH  17  18
ATOM     18  C   UNL     1       3.735  11.540  14.880  1.00  0.00    -0.000 C 
BRANCH  18  19
ATOM     19  C   UNL     1       4.252  10.334  14.076  1.00  0.00    -0.003 C 
ATOM     20  C   UNL     1       4.940   9.287  14.951  1.00  0.00     0.004 C 
ENDBRANCH  18  19
ENDBRANCH  17  18
ENDBRANCH  16  17
ENDBRANCH  15  16
ENDBRANCH  14  15
ENDBRANCH  13  14
ENDBRANCH   2  13
TORSDOF 15
ENDMDL
MODEL 9
REMARK VINA RESULT:    -5.363      2.874      6.234
REMARK INTER + INTRA:         -11.923
REMARK INTER:                 -10.944
REMARK INTRA:                  -0.979
REMARK UNBOUND:                -1.856
REMARK SMILES CCCCCCCCC=CCCCCCCCC(=O)[O-]
REMARK SMILES IDX 10 1 9 2 11 3 12 4 13 5 14 6 15 7 16 8 17 9 18 10 19 11
REMARK SMILES IDX 20 12 8 13 7 14 6 15 5 16 4 17 3 18 2 19 1 20
REMARK H PARENT
REMARK Flexibility Score: inf
ROOT
ATOM      1  C   UNL     1       4.385  10.765  13.939  1.00  0.00    -0.031 C 
ATOM      2  C   UNL     1       3.141  11.200  14.194  1.00  0.00    -0.031 C 
ENDROOT
BRANCH   1   3
ATOM      3  C   UNL     1       4.713   9.297  13.893  1.00  0.00     0.027 C 
BRANCH   3   4
ATOM      4  C   UNL     1       4.239   8.548  15.151  1.00  0.00     0.004 C 
BRANCH   4   5
ATOM      5  C   UNL     1       4.488   9.301  16.474  1.00  0.00     0.000 C 
BRANCH   5   6
ATOM      6  C   UNL     1       3.220   9.811  17.184  1.00  0.00     0.000 C 
BRANCH   6   7
ATOM      7  C   UNL     1       2.783   8.905  18.348  1.00  0.00     0.000 C 
BRANCH   7   8
ATOM      8  C   UNL     1       2.483   7.460  17.901  1.00  0.00     0.006 C 
BRANCH   8   9
ATOM      9  C   UNL     1       1.440   6.745  18.775  1.00  0.00     0.053 C 
BRANCH   9  10
ATOM     10  C   UNL     1       0.490   5.914  17.969  1.00  0.00     0.041 C 
ATOM     11  O   UNL     1       0.621   4.662  17.925  1.00  0.00    -0.550 OA
ATOM     12  O   UNL     1      -0.544   6.522  17.267  1.00  0.00    -0.550 OA
ENDBRANCH   9  10
ENDBRANCH   8   9
ENDBRANCH   7   8
ENDBRANCH   6   7
ENDBRANCH   5   6
ENDBRANCH   4   5
ENDBRANCH   3   4
ENDBRANCH   1   3
BRANCH   2  13
ATOM     13  C   UNL     1       2.816  12.666  14.254  1.00  0.00     0.027 C 
BRANCH  13  14
ATOM     14  C   UNL     1       3.415  13.317  15.509  1.00  0.00     0.004 C 
BRANCH  14  15
ATOM     15  C   UNL     1       4.897  12.958  15.718  1.00  0.00     0.000 C 
BRANCH  15  16
ATOM     16  C   UNL     1       5.385  13.028  17.180  1.00  0.00     0.000 C 
BRANCH  16  17
ATOM     17  C   UNL     1       6.573  12.106  17.519  1.00  0.00    -0.000 C 
BRANCH  17  18
ATOM     18  C   UNL     1       6.422  11.303  18.827  1.00  0.00    -0.000 C 
BRANCH  18  19
ATOM     19  C   UNL     1       5.424  11.896  19.837  1.00  0.00    -0.003 C 
ATOM     20  C   UNL     1       4.699  10.827  20.655  1.00  0.00     0.004 C 
ENDBRANCH  18  19
ENDBRANCH  17  18
ENDBRANCH  16  17
ENDBRANCH  15  16
ENDBRANCH  14  15
ENDBRANCH  13  14
ENDBRANCH   2  13
TORSDOF 15
ENDMDL
