MODEL 1
REMARK VINA RESULT:    -7.317      0.000      0.000
REMARK INTER + INTRA:          -8.884
REMARK INTER:                  -8.600
REMARK INTRA:                  -0.284
REMARK UNBOUND:                -0.284
REMARK SMILES O=c1c(O)c(-c2ccc(O)cc2)oc2cc(O)cc(O)c12
REMARK SMILES IDX 5 1 3 2 2 3 1 4 21 5 19 6 18 7 16 8 15 9 14 10 13 11 6 12
REMARK SMILES IDX 7 13 8 14 9 15 12 16 11 17 10 18 4 20 20 22 17 24
REMARK H PARENT 10 19 4 21 20 23 17 25
REMARK Flexibility Score: inf
ROOT
ATOM      1  C   UNL     1     125.066  22.946   0.090  1.00  0.00     0.180 A 
ATOM      2  C   UNL     1     125.600  23.783   1.085  1.00  0.00     0.208 A 
ATOM      3  C   UNL     1     124.729  24.584   1.841  1.00  0.00     0.238 A 
ATOM      4  O   UNL     1     125.219  25.386   2.678  1.00  0.00    -0.285 OA
ATOM      5  C   UNL     1     123.331  24.496   1.633  1.00  0.00     0.111 A 
ATOM      6  C   UNL     1     122.352  25.228   2.372  1.00  0.00     0.134 A 
ATOM      7  C   UNL     1     121.003  25.140   2.005  1.00  0.00     0.093 A 
ATOM      8  C   UNL     1     120.590  24.299   0.969  1.00  0.00     0.123 A 
ATOM      9  C   UNL     1     121.531  23.540   0.278  1.00  0.00     0.094 A 
ATOM     10  C   UNL     1     122.889  23.634   0.595  1.00  0.00     0.146 A 
ATOM     11  O   UNL     1     123.754  22.910  -0.104  1.00  0.00    -0.452 OA
ENDROOT
BRANCH   1  12
ATOM     12  C   UNL     1     125.921  22.084  -0.757  1.00  0.00     0.021 A 
ATOM     13  C   UNL     1     126.206  20.753  -0.398  1.00  0.00     0.016 A 
ATOM     14  C   UNL     1     127.036  19.967  -1.202  1.00  0.00     0.047 A 
ATOM     15  C   UNL     1     127.604  20.501  -2.363  1.00  0.00     0.115 A 
ATOM     16  C   UNL     1     126.511  22.619  -1.914  1.00  0.00     0.016 A 
ATOM     17  C   UNL     1     127.341  21.830  -2.716  1.00  0.00     0.047 A 
BRANCH  15  18
ATOM     18  O   UNL     1     128.428  19.704  -3.155  1.00  0.00    -0.508 OA
ATOM     19  H   UNL     1     128.045  19.052  -3.830  1.00  0.00     0.293 HD
ENDBRANCH  15  18
ENDBRANCH   1  12
BRANCH   2  20
ATOM     20  O   UNL     1     126.976  23.798   1.328  1.00  0.00    -0.502 OA
ATOM     21  H   UNL     1     127.492  24.656   1.482  1.00  0.00     0.293 HD
ENDBRANCH   2  20
BRANCH   6  22
ATOM     22  O   UNL     1     122.644  26.028   3.481  1.00  0.00    -0.507 OA
ATOM     23  H   UNL     1     122.677  27.035   3.473  1.00  0.00     0.293 HD
ENDBRANCH   6  22
BRANCH   8  24
ATOM     24  O   UNL     1     119.244  24.206   0.623  1.00  0.00    -0.508 OA
ATOM     25  H   UNL     1     118.517  24.157   1.328  1.00  0.00     0.293 HD
ENDBRANCH   8  24
TORSDOF 5
ENDMDL
MODEL 2
REMARK VINA RESULT:    -7.149     11.223     13.280
REMARK INTER + INTRA:          -8.687
REMARK INTER:                  -8.444
REMARK INTRA:                  -0.243
REMARK UNBOUND:                -0.284
REMARK SMILES O=c1c(O)c(-c2ccc(O)cc2)oc2cc(O)cc(O)c12
REMARK SMILES IDX 5 1 3 2 2 3 1 4 21 5 19 6 18 7 16 8 15 9 14 10 13 11 6 12
REMARK SMILES IDX 7 13 8 14 9 15 12 16 11 17 10 18 4 20 20 22 17 24
REMARK H PARENT 10 19 4 21 20 23 17 25
REMARK Flexibility Score: inf
ROOT
ATOM      1  C   UNL     1     132.048  24.977   9.135  1.00  0.00     0.180 A 
ATOM      2  C   UNL     1     131.200  25.726   9.970  1.00  0.00     0.208 A 
ATOM      3  C   UNL     1     131.666  26.122  11.234  1.00  0.00     0.238 A 
ATOM      4  O   UNL     1     130.876  26.726  12.006  1.00  0.00    -0.285 OA
ATOM      5  C   UNL     1     132.991  25.814  11.625  1.00  0.00     0.111 A 
ATOM      6  C   UNL     1     133.584  26.204  12.866  1.00  0.00     0.134 A 
ATOM      7  C   UNL     1     134.869  25.751  13.189  1.00  0.00     0.093 A 
ATOM      8  C   UNL     1     135.608  24.977  12.292  1.00  0.00     0.123 A 
ATOM      9  C   UNL     1     135.060  24.637  11.057  1.00  0.00     0.094 A 
ATOM     10  C   UNL     1     133.765  25.041  10.721  1.00  0.00     0.146 A 
ATOM     11  O   UNL     1     133.274  24.676   9.543  1.00  0.00    -0.452 OA
ENDROOT
BRANCH   1  12
ATOM     12  C   UNL     1     131.624  24.512   7.795  1.00  0.00     0.021 A 
ATOM     13  C   UNL     1     131.278  23.168   7.560  1.00  0.00     0.016 A 
ATOM     14  C   UNL     1     130.904  22.748   6.281  1.00  0.00     0.047 A 
ATOM     15  C   UNL     1     130.885  23.657   5.218  1.00  0.00     0.115 A 
ATOM     16  C   UNL     1     131.623  25.414   6.719  1.00  0.00     0.016 A 
ATOM     17  C   UNL     1     131.248  24.991   5.440  1.00  0.00     0.047 A 
BRANCH  15  18
ATOM     18  O   UNL     1     130.510  23.223   3.949  1.00  0.00    -0.508 OA
ATOM     19  H   UNL     1     129.644  23.529   3.519  1.00  0.00     0.293 HD
ENDBRANCH  15  18
ENDBRANCH   1  12
BRANCH   2  20
ATOM     20  O   UNL     1     129.922  26.086   9.535  1.00  0.00    -0.502 OA
ATOM     21  H   UNL     1     129.734  26.962   9.063  1.00  0.00     0.293 HD
ENDBRANCH   2  20
BRANCH   6  22
ATOM     22  O   UNL     1     132.969  27.048  13.796  1.00  0.00    -0.507 OA
ATOM     23  H   UNL     1     132.046  26.912  14.177  1.00  0.00     0.293 HD
ENDBRANCH   6  22
BRANCH   8  24
ATOM     24  O   UNL     1     136.892  24.545  12.615  1.00  0.00    -0.508 OA
ATOM     25  H   UNL     1     137.064  23.948  13.416  1.00  0.00     0.293 HD
ENDBRANCH   8  24
TORSDOF 5
ENDMDL
MODEL 3
REMARK VINA RESULT:    -7.094     10.780     12.706
REMARK INTER + INTRA:          -8.621
REMARK INTER:                  -8.437
REMARK INTRA:                  -0.184
REMARK UNBOUND:                -0.284
REMARK SMILES O=c1c(O)c(-c2ccc(O)cc2)oc2cc(O)cc(O)c12
REMARK SMILES IDX 5 1 3 2 2 3 1 4 21 5 19 6 18 7 16 8 15 9 14 10 13 11 6 12
REMARK SMILES IDX 7 13 8 14 9 15 12 16 11 17 10 18 4 20 20 22 17 24
REMARK H PARENT 10 19 4 21 20 23 17 25
REMARK Flexibility Score: inf
ROOT
ATOM      1  C   UNL     1     132.226  23.872   8.484  1.00  0.00     0.180 A 
ATOM      2  C   UNL     1     131.972  24.908   9.401  1.00  0.00     0.208 A 
ATOM      3  C   UNL     1     132.292  24.712  10.754  1.00  0.00     0.238 A 
ATOM      4  O   UNL     1     131.993  25.613  11.580  1.00  0.00    -0.285 OA
ATOM      5  C   UNL     1     132.914  23.509  11.165  1.00  0.00     0.111 A 
ATOM      6  C   UNL     1     133.323  23.221  12.503  1.00  0.00     0.134 A 
ATOM      7  C   UNL     1     133.831  21.953  12.812  1.00  0.00     0.093 A 
ATOM      8  C   UNL     1     134.006  20.985  11.821  1.00  0.00     0.123 A 
ATOM      9  C   UNL     1     133.661  21.274  10.503  1.00  0.00     0.094 A 
ATOM     10  C   UNL     1     133.115  22.517  10.170  1.00  0.00     0.146 A 
ATOM     11  O   UNL     1     132.780  22.742   8.905  1.00  0.00    -0.452 OA
ENDROOT
BRANCH   1  12
ATOM     12  C   UNL     1     131.904  23.997   7.045  1.00  0.00     0.021 A 
ATOM     13  C   UNL     1     130.877  23.238   6.454  1.00  0.00     0.016 A 
ATOM     14  C   UNL     1     130.607  23.356   5.088  1.00  0.00     0.047 A 
ATOM     15  C   UNL     1     131.366  24.219   4.291  1.00  0.00     0.115 A 
ATOM     16  C   UNL     1     132.676  24.847   6.235  1.00  0.00     0.016 A 
ATOM     17  C   UNL     1     132.403  24.963   4.869  1.00  0.00     0.047 A 
BRANCH  15  18
ATOM     18  O   UNL     1     131.086  24.327   2.932  1.00  0.00    -0.508 OA
ATOM     19  H   UNL     1     131.797  24.603   2.264  1.00  0.00     0.293 HD
ENDBRANCH  15  18
ENDBRANCH   1  12
BRANCH   2  20
ATOM     20  O   UNL     1     131.429  26.118   8.963  1.00  0.00    -0.502 OA
ATOM     21  H   UNL     1     131.656  26.523   8.063  1.00  0.00     0.293 HD
ENDBRANCH   2  20
BRANCH   6  22
ATOM     22  O   UNL     1     133.275  24.145  13.552  1.00  0.00    -0.507 OA
ATOM     23  H   UNL     1     132.453  24.362  14.093  1.00  0.00     0.293 HD
ENDBRANCH   6  22
BRANCH   8  24
ATOM     24  O   UNL     1     134.528  19.732  12.135  1.00  0.00    -0.508 OA
ATOM     25  H   UNL     1     134.238  19.230  12.966  1.00  0.00     0.293 HD
ENDBRANCH   8  24
TORSDOF 5
ENDMDL
MODEL 4
REMARK VINA RESULT:    -7.088     11.092     13.483
REMARK INTER + INTRA:          -8.614
REMARK INTER:                  -8.320
REMARK INTRA:                  -0.294
REMARK UNBOUND:                -0.284
REMARK SMILES O=c1c(O)c(-c2ccc(O)cc2)oc2cc(O)cc(O)c12
REMARK SMILES IDX 5 1 3 2 2 3 1 4 21 5 19 6 18 7 16 8 15 9 14 10 13 11 6 12
REMARK SMILES IDX 7 13 8 14 9 15 12 16 11 17 10 18 4 20 20 22 17 24
REMARK H PARENT 10 19 4 21 20 23 17 25
REMARK Flexibility Score: inf
ROOT
ATOM      1  C   UNL     1     131.129  24.830  10.003  1.00  0.00     0.180 A 
ATOM      2  C   UNL     1     131.198  25.418  11.279  1.00  0.00     0.208 A 
ATOM      3  C   UNL     1     132.003  24.819  12.261  1.00  0.00     0.238 A 
ATOM      4  O   UNL     1     132.001  25.307  13.422  1.00  0.00    -0.285 OA
ATOM      5  C   UNL     1     132.775  23.676  11.941  1.00  0.00     0.111 A 
ATOM      6  C   UNL     1     133.661  23.014  12.845  1.00  0.00     0.134 A 
ATOM      7  C   UNL     1     134.291  21.828  12.448  1.00  0.00     0.093 A 
ATOM      8  C   UNL     1     134.119  21.314  11.161  1.00  0.00     0.123 A 
ATOM      9  C   UNL     1     133.299  21.982  10.254  1.00  0.00     0.094 A 
ATOM     10  C   UNL     1     132.626  23.148  10.632  1.00  0.00     0.146 A 
ATOM     11  O   UNL     1     131.838  23.739   9.743  1.00  0.00    -0.452 OA
ENDROOT
BRANCH   1  12
ATOM     12  C   UNL     1     130.291  25.393   8.921  1.00  0.00     0.021 A 
ATOM     13  C   UNL     1     128.969  24.956   8.712  1.00  0.00     0.016 A 
ATOM     14  C   UNL     1     128.207  25.486   7.668  1.00  0.00     0.047 A 
ATOM     15  C   UNL     1     128.755  26.445   6.810  1.00  0.00     0.115 A 
ATOM     16  C   UNL     1     130.842  26.341   8.043  1.00  0.00     0.016 A 
ATOM     17  C   UNL     1     130.076  26.869   6.999  1.00  0.00     0.047 A 
BRANCH  15  18
ATOM     18  O   UNL     1     127.982  26.964   5.775  1.00  0.00    -0.508 OA
ATOM     19  H   UNL     1     128.064  26.615   4.826  1.00  0.00     0.293 HD
ENDBRANCH  15  18
ENDBRANCH   1  12
BRANCH   2  20
ATOM     20  O   UNL     1     130.489  26.590  11.553  1.00  0.00    -0.502 OA
ATOM     21  H   UNL     1     130.604  27.106  12.417  1.00  0.00     0.293 HD
ENDBRANCH   2  20
BRANCH   6  22
ATOM     22  O   UNL     1     133.974  23.488  14.122  1.00  0.00    -0.507 OA
ATOM     23  H   UNL     1     134.495  24.329  14.314  1.00  0.00     0.293 HD
ENDBRANCH   6  22
BRANCH   8  24
ATOM     24  O   UNL     1     134.763  20.143  10.771  1.00  0.00    -0.508 OA
ATOM     25  H   UNL     1     134.545  19.685   9.893  1.00  0.00     0.293 HD
ENDBRANCH   8  24
TORSDOF 5
ENDMDL
MODEL 5
REMARK VINA RESULT:    -7.071      9.221     11.600
REMARK INTER + INTRA:          -8.594
REMARK INTER:                  -8.350
REMARK INTRA:                  -0.244
REMARK UNBOUND:                -0.284
REMARK SMILES O=c1c(O)c(-c2ccc(O)cc2)oc2cc(O)cc(O)c12
REMARK SMILES IDX 5 1 3 2 2 3 1 4 21 5 19 6 18 7 16 8 15 9 14 10 13 11 6 12
REMARK SMILES IDX 7 13 8 14 9 15 12 16 11 17 10 18 4 20 20 22 17 24
REMARK H PARENT 10 19 4 21 20 23 17 25
REMARK Flexibility Score: inf
ROOT
ATOM      1  C   UNL     1     133.021  29.341  -1.577  1.00  0.00     0.180 A 
ATOM      2  C   UNL     1     133.831  28.193  -1.638  1.00  0.00     0.208 A 
ATOM      3  C   UNL     1     133.380  27.080  -2.365  1.00  0.00     0.238 A 
ATOM      4  O   UNL     1     134.075  26.030  -2.353  1.00  0.00    -0.285 OA
ATOM      5  C   UNL     1     132.154  27.147  -3.069  1.00  0.00     0.111 A 
ATOM      6  C   UNL     1     131.620  26.094  -3.875  1.00  0.00     0.134 A 
ATOM      7  C   UNL     1     130.346  26.235  -4.438  1.00  0.00     0.093 A 
ATOM      8  C   UNL     1     129.612  27.413  -4.280  1.00  0.00     0.123 A 
ATOM      9  C   UNL     1     130.147  28.466  -3.541  1.00  0.00     0.094 A 
ATOM     10  C   UNL     1     131.400  28.342  -2.934  1.00  0.00     0.146 A 
ATOM     11  O   UNL     1     131.861  29.362  -2.221  1.00  0.00    -0.452 OA
ENDROOT
BRANCH   1  12
ATOM     12  C   UNL     1     133.421  30.548  -0.819  1.00  0.00     0.021 A 
ATOM     13  C   UNL     1     133.362  30.586   0.586  1.00  0.00     0.016 A 
ATOM     14  C   UNL     1     133.722  31.746   1.278  1.00  0.00     0.047 A 
ATOM     15  C   UNL     1     134.130  32.886   0.578  1.00  0.00     0.115 A 
ATOM     16  C   UNL     1     133.812  31.703  -1.517  1.00  0.00     0.016 A 
ATOM     17  C   UNL     1     134.172  32.862  -0.822  1.00  0.00     0.047 A 
BRANCH  15  18
ATOM     18  O   UNL     1     134.486  34.034   1.281  1.00  0.00    -0.508 OA
ATOM     19  H   UNL     1     133.818  34.529   1.860  1.00  0.00     0.293 HD
ENDBRANCH  15  18
ENDBRANCH   1  12
BRANCH   2  20
ATOM     20  O   UNL     1     135.074  28.174  -1.000  1.00  0.00    -0.502 OA
ATOM     21  H   UNL     1     135.169  28.216   0.007  1.00  0.00     0.293 HD
ENDBRANCH   2  20
BRANCH   6  22
ATOM     22  O   UNL     1     132.305  24.912  -4.172  1.00  0.00    -0.507 OA
ATOM     23  H   UNL     1     132.721  24.694  -5.064  1.00  0.00     0.293 HD
ENDBRANCH   6  22
BRANCH   8  24
ATOM     24  O   UNL     1     128.353  27.549  -4.858  1.00  0.00    -0.508 OA
ATOM     25  H   UNL     1     127.541  27.800  -4.306  1.00  0.00     0.293 HD
ENDBRANCH   8  24
TORSDOF 5
ENDMDL
MODEL 6
REMARK VINA RESULT:    -7.018      6.622      9.270
REMARK INTER + INTRA:          -8.532
REMARK INTER:                  -8.234
REMARK INTRA:                  -0.299
REMARK UNBOUND:                -0.284
REMARK SMILES O=c1c(O)c(-c2ccc(O)cc2)oc2cc(O)cc(O)c12
REMARK SMILES IDX 5 1 3 2 2 3 1 4 21 5 19 6 18 7 16 8 15 9 14 10 13 11 6 12
REMARK SMILES IDX 7 13 8 14 9 15 12 16 11 17 10 18 4 20 20 22 17 24
REMARK H PARENT 10 19 4 21 20 23 17 25
REMARK Flexibility Score: inf
ROOT
ATOM      1  C   UNL     1     123.107  30.264   2.051  1.00  0.00     0.180 A 
ATOM      2  C   UNL     1     123.583  31.087   3.087  1.00  0.00     0.208 A 
ATOM      3  C   UNL     1     124.522  32.086   2.785  1.00  0.00     0.238 A 
ATOM      4  O   UNL     1     124.999  32.769   3.729  1.00  0.00    -0.285 OA
ATOM      5  C   UNL     1     124.930  32.289   1.445  1.00  0.00     0.111 A 
ATOM      6  C   UNL     1     125.842  33.303   1.018  1.00  0.00     0.134 A 
ATOM      7  C   UNL     1     126.255  33.340  -0.320  1.00  0.00     0.093 A 
ATOM      8  C   UNL     1     125.741  32.443  -1.259  1.00  0.00     0.123 A 
ATOM      9  C   UNL     1     124.809  31.486  -0.863  1.00  0.00     0.094 A 
ATOM     10  C   UNL     1     124.406  31.398   0.472  1.00  0.00     0.146 A 
ATOM     11  O   UNL     1     123.534  30.457   0.809  1.00  0.00    -0.452 OA
ENDROOT
BRANCH   1  12
ATOM     12  C   UNL     1     122.129  29.179   2.292  1.00  0.00     0.021 A 
ATOM     13  C   UNL     1     122.543  27.885   2.658  1.00  0.00     0.016 A 
ATOM     14  C   UNL     1     121.600  26.872   2.856  1.00  0.00     0.047 A 
ATOM     15  C   UNL     1     120.238  27.131   2.678  1.00  0.00     0.115 A 
ATOM     16  C   UNL     1     120.760  29.427   2.095  1.00  0.00     0.016 A 
ATOM     17  C   UNL     1     119.821  28.412   2.294  1.00  0.00     0.047 A 
BRANCH  15  18
ATOM     18  O   UNL     1     119.311  26.112   2.880  1.00  0.00    -0.508 OA
ATOM     19  H   UNL     1     119.401  25.460   3.652  1.00  0.00     0.293 HD
ENDBRANCH  15  18
ENDBRANCH   1  12
BRANCH   2  20
ATOM     20  O   UNL     1     123.110  30.921   4.391  1.00  0.00    -0.502 OA
ATOM     21  H   UNL     1     122.122  30.886   4.611  1.00  0.00     0.293 HD
ENDBRANCH   2  20
BRANCH   6  22
ATOM     22  O   UNL     1     126.348  34.303   1.853  1.00  0.00    -0.507 OA
ATOM     23  H   UNL     1     126.334  34.276   2.861  1.00  0.00     0.293 HD
ENDBRANCH   6  22
BRANCH   8  24
ATOM     24  O   UNL     1     126.145  32.499  -2.591  1.00  0.00    -0.508 OA
ATOM     25  H   UNL     1     125.870  33.264  -3.196  1.00  0.00     0.293 HD
ENDBRANCH   8  24
TORSDOF 5
ENDMDL
MODEL 7
REMARK VINA RESULT:    -6.937     10.484     12.337
REMARK INTER + INTRA:          -8.437
REMARK INTER:                  -8.165
REMARK INTRA:                  -0.272
REMARK UNBOUND:                -0.284
REMARK SMILES O=c1c(O)c(-c2ccc(O)cc2)oc2cc(O)cc(O)c12
REMARK SMILES IDX 5 1 3 2 2 3 1 4 21 5 19 6 18 7 16 8 15 9 14 10 13 11 6 12
REMARK SMILES IDX 7 13 8 14 9 15 12 16 11 17 10 18 4 20 20 22 17 24
REMARK H PARENT 10 19 4 21 20 23 17 25
REMARK Flexibility Score: inf
ROOT
ATOM      1  C   UNL     1     131.130  24.340   9.154  1.00  0.00     0.180 A 
ATOM      2  C   UNL     1     131.247  23.056   9.716  1.00  0.00     0.208 A 
ATOM      3  C   UNL     1     131.255  22.923  11.114  1.00  0.00     0.238 A 
ATOM      4  O   UNL     1     131.435  21.781  11.610  1.00  0.00    -0.285 OA
ATOM      5  C   UNL     1     131.089  24.067  11.932  1.00  0.00     0.111 A 
ATOM      6  C   UNL     1     131.036  24.044  13.360  1.00  0.00     0.134 A 
ATOM      7  C   UNL     1     130.976  25.251  14.067  1.00  0.00     0.093 A 
ATOM      8  C   UNL     1     130.901  26.476  13.400  1.00  0.00     0.123 A 
ATOM      9  C   UNL     1     130.897  26.505  12.007  1.00  0.00     0.094 A 
ATOM     10  C   UNL     1     130.995  25.320  11.273  1.00  0.00     0.146 A 
ATOM     11  O   UNL     1     131.009  25.397   9.948  1.00  0.00    -0.452 OA
ENDROOT
BRANCH   1  12
ATOM     12  C   UNL     1     131.129  24.562   7.691  1.00  0.00     0.021 A 
ATOM     13  C   UNL     1     129.927  24.666   6.965  1.00  0.00     0.016 A 
ATOM     14  C   UNL     1     129.953  24.852   5.580  1.00  0.00     0.047 A 
ATOM     15  C   UNL     1     131.173  24.920   4.900  1.00  0.00     0.115 A 
ATOM     16  C   UNL     1     132.350  24.611   6.999  1.00  0.00     0.016 A 
ATOM     17  C   UNL     1     132.372  24.796   5.613  1.00  0.00     0.047 A 
BRANCH  15  18
ATOM     18  O   UNL     1     131.181  25.106   3.520  1.00  0.00    -0.508 OA
ATOM     19  H   UNL     1     131.354  24.336   2.883  1.00  0.00     0.293 HD
ENDBRANCH  15  18
ENDBRANCH   1  12
BRANCH   2  20
ATOM     20  O   UNL     1     131.332  21.932   8.892  1.00  0.00    -0.502 OA
ATOM     21  H   UNL     1     131.375  20.989   9.259  1.00  0.00     0.293 HD
ENDBRANCH   2  20
BRANCH   6  22
ATOM     22  O   UNL     1     131.015  22.873  14.124  1.00  0.00    -0.507 OA
ATOM     23  H   UNL     1     130.685  21.978  13.799  1.00  0.00     0.293 HD
ENDBRANCH   6  22
BRANCH   8  24
ATOM     24  O   UNL     1     130.825  27.670  14.112  1.00  0.00    -0.508 OA
ATOM     25  H   UNL     1     130.174  27.788  14.881  1.00  0.00     0.293 HD
ENDBRANCH   8  24
TORSDOF 5
ENDMDL
MODEL 8
REMARK VINA RESULT:    -6.925      8.047     10.120
REMARK INTER + INTRA:          -8.424
REMARK INTER:                  -8.140
REMARK INTRA:                  -0.284
REMARK UNBOUND:                -0.284
REMARK SMILES O=c1c(O)c(-c2ccc(O)cc2)oc2cc(O)cc(O)c12
REMARK SMILES IDX 5 1 3 2 2 3 1 4 21 5 19 6 18 7 16 8 15 9 14 10 13 11 6 12
REMARK SMILES IDX 7 13 8 14 9 15 12 16 11 17 10 18 4 20 20 22 17 24
REMARK H PARENT 10 19 4 21 20 23 17 25
REMARK Flexibility Score: inf
ROOT
ATOM      1  C   UNL     1     130.989  23.433   7.202  1.00  0.00     0.180 A 
ATOM      2  C   UNL     1     129.858  24.241   7.415  1.00  0.00     0.208 A 
ATOM      3  C   UNL     1     129.004  24.515   6.334  1.00  0.00     0.238 A 
ATOM      4  O   UNL     1     128.036  25.300   6.515  1.00  0.00    -0.285 OA
ATOM      5  C   UNL     1     129.258  23.934   5.069  1.00  0.00     0.111 A 
ATOM      6  C   UNL     1     128.435  24.107   3.914  1.00  0.00     0.134 A 
ATOM      7  C   UNL     1     128.844  23.569   2.688  1.00  0.00     0.093 A 
ATOM      8  C   UNL     1     130.013  22.810   2.586  1.00  0.00     0.123 A 
ATOM      9  C   UNL     1     130.795  22.590   3.718  1.00  0.00     0.094 A 
ATOM     10  C   UNL     1     130.433  23.146   4.949  1.00  0.00     0.146 A 
ATOM     11  O   UNL     1     131.219  22.929   5.996  1.00  0.00    -0.452 OA
ENDROOT
BRANCH   1  12
ATOM     12  C   UNL     1     131.943  23.111   8.287  1.00  0.00     0.021 A 
ATOM     13  C   UNL     1     131.716  22.038   9.169  1.00  0.00     0.016 A 
ATOM     14  C   UNL     1     132.620  21.769  10.201  1.00  0.00     0.047 A 
ATOM     15  C   UNL     1     133.750  22.574  10.376  1.00  0.00     0.115 A 
ATOM     16  C   UNL     1     133.069  23.927   8.481  1.00  0.00     0.016 A 
ATOM     17  C   UNL     1     133.971  23.656   9.514  1.00  0.00     0.047 A 
BRANCH  15  18
ATOM     18  O   UNL     1     134.641  22.293  11.408  1.00  0.00    -0.508 OA
ATOM     19  H   UNL     1     135.469  22.858  11.562  1.00  0.00     0.293 HD
ENDBRANCH  15  18
ENDBRANCH   1  12
BRANCH   2  20
ATOM     20  O   UNL     1     129.581  24.743   8.689  1.00  0.00    -0.502 OA
ATOM     21  H   UNL     1     129.414  25.726   8.862  1.00  0.00     0.293 HD
ENDBRANCH   2  20
BRANCH   6  22
ATOM     22  O   UNL     1     127.204  24.770   3.923  1.00  0.00    -0.507 OA
ATOM     23  H   UNL     1     126.668  25.002   3.102  1.00  0.00     0.293 HD
ENDBRANCH   6  22
BRANCH   8  24
ATOM     24  O   UNL     1     130.403  22.266   1.365  1.00  0.00    -0.508 OA
ATOM     25  H   UNL     1     130.832  22.834   0.644  1.00  0.00     0.293 HD
ENDBRANCH   8  24
TORSDOF 5
ENDMDL
MODEL 9
REMARK VINA RESULT:    -6.906      9.247     11.125
REMARK INTER + INTRA:          -8.401
REMARK INTER:                  -8.138
REMARK INTRA:                  -0.263
REMARK UNBOUND:                -0.284
REMARK SMILES O=c1c(O)c(-c2ccc(O)cc2)oc2cc(O)cc(O)c12
REMARK SMILES IDX 5 1 3 2 2 3 1 4 21 5 19 6 18 7 16 8 15 9 14 10 13 11 6 12
REMARK SMILES IDX 7 13 8 14 9 15 12 16 11 17 10 18 4 20 20 22 17 24
REMARK H PARENT 10 19 4 21 20 23 17 25
REMARK Flexibility Score: inf
ROOT
ATOM      1  C   UNL     1     131.240  23.135   8.757  1.00  0.00     0.180 A 
ATOM      2  C   UNL     1     130.294  24.065   9.223  1.00  0.00     0.208 A 
ATOM      3  C   UNL     1     129.499  24.752   8.291  1.00  0.00     0.238 A 
ATOM      4  O   UNL     1     128.708  25.637   8.709  1.00  0.00    -0.285 OA
ATOM      5  C   UNL     1     129.617  24.458   6.911  1.00  0.00     0.111 A 
ATOM      6  C   UNL     1     128.830  25.060   5.882  1.00  0.00     0.134 A 
ATOM      7  C   UNL     1     129.110  24.769   4.541  1.00  0.00     0.093 A 
ATOM      8  C   UNL     1     130.103  23.851   4.193  1.00  0.00     0.123 A 
ATOM      9  C   UNL     1     130.839  23.218   5.192  1.00  0.00     0.094 A 
ATOM     10  C   UNL     1     130.611  23.515   6.538  1.00  0.00     0.146 A 
ATOM     11  O   UNL     1     131.350  22.905   7.455  1.00  0.00    -0.452 OA
ENDROOT
BRANCH   1  12
ATOM     12  C   UNL     1     132.124  22.383   9.676  1.00  0.00     0.021 A 
ATOM     13  C   UNL     1     133.468  22.755   9.870  1.00  0.00     0.016 A 
ATOM     14  C   UNL     1     134.289  22.015  10.725  1.00  0.00     0.047 A 
ATOM     15  C   UNL     1     133.788  20.888  11.384  1.00  0.00     0.115 A 
ATOM     16  C   UNL     1     131.633  21.238  10.325  1.00  0.00     0.016 A 
ATOM     17  C   UNL     1     132.458  20.500  11.179  1.00  0.00     0.047 A 
BRANCH  15  18
ATOM     18  O   UNL     1     134.619  20.161  12.233  1.00  0.00    -0.508 OA
ATOM     19  H   UNL     1     135.399  19.621  11.876  1.00  0.00     0.293 HD
ENDBRANCH  15  18
ENDBRANCH   1  12
BRANCH   2  20
ATOM     20  O   UNL     1     130.139  24.285  10.594  1.00  0.00    -0.502 OA
ATOM     21  H   UNL     1     130.927  24.371  11.224  1.00  0.00     0.293 HD
ENDBRANCH   2  20
BRANCH   6  22
ATOM     22  O   UNL     1     127.756  25.922   6.120  1.00  0.00    -0.507 OA
ATOM     23  H   UNL     1     126.882  25.908   5.619  1.00  0.00     0.293 HD
ENDBRANCH   6  22
BRANCH   8  24
ATOM     24  O   UNL     1     130.362  23.556   2.857  1.00  0.00    -0.508 OA
ATOM     25  H   UNL     1     129.644  23.639   2.146  1.00  0.00     0.293 HD
ENDBRANCH   8  24
TORSDOF 5
ENDMDL
