MODEL 1
REMARK VINA RESULT:    -4.488      0.000      0.000
REMARK INTER + INTRA:          -9.871
REMARK INTER:                  -8.687
REMARK INTRA:                  -1.184
REMARK UNBOUND:                -1.184
REMARK SMILES CCCCCCCCCCCCCCCCCC(=O)[O-]
REMARK SMILES IDX 10 1 11 2 12 3 13 4 14 5 15 6 16 7 17 8 18 9 19 10 20 11
REMARK SMILES IDX 9 12 8 13 7 14 6 15 5 16 4 17 3 18 2 19 1 20
REMARK H PARENT
REMARK Flexibility Score: inf
ROOT
ATOM      1  C   UNL     1       7.979   4.784   1.667  1.00  0.00     0.000 C 
ENDROOT
BRANCH   1   2
ATOM      2  C   UNL     1       7.860   6.317   1.720  1.00  0.00     0.000 C 
BRANCH   2   3
ATOM      3  C   UNL     1       7.940   7.031   0.354  1.00  0.00     0.000 C 
BRANCH   3   4
ATOM      4  C   UNL     1       8.342   8.516   0.419  1.00  0.00     0.000 C 
BRANCH   4   5
ATOM      5  C   UNL     1       8.589   9.005   1.855  1.00  0.00     0.000 C 
BRANCH   5   6
ATOM      6  C   UNL     1       8.334  10.515   2.025  1.00  0.00     0.000 C 
BRANCH   6   7
ATOM      7  C   UNL     1       7.416  10.888   3.204  1.00  0.00     0.006 C 
BRANCH   7   8
ATOM      8  C   UNL     1       7.398   9.826   4.310  1.00  0.00     0.053 C 
BRANCH   8   9
ATOM      9  C   UNL     1       5.990   9.467   4.665  1.00  0.00     0.041 C 
ATOM     10  O   UNL     1       5.661   9.309   5.871  1.00  0.00    -0.550 OA
ATOM     11  O   UNL     1       5.050   9.265   3.662  1.00  0.00    -0.550 OA
ENDBRANCH   8   9
ENDBRANCH   7   8
ENDBRANCH   6   7
ENDBRANCH   5   6
ENDBRANCH   4   5
ENDBRANCH   3   4
ENDBRANCH   2   3
ENDBRANCH   1   2
BRANCH   1  12
ATOM     12  C   UNL     1       8.917   4.292   0.556  1.00  0.00     0.000 C 
BRANCH  12  13
ATOM     13  C   UNL     1       8.275   3.138  -0.229  1.00  0.00    -0.000 C 
BRANCH  13  14
ATOM     14  C   UNL     1       6.750   3.068  -0.044  1.00  0.00    -0.000 C 
BRANCH  14  15
ATOM     15  C   UNL     1       6.185   1.666  -0.336  1.00  0.00    -0.000 C 
BRANCH  15  16
ATOM     16  C   UNL     1       7.163   0.793  -1.138  1.00  0.00    -0.000 C 
BRANCH  16  17
ATOM     17  C   UNL     1       6.786   0.693  -2.628  1.00  0.00    -0.000 C 
BRANCH  17  18
ATOM     18  C   UNL     1       8.015   0.634  -3.551  1.00  0.00    -0.000 C 
BRANCH  18  19
ATOM     19  C   UNL     1       8.172  -0.683  -4.332  1.00  0.00    -0.003 C 
ATOM     20  C   UNL     1       8.928  -1.755  -3.549  1.00  0.00     0.004 C 
ENDBRANCH  18  19
ENDBRANCH  17  18
ENDBRANCH  16  17
ENDBRANCH  15  16
ENDBRANCH  14  15
ENDBRANCH  13  14
ENDBRANCH  12  13
ENDBRANCH   1  12
TORSDOF 16
ENDMDL
MODEL 2
REMARK VINA RESULT:    -4.333      1.228      2.167
REMARK INTER + INTRA:          -9.571
REMARK INTER:                  -8.227
REMARK INTRA:                  -1.344
REMARK UNBOUND:                -1.184
REMARK SMILES CCCCCCCCCCCCCCCCCC(=O)[O-]
REMARK SMILES IDX 10 1 11 2 12 3 13 4 14 5 15 6 16 7 17 8 18 9 19 10 20 11
REMARK SMILES IDX 9 12 8 13 7 14 6 15 5 16 4 17 3 18 2 19 1 20
REMARK H PARENT
REMARK Flexibility Score: inf
ROOT
ATOM      1  C   UNL     1       7.429   6.552   0.356  1.00  0.00     0.000 C 
ENDROOT
BRANCH   1   2
ATOM      2  C   UNL     1       8.064   7.913   0.022  1.00  0.00     0.000 C 
BRANCH   2   3
ATOM      3  C   UNL     1       8.988   8.494   1.113  1.00  0.00     0.000 C 
BRANCH   3   4
ATOM      4  C   UNL     1       8.908  10.021   1.288  1.00  0.00     0.000 C 
BRANCH   4   5
ATOM      5  C   UNL     1       8.254  10.435   2.616  1.00  0.00     0.000 C 
BRANCH   5   6
ATOM      6  C   UNL     1       7.346   9.338   3.204  1.00  0.00     0.000 C 
BRANCH   6   7
ATOM      7  C   UNL     1       7.676   8.931   4.652  1.00  0.00     0.006 C 
BRANCH   7   8
ATOM      8  C   UNL     1       7.436  10.060   5.662  1.00  0.00     0.053 C 
BRANCH   8   9
ATOM      9  C   UNL     1       6.025  10.025   6.158  1.00  0.00     0.041 C 
ATOM     10  O   UNL     1       5.136  10.710   5.587  1.00  0.00    -0.550 OA
ATOM     11  O   UNL     1       5.700   9.269   7.277  1.00  0.00    -0.550 OA
ENDBRANCH   8   9
ENDBRANCH   7   8
ENDBRANCH   6   7
ENDBRANCH   5   6
ENDBRANCH   4   5
ENDBRANCH   3   4
ENDBRANCH   2   3
ENDBRANCH   1   2
BRANCH   1  12
ATOM     12  C   UNL     1       7.895   5.986   1.705  1.00  0.00     0.000 C 
BRANCH  12  13
ATOM     13  C   UNL     1       8.434   4.557   1.540  1.00  0.00    -0.000 C 
BRANCH  13  14
ATOM     14  C   UNL     1       7.903   3.862   0.275  1.00  0.00    -0.000 C 
BRANCH  14  15
ATOM     15  C   UNL     1       6.649   3.013   0.550  1.00  0.00    -0.000 C 
BRANCH  15  16
ATOM     16  C   UNL     1       6.148   2.280  -0.705  1.00  0.00    -0.000 C 
BRANCH  16  17
ATOM     17  C   UNL     1       6.310   0.752  -0.605  1.00  0.00    -0.000 C 
BRANCH  17  18
ATOM     18  C   UNL     1       7.678   0.264  -1.113  1.00  0.00    -0.000 C 
BRANCH  18  19
ATOM     19  C   UNL     1       8.287   1.118  -2.240  1.00  0.00    -0.003 C 
ATOM     20  C   UNL     1       7.925   0.611  -3.635  1.00  0.00     0.004 C 
ENDBRANCH  18  19
ENDBRANCH  17  18
ENDBRANCH  16  17
ENDBRANCH  15  16
ENDBRANCH  14  15
ENDBRANCH  13  14
ENDBRANCH  12  13
ENDBRANCH   1  12
TORSDOF 16
ENDMDL
MODEL 3
REMARK VINA RESULT:    -4.316     10.554     12.055
REMARK INTER + INTRA:          -9.538
REMARK INTER:                  -7.419
REMARK INTRA:                  -2.120
REMARK UNBOUND:                -1.184
REMARK SMILES CCCCCCCCCCCCCCCCCC(=O)[O-]
REMARK SMILES IDX 10 1 11 2 12 3 13 4 14 5 15 6 16 7 17 8 18 9 19 10 20 11
REMARK SMILES IDX 9 12 8 13 7 14 6 15 5 16 4 17 3 18 2 19 1 20
REMARK H PARENT
REMARK Flexibility Score: inf
ROOT
ATOM      1  C   UNL     1       3.051   5.373   9.648  1.00  0.00     0.000 C 
ENDROOT
BRANCH   1   2
ATOM      2  C   UNL     1       1.702   6.113   9.627  1.00  0.00     0.000 C 
BRANCH   2   3
ATOM      3  C   UNL     1       1.089   6.404  11.013  1.00  0.00     0.000 C 
BRANCH   3   4
ATOM      4  C   UNL     1       0.451   7.797  11.162  1.00  0.00     0.000 C 
BRANCH   4   5
ATOM      5  C   UNL     1       1.225   8.706  12.131  1.00  0.00     0.000 C 
BRANCH   5   6
ATOM      6  C   UNL     1       1.324  10.162  11.635  1.00  0.00     0.000 C 
BRANCH   6   7
ATOM      7  C   UNL     1       1.097  10.349  10.124  1.00  0.00     0.006 C 
BRANCH   7   8
ATOM      8  C   UNL     1       2.405  10.421   9.325  1.00  0.00     0.053 C 
BRANCH   8   9
ATOM      9  C   UNL     1       2.422   9.372   8.258  1.00  0.00     0.041 C 
ATOM     10  O   UNL     1       1.342   8.921   7.795  1.00  0.00    -0.550 OA
ATOM     11  O   UNL     1       3.633   8.862   7.805  1.00  0.00    -0.550 OA
ENDBRANCH   8   9
ENDBRANCH   7   8
ENDBRANCH   6   7
ENDBRANCH   5   6
ENDBRANCH   4   5
ENDBRANCH   3   4
ENDBRANCH   2   3
ENDBRANCH   1   2
BRANCH   1  12
ATOM     12  C   UNL     1       3.764   5.463  11.004  1.00  0.00     0.000 C 
BRANCH  12  13
ATOM     13  C   UNL     1       5.134   4.771  10.947  1.00  0.00    -0.000 C 
BRANCH  13  14
ATOM     14  C   UNL     1       5.327   3.737  12.068  1.00  0.00    -0.000 C 
BRANCH  14  15
ATOM     15  C   UNL     1       3.995   3.142  12.558  1.00  0.00    -0.000 C 
BRANCH  15  16
ATOM     16  C   UNL     1       3.985   1.606  12.514  1.00  0.00    -0.000 C 
BRANCH  16  17
ATOM     17  C   UNL     1       2.758   1.041  11.774  1.00  0.00    -0.000 C 
BRANCH  17  18
ATOM     18  C   UNL     1       2.323   1.917  10.587  1.00  0.00    -0.000 C 
BRANCH  18  19
ATOM     19  C   UNL     1       0.865   2.409  10.650  1.00  0.00    -0.003 C 
ATOM     20  C   UNL     1       0.171   2.053  11.963  1.00  0.00     0.004 C 
ENDBRANCH  18  19
ENDBRANCH  17  18
ENDBRANCH  16  17
ENDBRANCH  15  16
ENDBRANCH  14  15
ENDBRANCH  13  14
ENDBRANCH  12  13
ENDBRANCH   1  12
TORSDOF 16
ENDMDL
MODEL 4
REMARK VINA RESULT:    -4.307      5.068      8.693
REMARK INTER + INTRA:          -9.521
REMARK INTER:                  -8.460
REMARK INTRA:                  -1.061
REMARK UNBOUND:                -1.184
REMARK SMILES CCCCCCCCCCCCCCCCCC(=O)[O-]
REMARK SMILES IDX 10 1 11 2 12 3 13 4 14 5 15 6 16 7 17 8 18 9 19 10 20 11
REMARK SMILES IDX 9 12 8 13 7 14 6 15 5 16 4 17 3 18 2 19 1 20
REMARK H PARENT
REMARK Flexibility Score: inf
ROOT
ATOM      1  C   UNL     1       8.572   6.833   0.120  1.00  0.00     0.000 C 
ENDROOT
BRANCH   1   2
ATOM      2  C   UNL     1       7.841   6.328   1.377  1.00  0.00     0.000 C 
BRANCH   2   3
ATOM      3  C   UNL     1       7.709   4.795   1.490  1.00  0.00     0.000 C 
BRANCH   3   4
ATOM      4  C   UNL     1       8.606   3.992   0.531  1.00  0.00     0.000 C 
BRANCH   4   5
ATOM      5  C   UNL     1       7.804   3.237  -0.542  1.00  0.00     0.000 C 
BRANCH   5   6
ATOM      6  C   UNL     1       6.602   2.469   0.040  1.00  0.00     0.000 C 
BRANCH   6   7
ATOM      7  C   UNL     1       6.200   1.205  -0.742  1.00  0.00     0.006 C 
BRANCH   7   8
ATOM      8  C   UNL     1       7.323   0.675  -1.644  1.00  0.00     0.053 C 
BRANCH   8   9
ATOM      9  C   UNL     1       6.875   0.648  -3.071  1.00  0.00     0.041 C 
ATOM     10  O   UNL     1       6.147   1.569  -3.525  1.00  0.00    -0.550 OA
ATOM     11  O   UNL     1       7.227  -0.419  -3.889  1.00  0.00    -0.550 OA
ENDBRANCH   8   9
ENDBRANCH   7   8
ENDBRANCH   6   7
ENDBRANCH   5   6
ENDBRANCH   4   5
ENDBRANCH   3   4
ENDBRANCH   2   3
ENDBRANCH   1   2
BRANCH   1  12
ATOM     12  C   UNL     1       8.031   8.176  -0.391  1.00  0.00     0.000 C 
BRANCH  12  13
ATOM     13  C   UNL     1       8.873   8.692  -1.567  1.00  0.00    -0.000 C 
BRANCH  13  14
ATOM     14  C   UNL     1       8.049   8.892  -2.849  1.00  0.00    -0.000 C 
BRANCH  14  15
ATOM     15  C   UNL     1       8.861   8.602  -4.124  1.00  0.00    -0.000 C 
BRANCH  15  16
ATOM     16  C   UNL     1       8.030   8.782  -5.405  1.00  0.00    -0.000 C 
BRANCH  16  17
ATOM     17  C   UNL     1       7.040   9.958  -5.310  1.00  0.00    -0.000 C 
BRANCH  17  18
ATOM     18  C   UNL     1       5.728   9.694  -6.071  1.00  0.00    -0.000 C 
BRANCH  18  19
ATOM     19  C   UNL     1       4.450   9.895  -5.237  1.00  0.00    -0.003 C 
ATOM     20  C   UNL     1       4.302   8.871  -4.114  1.00  0.00     0.004 C 
ENDBRANCH  18  19
ENDBRANCH  17  18
ENDBRANCH  16  17
ENDBRANCH  15  16
ENDBRANCH  14  15
ENDBRANCH  13  14
ENDBRANCH  12  13
ENDBRANCH   1  12
TORSDOF 16
ENDMDL
MODEL 5
REMARK VINA RESULT:    -4.275      4.225      5.660
REMARK INTER + INTRA:          -9.457
REMARK INTER:                  -8.508
REMARK INTRA:                  -0.950
REMARK UNBOUND:                -1.184
REMARK SMILES CCCCCCCCCCCCCCCCCC(=O)[O-]
REMARK SMILES IDX 10 1 11 2 12 3 13 4 14 5 15 6 16 7 17 8 18 9 19 10 20 11
REMARK SMILES IDX 9 12 8 13 7 14 6 15 5 16 4 17 3 18 2 19 1 20
REMARK H PARENT
REMARK Flexibility Score: inf
ROOT
ATOM      1  C   UNL     1       7.465   6.765  -0.001  1.00  0.00     0.000 C 
ENDROOT
BRANCH   1   2
ATOM      2  C   UNL     1       8.524   7.831   0.332  1.00  0.00     0.000 C 
BRANCH   2   3
ATOM      3  C   UNL     1       8.929   8.746  -0.843  1.00  0.00     0.000 C 
BRANCH   3   4
ATOM      4  C   UNL     1       8.109   8.552  -2.131  1.00  0.00     0.000 C 
BRANCH   4   5
ATOM      5  C   UNL     1       8.721   9.275  -3.342  1.00  0.00     0.000 C 
BRANCH   5   6
ATOM      6  C   UNL     1       8.369   8.602  -4.682  1.00  0.00     0.000 C 
BRANCH   6   7
ATOM      7  C   UNL     1       7.460   9.434  -5.606  1.00  0.00     0.006 C 
BRANCH   7   8
ATOM      8  C   UNL     1       6.157   9.874  -4.927  1.00  0.00     0.053 C 
BRANCH   8   9
ATOM      9  C   UNL     1       4.991   9.143  -5.514  1.00  0.00     0.041 C 
ATOM     10  O   UNL     1       4.806   9.142  -6.759  1.00  0.00    -0.550 OA
ATOM     11  O   UNL     1       4.084   8.499  -4.681  1.00  0.00    -0.550 OA
ENDBRANCH   8   9
ENDBRANCH   7   8
ENDBRANCH   6   7
ENDBRANCH   5   6
ENDBRANCH   4   5
ENDBRANCH   3   4
ENDBRANCH   2   3
ENDBRANCH   1   2
BRANCH   1  12
ATOM     12  C   UNL     1       7.270   5.740   1.125  1.00  0.00     0.000 C 
BRANCH  12  13
ATOM     13  C   UNL     1       8.392   4.691   1.108  1.00  0.00    -0.000 C 
BRANCH  13  14
ATOM     14  C   UNL     1       8.114   3.536   0.132  1.00  0.00    -0.000 C 
BRANCH  14  15
ATOM     15  C   UNL     1       6.610   3.313  -0.104  1.00  0.00    -0.000 C 
BRANCH  15  16
ATOM     16  C   UNL     1       6.128   1.951   0.422  1.00  0.00    -0.000 C 
BRANCH  16  17
ATOM     17  C   UNL     1       6.146   0.856  -0.661  1.00  0.00    -0.000 C 
BRANCH  17  18
ATOM     18  C   UNL     1       6.387   1.418  -2.072  1.00  0.00    -0.000 C 
BRANCH  18  19
ATOM     19  C   UNL     1       7.316   0.565  -2.955  1.00  0.00    -0.003 C 
ATOM     20  C   UNL     1       8.635   0.214  -2.268  1.00  0.00     0.004 C 
ENDBRANCH  18  19
ENDBRANCH  17  18
ENDBRANCH  16  17
ENDBRANCH  15  16
ENDBRANCH  14  15
ENDBRANCH  13  14
ENDBRANCH  12  13
ENDBRANCH   1  12
TORSDOF 16
ENDMDL
MODEL 6
REMARK VINA RESULT:    -4.251     10.417     13.285
REMARK INTER + INTRA:          -9.412
REMARK INTER:                  -7.367
REMARK INTRA:                  -2.046
REMARK UNBOUND:                -1.184
REMARK SMILES CCCCCCCCCCCCCCCCCC(=O)[O-]
REMARK SMILES IDX 10 1 11 2 12 3 13 4 14 5 15 6 16 7 17 8 18 9 19 10 20 11
REMARK SMILES IDX 9 12 8 13 7 14 6 15 5 16 4 17 3 18 2 19 1 20
REMARK H PARENT
REMARK Flexibility Score: inf
ROOT
ATOM      1  C   UNL     1       1.256   3.453  10.646  1.00  0.00     0.000 C 
ENDROOT
BRANCH   1   2
ATOM      2  C   UNL     1       2.259   2.370  10.211  1.00  0.00     0.000 C 
BRANCH   2   3
ATOM      3  C   UNL     1       2.439   1.202  11.203  1.00  0.00     0.000 C 
BRANCH   3   4
ATOM      4  C   UNL     1       2.807   1.620  12.638  1.00  0.00     0.000 C 
BRANCH   4   5
ATOM      5  C   UNL     1       4.305   1.922  12.806  1.00  0.00     0.000 C 
BRANCH   5   6
ATOM      6  C   UNL     1       4.608   3.432  12.857  1.00  0.00     0.000 C 
BRANCH   6   7
ATOM      7  C   UNL     1       5.733   3.899  11.915  1.00  0.00     0.006 C 
BRANCH   7   8
ATOM      8  C   UNL     1       5.521   5.325  11.388  1.00  0.00     0.053 C 
BRANCH   8   9
ATOM      9  C   UNL     1       5.677   5.360   9.901  1.00  0.00     0.041 C 
ATOM     10  O   UNL     1       6.448   6.198   9.364  1.00  0.00    -0.550 OA
ATOM     11  O   UNL     1       4.938   4.494   9.104  1.00  0.00    -0.550 OA
ENDBRANCH   8   9
ENDBRANCH   7   8
ENDBRANCH   6   7
ENDBRANCH   5   6
ENDBRANCH   4   5
ENDBRANCH   3   4
ENDBRANCH   2   3
ENDBRANCH   1   2
BRANCH   1  12
ATOM     12  C   UNL     1       1.889   4.847  10.758  1.00  0.00     0.000 C 
BRANCH  12  13
ATOM     13  C   UNL     1       1.244   5.821   9.760  1.00  0.00    -0.000 C 
BRANCH  13  14
ATOM     14  C   UNL     1       2.270   6.737   9.073  1.00  0.00    -0.000 C 
BRANCH  14  15
ATOM     15  C   UNL     1       1.612   7.938   8.372  1.00  0.00    -0.000 C 
BRANCH  15  16
ATOM     16  C   UNL     1       2.362   9.255   8.633  1.00  0.00    -0.000 C 
BRANCH  16  17
ATOM     17  C   UNL     1       1.582  10.211   9.554  1.00  0.00    -0.000 C 
BRANCH  17  18
ATOM     18  C   UNL     1       0.169   9.698   9.885  1.00  0.00    -0.000 C 
BRANCH  18  19
ATOM     19  C   UNL     1      -0.143   9.597  11.389  1.00  0.00    -0.003 C 
ATOM     20  C   UNL     1       0.619   8.470  12.083  1.00  0.00     0.004 C 
ENDBRANCH  18  19
ENDBRANCH  17  18
ENDBRANCH  16  17
ENDBRANCH  15  16
ENDBRANCH  14  15
ENDBRANCH  13  14
ENDBRANCH  12  13
ENDBRANCH   1  12
TORSDOF 16
ENDMDL
MODEL 7
REMARK VINA RESULT:    -4.247     10.059     11.722
REMARK INTER + INTRA:          -9.404
REMARK INTER:                  -6.989
REMARK INTRA:                  -2.415
REMARK UNBOUND:                -1.184
REMARK SMILES CCCCCCCCCCCCCCCCCC(=O)[O-]
REMARK SMILES IDX 10 1 11 2 12 3 13 4 14 5 15 6 16 7 17 8 18 9 19 10 20 11
REMARK SMILES IDX 9 12 8 13 7 14 6 15 5 16 4 17 3 18 2 19 1 20
REMARK H PARENT
REMARK Flexibility Score: inf
ROOT
ATOM      1  C   UNL     1       2.071   6.919   8.967  1.00  0.00     0.000 C 
ENDROOT
BRANCH   1   2
ATOM      2  C   UNL     1       1.274   8.018   8.242  1.00  0.00     0.000 C 
BRANCH   2   3
ATOM      3  C   UNL     1       1.559   9.458   8.715  1.00  0.00     0.000 C 
BRANCH   3   4
ATOM      4  C   UNL     1       1.114   9.771  10.155  1.00  0.00     0.000 C 
BRANCH   4   5
ATOM      5  C   UNL     1       2.292   9.844  11.140  1.00  0.00     0.000 C 
BRANCH   5   6
ATOM      6  C   UNL     1       3.600  10.316  10.475  1.00  0.00     0.000 C 
BRANCH   6   7
ATOM      7  C   UNL     1       4.811   9.392  10.699  1.00  0.00     0.006 C 
BRANCH   7   8
ATOM      8  C   UNL     1       5.217   8.619   9.437  1.00  0.00     0.053 C 
BRANCH   8   9
ATOM      9  C   UNL     1       5.333   9.550   8.271  1.00  0.00     0.041 C 
ATOM     10  O   UNL     1       4.674   9.334   7.220  1.00  0.00    -0.550 OA
ATOM     11  O   UNL     1       6.203  10.632   8.330  1.00  0.00    -0.550 OA
ENDBRANCH   8   9
ENDBRANCH   7   8
ENDBRANCH   6   7
ENDBRANCH   5   6
ENDBRANCH   4   5
ENDBRANCH   3   4
ENDBRANCH   2   3
ENDBRANCH   1   2
BRANCH   1  12
ATOM     12  C   UNL     1       1.233   6.148   9.997  1.00  0.00     0.000 C 
BRANCH  12  13
ATOM     13  C   UNL     1       2.059   5.845  11.256  1.00  0.00    -0.000 C 
BRANCH  13  14
ATOM     14  C   UNL     1       3.565   5.728  10.967  1.00  0.00    -0.000 C 
BRANCH  14  15
ATOM     15  C   UNL     1       3.997   4.282  10.669  1.00  0.00    -0.000 C 
BRANCH  15  16
ATOM     16  C   UNL     1       3.138   3.246  11.413  1.00  0.00    -0.000 C 
BRANCH  16  17
ATOM     17  C   UNL     1       2.404   2.286  10.458  1.00  0.00    -0.000 C 
BRANCH  17  18
ATOM     18  C   UNL     1       0.903   2.164  10.776  1.00  0.00    -0.000 C 
BRANCH  18  19
ATOM     19  C   UNL     1       0.534   2.419  12.248  1.00  0.00    -0.003 C 
ATOM     20  C   UNL     1      -0.656   1.584  12.718  1.00  0.00     0.004 C 
ENDBRANCH  18  19
ENDBRANCH  17  18
ENDBRANCH  16  17
ENDBRANCH  15  16
ENDBRANCH  14  15
ENDBRANCH  13  14
ENDBRANCH  12  13
ENDBRANCH   1  12
TORSDOF 16
ENDMDL
MODEL 8
REMARK VINA RESULT:    -4.225     10.722     13.268
REMARK INTER + INTRA:          -9.362
REMARK INTER:                  -6.902
REMARK INTRA:                  -2.460
REMARK UNBOUND:                -1.184
REMARK SMILES CCCCCCCCCCCCCCCCCC(=O)[O-]
REMARK SMILES IDX 10 1 11 2 12 3 13 4 14 5 15 6 16 7 17 8 18 9 19 10 20 11
REMARK SMILES IDX 9 12 8 13 7 14 6 15 5 16 4 17 3 18 2 19 1 20
REMARK H PARENT
REMARK Flexibility Score: inf
ROOT
ATOM      1  C   UNL     1       1.881   4.390  10.209  1.00  0.00     0.000 C 
ENDROOT
BRANCH   1   2
ATOM      2  C   UNL     1       1.212   3.222  10.957  1.00  0.00     0.000 C 
BRANCH   2   3
ATOM      3  C   UNL     1       1.677   1.815  10.529  1.00  0.00     0.000 C 
BRANCH   3   4
ATOM      4  C   UNL     1       2.767   1.191  11.420  1.00  0.00     0.000 C 
BRANCH   4   5
ATOM      5  C   UNL     1       2.966   1.954  12.740  1.00  0.00     0.000 C 
BRANCH   5   6
ATOM      6  C   UNL     1       4.418   2.428  12.943  1.00  0.00     0.000 C 
BRANCH   6   7
ATOM      7  C   UNL     1       4.675   3.902  12.579  1.00  0.00     0.006 C 
BRANCH   7   8
ATOM      8  C   UNL     1       5.767   4.075  11.515  1.00  0.00     0.053 C 
BRANCH   8   9
ATOM      9  C   UNL     1       5.477   5.268  10.660  1.00  0.00     0.041 C 
ATOM     10  O   UNL     1       5.422   6.417  11.172  1.00  0.00    -0.550 OA
ATOM     11  O   UNL     1       5.224   5.105   9.303  1.00  0.00    -0.550 OA
ENDBRANCH   8   9
ENDBRANCH   7   8
ENDBRANCH   6   7
ENDBRANCH   5   6
ENDBRANCH   4   5
ENDBRANCH   3   4
ENDBRANCH   2   3
ENDBRANCH   1   2
BRANCH   1  12
ATOM     12  C   UNL     1       1.258   5.753  10.543  1.00  0.00     0.000 C 
BRANCH  12  13
ATOM     13  C   UNL     1       1.968   6.398  11.743  1.00  0.00    -0.000 C 
BRANCH  13  14
ATOM     14  C   UNL     1       1.335   7.735  12.162  1.00  0.00    -0.000 C 
BRANCH  14  15
ATOM     15  C   UNL     1       0.192   8.165  11.226  1.00  0.00    -0.000 C 
BRANCH  15  16
ATOM     16  C   UNL     1       0.273   9.652  10.844  1.00  0.00    -0.000 C 
BRANCH  16  17
ATOM     17  C   UNL     1       1.180   9.904   9.625  1.00  0.00    -0.000 C 
BRANCH  17  18
ATOM     18  C   UNL     1       1.027   8.826   8.537  1.00  0.00    -0.000 C 
BRANCH  18  19
ATOM     19  C   UNL     1       2.331   8.096   8.168  1.00  0.00    -0.003 C 
ATOM     20  C   UNL     1       3.513   8.502   9.046  1.00  0.00     0.004 C 
ENDBRANCH  18  19
ENDBRANCH  17  18
ENDBRANCH  16  17
ENDBRANCH  15  16
ENDBRANCH  14  15
ENDBRANCH  13  14
ENDBRANCH  12  13
ENDBRANCH   1  12
TORSDOF 16
ENDMDL
MODEL 9
REMARK VINA RESULT:    -4.223     10.379     13.199
REMARK INTER + INTRA:          -9.358
REMARK INTER:                  -6.394
REMARK INTRA:                  -2.963
REMARK UNBOUND:                -1.184
REMARK SMILES CCCCCCCCCCCCCCCCCC(=O)[O-]
REMARK SMILES IDX 10 1 11 2 12 3 13 4 14 5 15 6 16 7 17 8 18 9 19 10 20 11
REMARK SMILES IDX 9 12 8 13 7 14 6 15 5 16 4 17 3 18 2 19 1 20
REMARK H PARENT
REMARK Flexibility Score: inf
ROOT
ATOM      1  C   UNL     1       1.516   6.657  11.386  1.00  0.00     0.000 C 
ENDROOT
BRANCH   1   2
ATOM      2  C   UNL     1       1.550   5.819  10.097  1.00  0.00     0.000 C 
BRANCH   2   3
ATOM      3  C   UNL     1       2.896   5.824   9.343  1.00  0.00     0.000 C 
BRANCH   3   4
ATOM      4  C   UNL     1       3.819   4.632   9.651  1.00  0.00     0.000 C 
BRANCH   4   5
ATOM      5  C   UNL     1       4.683   4.855  10.903  1.00  0.00     0.000 C 
BRANCH   5   6
ATOM      6  C   UNL     1       4.327   3.896  12.055  1.00  0.00     0.000 C 
BRANCH   6   7
ATOM      7  C   UNL     1       3.363   2.756  11.675  1.00  0.00     0.006 C 
BRANCH   7   8
ATOM      8  C   UNL     1       1.977   2.905  12.314  1.00  0.00     0.053 C 
BRANCH   8   9
ATOM      9  C   UNL     1       0.931   2.293  11.437  1.00  0.00     0.041 C 
ATOM     10  O   UNL     1       1.152   2.125  10.209  1.00  0.00    -0.550 OA
ATOM     11  O   UNL     1      -0.306   1.948  11.968  1.00  0.00    -0.550 OA
ENDBRANCH   8   9
ENDBRANCH   7   8
ENDBRANCH   6   7
ENDBRANCH   5   6
ENDBRANCH   4   5
ENDBRANCH   3   4
ENDBRANCH   2   3
ENDBRANCH   1   2
BRANCH   1  12
ATOM     12  C   UNL     1       0.403   7.716  11.386  1.00  0.00     0.000 C 
BRANCH  12  13
ATOM     13  C   UNL     1       0.906   9.035  10.781  1.00  0.00    -0.000 C 
BRANCH  13  14
ATOM     14  C   UNL     1       0.394   9.269   9.350  1.00  0.00    -0.000 C 
BRANCH  14  15
ATOM     15  C   UNL     1       1.497   9.089   8.293  1.00  0.00    -0.000 C 
BRANCH  15  16
ATOM     16  C   UNL     1       2.735   9.954   8.581  1.00  0.00    -0.000 C 
BRANCH  16  17
ATOM     17  C   UNL     1       4.048   9.274   8.149  1.00  0.00    -0.000 C 
BRANCH  17  18
ATOM     18  C   UNL     1       4.912   8.836   9.344  1.00  0.00    -0.000 C 
BRANCH  18  19
ATOM     19  C   UNL     1       4.483   9.426  10.700  1.00  0.00    -0.003 C 
ATOM     20  C   UNL     1       4.650   8.445  11.858  1.00  0.00     0.004 C 
ENDBRANCH  18  19
ENDBRANCH  17  18
ENDBRANCH  16  17
ENDBRANCH  15  16
ENDBRANCH  14  15
ENDBRANCH  13  14
ENDBRANCH  12  13
ENDBRANCH   1  12
TORSDOF 16
ENDMDL
