MODEL 1
REMARK VINA RESULT:    -3.488      0.000      0.000
REMARK INTER + INTRA:         -13.103
REMARK INTER:                  -9.197
REMARK INTRA:                  -3.906
REMARK UNBOUND:                -3.906
REMARK SMILES CCCCCCCCCCCCCCCCCCCCCCCCCCCCCC(=O)[O-]
REMARK SMILES IDX 16 1 17 2 18 3 19 4 20 5 21 6 22 7 23 8 24 9 25 10 26 11
REMARK SMILES IDX 27 12 28 13 29 14 30 15 31 16 32 17 15 18 14 19 13 20 12 21
REMARK SMILES IDX 11 22 10 23 9 24 8 25 7 26 6 27 5 28 4 29 3 30 2 31 1 32
REMARK H PARENT
REMARK Flexibility Score: inf
ROOT
ATOM      1  C   UNL     1       1.151  44.663  10.397  1.00  0.00     0.000 C 
ENDROOT
BRANCH   1   2
ATOM      2  C   UNL     1       1.178  43.627   9.264  1.00  0.00     0.000 C 
BRANCH   2   3
ATOM      3  C   UNL     1       1.247  44.315   7.892  1.00  0.00     0.000 C 
BRANCH   3   4
ATOM      4  C   UNL     1      -0.125  44.412   7.207  1.00  0.00     0.000 C 
BRANCH   4   5
ATOM      5  C   UNL     1      -0.580  45.865   6.993  1.00  0.00     0.000 C 
BRANCH   5   6
ATOM      6  C   UNL     1      -0.949  46.528   8.329  1.00  0.00     0.000 C 
BRANCH   6   7
ATOM      7  C   UNL     1      -0.531  48.008   8.396  1.00  0.00     0.000 C 
BRANCH   7   8
ATOM      8  C   UNL     1       0.942  48.283   8.039  1.00  0.00     0.000 C 
BRANCH   8   9
ATOM      9  C   UNL     1       1.974  47.699   9.025  1.00  0.00     0.000 C 
BRANCH   9  10
ATOM     10  C   UNL     1       3.287  47.216   8.383  1.00  0.00     0.000 C 
BRANCH  10  11
ATOM     11  C   UNL     1       4.043  46.205   9.262  1.00  0.00     0.000 C 
BRANCH  11  12
ATOM     12  C   UNL     1       5.237  46.839   9.995  1.00  0.00     0.000 C 
BRANCH  12  13
ATOM     13  C   UNL     1       6.319  47.350   9.029  1.00  0.00     0.006 C 
BRANCH  13  14
ATOM     14  C   UNL     1       6.967  48.651   9.519  1.00  0.00     0.053 C 
BRANCH  14  15
ATOM     15  C   UNL     1       6.321  49.861   8.915  1.00  0.00     0.041 C 
ATOM     16  O   UNL     1       6.704  51.014   9.245  1.00  0.00    -0.550 OA
ATOM     17  O   UNL     1       5.316  49.714   7.967  1.00  0.00    -0.550 OA
ENDBRANCH  14  15
ENDBRANCH  13  14
ENDBRANCH  12  13
ENDBRANCH  11  12
ENDBRANCH  10  11
ENDBRANCH   9  10
ENDBRANCH   8   9
ENDBRANCH   7   8
ENDBRANCH   6   7
ENDBRANCH   5   6
ENDBRANCH   4   5
ENDBRANCH   3   4
ENDBRANCH   2   3
ENDBRANCH   1   2
BRANCH   1  18
ATOM     18  C   UNL     1       0.173  44.286  11.520  1.00  0.00     0.000 C 
BRANCH  18  19
ATOM     19  C   UNL     1       0.543  42.961  12.209  1.00  0.00     0.000 C 
BRANCH  19  20
ATOM     20  C   UNL     1      -0.490  42.540  13.265  1.00  0.00     0.000 C 
BRANCH  20  21
ATOM     21  C   UNL     1       0.085  41.546  14.291  1.00  0.00     0.000 C 
BRANCH  21  22
ATOM     22  C   UNL     1      -0.643  40.191  14.288  1.00  0.00     0.000 C 
BRANCH  22  23
ATOM     23  C   UNL     1      -0.032  39.122  13.362  1.00  0.00     0.000 C 
BRANCH  23  24
ATOM     24  C   UNL     1       1.506  39.108  13.396  1.00  0.00    -0.000 C 
BRANCH  24  25
ATOM     25  C   UNL     1       2.107  37.998  12.519  1.00  0.00    -0.000 C 
BRANCH  25  26
ATOM     26  C   UNL     1       3.539  38.314  12.054  1.00  0.00    -0.000 C 
BRANCH  26  27
ATOM     27  C   UNL     1       4.309  39.179  13.064  1.00  0.00    -0.000 C 
BRANCH  27  28
ATOM     28  C   UNL     1       4.778  40.515  12.462  1.00  0.00    -0.000 C 
BRANCH  28  29
ATOM     29  C   UNL     1       3.628  41.278  11.771  1.00  0.00    -0.000 C 
BRANCH  29  30
ATOM     30  C   UNL     1       4.102  42.459  10.907  1.00  0.00    -0.000 C 
BRANCH  30  31
ATOM     31  C   UNL     1       4.815  43.547  11.720  1.00  0.00    -0.003 C 
ATOM     32  C   UNL     1       3.814  44.408  12.484  1.00  0.00     0.004 C 
ENDBRANCH  30  31
ENDBRANCH  29  30
ENDBRANCH  28  29
ENDBRANCH  27  28
ENDBRANCH  26  27
ENDBRANCH  25  26
ENDBRANCH  24  25
ENDBRANCH  23  24
ENDBRANCH  22  23
ENDBRANCH  21  22
ENDBRANCH  20  21
ENDBRANCH  19  20
ENDBRANCH  18  19
ENDBRANCH   1  18
TORSDOF 28
ENDMDL
MODEL 2
REMARK VINA RESULT:    -3.257      1.014      3.433
REMARK INTER + INTRA:         -12.494
REMARK INTER:                  -9.128
REMARK INTRA:                  -3.366
REMARK UNBOUND:                -3.906
REMARK SMILES CCCCCCCCCCCCCCCCCCCCCCCCCCCCCC(=O)[O-]
REMARK SMILES IDX 16 1 17 2 18 3 19 4 20 5 21 6 22 7 23 8 24 9 25 10 26 11
REMARK SMILES IDX 27 12 28 13 29 14 30 15 31 16 32 17 15 18 14 19 13 20 12 21
REMARK SMILES IDX 11 22 10 23 9 24 8 25 7 26 6 27 5 28 4 29 3 30 2 31 1 32
REMARK H PARENT
REMARK Flexibility Score: inf
ROOT
ATOM      1  C   UNL     1       1.233  44.813   9.246  1.00  0.00     0.000 C 
ENDROOT
BRANCH   1   2
ATOM      2  C   UNL     1       0.151  45.182  10.270  1.00  0.00     0.000 C 
BRANCH   2   3
ATOM      3  C   UNL     1      -0.944  46.047   9.625  1.00  0.00     0.000 C 
BRANCH   3   4
ATOM      4  C   UNL     1      -0.956  45.943   8.092  1.00  0.00     0.000 C 
BRANCH   4   5
ATOM      5  C   UNL     1      -1.011  47.317   7.405  1.00  0.00     0.000 C 
BRANCH   5   6
ATOM      6  C   UNL     1      -1.048  48.450   8.442  1.00  0.00     0.000 C 
BRANCH   6   7
ATOM      7  C   UNL     1       0.352  48.848   8.941  1.00  0.00     0.000 C 
BRANCH   7   8
ATOM      8  C   UNL     1       1.429  48.944   7.844  1.00  0.00     0.000 C 
BRANCH   8   9
ATOM      9  C   UNL     1       2.264  47.665   7.633  1.00  0.00     0.000 C 
BRANCH   9  10
ATOM     10  C   UNL     1       3.708  47.736   8.160  1.00  0.00     0.000 C 
BRANCH  10  11
ATOM     11  C   UNL     1       3.961  46.778   9.337  1.00  0.00     0.000 C 
BRANCH  11  12
ATOM     12  C   UNL     1       5.266  47.095  10.085  1.00  0.00     0.000 C 
BRANCH  12  13
ATOM     13  C   UNL     1       6.481  47.173   9.145  1.00  0.00     0.006 C 
BRANCH  13  14
ATOM     14  C   UNL     1       7.432  48.317   9.520  1.00  0.00     0.053 C 
BRANCH  14  15
ATOM     15  C   UNL     1       6.732  49.642   9.544  1.00  0.00     0.041 C 
ATOM     16  O   UNL     1       6.761  50.354  10.582  1.00  0.00    -0.550 OA
ATOM     17  O   UNL     1       6.072  50.102   8.412  1.00  0.00    -0.550 OA
ENDBRANCH  14  15
ENDBRANCH  13  14
ENDBRANCH  12  13
ENDBRANCH  11  12
ENDBRANCH  10  11
ENDBRANCH   9  10
ENDBRANCH   8   9
ENDBRANCH   7   8
ENDBRANCH   6   7
ENDBRANCH   5   6
ENDBRANCH   4   5
ENDBRANCH   3   4
ENDBRANCH   2   3
ENDBRANCH   1   2
BRANCH   1  18
ATOM     18  C   UNL     1       1.475  43.298   9.162  1.00  0.00     0.000 C 
BRANCH  18  19
ATOM     19  C   UNL     1       2.872  42.950   8.618  1.00  0.00     0.000 C 
BRANCH  19  20
ATOM     20  C   UNL     1       3.996  43.653   9.394  1.00  0.00     0.000 C 
BRANCH  20  21
ATOM     21  C   UNL     1       4.353  42.928  10.704  1.00  0.00     0.000 C 
BRANCH  21  22
ATOM     22  C   UNL     1       4.157  43.808  11.951  1.00  0.00     0.000 C 
BRANCH  22  23
ATOM     23  C   UNL     1       2.732  43.803  12.537  1.00  0.00     0.000 C 
BRANCH  23  24
ATOM     24  C   UNL     1       1.943  42.531  12.184  1.00  0.00    -0.000 C 
BRANCH  24  25
ATOM     25  C   UNL     1       0.546  42.505  12.826  1.00  0.00    -0.000 C 
BRANCH  25  26
ATOM     26  C   UNL     1       0.425  41.457  13.946  1.00  0.00    -0.000 C 
BRANCH  26  27
ATOM     27  C   UNL     1      -0.414  40.240  13.525  1.00  0.00    -0.000 C 
BRANCH  27  28
ATOM     28  C   UNL     1       0.445  38.991  13.264  1.00  0.00    -0.000 C 
BRANCH  28  29
ATOM     29  C   UNL     1       1.935  39.231  13.587  1.00  0.00    -0.000 C 
BRANCH  29  30
ATOM     30  C   UNL     1       2.873  38.982  12.393  1.00  0.00    -0.000 C 
BRANCH  30  31
ATOM     31  C   UNL     1       4.137  39.850  12.434  1.00  0.00    -0.003 C 
ATOM     32  C   UNL     1       5.069  39.412  13.559  1.00  0.00     0.004 C 
ENDBRANCH  30  31
ENDBRANCH  29  30
ENDBRANCH  28  29
ENDBRANCH  27  28
ENDBRANCH  26  27
ENDBRANCH  25  26
ENDBRANCH  24  25
ENDBRANCH  23  24
ENDBRANCH  22  23
ENDBRANCH  21  22
ENDBRANCH  20  21
ENDBRANCH  19  20
ENDBRANCH  18  19
ENDBRANCH   1  18
TORSDOF 28
ENDMDL
MODEL 3
REMARK VINA RESULT:    -3.177      3.229      8.087
REMARK INTER + INTRA:         -12.283
REMARK INTER:                  -9.116
REMARK INTRA:                  -3.167
REMARK UNBOUND:                -3.906
REMARK SMILES CCCCCCCCCCCCCCCCCCCCCCCCCCCCCC(=O)[O-]
REMARK SMILES IDX 16 1 17 2 18 3 19 4 20 5 21 6 22 7 23 8 24 9 25 10 26 11
REMARK SMILES IDX 27 12 28 13 29 14 30 15 31 16 32 17 15 18 14 19 13 20 12 21
REMARK SMILES IDX 11 22 10 23 9 24 8 25 7 26 6 27 5 28 4 29 3 30 2 31 1 32
REMARK H PARENT
REMARK Flexibility Score: inf
ROOT
ATOM      1  C   UNL     1       3.793  43.852   9.279  1.00  0.00     0.000 C 
ENDROOT
BRANCH   1   2
ATOM      2  C   UNL     1       4.420  43.438  10.618  1.00  0.00     0.000 C 
BRANCH   2   3
ATOM      3  C   UNL     1       3.977  44.382  11.747  1.00  0.00     0.000 C 
BRANCH   3   4
ATOM      4  C   UNL     1       2.592  44.027  12.310  1.00  0.00     0.000 C 
BRANCH   4   5
ATOM      5  C   UNL     1       1.451  44.748  11.574  1.00  0.00     0.000 C 
BRANCH   5   6
ATOM      6  C   UNL     1       0.123  43.996  11.747  1.00  0.00     0.000 C 
BRANCH   6   7
ATOM      7  C   UNL     1       0.211  42.859  12.781  1.00  0.00     0.000 C 
BRANCH   7   8
ATOM      8  C   UNL     1      -1.125  42.491  13.455  1.00  0.00     0.000 C 
BRANCH   8   9
ATOM      9  C   UNL     1      -1.036  41.375  14.516  1.00  0.00     0.000 C 
BRANCH   9  10
ATOM     10  C   UNL     1       0.326  40.663  14.599  1.00  0.00     0.000 C 
BRANCH  10  11
ATOM     11  C   UNL     1       0.430  39.463  13.642  1.00  0.00     0.000 C 
BRANCH  11  12
ATOM     12  C   UNL     1       1.848  39.283  13.076  1.00  0.00     0.000 C 
BRANCH  12  13
ATOM     13  C   UNL     1       2.434  40.593  12.523  1.00  0.00     0.006 C 
BRANCH  13  14
ATOM     14  C   UNL     1       3.933  40.477  12.223  1.00  0.00     0.053 C 
BRANCH  14  15
ATOM     15  C   UNL     1       4.521  39.218  12.785  1.00  0.00     0.041 C 
ATOM     16  O   UNL     1       5.202  39.256  13.843  1.00  0.00    -0.550 OA
ATOM     17  O   UNL     1       4.292  38.001  12.157  1.00  0.00    -0.550 OA
ENDBRANCH  14  15
ENDBRANCH  13  14
ENDBRANCH  12  13
ENDBRANCH  11  12
ENDBRANCH  10  11
ENDBRANCH   9  10
ENDBRANCH   8   9
ENDBRANCH   7   8
ENDBRANCH   6   7
ENDBRANCH   5   6
ENDBRANCH   4   5
ENDBRANCH   3   4
ENDBRANCH   2   3
ENDBRANCH   1   2
BRANCH   1  18
ATOM     18  C   UNL     1       3.015  42.707   8.612  1.00  0.00     0.000 C 
BRANCH  18  19
ATOM     19  C   UNL     1       1.497  42.960   8.584  1.00  0.00     0.000 C 
BRANCH  19  20
ATOM     20  C   UNL     1       1.152  44.434   8.325  1.00  0.00     0.000 C 
BRANCH  20  21
ATOM     21  C   UNL     1       0.045  44.605   7.270  1.00  0.00     0.000 C 
BRANCH  21  22
ATOM     22  C   UNL     1      -0.816  45.860   7.500  1.00  0.00     0.000 C 
BRANCH  22  23
ATOM     23  C   UNL     1      -1.092  46.201   8.977  1.00  0.00     0.000 C 
BRANCH  23  24
ATOM     24  C   UNL     1      -0.324  47.444   9.459  1.00  0.00    -0.000 C 
BRANCH  24  25
ATOM     25  C   UNL     1       0.122  48.349   8.300  1.00  0.00    -0.000 C 
BRANCH  25  26
ATOM     26  C   UNL     1       1.617  48.199   7.967  1.00  0.00    -0.000 C 
BRANCH  26  27
ATOM     27  C   UNL     1       2.381  47.400   9.035  1.00  0.00    -0.000 C 
BRANCH  27  28
ATOM     28  C   UNL     1       3.843  47.128   8.637  1.00  0.00    -0.000 C 
BRANCH  28  29
ATOM     29  C   UNL     1       4.496  48.348   7.954  1.00  0.00    -0.000 C 
BRANCH  29  30
ATOM     30  C   UNL     1       5.854  48.741   8.561  1.00  0.00    -0.000 C 
BRANCH  30  31
ATOM     31  C   UNL     1       6.356  47.735   9.605  1.00  0.00    -0.003 C 
ATOM     32  C   UNL     1       7.856  47.496   9.461  1.00  0.00     0.004 C 
ENDBRANCH  30  31
ENDBRANCH  29  30
ENDBRANCH  28  29
ENDBRANCH  27  28
ENDBRANCH  26  27
ENDBRANCH  25  26
ENDBRANCH  24  25
ENDBRANCH  23  24
ENDBRANCH  22  23
ENDBRANCH  21  22
ENDBRANCH  20  21
ENDBRANCH  19  20
ENDBRANCH  18  19
ENDBRANCH   1  18
TORSDOF 28
ENDMDL
MODEL 4
REMARK VINA RESULT:    -3.030      1.066      2.777
REMARK INTER + INTRA:         -11.897
REMARK INTER:                  -8.438
REMARK INTRA:                  -3.458
REMARK UNBOUND:                -3.906
REMARK SMILES CCCCCCCCCCCCCCCCCCCCCCCCCCCCCC(=O)[O-]
REMARK SMILES IDX 16 1 17 2 18 3 19 4 20 5 21 6 22 7 23 8 24 9 25 10 26 11
REMARK SMILES IDX 27 12 28 13 29 14 30 15 31 16 32 17 15 18 14 19 13 20 12 21
REMARK SMILES IDX 11 22 10 23 9 24 8 25 7 26 6 27 5 28 4 29 3 30 2 31 1 32
REMARK H PARENT
REMARK Flexibility Score: inf
ROOT
ATOM      1  C   UNL     1       3.712  43.162   8.965  1.00  0.00     0.000 C 
ENDROOT
BRANCH   1   2
ATOM      2  C   UNL     1       2.181  43.066   9.028  1.00  0.00     0.000 C 
BRANCH   2   3
ATOM      3  C   UNL     1       1.529  44.011   8.005  1.00  0.00     0.000 C 
BRANCH   3   4
ATOM      4  C   UNL     1       0.264  44.692   8.549  1.00  0.00     0.000 C 
BRANCH   4   5
ATOM      5  C   UNL     1       0.488  45.351   9.919  1.00  0.00     0.000 C 
BRANCH   5   6
ATOM      6  C   UNL     1      -0.113  46.765   9.955  1.00  0.00     0.000 C 
BRANCH   6   7
ATOM      7  C   UNL     1      -0.561  47.258   8.568  1.00  0.00     0.000 C 
BRANCH   7   8
ATOM      8  C   UNL     1      -0.140  48.700   8.225  1.00  0.00     0.000 C 
BRANCH   8   9
ATOM      9  C   UNL     1       1.378  48.916   8.059  1.00  0.00     0.000 C 
BRANCH   9  10
ATOM     10  C   UNL     1       2.180  47.653   7.698  1.00  0.00     0.000 C 
BRANCH  10  11
ATOM     11  C   UNL     1       3.699  47.851   7.839  1.00  0.00     0.000 C 
BRANCH  11  12
ATOM     12  C   UNL     1       4.339  46.835   8.798  1.00  0.00     0.000 C 
BRANCH  12  13
ATOM     13  C   UNL     1       5.308  47.493   9.795  1.00  0.00     0.006 C 
BRANCH  13  14
ATOM     14  C   UNL     1       6.491  48.171   9.092  1.00  0.00     0.053 C 
BRANCH  14  15
ATOM     15  C   UNL     1       6.503  49.653   9.321  1.00  0.00     0.041 C 
ATOM     16  O   UNL     1       6.135  50.437   8.407  1.00  0.00    -0.550 OA
ATOM     17  O   UNL     1       6.893  50.165  10.551  1.00  0.00    -0.550 OA
ENDBRANCH  14  15
ENDBRANCH  13  14
ENDBRANCH  12  13
ENDBRANCH  11  12
ENDBRANCH  10  11
ENDBRANCH   9  10
ENDBRANCH   8   9
ENDBRANCH   7   8
ENDBRANCH   6   7
ENDBRANCH   5   6
ENDBRANCH   4   5
ENDBRANCH   3   4
ENDBRANCH   2   3
ENDBRANCH   1   2
BRANCH   1  18
ATOM     18  C   UNL     1       4.363  43.128  10.356  1.00  0.00     0.000 C 
BRANCH  18  19
ATOM     19  C   UNL     1       3.898  44.286  11.257  1.00  0.00     0.000 C 
BRANCH  19  20
ATOM     20  C   UNL     1       3.183  43.793  12.524  1.00  0.00     0.000 C 
BRANCH  20  21
ATOM     21  C   UNL     1       1.667  43.626  12.319  1.00  0.00     0.000 C 
BRANCH  21  22
ATOM     22  C   UNL     1       1.189  42.178  12.528  1.00  0.00     0.000 C 
BRANCH  22  23
ATOM     23  C   UNL     1      -0.075  42.025  13.396  1.00  0.00     0.000 C 
BRANCH  23  24
ATOM     24  C   UNL     1      -0.058  40.754  14.262  1.00  0.00    -0.000 C 
BRANCH  24  25
ATOM     25  C   UNL     1      -0.224  39.472  13.431  1.00  0.00    -0.000 C 
BRANCH  25  26
ATOM     26  C   UNL     1       1.002  38.545  13.512  1.00  0.00    -0.000 C 
BRANCH  26  27
ATOM     27  C   UNL     1       0.961  37.420  12.465  1.00  0.00    -0.000 C 
BRANCH  27  28
ATOM     28  C   UNL     1       2.308  37.233  11.745  1.00  0.00    -0.000 C 
BRANCH  28  29
ATOM     29  C   UNL     1       3.428  38.086  12.376  1.00  0.00    -0.000 C 
BRANCH  29  30
ATOM     30  C   UNL     1       3.460  39.537  11.866  1.00  0.00    -0.000 C 
BRANCH  30  31
ATOM     31  C   UNL     1       4.539  40.388  12.547  1.00  0.00    -0.003 C 
ATOM     32  C   UNL     1       5.252  39.599  13.642  1.00  0.00     0.004 C 
ENDBRANCH  30  31
ENDBRANCH  29  30
ENDBRANCH  28  29
ENDBRANCH  27  28
ENDBRANCH  26  27
ENDBRANCH  25  26
ENDBRANCH  24  25
ENDBRANCH  23  24
ENDBRANCH  22  23
ENDBRANCH  21  22
ENDBRANCH  20  21
ENDBRANCH  19  20
ENDBRANCH  18  19
ENDBRANCH   1  18
TORSDOF 28
ENDMDL
MODEL 5
REMARK VINA RESULT:    -2.929      3.201      8.251
REMARK INTER + INTRA:         -11.630
REMARK INTER:                  -8.128
REMARK INTRA:                  -3.502
REMARK UNBOUND:                -3.906
REMARK SMILES CCCCCCCCCCCCCCCCCCCCCCCCCCCCCC(=O)[O-]
REMARK SMILES IDX 16 1 17 2 18 3 19 4 20 5 21 6 22 7 23 8 24 9 25 10 26 11
REMARK SMILES IDX 27 12 28 13 29 14 30 15 31 16 32 17 15 18 14 19 13 20 12 21
REMARK SMILES IDX 11 22 10 23 9 24 8 25 7 26 6 27 5 28 4 29 3 30 2 31 1 32
REMARK H PARENT
REMARK Flexibility Score: inf
ROOT
ATOM      1  C   UNL     1       1.496  43.195   8.623  1.00  0.00     0.000 C 
ENDROOT
BRANCH   1   2
ATOM      2  C   UNL     1       2.950  43.488   9.016  1.00  0.00     0.000 C 
BRANCH   2   3
ATOM      3  C   UNL     1       3.618  42.243   9.621  1.00  0.00     0.000 C 
BRANCH   3   4
ATOM      4  C   UNL     1       3.755  42.326  11.149  1.00  0.00     0.000 C 
BRANCH   4   5
ATOM      5  C   UNL     1       3.909  43.770  11.653  1.00  0.00     0.000 C 
BRANCH   5   6
ATOM      6  C   UNL     1       2.620  44.256  12.332  1.00  0.00     0.000 C 
BRANCH   6   7
ATOM      7  C   UNL     1       1.431  43.306  12.105  1.00  0.00     0.000 C 
BRANCH   7   8
ATOM      8  C   UNL     1       0.064  44.002  11.954  1.00  0.00     0.000 C 
BRANCH   8   9
ATOM      9  C   UNL     1      -1.018  43.539  12.950  1.00  0.00     0.000 C 
BRANCH   9  10
ATOM     10  C   UNL     1      -1.073  42.021  13.195  1.00  0.00     0.000 C 
BRANCH  10  11
ATOM     11  C   UNL     1      -0.419  41.609  14.525  1.00  0.00     0.000 C 
BRANCH  11  12
ATOM     12  C   UNL     1       0.223  40.213  14.458  1.00  0.00     0.000 C 
BRANCH  12  13
ATOM     13  C   UNL     1       1.325  40.121  13.389  1.00  0.00     0.006 C 
BRANCH  13  14
ATOM     14  C   UNL     1       1.600  38.674  12.962  1.00  0.00     0.053 C 
BRANCH  14  15
ATOM     15  C   UNL     1       3.019  38.480  12.520  1.00  0.00     0.041 C 
ATOM     16  O   UNL     1       3.903  39.315  12.848  1.00  0.00    -0.550 OA
ATOM     17  O   UNL     1       3.370  37.364  11.772  1.00  0.00    -0.550 OA
ENDBRANCH  14  15
ENDBRANCH  13  14
ENDBRANCH  12  13
ENDBRANCH  11  12
ENDBRANCH  10  11
ENDBRANCH   9  10
ENDBRANCH   8   9
ENDBRANCH   7   8
ENDBRANCH   6   7
ENDBRANCH   5   6
ENDBRANCH   4   5
ENDBRANCH   3   4
ENDBRANCH   2   3
ENDBRANCH   1   2
BRANCH   1  18
ATOM     18  C   UNL     1       0.717  44.466   8.249  1.00  0.00     0.000 C 
BRANCH  18  19
ATOM     19  C   UNL     1       0.055  44.369   6.863  1.00  0.00     0.000 C 
BRANCH  19  20
ATOM     20  C   UNL     1      -0.863  45.565   6.566  1.00  0.00     0.000 C 
BRANCH  20  21
ATOM     21  C   UNL     1      -1.104  46.446   7.805  1.00  0.00     0.000 C 
BRANCH  21  22
ATOM     22  C   UNL     1      -0.756  47.926   7.567  1.00  0.00     0.000 C 
BRANCH  22  23
ATOM     23  C   UNL     1       0.538  48.411   8.248  1.00  0.00     0.000 C 
BRANCH  23  24
ATOM     24  C   UNL     1       0.690  47.888   9.687  1.00  0.00    -0.000 C 
BRANCH  24  25
ATOM     25  C   UNL     1       1.981  47.079   9.888  1.00  0.00    -0.000 C 
BRANCH  25  26
ATOM     26  C   UNL     1       2.976  47.243   8.726  1.00  0.00    -0.000 C 
BRANCH  26  27
ATOM     27  C   UNL     1       4.286  46.474   8.957  1.00  0.00    -0.000 C 
BRANCH  27  28
ATOM     28  C   UNL     1       5.295  47.268   9.805  1.00  0.00    -0.000 C 
BRANCH  28  29
ATOM     29  C   UNL     1       6.727  47.186   9.235  1.00  0.00    -0.000 C 
BRANCH  29  30
ATOM     30  C   UNL     1       7.528  48.491   9.389  1.00  0.00    -0.000 C 
BRANCH  30  31
ATOM     31  C   UNL     1       6.672  49.663   9.887  1.00  0.00    -0.003 C 
ATOM     32  C   UNL     1       6.341  50.624   8.749  1.00  0.00     0.004 C 
ENDBRANCH  30  31
ENDBRANCH  29  30
ENDBRANCH  28  29
ENDBRANCH  27  28
ENDBRANCH  26  27
ENDBRANCH  25  26
ENDBRANCH  24  25
ENDBRANCH  23  24
ENDBRANCH  22  23
ENDBRANCH  21  22
ENDBRANCH  20  21
ENDBRANCH  19  20
ENDBRANCH  18  19
ENDBRANCH   1  18
TORSDOF 28
ENDMDL
MODEL 6
REMARK VINA RESULT:    -2.589      1.825      8.005
REMARK INTER + INTRA:         -10.733
REMARK INTER:                  -8.177
REMARK INTRA:                  -2.557
REMARK UNBOUND:                -3.906
REMARK SMILES CCCCCCCCCCCCCCCCCCCCCCCCCCCCCC(=O)[O-]
REMARK SMILES IDX 16 1 17 2 18 3 19 4 20 5 21 6 22 7 23 8 24 9 25 10 26 11
REMARK SMILES IDX 27 12 28 13 29 14 30 15 31 16 32 17 15 18 14 19 13 20 12 21
REMARK SMILES IDX 11 22 10 23 9 24 8 25 7 26 6 27 5 28 4 29 3 30 2 31 1 32
REMARK H PARENT
REMARK Flexibility Score: inf
ROOT
ATOM      1  C   UNL     1      -0.094  43.802  11.758  1.00  0.00     0.000 C 
ENDROOT
BRANCH   1   2
ATOM      2  C   UNL     1       0.182  42.800  12.888  1.00  0.00     0.000 C 
BRANCH   2   3
ATOM      3  C   UNL     1      -1.125  42.371  13.573  1.00  0.00     0.000 C 
BRANCH   3   4
ATOM      4  C   UNL     1      -0.902  41.846  15.000  1.00  0.00     0.000 C 
BRANCH   4   5
ATOM      5  C   UNL     1       0.253  40.836  15.087  1.00  0.00     0.000 C 
BRANCH   5   6
ATOM      6  C   UNL     1       0.012  39.643  14.151  1.00  0.00     0.000 C 
BRANCH   6   7
ATOM      7  C   UNL     1       1.121  39.478  13.096  1.00  0.00     0.000 C 
BRANCH   7   8
ATOM      8  C   UNL     1       1.308  38.042  12.570  1.00  0.00     0.000 C 
BRANCH   8   9
ATOM      9  C   UNL     1       2.770  37.559  12.493  1.00  0.00     0.000 C 
BRANCH   9  10
ATOM     10  C   UNL     1       3.766  38.586  11.926  1.00  0.00     0.000 C 
BRANCH  10  11
ATOM     11  C   UNL     1       4.762  39.096  12.982  1.00  0.00     0.000 C 
BRANCH  11  12
ATOM     12  C   UNL     1       4.860  40.631  13.006  1.00  0.00     0.000 C 
BRANCH  12  13
ATOM     13  C   UNL     1       4.076  41.291  11.858  1.00  0.00     0.006 C 
BRANCH  13  14
ATOM     14  C   UNL     1       3.894  42.798  12.073  1.00  0.00     0.053 C 
BRANCH  14  15
ATOM     15  C   UNL     1       4.283  43.587  10.859  1.00  0.00     0.041 C 
ATOM     16  O   UNL     1       4.175  43.078   9.712  1.00  0.00    -0.550 OA
ATOM     17  O   UNL     1       4.738  44.893  10.993  1.00  0.00    -0.550 OA
ENDBRANCH  14  15
ENDBRANCH  13  14
ENDBRANCH  12  13
ENDBRANCH  11  12
ENDBRANCH  10  11
ENDBRANCH   9  10
ENDBRANCH   8   9
ENDBRANCH   7   8
ENDBRANCH   6   7
ENDBRANCH   5   6
ENDBRANCH   4   5
ENDBRANCH   3   4
ENDBRANCH   2   3
ENDBRANCH   1   2
BRANCH   1  18
ATOM     18  C   UNL     1       1.166  44.139  10.945  1.00  0.00     0.000 C 
BRANCH  18  19
ATOM     19  C   UNL     1       0.849  44.912   9.653  1.00  0.00     0.000 C 
BRANCH  19  20
ATOM     20  C   UNL     1       0.973  44.034   8.398  1.00  0.00     0.000 C 
BRANCH  20  21
ATOM     21  C   UNL     1       0.120  44.553   7.227  1.00  0.00     0.000 C 
BRANCH  21  22
ATOM     22  C   UNL     1      -1.000  45.508   7.677  1.00  0.00     0.000 C 
BRANCH  22  23
ATOM     23  C   UNL     1      -0.895  46.943   7.126  1.00  0.00     0.000 C 
BRANCH  23  24
ATOM     24  C   UNL     1      -1.029  48.017   8.219  1.00  0.00    -0.000 C 
BRANCH  24  25
ATOM     25  C   UNL     1       0.326  48.418   8.822  1.00  0.00    -0.000 C 
BRANCH  25  26
ATOM     26  C   UNL     1       1.520  47.935   7.980  1.00  0.00    -0.000 C 
BRANCH  26  27
ATOM     27  C   UNL     1       2.731  47.545   8.843  1.00  0.00    -0.000 C 
BRANCH  27  28
ATOM     28  C   UNL     1       4.028  47.426   8.023  1.00  0.00    -0.000 C 
BRANCH  28  29
ATOM     29  C   UNL     1       4.780  48.770   7.925  1.00  0.00    -0.000 C 
BRANCH  29  30
ATOM     30  C   UNL     1       6.032  48.842   8.817  1.00  0.00    -0.000 C 
BRANCH  30  31
ATOM     31  C   UNL     1       6.436  47.478   9.392  1.00  0.00    -0.003 C 
ATOM     32  C   UNL     1       7.949  47.381   9.564  1.00  0.00     0.004 C 
ENDBRANCH  30  31
ENDBRANCH  29  30
ENDBRANCH  28  29
ENDBRANCH  27  28
ENDBRANCH  26  27
ENDBRANCH  25  26
ENDBRANCH  24  25
ENDBRANCH  23  24
ENDBRANCH  22  23
ENDBRANCH  21  22
ENDBRANCH  20  21
ENDBRANCH  19  20
ENDBRANCH  18  19
ENDBRANCH   1  18
TORSDOF 28
ENDMDL
MODEL 7
REMARK VINA RESULT:    -2.469      1.663      3.803
REMARK INTER + INTRA:         -10.415
REMARK INTER:                  -7.070
REMARK INTRA:                  -3.345
REMARK UNBOUND:                -3.906
REMARK SMILES CCCCCCCCCCCCCCCCCCCCCCCCCCCCCC(=O)[O-]
REMARK SMILES IDX 16 1 17 2 18 3 19 4 20 5 21 6 22 7 23 8 24 9 25 10 26 11
REMARK SMILES IDX 27 12 28 13 29 14 30 15 31 16 32 17 15 18 14 19 13 20 12 21
REMARK SMILES IDX 11 22 10 23 9 24 8 25 7 26 6 27 5 28 4 29 3 30 2 31 1 32
REMARK H PARENT
REMARK Flexibility Score: inf
ROOT
ATOM      1  C   UNL     1       0.263  44.499   7.476  1.00  0.00     0.000 C 
ENDROOT
BRANCH   1   2
ATOM      2  C   UNL     1      -0.958  45.412   7.663  1.00  0.00     0.000 C 
BRANCH   2   3
ATOM      3  C   UNL     1      -0.961  46.545   6.624  1.00  0.00     0.000 C 
BRANCH   3   4
ATOM      4  C   UNL     1      -0.985  47.940   7.267  1.00  0.00     0.000 C 
BRANCH   4   5
ATOM      5  C   UNL     1      -0.806  47.893   8.792  1.00  0.00     0.000 C 
BRANCH   5   6
ATOM      6  C   UNL     1       0.637  48.240   9.188  1.00  0.00     0.000 C 
BRANCH   6   7
ATOM      7  C   UNL     1       1.524  48.577   7.976  1.00  0.00     0.000 C 
BRANCH   7   8
ATOM      8  C   UNL     1       2.721  47.630   7.764  1.00  0.00     0.000 C 
BRANCH   8   9
ATOM      9  C   UNL     1       3.993  48.300   7.207  1.00  0.00     0.000 C 
BRANCH   9  10
ATOM     10  C   UNL     1       4.102  49.812   7.470  1.00  0.00     0.000 C 
BRANCH  10  11
ATOM     11  C   UNL     1       5.358  50.187   8.276  1.00  0.00     0.000 C 
BRANCH  11  12
ATOM     12  C   UNL     1       6.302  48.992   8.486  1.00  0.00     0.000 C 
BRANCH  12  13
ATOM     13  C   UNL     1       6.035  48.255   9.809  1.00  0.00     0.006 C 
BRANCH  13  14
ATOM     14  C   UNL     1       6.161  46.733   9.661  1.00  0.00     0.053 C 
BRANCH  14  15
ATOM     15  C   UNL     1       4.889  46.028  10.022  1.00  0.00     0.041 C 
ATOM     16  O   UNL     1       4.221  46.400  11.023  1.00  0.00    -0.550 OA
ATOM     17  O   UNL     1       4.426  44.979   9.237  1.00  0.00    -0.550 OA
ENDBRANCH  14  15
ENDBRANCH  13  14
ENDBRANCH  12  13
ENDBRANCH  11  12
ENDBRANCH  10  11
ENDBRANCH   9  10
ENDBRANCH   8   9
ENDBRANCH   7   8
ENDBRANCH   6   7
ENDBRANCH   5   6
ENDBRANCH   4   5
ENDBRANCH   3   4
ENDBRANCH   2   3
ENDBRANCH   1   2
BRANCH   1  18
ATOM     18  C   UNL     1       1.186  44.489   8.704  1.00  0.00     0.000 C 
BRANCH  18  19
ATOM     19  C   UNL     1       0.443  44.830  10.008  1.00  0.00     0.000 C 
BRANCH  19  20
ATOM     20  C   UNL     1       1.308  44.591  11.255  1.00  0.00     0.000 C 
BRANCH  20  21
ATOM     21  C   UNL     1       1.495  43.095  11.567  1.00  0.00     0.000 C 
BRANCH  21  22
ATOM     22  C   UNL     1       2.847  42.545  11.081  1.00  0.00     0.000 C 
BRANCH  22  23
ATOM     23  C   UNL     1       3.901  42.332  12.186  1.00  0.00     0.000 C 
BRANCH  23  24
ATOM     24  C   UNL     1       4.783  41.096  11.941  1.00  0.00    -0.000 C 
BRANCH  24  25
ATOM     25  C   UNL     1       4.686  40.067  13.078  1.00  0.00    -0.000 C 
BRANCH  25  26
ATOM     26  C   UNL     1       4.112  38.717  12.613  1.00  0.00    -0.000 C 
BRANCH  26  27
ATOM     27  C   UNL     1       2.583  38.745  12.465  1.00  0.00    -0.000 C 
BRANCH  27  28
ATOM     28  C   UNL     1       1.877  39.286  13.721  1.00  0.00    -0.000 C 
BRANCH  28  29
ATOM     29  C   UNL     1       0.884  40.419  13.389  1.00  0.00    -0.000 C 
BRANCH  29  30
ATOM     30  C   UNL     1      -0.433  40.336  14.180  1.00  0.00    -0.000 C 
BRANCH  30  31
ATOM     31  C   UNL     1      -0.773  41.638  14.915  1.00  0.00    -0.003 C 
ATOM     32  C   UNL     1      -0.579  41.486  16.421  1.00  0.00     0.004 C 
ENDBRANCH  30  31
ENDBRANCH  29  30
ENDBRANCH  28  29
ENDBRANCH  27  28
ENDBRANCH  26  27
ENDBRANCH  25  26
ENDBRANCH  24  25
ENDBRANCH  23  24
ENDBRANCH  22  23
ENDBRANCH  21  22
ENDBRANCH  20  21
ENDBRANCH  19  20
ENDBRANCH  18  19
ENDBRANCH   1  18
TORSDOF 28
ENDMDL
MODEL 8
REMARK VINA RESULT:    -2.380      2.399      5.486
REMARK INTER + INTRA:         -10.181
REMARK INTER:                  -8.009
REMARK INTRA:                  -2.172
REMARK UNBOUND:                -3.906
REMARK SMILES CCCCCCCCCCCCCCCCCCCCCCCCCCCCCC(=O)[O-]
REMARK SMILES IDX 16 1 17 2 18 3 19 4 20 5 21 6 22 7 23 8 24 9 25 10 26 11
REMARK SMILES IDX 27 12 28 13 29 14 30 15 31 16 32 17 15 18 14 19 13 20 12 21
REMARK SMILES IDX 11 22 10 23 9 24 8 25 7 26 6 27 5 28 4 29 3 30 2 31 1 32
REMARK H PARENT
REMARK Flexibility Score: inf
ROOT
ATOM      1  C   UNL     1       4.876  47.145   9.670  1.00  0.00     0.000 C 
ENDROOT
BRANCH   1   2
ATOM      2  C   UNL     1       6.370  47.396   9.424  1.00  0.00     0.000 C 
BRANCH   2   3
ATOM      3  C   UNL     1       6.593  48.749   8.729  1.00  0.00     0.000 C 
BRANCH   3   4
ATOM      4  C   UNL     1       5.277  49.434   8.329  1.00  0.00     0.000 C 
BRANCH   4   5
ATOM      5  C   UNL     1       4.448  48.597   7.342  1.00  0.00     0.000 C 
BRANCH   5   6
ATOM      6  C   UNL     1       3.025  49.158   7.205  1.00  0.00     0.000 C 
BRANCH   6   7
ATOM      7  C   UNL     1       1.950  48.195   7.739  1.00  0.00     0.000 C 
BRANCH   7   8
ATOM      8  C   UNL     1       0.726  48.878   8.379  1.00  0.00     0.000 C 
BRANCH   8   9
ATOM      9  C   UNL     1      -0.519  47.981   8.531  1.00  0.00     0.000 C 
BRANCH   9  10
ATOM     10  C   UNL     1      -1.087  47.427   7.213  1.00  0.00     0.000 C 
BRANCH  10  11
ATOM     11  C   UNL     1      -1.106  45.890   7.171  1.00  0.00     0.000 C 
BRANCH  11  12
ATOM     12  C   UNL     1       0.305  45.282   7.237  1.00  0.00     0.000 C 
BRANCH  12  13
ATOM     13  C   UNL     1       0.467  44.292   8.404  1.00  0.00     0.006 C 
BRANCH  13  14
ATOM     14  C   UNL     1       1.104  44.948   9.636  1.00  0.00     0.053 C 
BRANCH  14  15
ATOM     15  C   UNL     1       0.200  44.892  10.830  1.00  0.00     0.041 C 
ATOM     16  O   UNL     1       0.431  44.076  11.761  1.00  0.00    -0.550 OA
ATOM     17  O   UNL     1      -0.880  45.760  10.928  1.00  0.00    -0.550 OA
ENDBRANCH  14  15
ENDBRANCH  13  14
ENDBRANCH  12  13
ENDBRANCH  11  12
ENDBRANCH  10  11
ENDBRANCH   9  10
ENDBRANCH   8   9
ENDBRANCH   7   8
ENDBRANCH   6   7
ENDBRANCH   5   6
ENDBRANCH   4   5
ENDBRANCH   3   4
ENDBRANCH   2   3
ENDBRANCH   1   2
BRANCH   1  18
ATOM     18  C   UNL     1       4.492  45.665   9.516  1.00  0.00     0.000 C 
BRANCH  18  19
ATOM     19  C   UNL     1       4.907  44.815  10.731  1.00  0.00     0.000 C 
BRANCH  19  20
ATOM     20  C   UNL     1       3.804  44.736  11.796  1.00  0.00     0.000 C 
BRANCH  20  21
ATOM     21  C   UNL     1       3.885  43.450  12.637  1.00  0.00     0.000 C 
BRANCH  21  22
ATOM     22  C   UNL     1       3.314  42.220  11.909  1.00  0.00     0.000 C 
BRANCH  22  23
ATOM     23  C   UNL     1       4.338  41.112  11.596  1.00  0.00     0.000 C 
BRANCH  23  24
ATOM     24  C   UNL     1       4.856  40.400  12.858  1.00  0.00    -0.000 C 
BRANCH  24  25
ATOM     25  C   UNL     1       4.008  39.175  13.235  1.00  0.00    -0.000 C 
BRANCH  25  26
ATOM     26  C   UNL     1       2.811  38.965  12.291  1.00  0.00    -0.000 C 
BRANCH  26  27
ATOM     27  C   UNL     1       1.728  38.062  12.904  1.00  0.00    -0.000 C 
BRANCH  27  28
ATOM     28  C   UNL     1       0.463  38.842  13.303  1.00  0.00    -0.000 C 
BRANCH  28  29
ATOM     29  C   UNL     1       0.782  40.291  13.724  1.00  0.00    -0.000 C 
BRANCH  29  30
ATOM     30  C   UNL     1      -0.432  41.234  13.658  1.00  0.00    -0.000 C 
BRANCH  30  31
ATOM     31  C   UNL     1      -0.828  41.798  15.028  1.00  0.00    -0.003 C 
ATOM     32  C   UNL     1      -0.150  41.026  16.157  1.00  0.00     0.004 C 
ENDBRANCH  30  31
ENDBRANCH  29  30
ENDBRANCH  28  29
ENDBRANCH  27  28
ENDBRANCH  26  27
ENDBRANCH  25  26
ENDBRANCH  24  25
ENDBRANCH  23  24
ENDBRANCH  22  23
ENDBRANCH  21  22
ENDBRANCH  20  21
ENDBRANCH  19  20
ENDBRANCH  18  19
ENDBRANCH   1  18
TORSDOF 28
ENDMDL
MODEL 9
REMARK VINA RESULT:    -2.353      1.388      3.460
REMARK INTER + INTRA:         -10.111
REMARK INTER:                  -7.695
REMARK INTRA:                  -2.416
REMARK UNBOUND:                -3.906
REMARK SMILES CCCCCCCCCCCCCCCCCCCCCCCCCCCCCC(=O)[O-]
REMARK SMILES IDX 16 1 17 2 18 3 19 4 20 5 21 6 22 7 23 8 24 9 25 10 26 11
REMARK SMILES IDX 27 12 28 13 29 14 30 15 31 16 32 17 15 18 14 19 13 20 12 21
REMARK SMILES IDX 11 22 10 23 9 24 8 25 7 26 6 27 5 28 4 29 3 30 2 31 1 32
REMARK H PARENT
REMARK Flexibility Score: inf
ROOT
ATOM      1  C   UNL     1       3.640  42.705   9.555  1.00  0.00     0.000 C 
ENDROOT
BRANCH   1   2
ATOM      2  C   UNL     1       2.203  42.617   9.022  1.00  0.00     0.000 C 
BRANCH   2   3
ATOM      3  C   UNL     1       1.771  43.947   8.383  1.00  0.00     0.000 C 
BRANCH   3   4
ATOM      4  C   UNL     1       0.316  43.924   7.889  1.00  0.00     0.000 C 
BRANCH   4   5
ATOM      5  C   UNL     1      -0.000  45.079   6.926  1.00  0.00     0.000 C 
BRANCH   5   6
ATOM      6  C   UNL     1      -1.027  46.043   7.540  1.00  0.00     0.000 C 
BRANCH   6   7
ATOM      7  C   UNL     1      -0.755  46.335   9.026  1.00  0.00     0.000 C 
BRANCH   7   8
ATOM      8  C   UNL     1      -0.108  47.704   9.311  1.00  0.00     0.000 C 
BRANCH   8   9
ATOM      9  C   UNL     1       0.593  48.360   8.105  1.00  0.00     0.000 C 
BRANCH   9  10
ATOM     10  C   UNL     1       2.090  48.031   7.964  1.00  0.00     0.000 C 
BRANCH  10  11
ATOM     11  C   UNL     1       2.693  47.436   9.248  1.00  0.00     0.000 C 
BRANCH  11  12
ATOM     12  C   UNL     1       3.422  46.106   8.995  1.00  0.00     0.000 C 
BRANCH  12  13
ATOM     13  C   UNL     1       4.928  46.192   9.295  1.00  0.00     0.006 C 
BRANCH  13  14
ATOM     14  C   UNL     1       5.324  47.549   9.889  1.00  0.00     0.053 C 
BRANCH  14  15
ATOM     15  C   UNL     1       6.614  48.055   9.317  1.00  0.00     0.041 C 
ATOM     16  O   UNL     1       6.641  49.141   8.681  1.00  0.00    -0.550 OA
ATOM     17  O   UNL     1       7.790  47.342   9.511  1.00  0.00    -0.550 OA
ENDBRANCH  14  15
ENDBRANCH  13  14
ENDBRANCH  12  13
ENDBRANCH  11  12
ENDBRANCH  10  11
ENDBRANCH   9  10
ENDBRANCH   8   9
ENDBRANCH   7   8
ENDBRANCH   6   7
ENDBRANCH   5   6
ENDBRANCH   4   5
ENDBRANCH   3   4
ENDBRANCH   2   3
ENDBRANCH   1   2
BRANCH   1  18
ATOM     18  C   UNL     1       3.718  42.507  11.077  1.00  0.00     0.000 C 
BRANCH  18  19
ATOM     19  C   UNL     1       3.476  43.810  11.858  1.00  0.00     0.000 C 
BRANCH  19  20
ATOM     20  C   UNL     1       1.984  44.075  12.109  1.00  0.00     0.000 C 
BRANCH  20  21
ATOM     21  C   UNL     1       1.152  42.781  12.145  1.00  0.00     0.000 C 
BRANCH  21  22
ATOM     22  C   UNL     1      -0.208  42.960  12.842  1.00  0.00     0.000 C 
BRANCH  22  23
ATOM     23  C   UNL     1      -0.857  41.659  13.352  1.00  0.00     0.000 C 
BRANCH  23  24
ATOM     24  C   UNL     1      -0.461  41.319  14.799  1.00  0.00    -0.000 C 
BRANCH  24  25
ATOM     25  C   UNL     1       0.828  40.486  14.879  1.00  0.00    -0.000 C 
BRANCH  25  26
ATOM     26  C   UNL     1       1.083  39.659  13.606  1.00  0.00    -0.000 C 
BRANCH  26  27
ATOM     27  C   UNL     1       2.439  39.980  12.957  1.00  0.00    -0.000 C 
BRANCH  27  28
ATOM     28  C   UNL     1       3.315  38.730  12.769  1.00  0.00    -0.000 C 
BRANCH  28  29
ATOM     29  C   UNL     1       2.878  37.890  11.550  1.00  0.00    -0.000 C 
BRANCH  29  30
ATOM     30  C   UNL     1       2.294  36.517  11.925  1.00  0.00    -0.000 C 
BRANCH  30  31
ATOM     31  C   UNL     1       0.761  36.514  11.983  1.00  0.00    -0.003 C 
ATOM     32  C   UNL     1       0.183  35.346  11.190  1.00  0.00     0.004 C 
ENDBRANCH  30  31
ENDBRANCH  29  30
ENDBRANCH  28  29
ENDBRANCH  27  28
ENDBRANCH  26  27
ENDBRANCH  25  26
ENDBRANCH  24  25
ENDBRANCH  23  24
ENDBRANCH  22  23
ENDBRANCH  21  22
ENDBRANCH  20  21
ENDBRANCH  19  20
ENDBRANCH  18  19
ENDBRANCH   1  18
TORSDOF 28
ENDMDL
