MODEL 1
REMARK VINA RESULT:     5.940      0.000      0.000
REMARK INTER + INTRA:           9.814
REMARK INTER:                  10.801
REMARK INTRA:                  -0.987
REMARK UNBOUND:                -0.987
REMARK SMILES CCCCCCCCCCCCCCCC(=O)[O-]
REMARK SMILES IDX 9 1 10 2 11 3 12 4 13 5 14 6 15 7 16 8 17 9 18 10 8 11 7 12
REMARK SMILES IDX 6 13 5 14 4 15 3 16 2 17 1 18
REMARK H PARENT
REMARK Flexibility Score: inf
ROOT
ATOM      1  C   UNL     1      34.562  15.822  43.803  1.00  0.00     0.000 C 
ENDROOT
BRANCH   1   2
ATOM      2  C   UNL     1      35.899  15.109  44.053  1.00  0.00     0.000 C 
BRANCH   2   3
ATOM      3  C   UNL     1      36.179  13.999  43.027  1.00  0.00     0.000 C 
BRANCH   3   4
ATOM      4  C   UNL     1      34.893  13.368  42.472  1.00  0.00     0.000 C 
BRANCH   4   5
ATOM      5  C   UNL     1      35.096  12.885  41.031  1.00  0.00     0.000 C 
BRANCH   5   6
ATOM      6  C   UNL     1      33.758  12.489  40.388  1.00  0.00     0.006 C 
BRANCH   6   7
ATOM      7  C   UNL     1      33.101  11.300  41.101  1.00  0.00     0.053 C 
BRANCH   7   8
ATOM      8  C   UNL     1      33.276  10.027  40.332  1.00  0.00     0.041 C 
ATOM      9  O   UNL     1      32.274   9.339  40.005  1.00  0.00    -0.550 OA
ATOM     10  O   UNL     1      34.551   9.581  40.005  1.00  0.00    -0.550 OA
ENDBRANCH   7   8
ENDBRANCH   6   7
ENDBRANCH   5   6
ENDBRANCH   4   5
ENDBRANCH   3   4
ENDBRANCH   2   3
ENDBRANCH   1   2
BRANCH   1  11
ATOM     11  C   UNL     1      34.789  17.228  43.229  1.00  0.00     0.000 C 
BRANCH  11  12
ATOM     12  C   UNL     1      33.782  17.598  42.124  1.00  0.00    -0.000 C 
BRANCH  12  13
ATOM     13  C   UNL     1      34.022  16.912  40.766  1.00  0.00    -0.000 C 
BRANCH  13  14
ATOM     14  C   UNL     1      33.987  17.895  39.584  1.00  0.00    -0.000 C 
BRANCH  14  15
ATOM     15  C   UNL     1      32.570  18.419  39.293  1.00  0.00    -0.000 C 
BRANCH  15  16
ATOM     16  C   UNL     1      32.093  18.080  37.872  1.00  0.00    -0.000 C 
BRANCH  16  17
ATOM     17  C   UNL     1      30.988  19.043  37.424  1.00  0.00    -0.003 C 
ATOM     18  C   UNL     1      31.158  20.417  38.068  1.00  0.00     0.004 C 
ENDBRANCH  16  17
ENDBRANCH  15  16
ENDBRANCH  14  15
ENDBRANCH  13  14
ENDBRANCH  12  13
ENDBRANCH  11  12
ENDBRANCH   1  11
TORSDOF 14
ENDMDL
MODEL 2
REMARK VINA RESULT:     6.159      3.359      6.833
REMARK INTER + INTRA:          10.213
REMARK INTER:                  11.377
REMARK INTRA:                  -1.164
REMARK UNBOUND:                -0.987
REMARK SMILES CCCCCCCCCCCCCCCC(=O)[O-]
REMARK SMILES IDX 9 1 10 2 11 3 12 4 13 5 14 6 15 7 16 8 17 9 18 10 8 11 7 12
REMARK SMILES IDX 6 13 5 14 4 15 3 16 2 17 1 18
REMARK H PARENT
REMARK Flexibility Score: inf
ROOT
ATOM      1  C   UNL     1      34.942  15.332  44.075  1.00  0.00     0.000 C 
ENDROOT
BRANCH   1   2
ATOM      2  C   UNL     1      34.889  16.726  43.432  1.00  0.00     0.000 C 
BRANCH   2   3
ATOM      3  C   UNL     1      33.592  16.966  42.644  1.00  0.00     0.000 C 
BRANCH   3   4
ATOM      4  C   UNL     1      33.780  17.951  41.480  1.00  0.00     0.000 C 
BRANCH   4   5
ATOM      5  C   UNL     1      34.026  17.204  40.164  1.00  0.00     0.000 C 
BRANCH   5   6
ATOM      6  C   UNL     1      33.658  18.079  38.956  1.00  0.00     0.006 C 
BRANCH   6   7
ATOM      7  C   UNL     1      32.324  18.810  39.153  1.00  0.00     0.053 C 
BRANCH   7   8
ATOM      8  C   UNL     1      31.499  18.805  37.903  1.00  0.00     0.041 C 
ATOM      9  O   UNL     1      31.068  19.886  37.422  1.00  0.00    -0.550 OA
ATOM     10  O   UNL     1      31.177  17.601  37.286  1.00  0.00    -0.550 OA
ENDBRANCH   7   8
ENDBRANCH   6   7
ENDBRANCH   5   6
ENDBRANCH   4   5
ENDBRANCH   3   4
ENDBRANCH   2   3
ENDBRANCH   1   2
BRANCH   1  11
ATOM     11  C   UNL     1      36.288  14.648  43.792  1.00  0.00     0.000 C 
BRANCH  11  12
ATOM     12  C   UNL     1      36.221  13.649  42.622  1.00  0.00    -0.000 C 
BRANCH  12  13
ATOM     13  C   UNL     1      34.799  13.257  42.178  1.00  0.00    -0.000 C 
BRANCH  13  14
ATOM     14  C   UNL     1      34.599  13.351  40.657  1.00  0.00    -0.000 C 
BRANCH  14  15
ATOM     15  C   UNL     1      33.468  12.438  40.152  1.00  0.00    -0.000 C 
BRANCH  15  16
ATOM     16  C   UNL     1      33.147  11.297  41.129  1.00  0.00    -0.000 C 
BRANCH  16  17
ATOM     17  C   UNL     1      32.849   9.997  40.372  1.00  0.00    -0.003 C 
ATOM     18  C   UNL     1      34.138   9.309  39.929  1.00  0.00     0.004 C 
ENDBRANCH  16  17
ENDBRANCH  15  16
ENDBRANCH  14  15
ENDBRANCH  13  14
ENDBRANCH  12  13
ENDBRANCH  11  12
ENDBRANCH   1  11
TORSDOF 14
ENDMDL
