MODEL 1
REMARK VINA RESULT:    -5.976      0.000      0.000
REMARK INTER + INTRA:         -10.037
REMARK INTER:                  -8.247
REMARK INTRA:                  -1.790
REMARK UNBOUND:                -1.790
REMARK SMILES CC[C@@H](CC[C@@H](C)[C@H]1CC[C@@H]2[C@@H]3CC=C4C[C@H](O)CC[C@]4(C)[C@H]3CC[C@@]21C)C(C)C
REMARK SMILES IDX 5 1 4 2 3 3 2 4 1 5 28 6 29 7 30 8 6 9 7 10 8 11 9 12 26 13
REMARK SMILES IDX 10 14 11 15 25 16 27 17 12 18 24 19 23 20 13 21 21 22 14 23
REMARK SMILES IDX 15 24 20 25 22 26 16 27 19 28 17 29 18 30
REMARK H PARENT 18 31
REMARK Flexibility Score: inf
ROOT
ATOM      1  C   UNL     1     132.076 131.059 115.604  1.00  0.00     0.004 C 
ENDROOT
BRANCH   1   2
ATOM      2  C   UNL     1     130.870 131.028 114.623  1.00  0.00     0.004 C 
BRANCH   2   3
ATOM      3  C   UNL     1     129.524 131.551 115.213  1.00  0.00    -0.009 C 
BRANCH   3   4
ATOM      4  C   UNL     1     128.548 130.374 115.505  1.00  0.00     0.000 C 
ATOM      5  C   UNL     1     129.116 129.007 115.112  1.00  0.00     0.004 C 
ENDBRANCH   3   4
BRANCH   3   6
ATOM      6  C   UNL     1     128.843 132.673 114.347  1.00  0.00    -0.014 C 
ATOM      7  C   UNL     1     128.009 132.074 113.194  1.00  0.00     0.007 C 
ATOM      8  C   UNL     1     127.926 133.592 115.179  1.00  0.00     0.007 C 
ENDBRANCH   3   6
ENDBRANCH   2   3
ENDBRANCH   1   2
BRANCH   1   9
ATOM      9  C   UNL     1     132.223 129.759 116.446  1.00  0.00    -0.011 C 
ATOM     10  C   UNL     1     133.349 128.839 115.924  1.00  0.00     0.008 C 
BRANCH   9  11
ATOM     11  C   UNL     1     132.186 129.959 118.015  1.00  0.00    -0.002 C 
ATOM     12  C   UNL     1     131.594 131.343 118.334  1.00  0.00     0.005 C 
ATOM     13  C   UNL     1     131.392 128.964 118.949  1.00  0.00    -0.026 C 
ATOM     14  C   UNL     1     130.157 131.126 118.786  1.00  0.00     0.005 C 
ATOM     15  C   UNL     1     129.993 129.629 119.117  1.00  0.00    -0.001 C 
ATOM     16  C   UNL     1     132.119 128.800 120.343  1.00  0.00     0.007 C 
ATOM     17  C   UNL     1     131.246 127.519 118.398  1.00  0.00     0.012 C 
ATOM     18  C   UNL     1     129.378 129.347 120.516  1.00  0.00     0.000 C 
ATOM     19  C   UNL     1     131.749 129.836 121.413  1.00  0.00     0.005 C 
ATOM     20  C   UNL     1     130.216 129.935 121.680  1.00  0.00     0.003 C 
ATOM     21  C   UNL     1     127.930 129.826 120.646  1.00  0.00     0.031 C 
ATOM     22  C   UNL     1     129.713 129.374 123.065  1.00  0.00    -0.008 C 
ATOM     23  C   UNL     1     127.392 129.570 122.031  1.00  0.00    -0.027 C 
ATOM     24  C   UNL     1     128.174 129.448 123.136  1.00  0.00    -0.065 C 
ATOM     25  C   UNL     1     130.304 130.252 124.215  1.00  0.00     0.014 C 
ATOM     26  C   UNL     1     130.148 127.895 123.266  1.00  0.00     0.016 C 
ATOM     27  C   UNL     1     127.499 129.254 124.480  1.00  0.00     0.063 C 
ATOM     28  C   UNL     1     129.661 130.001 125.590  1.00  0.00     0.033 C 
ATOM     29  C   UNL     1     128.131 130.146 125.562  1.00  0.00     0.118 C 
BRANCH  29  30
ATOM     30  O   UNL     1     127.749 131.495 125.418  1.00  0.00    -0.393 OA
ATOM     31  H   UNL     1     127.313 131.787 126.260  1.00  0.00     0.210 HD
ENDBRANCH  29  30
ENDBRANCH   9  11
ENDBRANCH   1   9
TORSDOF 7
ENDMDL
MODEL 2
REMARK VINA RESULT:    -5.913     11.522     15.215
REMARK INTER + INTRA:          -9.950
REMARK INTER:                  -8.072
REMARK INTRA:                  -1.878
REMARK UNBOUND:                -1.790
REMARK SMILES CC[C@@H](CC[C@@H](C)[C@H]1CC[C@@H]2[C@@H]3CC=C4C[C@H](O)CC[C@]4(C)[C@H]3CC[C@@]21C)C(C)C
REMARK SMILES IDX 5 1 4 2 3 3 2 4 1 5 28 6 29 7 30 8 6 9 7 10 8 11 9 12 26 13
REMARK SMILES IDX 10 14 11 15 25 16 27 17 12 18 24 19 23 20 13 21 21 22 14 23
REMARK SMILES IDX 15 24 20 25 22 26 16 27 19 28 17 29 18 30
REMARK H PARENT 18 31
REMARK Flexibility Score: inf
ROOT
ATOM      1  C   UNL     1     142.408 127.205 115.760  1.00  0.00     0.004 C 
ENDROOT
BRANCH   1   2
ATOM      2  C   UNL     1     140.884 127.306 116.051  1.00  0.00     0.004 C 
BRANCH   2   3
ATOM      3  C   UNL     1     140.124 128.392 115.228  1.00  0.00    -0.009 C 
BRANCH   3   4
ATOM      4  C   UNL     1     139.515 129.477 116.164  1.00  0.00     0.000 C 
ATOM      5  C   UNL     1     140.116 129.464 117.573  1.00  0.00     0.004 C 
ENDBRANCH   3   4
BRANCH   3   6
ATOM      6  C   UNL     1     139.052 127.806 114.238  1.00  0.00    -0.014 C 
ATOM      7  C   UNL     1     137.708 127.537 114.950  1.00  0.00     0.007 C 
ATOM      8  C   UNL     1     138.784 128.733 113.036  1.00  0.00     0.007 C 
ENDBRANCH   3   6
ENDBRANCH   2   3
ENDBRANCH   1   2
BRANCH   1   9
ATOM      9  C   UNL     1     143.291 127.893 116.840  1.00  0.00    -0.011 C 
ATOM     10  C   UNL     1     144.019 126.876 117.746  1.00  0.00     0.008 C 
BRANCH   9  11
ATOM     11  C   UNL     1     144.179 129.097 116.324  1.00  0.00    -0.002 C 
ATOM     12  C   UNL     1     143.699 129.514 114.923  1.00  0.00     0.005 C 
ATOM     13  C   UNL     1     144.272 130.451 117.131  1.00  0.00    -0.026 C 
ATOM     14  C   UNL     1     142.880 130.787 115.087  1.00  0.00     0.005 C 
ATOM     15  C   UNL     1     143.178 131.356 116.489  1.00  0.00    -0.001 C 
ATOM     16  C   UNL     1     145.707 131.096 116.983  1.00  0.00     0.007 C 
ATOM     17  C   UNL     1     144.044 130.322 118.661  1.00  0.00     0.012 C 
ATOM     18  C   UNL     1     143.584 132.856 116.498  1.00  0.00     0.000 C 
ATOM     19  C   UNL     1     145.907 132.004 115.761  1.00  0.00     0.005 C 
ATOM     20  C   UNL     1     144.854 133.148 115.657  1.00  0.00     0.003 C 
ATOM     21  C   UNL     1     142.457 133.789 116.047  1.00  0.00     0.031 C 
ATOM     22  C   UNL     1     145.381 134.607 115.938  1.00  0.00    -0.008 C 
ATOM     23  C   UNL     1     142.911 135.226 116.031  1.00  0.00    -0.027 C 
ATOM     24  C   UNL     1     144.208 135.609 115.899  1.00  0.00    -0.065 C 
ATOM     25  C   UNL     1     146.405 135.001 114.825  1.00  0.00     0.014 C 
ATOM     26  C   UNL     1     146.067 134.702 117.330  1.00  0.00     0.016 C 
ATOM     27  C   UNL     1     144.520 137.091 115.835  1.00  0.00     0.063 C 
ATOM     28  C   UNL     1     146.770 136.496 114.809  1.00  0.00     0.033 C 
ATOM     29  C   UNL     1     145.534 137.405 114.721  1.00  0.00     0.118 C 
BRANCH  29  30
ATOM     30  O   UNL     1     144.943 137.341 113.443  1.00  0.00    -0.393 OA
ATOM     31  H   UNL     1     144.043 137.753 113.494  1.00  0.00     0.210 HD
ENDBRANCH  29  30
ENDBRANCH   9  11
ENDBRANCH   1   9
TORSDOF 7
ENDMDL
MODEL 3
REMARK VINA RESULT:    -5.876      4.962      8.283
REMARK INTER + INTRA:          -9.899
REMARK INTER:                  -7.807
REMARK INTRA:                  -2.092
REMARK UNBOUND:                -1.790
REMARK SMILES CC[C@@H](CC[C@@H](C)[C@H]1CC[C@@H]2[C@@H]3CC=C4C[C@H](O)CC[C@]4(C)[C@H]3CC[C@@]21C)C(C)C
REMARK SMILES IDX 5 1 4 2 3 3 2 4 1 5 28 6 29 7 30 8 6 9 7 10 8 11 9 12 26 13
REMARK SMILES IDX 10 14 11 15 25 16 27 17 12 18 24 19 23 20 13 21 21 22 14 23
REMARK SMILES IDX 15 24 20 25 22 26 16 27 19 28 17 29 18 30
REMARK H PARENT 18 31
REMARK Flexibility Score: inf
ROOT
ATOM      1  C   UNL     1     129.262 128.788 115.505  1.00  0.00     0.004 C 
ENDROOT
BRANCH   1   2
ATOM      2  C   UNL     1     128.743 130.241 115.695  1.00  0.00     0.004 C 
BRANCH   2   3
ATOM      3  C   UNL     1     129.840 131.349 115.641  1.00  0.00    -0.009 C 
BRANCH   3   4
ATOM      4  C   UNL     1     129.938 132.105 116.998  1.00  0.00     0.000 C 
ATOM      5  C   UNL     1     131.231 131.806 117.764  1.00  0.00     0.004 C 
ENDBRANCH   3   4
BRANCH   3   6
ATOM      6  C   UNL     1     129.685 132.340 114.430  1.00  0.00    -0.014 C 
ATOM      7  C   UNL     1     130.877 132.235 113.453  1.00  0.00     0.007 C 
ATOM      8  C   UNL     1     128.387 132.106 113.633  1.00  0.00     0.007 C 
ENDBRANCH   3   6
ENDBRANCH   2   3
ENDBRANCH   1   2
BRANCH   1   9
ATOM      9  C   UNL     1     130.200 128.311 116.651  1.00  0.00    -0.011 C 
ATOM     10  C   UNL     1     129.468 127.428 117.686  1.00  0.00     0.008 C 
BRANCH   9  11
ATOM     11  C   UNL     1     131.618 127.780 116.192  1.00  0.00    -0.002 C 
ATOM     12  C   UNL     1     131.926 128.319 114.784  1.00  0.00     0.005 C 
ATOM     13  C   UNL     1     132.920 128.091 117.029  1.00  0.00    -0.026 C 
ATOM     14  C   UNL     1     132.916 129.464 114.946  1.00  0.00     0.005 C 
ATOM     15  C   UNL     1     133.503 129.376 116.369  1.00  0.00    -0.001 C 
ATOM     16  C   UNL     1     133.943 126.890 116.945  1.00  0.00     0.007 C 
ATOM     17  C   UNL     1     132.687 128.316 118.548  1.00  0.00     0.012 C 
ATOM     18  C   UNL     1     135.055 129.406 116.423  1.00  0.00     0.000 C 
ATOM     19  C   UNL     1     134.907 126.917 115.750  1.00  0.00     0.005 C 
ATOM     20  C   UNL     1     135.714 128.245 115.633  1.00  0.00     0.003 C 
ATOM     21  C   UNL     1     135.651 130.735 115.953  1.00  0.00     0.031 C 
ATOM     22  C   UNL     1     137.254 128.154 115.963  1.00  0.00    -0.008 C 
ATOM     23  C   UNL     1     137.158 130.700 115.982  1.00  0.00    -0.027 C 
ATOM     24  C   UNL     1     137.890 129.558 115.904  1.00  0.00    -0.065 C 
ATOM     25  C   UNL     1     137.950 127.250 114.894  1.00  0.00     0.014 C 
ATOM     26  C   UNL     1     137.494 127.561 117.380  1.00  0.00     0.016 C 
ATOM     27  C   UNL     1     139.402 129.670 115.881  1.00  0.00     0.063 C 
ATOM     28  C   UNL     1     139.487 127.317 114.923  1.00  0.00     0.033 C 
ATOM     29  C   UNL     1     140.019 128.755 114.810  1.00  0.00     0.118 C 
BRANCH  29  30
ATOM     30  O   UNL     1     139.830 129.268 113.511  1.00  0.00    -0.393 OA
ATOM     31  H   UNL     1     139.975 130.249 113.539  1.00  0.00     0.210 HD
ENDBRANCH  29  30
ENDBRANCH   9  11
ENDBRANCH   1   9
TORSDOF 7
ENDMDL
MODEL 4
REMARK VINA RESULT:    -5.846      8.761     12.577
REMARK INTER + INTRA:          -9.857
REMARK INTER:                  -7.841
REMARK INTRA:                  -2.016
REMARK UNBOUND:                -1.790
REMARK SMILES CC[C@@H](CC[C@@H](C)[C@H]1CC[C@@H]2[C@@H]3CC=C4C[C@H](O)CC[C@]4(C)[C@H]3CC[C@@]21C)C(C)C
REMARK SMILES IDX 5 1 4 2 3 3 2 4 1 5 28 6 29 7 30 8 6 9 7 10 8 11 9 12 26 13
REMARK SMILES IDX 10 14 11 15 25 16 27 17 12 18 24 19 23 20 13 21 21 22 14 23
REMARK SMILES IDX 15 24 20 25 22 26 16 27 19 28 17 29 18 30
REMARK H PARENT 18 31
REMARK Flexibility Score: inf
ROOT
ATOM      1  C   UNL     1     144.739 129.858 115.838  1.00  0.00     0.004 C 
ENDROOT
BRANCH   1   2
ATOM      2  C   UNL     1     145.682 129.459 117.009  1.00  0.00     0.004 C 
BRANCH   2   3
ATOM      3  C   UNL     1     145.197 129.896 118.426  1.00  0.00    -0.009 C 
BRANCH   3   4
ATOM      4  C   UNL     1     144.818 128.658 119.291  1.00  0.00     0.000 C 
ATOM      5  C   UNL     1     145.384 127.344 118.745  1.00  0.00     0.004 C 
ENDBRANCH   3   4
BRANCH   3   6
ATOM      6  C   UNL     1     144.047 130.968 118.403  1.00  0.00    -0.014 C 
ATOM      7  C   UNL     1     143.086 130.795 119.599  1.00  0.00     0.007 C 
ATOM      8  C   UNL     1     144.582 132.414 118.419  1.00  0.00     0.007 C 
ENDBRANCH   3   6
ENDBRANCH   2   3
ENDBRANCH   1   2
BRANCH   1   9
ATOM      9  C   UNL     1     144.389 128.671 114.895  1.00  0.00    -0.011 C 
ATOM     10  C   UNL     1     145.367 127.485 115.047  1.00  0.00     0.008 C 
BRANCH   9  11
ATOM     11  C   UNL     1     142.857 128.280 114.835  1.00  0.00    -0.002 C 
ATOM     12  C   UNL     1     142.580 127.165 115.859  1.00  0.00     0.005 C 
ATOM     13  C   UNL     1     141.727 129.351 115.100  1.00  0.00    -0.026 C 
ATOM     14  C   UNL     1     141.899 127.811 117.056  1.00  0.00     0.005 C 
ATOM     15  C   UNL     1     141.412 129.208 116.619  1.00  0.00    -0.001 C 
ATOM     16  C   UNL     1     140.450 129.050 114.220  1.00  0.00     0.007 C 
ATOM     17  C   UNL     1     142.116 130.815 114.759  1.00  0.00     0.012 C 
ATOM     18  C   UNL     1     139.917 129.491 116.933  1.00  0.00     0.000 C 
ATOM     19  C   UNL     1     139.435 128.073 114.830  1.00  0.00     0.005 C 
ATOM     20  C   UNL     1     138.951 128.487 116.252  1.00  0.00     0.003 C 
ATOM     21  C   UNL     1     139.614 129.543 118.433  1.00  0.00     0.031 C 
ATOM     22  C   UNL     1     137.461 128.991 116.361  1.00  0.00    -0.008 C 
ATOM     23  C   UNL     1     138.147 129.777 118.686  1.00  0.00    -0.027 C 
ATOM     24  C   UNL     1     137.166 129.458 117.802  1.00  0.00    -0.065 C 
ATOM     25  C   UNL     1     136.497 127.809 116.017  1.00  0.00     0.014 C 
ATOM     26  C   UNL     1     137.193 130.177 115.391  1.00  0.00     0.016 C 
ATOM     27  C   UNL     1     135.723 129.689 118.209  1.00  0.00     0.063 C 
ATOM     28  C   UNL     1     135.024 128.077 116.371  1.00  0.00     0.033 C 
ATOM     29  C   UNL     1     134.834 128.489 117.840  1.00  0.00     0.118 C 
BRANCH  29  30
ATOM     30  O   UNL     1     135.042 127.397 118.706  1.00  0.00    -0.393 OA
ATOM     31  H   UNL     1     134.362 126.704 118.503  1.00  0.00     0.210 HD
ENDBRANCH  29  30
ENDBRANCH   9  11
ENDBRANCH   1   9
TORSDOF 7
ENDMDL
MODEL 5
REMARK VINA RESULT:    -5.841      1.409      2.122
REMARK INTER + INTRA:          -9.851
REMARK INTER:                  -8.275
REMARK INTRA:                  -1.576
REMARK UNBOUND:                -1.790
REMARK SMILES CC[C@@H](CC[C@@H](C)[C@H]1CC[C@@H]2[C@@H]3CC=C4C[C@H](O)CC[C@]4(C)[C@H]3CC[C@@]21C)C(C)C
REMARK SMILES IDX 5 1 4 2 3 3 2 4 1 5 28 6 29 7 30 8 6 9 7 10 8 11 9 12 26 13
REMARK SMILES IDX 10 14 11 15 25 16 27 17 12 18 24 19 23 20 13 21 21 22 14 23
REMARK SMILES IDX 15 24 20 25 22 26 16 27 19 28 17 29 18 30
REMARK H PARENT 18 31
REMARK Flexibility Score: inf
ROOT
ATOM      1  C   UNL     1     128.377 130.691 115.754  1.00  0.00     0.004 C 
ENDROOT
BRANCH   1   2
ATOM      2  C   UNL     1     128.796 131.287 114.380  1.00  0.00     0.004 C 
BRANCH   2   3
ATOM      3  C   UNL     1     128.929 132.841 114.345  1.00  0.00    -0.009 C 
BRANCH   3   4
ATOM      4  C   UNL     1     130.358 133.269 113.899  1.00  0.00     0.000 C 
ATOM      5  C   UNL     1     131.212 132.097 113.405  1.00  0.00     0.004 C 
ENDBRANCH   3   4
BRANCH   3   6
ATOM      6  C   UNL     1     128.498 133.547 115.682  1.00  0.00    -0.014 C 
ATOM      7  C   UNL     1     129.626 134.441 116.241  1.00  0.00     0.007 C 
ATOM      8  C   UNL     1     127.233 134.412 115.518  1.00  0.00     0.007 C 
ENDBRANCH   3   6
ENDBRANCH   2   3
ENDBRANCH   1   2
BRANCH   1   9
ATOM      9  C   UNL     1     129.302 129.536 116.234  1.00  0.00    -0.011 C 
ATOM     10  C   UNL     1     130.241 129.026 115.119  1.00  0.00     0.008 C 
BRANCH   9  11
ATOM     11  C   UNL     1     129.984 129.754 117.646  1.00  0.00    -0.002 C 
ATOM     12  C   UNL     1     129.592 131.140 118.186  1.00  0.00     0.005 C 
ATOM     13  C   UNL     1     129.711 128.768 118.848  1.00  0.00    -0.026 C 
ATOM     14  C   UNL     1     128.522 130.924 119.247  1.00  0.00     0.005 C 
ATOM     15  C   UNL     1     128.539 129.431 119.630  1.00  0.00    -0.001 C 
ATOM     16  C   UNL     1     130.996 128.622 119.757  1.00  0.00     0.007 C 
ATOM     17  C   UNL     1     129.342 127.316 118.437  1.00  0.00     0.012 C 
ATOM     18  C   UNL     1     128.632 129.163 121.157  1.00  0.00     0.000 C 
ATOM     19  C   UNL     1     131.148 129.670 120.869  1.00  0.00     0.005 C 
ATOM     20  C   UNL     1     129.905 129.767 121.805  1.00  0.00     0.003 C 
ATOM     21  C   UNL     1     127.400 129.640 121.931  1.00  0.00     0.031 C 
ATOM     22  C   UNL     1     130.094 129.221 123.272  1.00  0.00    -0.008 C 
ATOM     23  C   UNL     1     127.556 129.398 123.410  1.00  0.00    -0.027 C 
ATOM     24  C   UNL     1     128.757 129.292 124.037  1.00  0.00    -0.065 C 
ATOM     25  C   UNL     1     131.139 130.115 124.017  1.00  0.00     0.014 C 
ATOM     26  C   UNL     1     130.585 127.746 123.266  1.00  0.00     0.016 C 
ATOM     27  C   UNL     1     128.772 129.111 125.543  1.00  0.00     0.063 C 
ATOM     28  C   UNL     1     131.196 129.877 125.536  1.00  0.00     0.033 C 
ATOM     29  C   UNL     1     129.822 130.018 126.209  1.00  0.00     0.118 C 
BRANCH  29  30
ATOM     30  O   UNL     1     129.405 131.363 126.243  1.00  0.00    -0.393 OA
ATOM     31  H   UNL     1     129.173 131.642 125.319  1.00  0.00     0.210 HD
ENDBRANCH  29  30
ENDBRANCH   9  11
ENDBRANCH   1   9
TORSDOF 7
ENDMDL
MODEL 6
REMARK VINA RESULT:    -5.810      1.571      4.212
REMARK INTER + INTRA:          -9.808
REMARK INTER:                  -7.589
REMARK INTRA:                  -2.218
REMARK UNBOUND:                -1.790
REMARK SMILES CC[C@@H](CC[C@@H](C)[C@H]1CC[C@@H]2[C@@H]3CC=C4C[C@H](O)CC[C@]4(C)[C@H]3CC[C@@]21C)C(C)C
REMARK SMILES IDX 5 1 4 2 3 3 2 4 1 5 28 6 29 7 30 8 6 9 7 10 8 11 9 12 26 13
REMARK SMILES IDX 10 14 11 15 25 16 27 17 12 18 24 19 23 20 13 21 21 22 14 23
REMARK SMILES IDX 15 24 20 25 22 26 16 27 19 28 17 29 18 30
REMARK H PARENT 18 31
REMARK Flexibility Score: inf
ROOT
ATOM      1  C   UNL     1     130.653 128.492 115.038  1.00  0.00     0.004 C 
ENDROOT
BRANCH   1   2
ATOM      2  C   UNL     1     132.189 128.339 114.856  1.00  0.00     0.004 C 
BRANCH   2   3
ATOM      3  C   UNL     1     133.043 128.682 116.115  1.00  0.00    -0.009 C 
BRANCH   3   4
ATOM      4  C   UNL     1     134.000 129.877 115.832  1.00  0.00     0.000 C 
ATOM      5  C   UNL     1     133.678 131.120 116.667  1.00  0.00     0.004 C 
ENDBRANCH   3   4
BRANCH   3   6
ATOM      6  C   UNL     1     133.810 127.450 116.720  1.00  0.00    -0.014 C 
ATOM      7  C   UNL     1     135.119 127.164 115.954  1.00  0.00     0.007 C 
ATOM      8  C   UNL     1     134.154 127.637 118.211  1.00  0.00     0.007 C 
ENDBRANCH   3   6
ENDBRANCH   2   3
ENDBRANCH   1   2
BRANCH   1   9
ATOM      9  C   UNL     1     130.242 129.824 115.731  1.00  0.00    -0.011 C 
ATOM     10  C   UNL     1     129.711 130.873 114.729  1.00  0.00     0.008 C 
BRANCH   9  11
ATOM     11  C   UNL     1     129.395 129.666 117.058  1.00  0.00    -0.002 C 
ATOM     12  C   UNL     1     129.493 128.211 117.548  1.00  0.00     0.005 C 
ATOM     13  C   UNL     1     129.706 130.538 118.337  1.00  0.00    -0.026 C 
ATOM     14  C   UNL     1     130.472 128.193 118.714  1.00  0.00     0.005 C 
ATOM     15  C   UNL     1     130.667 129.649 119.182  1.00  0.00    -0.001 C 
ATOM     16  C   UNL     1     128.380 130.863 119.132  1.00  0.00     0.007 C 
ATOM     17  C   UNL     1     130.353 131.920 118.050  1.00  0.00     0.012 C 
ATOM     18  C   UNL     1     130.466 129.863 120.708  1.00  0.00     0.000 C 
ATOM     19  C   UNL     1     127.943 129.810 120.160  1.00  0.00     0.005 C 
ATOM     20  C   UNL     1     129.052 129.459 121.199  1.00  0.00     0.003 C 
ATOM     21  C   UNL     1     131.517 129.147 121.561  1.00  0.00     0.031 C 
ATOM     22  C   UNL     1     128.810 129.966 122.672  1.00  0.00    -0.008 C 
ATOM     23  C   UNL     1     131.256 129.348 123.032  1.00  0.00    -0.027 C 
ATOM     24  C   UNL     1     130.033 129.633 123.552  1.00  0.00    -0.065 C 
ATOM     25  C   UNL     1     127.561 129.235 123.264  1.00  0.00     0.014 C 
ATOM     26  C   UNL     1     128.577 131.503 122.710  1.00  0.00     0.016 C 
ATOM     27  C   UNL     1     129.897 129.748 125.058  1.00  0.00     0.063 C 
ATOM     28  C   UNL     1     127.392 129.413 124.783  1.00  0.00     0.033 C 
ATOM     29  C   UNL     1     128.649 129.008 125.569  1.00  0.00     0.118 C 
BRANCH  29  30
ATOM     30  O   UNL     1     128.828 127.611 125.560  1.00  0.00    -0.393 OA
ATOM     31  H   UNL     1     128.869 127.295 126.500  1.00  0.00     0.210 HD
ENDBRANCH  29  30
ENDBRANCH   9  11
ENDBRANCH   1   9
TORSDOF 7
ENDMDL
MODEL 7
REMARK VINA RESULT:    -5.671      8.007     12.080
REMARK INTER + INTRA:          -9.615
REMARK INTER:                  -8.961
REMARK INTRA:                  -0.654
REMARK UNBOUND:                -1.790
REMARK SMILES CC[C@@H](CC[C@@H](C)[C@H]1CC[C@@H]2[C@@H]3CC=C4C[C@H](O)CC[C@]4(C)[C@H]3CC[C@@]21C)C(C)C
REMARK SMILES IDX 5 1 4 2 3 3 2 4 1 5 28 6 29 7 30 8 6 9 7 10 8 11 9 12 26 13
REMARK SMILES IDX 10 14 11 15 25 16 27 17 12 18 24 19 23 20 13 21 21 22 14 23
REMARK SMILES IDX 15 24 20 25 22 26 16 27 19 28 17 29 18 30
REMARK H PARENT 18 31
REMARK Flexibility Score: inf
ROOT
ATOM      1  C   UNL     1     135.039 127.944 117.409  1.00  0.00     0.004 C 
ENDROOT
BRANCH   1   2
ATOM      2  C   UNL     1     133.871 126.973 117.075  1.00  0.00     0.004 C 
BRANCH   2   3
ATOM      3  C   UNL     1     132.540 127.662 116.643  1.00  0.00    -0.009 C 
BRANCH   3   4
ATOM      4  C   UNL     1     131.329 127.079 117.429  1.00  0.00     0.000 C 
ATOM      5  C   UNL     1     130.814 128.016 118.526  1.00  0.00     0.004 C 
ENDBRANCH   3   4
BRANCH   3   6
ATOM      6  C   UNL     1     132.291 127.649 115.091  1.00  0.00    -0.014 C 
ATOM      7  C   UNL     1     130.964 126.943 114.735  1.00  0.00     0.007 C 
ATOM      8  C   UNL     1     132.263 129.064 114.481  1.00  0.00     0.007 C 
ENDBRANCH   3   6
ENDBRANCH   2   3
ENDBRANCH   1   2
BRANCH   1   9
ATOM      9  C   UNL     1     135.903 128.320 116.171  1.00  0.00    -0.011 C 
ATOM     10  C   UNL     1     135.808 129.820 115.817  1.00  0.00     0.008 C 
BRANCH   9  11
ATOM     11  C   UNL     1     137.365 127.712 116.154  1.00  0.00    -0.002 C 
ATOM     12  C   UNL     1     137.714 127.283 114.718  1.00  0.00     0.005 C 
ATOM     13  C   UNL     1     138.609 128.559 116.629  1.00  0.00    -0.026 C 
ATOM     14  C   UNL     1     138.642 128.344 114.143  1.00  0.00     0.005 C 
ATOM     15  C   UNL     1     139.164 129.194 115.319  1.00  0.00    -0.001 C 
ATOM     16  C   UNL     1     139.689 127.632 117.318  1.00  0.00     0.007 C 
ATOM     17  C   UNL     1     138.295 129.659 117.678  1.00  0.00     0.012 C 
ATOM     18  C   UNL     1     140.710 129.351 115.358  1.00  0.00     0.000 C 
ATOM     19  C   UNL     1     140.706 126.977 116.373  1.00  0.00     0.005 C 
ATOM     20  C   UNL     1     141.457 127.997 115.465  1.00  0.00     0.003 C 
ATOM     21  C   UNL     1     141.266 130.140 114.169  1.00  0.00     0.031 C 
ATOM     22  C   UNL     1     142.982 128.229 115.793  1.00  0.00    -0.008 C 
ATOM     23  C   UNL     1     142.770 130.229 114.228  1.00  0.00    -0.027 C 
ATOM     24  C   UNL     1     143.556 129.333 114.882  1.00  0.00    -0.065 C 
ATOM     25  C   UNL     1     143.769 126.905 115.523  1.00  0.00     0.014 C 
ATOM     26  C   UNL     1     143.181 128.657 117.275  1.00  0.00     0.016 C 
ATOM     27  C   UNL     1     145.061 129.505 114.808  1.00  0.00     0.063 C 
ATOM     28  C   UNL     1     145.298 127.075 115.518  1.00  0.00     0.033 C 
ATOM     29  C   UNL     1     145.769 128.165 114.542  1.00  0.00     0.118 C 
BRANCH  29  30
ATOM     30  O   UNL     1     145.619 127.751 113.203  1.00  0.00    -0.393 OA
ATOM     31  H   UNL     1     144.680 127.462 113.069  1.00  0.00     0.210 HD
ENDBRANCH  29  30
ENDBRANCH   9  11
ENDBRANCH   1   9
TORSDOF 7
ENDMDL
MODEL 8
REMARK VINA RESULT:    -5.667      1.764      2.905
REMARK INTER + INTRA:          -9.610
REMARK INTER:                  -7.530
REMARK INTRA:                  -2.080
REMARK UNBOUND:                -1.790
REMARK SMILES CC[C@@H](CC[C@@H](C)[C@H]1CC[C@@H]2[C@@H]3CC=C4C[C@H](O)CC[C@]4(C)[C@H]3CC[C@@]21C)C(C)C
REMARK SMILES IDX 5 1 4 2 3 3 2 4 1 5 28 6 29 7 30 8 6 9 7 10 8 11 9 12 26 13
REMARK SMILES IDX 10 14 11 15 25 16 27 17 12 18 24 19 23 20 13 21 21 22 14 23
REMARK SMILES IDX 15 24 20 25 22 26 16 27 19 28 17 29 18 30
REMARK H PARENT 18 31
REMARK Flexibility Score: inf
ROOT
ATOM      1  C   UNL     1     132.501 129.896 114.668  1.00  0.00     0.004 C 
ENDROOT
BRANCH   1   2
ATOM      2  C   UNL     1     131.765 130.815 113.652  1.00  0.00     0.004 C 
BRANCH   2   3
ATOM      3  C   UNL     1     130.875 131.927 114.289  1.00  0.00    -0.009 C 
BRANCH   3   4
ATOM      4  C   UNL     1     129.942 132.573 113.223  1.00  0.00     0.000 C 
ATOM      5  C   UNL     1     128.453 132.384 113.530  1.00  0.00     0.004 C 
ENDBRANCH   3   4
BRANCH   3   6
ATOM      6  C   UNL     1     131.686 133.010 115.089  1.00  0.00    -0.014 C 
ATOM      7  C   UNL     1     132.412 133.990 114.143  1.00  0.00     0.007 C 
ATOM      8  C   UNL     1     130.798 133.831 116.045  1.00  0.00     0.007 C 
ENDBRANCH   3   6
ENDBRANCH   2   3
ENDBRANCH   1   2
BRANCH   1   9
ATOM      9  C   UNL     1     131.723 128.589 114.996  1.00  0.00    -0.011 C 
ATOM     10  C   UNL     1     132.375 127.338 114.369  1.00  0.00     0.008 C 
BRANCH   9  11
ATOM     11  C   UNL     1     131.267 128.431 116.504  1.00  0.00    -0.002 C 
ATOM     12  C   UNL     1     132.418 128.864 117.427  1.00  0.00     0.005 C 
ATOM     13  C   UNL     1     130.002 129.194 117.061  1.00  0.00    -0.026 C 
ATOM     14  C   UNL     1     132.080 130.254 117.948  1.00  0.00     0.005 C 
ATOM     15  C   UNL     1     130.584 130.504 117.672  1.00  0.00    -0.001 C 
ATOM     16  C   UNL     1     129.263 128.329 118.159  1.00  0.00     0.007 C 
ATOM     17  C   UNL     1     128.913 129.521 116.005  1.00  0.00     0.012 C 
ATOM     18  C   UNL     1     129.775 130.977 118.912  1.00  0.00     0.000 C 
ATOM     19  C   UNL     1     129.784 128.487 119.594  1.00  0.00     0.005 C 
ATOM     20  C   UNL     1     129.813 129.966 120.086  1.00  0.00     0.003 C 
ATOM     21  C   UNL     1     130.203 132.356 119.421  1.00  0.00     0.031 C 
ATOM     22  C   UNL     1     128.752 130.353 121.186  1.00  0.00    -0.008 C 
ATOM     23  C   UNL     1     129.421 132.752 120.648  1.00  0.00    -0.027 C 
ATOM     24  C   UNL     1     128.837 131.863 121.493  1.00  0.00    -0.065 C 
ATOM     25  C   UNL     1     129.067 129.564 122.498  1.00  0.00     0.014 C 
ATOM     26  C   UNL     1     127.306 130.023 120.718  1.00  0.00     0.016 C 
ATOM     27  C   UNL     1     128.132 132.394 122.726  1.00  0.00     0.063 C 
ATOM     28  C   UNL     1     128.297 130.065 123.732  1.00  0.00     0.033 C 
ATOM     29  C   UNL     1     128.487 131.571 123.976  1.00  0.00     0.118 C 
BRANCH  29  30
ATOM     30  O   UNL     1     129.788 131.853 124.437  1.00  0.00    -0.393 OA
ATOM     31  H   UNL     1     129.725 132.176 125.373  1.00  0.00     0.210 HD
ENDBRANCH  29  30
ENDBRANCH   9  11
ENDBRANCH   1   9
TORSDOF 7
ENDMDL
MODEL 9
REMARK VINA RESULT:    -5.649     11.436     14.836
REMARK INTER + INTRA:          -9.585
REMARK INTER:                  -8.210
REMARK INTRA:                  -1.375
REMARK UNBOUND:                -1.790
REMARK SMILES CC[C@@H](CC[C@@H](C)[C@H]1CC[C@@H]2[C@@H]3CC=C4C[C@H](O)CC[C@]4(C)[C@H]3CC[C@@]21C)C(C)C
REMARK SMILES IDX 5 1 4 2 3 3 2 4 1 5 28 6 29 7 30 8 6 9 7 10 8 11 9 12 26 13
REMARK SMILES IDX 10 14 11 15 25 16 27 17 12 18 24 19 23 20 13 21 21 22 14 23
REMARK SMILES IDX 15 24 20 25 22 26 16 27 19 28 17 29 18 30
REMARK H PARENT 18 31
REMARK Flexibility Score: inf
ROOT
ATOM      1  C   UNL     1     142.203 127.051 115.004  1.00  0.00     0.004 C 
ENDROOT
BRANCH   1   2
ATOM      2  C   UNL     1     141.077 127.226 116.062  1.00  0.00     0.004 C 
BRANCH   2   3
ATOM      3  C   UNL     1     139.891 128.140 115.622  1.00  0.00    -0.009 C 
BRANCH   3   4
ATOM      4  C   UNL     1     139.151 128.728 116.859  1.00  0.00     0.000 C 
ATOM      5  C   UNL     1     139.934 128.564 118.165  1.00  0.00     0.004 C 
ENDBRANCH   3   4
BRANCH   3   6
ATOM      6  C   UNL     1     138.896 127.452 114.618  1.00  0.00    -0.014 C 
ATOM      7  C   UNL     1     137.464 127.387 115.192  1.00  0.00     0.007 C 
ATOM      8  C   UNL     1     138.837 128.168 113.254  1.00  0.00     0.007 C 
ENDBRANCH   3   6
ENDBRANCH   2   3
ENDBRANCH   1   2
BRANCH   1   9
ATOM      9  C   UNL     1     143.606 127.484 115.518  1.00  0.00    -0.011 C 
ATOM     10  C   UNL     1     144.639 127.620 114.377  1.00  0.00     0.008 C 
BRANCH   9  11
ATOM     11  C   UNL     1     143.608 128.662 116.575  1.00  0.00    -0.002 C 
ATOM     12  C   UNL     1     144.945 128.653 117.338  1.00  0.00     0.005 C 
ATOM     13  C   UNL     1     143.417 130.164 116.129  1.00  0.00    -0.026 C 
ATOM     14  C   UNL     1     145.798 129.776 116.766  1.00  0.00     0.005 C 
ATOM     15  C   UNL     1     144.869 130.700 115.953  1.00  0.00    -0.001 C 
ATOM     16  C   UNL     1     142.634 130.983 117.231  1.00  0.00     0.007 C 
ATOM     17  C   UNL     1     142.601 130.363 114.823  1.00  0.00     0.012 C 
ATOM     18  C   UNL     1     144.983 132.205 116.321  1.00  0.00     0.000 C 
ATOM     19  C   UNL     1     143.497 131.597 118.343  1.00  0.00     0.005 C 
ATOM     20  C   UNL     1     144.653 132.496 117.808  1.00  0.00     0.003 C 
ATOM     21  C   UNL     1     146.349 132.808 115.982  1.00  0.00     0.031 C 
ATOM     22  C   UNL     1     144.498 134.046 118.049  1.00  0.00    -0.008 C 
ATOM     23  C   UNL     1     146.426 134.256 116.396  1.00  0.00    -0.027 C 
ATOM     24  C   UNL     1     145.661 134.804 117.377  1.00  0.00    -0.065 C 
ATOM     25  C   UNL     1     144.545 134.330 119.586  1.00  0.00     0.014 C 
ATOM     26  C   UNL     1     143.158 134.577 117.465  1.00  0.00     0.016 C 
ATOM     27  C   UNL     1     145.884 136.260 117.737  1.00  0.00     0.063 C 
ATOM     28  C   UNL     1     144.702 135.818 119.944  1.00  0.00     0.033 C 
ATOM     29  C   UNL     1     145.918 136.465 119.261  1.00  0.00     0.118 C 
BRANCH  29  30
ATOM     30  O   UNL     1     147.125 136.005 119.825  1.00  0.00    -0.393 OA
ATOM     31  H   UNL     1     147.357 135.139 119.400  1.00  0.00     0.210 HD
ENDBRANCH  29  30
ENDBRANCH   9  11
ENDBRANCH   1   9
TORSDOF 7
ENDMDL
