MODEL 1
REMARK VINA RESULT:    -3.220      0.000      0.000
REMARK INTER + INTRA:          -6.865
REMARK INTER:                  -5.480
REMARK INTRA:                  -1.386
REMARK UNBOUND:                -1.386
REMARK SMILES CCCCCCCCCCCCCC(=O)[O-]
REMARK SMILES IDX 8 1 9 2 10 3 11 4 12 5 13 6 14 7 15 8 16 9 7 10 6 11 5 12
REMARK SMILES IDX 4 13 3 14 2 15 1 16
REMARK H PARENT
REMARK Flexibility Score: inf
ROOT
ATOM      1  C   UNL     1     -16.971 -12.938  25.615  1.00  0.00     0.000 C 
ENDROOT
BRANCH   1   2
ATOM      2  C   UNL     1     -17.071 -13.327  27.099  1.00  0.00     0.000 C 
BRANCH   2   3
ATOM      3  C   UNL     1     -16.903 -14.840  27.326  1.00  0.00     0.000 C 
BRANCH   3   4
ATOM      4  C   UNL     1     -15.820 -15.454  26.423  1.00  0.00     0.000 C 
BRANCH   4   5
ATOM      5  C   UNL     1     -14.833 -16.339  27.198  1.00  0.00     0.006 C 
BRANCH   5   6
ATOM      6  C   UNL     1     -14.765 -15.923  28.671  1.00  0.00     0.053 C 
BRANCH   6   7
ATOM      7  C   UNL     1     -14.469 -17.107  29.537  1.00  0.00     0.041 C 
ATOM      8  O   UNL     1     -13.546 -17.053  30.391  1.00  0.00    -0.550 OA
ATOM      9  O   UNL     1     -15.244 -18.255  29.434  1.00  0.00    -0.550 OA
ENDBRANCH   6   7
ENDBRANCH   5   6
ENDBRANCH   4   5
ENDBRANCH   3   4
ENDBRANCH   2   3
ENDBRANCH   1   2
BRANCH   1  10
ATOM     10  C   UNL     1     -18.102 -12.000  25.167  1.00  0.00     0.000 C 
BRANCH  10  11
ATOM     11  C   UNL     1     -18.553 -12.329  23.736  1.00  0.00    -0.000 C 
BRANCH  11  12
ATOM     12  C   UNL     1     -17.636 -13.354  23.049  1.00  0.00    -0.000 C 
BRANCH  12  13
ATOM     13  C   UNL     1     -18.385 -14.225  22.025  1.00  0.00    -0.000 C 
BRANCH  13  14
ATOM     14  C   UNL     1     -19.010 -15.478  22.659  1.00  0.00    -0.000 C 
BRANCH  14  15
ATOM     15  C   UNL     1     -18.123 -16.090  23.754  1.00  0.00    -0.003 C 
ATOM     16  C   UNL     1     -18.965 -16.795  24.812  1.00  0.00     0.004 C 
ENDBRANCH  14  15
ENDBRANCH  13  14
ENDBRANCH  12  13
ENDBRANCH  11  12
ENDBRANCH  10  11
ENDBRANCH   1  10
TORSDOF 12
ENDMDL
MODEL 2
REMARK VINA RESULT:    -3.189      8.588     10.066
REMARK INTER + INTRA:          -6.813
REMARK INTER:                  -4.643
REMARK INTRA:                  -2.170
REMARK UNBOUND:                -1.386
REMARK SMILES CCCCCCCCCCCCCC(=O)[O-]
REMARK SMILES IDX 8 1 9 2 10 3 11 4 12 5 13 6 14 7 15 8 16 9 7 10 6 11 5 12
REMARK SMILES IDX 4 13 3 14 2 15 1 16
REMARK H PARENT
REMARK Flexibility Score: inf
ROOT
ATOM      1  C   UNL     1     -14.097 -21.555  20.285  1.00  0.00     0.000 C 
ENDROOT
BRANCH   1   2
ATOM      2  C   UNL     1     -14.605 -21.460  21.733  1.00  0.00     0.000 C 
BRANCH   2   3
ATOM      3  C   UNL     1     -13.758 -20.506  22.594  1.00  0.00     0.000 C 
BRANCH   3   4
ATOM      4  C   UNL     1     -12.566 -21.214  23.260  1.00  0.00     0.000 C 
BRANCH   4   5
ATOM      5  C   UNL     1     -12.968 -22.517  23.966  1.00  0.00     0.006 C 
BRANCH   5   6
ATOM      6  C   UNL     1     -12.174 -23.706  23.415  1.00  0.00     0.053 C 
BRANCH   6   7
ATOM      7  C   UNL     1     -13.061 -24.900  23.252  1.00  0.00     0.041 C 
ATOM      8  O   UNL     1     -12.612 -26.057  23.462  1.00  0.00    -0.550 OA
ATOM      9  O   UNL     1     -14.397 -24.731  22.912  1.00  0.00    -0.550 OA
ENDBRANCH   6   7
ENDBRANCH   5   6
ENDBRANCH   4   5
ENDBRANCH   3   4
ENDBRANCH   2   3
ENDBRANCH   1   2
BRANCH   1  10
ATOM     10  C   UNL     1     -13.403 -22.893  19.985  1.00  0.00     0.000 C 
BRANCH  10  11
ATOM     11  C   UNL     1     -12.068 -22.666  19.257  1.00  0.00    -0.000 C 
BRANCH  11  12
ATOM     12  C   UNL     1     -10.911 -22.369  20.224  1.00  0.00    -0.000 C 
BRANCH  12  13
ATOM     13  C   UNL     1     -10.118 -21.110  19.830  1.00  0.00    -0.000 C 
BRANCH  13  14
ATOM     14  C   UNL     1     -10.779 -19.815  20.330  1.00  0.00    -0.000 C 
BRANCH  14  15
ATOM     15  C   UNL     1     -11.399 -18.992  19.191  1.00  0.00    -0.003 C 
ATOM     16  C   UNL     1     -12.629 -18.228  19.673  1.00  0.00     0.004 C 
ENDBRANCH  14  15
ENDBRANCH  13  14
ENDBRANCH  12  13
ENDBRANCH  11  12
ENDBRANCH  10  11
ENDBRANCH   1  10
TORSDOF 12
ENDMDL
MODEL 3
REMARK VINA RESULT:    -3.183      8.808     10.539
REMARK INTER + INTRA:          -6.802
REMARK INTER:                  -4.659
REMARK INTRA:                  -2.143
REMARK UNBOUND:                -1.386
REMARK SMILES CCCCCCCCCCCCCC(=O)[O-]
REMARK SMILES IDX 8 1 9 2 10 3 11 4 12 5 13 6 14 7 15 8 16 9 7 10 6 11 5 12
REMARK SMILES IDX 4 13 3 14 2 15 1 16
REMARK H PARENT
REMARK Flexibility Score: inf
ROOT
ATOM      1  C   UNL     1     -13.345 -22.894  19.515  1.00  0.00     0.000 C 
ENDROOT
BRANCH   1   2
ATOM      2  C   UNL     1     -12.660 -21.618  18.999  1.00  0.00     0.000 C 
BRANCH   2   3
ATOM      3  C   UNL     1     -13.498 -20.353  19.257  1.00  0.00     0.000 C 
BRANCH   3   4
ATOM      4  C   UNL     1     -12.686 -19.237  19.935  1.00  0.00     0.000 C 
BRANCH   4   5
ATOM      5  C   UNL     1     -11.237 -19.168  19.432  1.00  0.00     0.006 C 
BRANCH   5   6
ATOM      6  C   UNL     1     -10.249 -19.447  20.569  1.00  0.00     0.053 C 
BRANCH   6   7
ATOM      7  C   UNL     1      -8.852 -19.538  20.041  1.00  0.00     0.041 C 
ATOM      8  O   UNL     1      -8.628 -20.097  18.935  1.00  0.00    -0.550 OA
ATOM      9  O   UNL     1      -7.803 -18.964  20.747  1.00  0.00    -0.550 OA
ENDBRANCH   6   7
ENDBRANCH   5   6
ENDBRANCH   4   5
ENDBRANCH   3   4
ENDBRANCH   2   3
ENDBRANCH   1   2
BRANCH   1  10
ATOM     10  C   UNL     1     -12.455 -23.702  20.473  1.00  0.00     0.000 C 
BRANCH  10  11
ATOM     11  C   UNL     1     -11.603 -22.768  21.346  1.00  0.00    -0.000 C 
BRANCH  11  12
ATOM     12  C   UNL     1     -12.170 -22.607  22.766  1.00  0.00    -0.000 C 
BRANCH  12  13
ATOM     13  C   UNL     1     -12.410 -21.135  23.144  1.00  0.00    -0.000 C 
BRANCH  13  14
ATOM     14  C   UNL     1     -13.879 -20.714  22.978  1.00  0.00    -0.000 C 
BRANCH  14  15
ATOM     15  C   UNL     1     -14.843 -21.909  23.021  1.00  0.00    -0.003 C 
ATOM     16  C   UNL     1     -15.848 -21.845  21.875  1.00  0.00     0.004 C 
ENDBRANCH  14  15
ENDBRANCH  13  14
ENDBRANCH  12  13
ENDBRANCH  11  12
ENDBRANCH  10  11
ENDBRANCH   1  10
TORSDOF 12
ENDMDL
MODEL 4
REMARK VINA RESULT:    -3.173      9.000     10.846
REMARK INTER + INTRA:          -6.785
REMARK INTER:                  -4.770
REMARK INTRA:                  -2.014
REMARK UNBOUND:                -1.386
REMARK SMILES CCCCCCCCCCCCCC(=O)[O-]
REMARK SMILES IDX 8 1 9 2 10 3 11 4 12 5 13 6 14 7 15 8 16 9 7 10 6 11 5 12
REMARK SMILES IDX 4 13 3 14 2 15 1 16
REMARK H PARENT
REMARK Flexibility Score: inf
ROOT
ATOM      1  C   UNL     1     -10.956 -22.225  20.751  1.00  0.00     0.000 C 
ENDROOT
BRANCH   1   2
ATOM      2  C   UNL     1     -10.393 -21.323  19.641  1.00  0.00     0.000 C 
BRANCH   2   3
ATOM      3  C   UNL     1     -10.368 -19.838  20.043  1.00  0.00     0.000 C 
BRANCH   3   4
ATOM      4  C   UNL     1     -11.709 -19.363  20.627  1.00  0.00     0.000 C 
BRANCH   4   5
ATOM      5  C   UNL     1     -12.421 -18.343  19.726  1.00  0.00     0.006 C 
BRANCH   5   6
ATOM      6  C   UNL     1     -13.418 -19.040  18.794  1.00  0.00     0.053 C 
BRANCH   6   7
ATOM      7  C   UNL     1     -12.841 -19.182  17.420  1.00  0.00     0.041 C 
ATOM      8  O   UNL     1     -12.543 -20.320  16.973  1.00  0.00    -0.550 OA
ATOM      9  O   UNL     1     -12.677 -18.062  16.616  1.00  0.00    -0.550 OA
ENDBRANCH   6   7
ENDBRANCH   5   6
ENDBRANCH   4   5
ENDBRANCH   3   4
ENDBRANCH   2   3
ENDBRANCH   1   2
BRANCH   1  10
ATOM     10  C   UNL     1     -11.952 -23.269  20.222  1.00  0.00     0.000 C 
BRANCH  10  11
ATOM     11  C   UNL     1     -13.246 -22.595  19.739  1.00  0.00    -0.000 C 
BRANCH  11  12
ATOM     12  C   UNL     1     -14.388 -22.708  20.761  1.00  0.00    -0.000 C 
BRANCH  12  13
ATOM     13  C   UNL     1     -14.642 -21.390  21.514  1.00  0.00    -0.000 C 
BRANCH  13  14
ATOM     14  C   UNL     1     -14.461 -21.533  23.033  1.00  0.00    -0.000 C 
BRANCH  14  15
ATOM     15  C   UNL     1     -13.010 -21.304  23.479  1.00  0.00    -0.003 C 
ATOM     16  C   UNL     1     -12.452 -22.534  24.187  1.00  0.00     0.004 C 
ENDBRANCH  14  15
ENDBRANCH  13  14
ENDBRANCH  12  13
ENDBRANCH  11  12
ENDBRANCH  10  11
ENDBRANCH   1  10
TORSDOF 12
ENDMDL
MODEL 5
REMARK VINA RESULT:    -3.166      2.943      5.126
REMARK INTER + INTRA:          -6.773
REMARK INTER:                  -4.660
REMARK INTRA:                  -2.113
REMARK UNBOUND:                -1.386
REMARK SMILES CCCCCCCCCCCCCC(=O)[O-]
REMARK SMILES IDX 8 1 9 2 10 3 11 4 12 5 13 6 14 7 15 8 16 9 7 10 6 11 5 12
REMARK SMILES IDX 4 13 3 14 2 15 1 16
REMARK H PARENT
REMARK Flexibility Score: inf
ROOT
ATOM      1  C   UNL     1     -16.172 -15.602  30.398  1.00  0.00     0.000 C 
ENDROOT
BRANCH   1   2
ATOM      2  C   UNL     1     -15.442 -14.283  30.702  1.00  0.00     0.000 C 
BRANCH   2   3
ATOM      3  C   UNL     1     -14.404 -13.922  29.624  1.00  0.00     0.000 C 
BRANCH   3   4
ATOM      4  C   UNL     1     -12.972 -13.863  30.182  1.00  0.00     0.000 C 
BRANCH   4   5
ATOM      5  C   UNL     1     -11.920 -14.331  29.167  1.00  0.00     0.006 C 
BRANCH   5   6
ATOM      6  C   UNL     1     -12.061 -15.830  28.883  1.00  0.00     0.053 C 
BRANCH   6   7
ATOM      7  C   UNL     1     -11.245 -16.627  29.852  1.00  0.00     0.041 C 
ATOM      8  O   UNL     1     -11.744 -17.628  30.428  1.00  0.00    -0.550 OA
ATOM      9  O   UNL     1      -9.917 -16.290  30.083  1.00  0.00    -0.550 OA
ENDBRANCH   6   7
ENDBRANCH   5   6
ENDBRANCH   4   5
ENDBRANCH   3   4
ENDBRANCH   2   3
ENDBRANCH   1   2
BRANCH   1  10
ATOM     10  C   UNL     1     -15.247 -16.827  30.482  1.00  0.00     0.000 C 
BRANCH  10  11
ATOM     11  C   UNL     1     -15.238 -17.597  29.153  1.00  0.00    -0.000 C 
BRANCH  11  12
ATOM     12  C   UNL     1     -16.080 -16.911  28.066  1.00  0.00    -0.000 C 
BRANCH  12  13
ATOM     13  C   UNL     1     -15.219 -16.299  26.947  1.00  0.00    -0.000 C 
BRANCH  13  14
ATOM     14  C   UNL     1     -15.855 -15.042  26.332  1.00  0.00    -0.000 C 
BRANCH  14  15
ATOM     15  C   UNL     1     -17.222 -14.711  26.948  1.00  0.00    -0.003 C 
ATOM     16  C   UNL     1     -17.271 -13.265  27.430  1.00  0.00     0.004 C 
ENDBRANCH  14  15
ENDBRANCH  13  14
ENDBRANCH  12  13
ENDBRANCH  11  12
ENDBRANCH  10  11
ENDBRANCH   1  10
TORSDOF 12
ENDMDL
MODEL 6
REMARK VINA RESULT:    -3.154      8.614     10.475
REMARK INTER + INTRA:          -6.752
REMARK INTER:                  -4.569
REMARK INTRA:                  -2.183
REMARK UNBOUND:                -1.386
REMARK SMILES CCCCCCCCCCCCCC(=O)[O-]
REMARK SMILES IDX 8 1 9 2 10 3 11 4 12 5 13 6 14 7 15 8 16 9 7 10 6 11 5 12
REMARK SMILES IDX 4 13 3 14 2 15 1 16
REMARK H PARENT
REMARK Flexibility Score: inf
ROOT
ATOM      1  C   UNL     1     -11.473 -23.864  21.731  1.00  0.00     0.000 C 
ENDROOT
BRANCH   1   2
ATOM      2  C   UNL     1     -12.222 -23.642  20.406  1.00  0.00     0.000 C 
BRANCH   2   3
ATOM      3  C   UNL     1     -12.091 -22.199  19.888  1.00  0.00     0.000 C 
BRANCH   3   4
ATOM      4  C   UNL     1     -10.842 -21.488  20.435  1.00  0.00     0.000 C 
BRANCH   4   5
ATOM      5  C   UNL     1     -11.150 -20.088  20.986  1.00  0.00     0.006 C 
BRANCH   5   6
ATOM      6  C   UNL     1     -12.492 -19.573  20.453  1.00  0.00     0.053 C 
BRANCH   6   7
ATOM      7  C   UNL     1     -12.274 -18.570  19.364  1.00  0.00     0.041 C 
ATOM      8  O   UNL     1     -13.010 -17.552  19.284  1.00  0.00    -0.550 OA
ATOM      9  O   UNL     1     -11.228 -18.735  18.466  1.00  0.00    -0.550 OA
ENDBRANCH   6   7
ENDBRANCH   5   6
ENDBRANCH   4   5
ENDBRANCH   3   4
ENDBRANCH   2   3
ENDBRANCH   1   2
BRANCH   1  10
ATOM     10  C   UNL     1     -12.416 -23.947  22.941  1.00  0.00     0.000 C 
BRANCH  10  11
ATOM     11  C   UNL     1     -12.193 -22.761  23.892  1.00  0.00    -0.000 C 
BRANCH  11  12
ATOM     12  C   UNL     1     -13.144 -21.589  23.608  1.00  0.00    -0.000 C 
BRANCH  12  13
ATOM     13  C   UNL     1     -14.575 -22.052  23.280  1.00  0.00    -0.000 C 
BRANCH  13  14
ATOM     14  C   UNL     1     -15.115 -21.431  21.982  1.00  0.00    -0.000 C 
BRANCH  14  15
ATOM     15  C   UNL     1     -15.772 -22.468  21.060  1.00  0.00    -0.003 C 
ATOM     16  C   UNL     1     -15.802 -21.978  19.616  1.00  0.00     0.004 C 
ENDBRANCH  14  15
ENDBRANCH  13  14
ENDBRANCH  12  13
ENDBRANCH  11  12
ENDBRANCH  10  11
ENDBRANCH   1  10
TORSDOF 12
ENDMDL
MODEL 7
REMARK VINA RESULT:    -3.137      3.455      7.197
REMARK INTER + INTRA:          -6.723
REMARK INTER:                  -5.300
REMARK INTRA:                  -1.424
REMARK UNBOUND:                -1.386
REMARK SMILES CCCCCCCCCCCCCC(=O)[O-]
REMARK SMILES IDX 8 1 9 2 10 3 11 4 12 5 13 6 14 7 15 8 16 9 7 10 6 11 5 12
REMARK SMILES IDX 4 13 3 14 2 15 1 16
REMARK H PARENT
REMARK Flexibility Score: inf
ROOT
ATOM      1  C   UNL     1     -14.977 -17.100  29.511  1.00  0.00     0.000 C 
ENDROOT
BRANCH   1   2
ATOM      2  C   UNL     1     -15.797 -17.007  28.214  1.00  0.00     0.000 C 
BRANCH   2   3
ATOM      3  C   UNL     1     -15.063 -16.231  27.105  1.00  0.00     0.000 C 
BRANCH   3   4
ATOM      4  C   UNL     1     -15.660 -14.834  26.869  1.00  0.00     0.000 C 
BRANCH   4   5
ATOM      5  C   UNL     1     -16.747 -14.829  25.784  1.00  0.00     0.006 C 
BRANCH   5   6
ATOM      6  C   UNL     1     -16.795 -13.477  25.064  1.00  0.00     0.053 C 
BRANCH   6   7
ATOM      7  C   UNL     1     -18.191 -12.936  25.057  1.00  0.00     0.041 C 
ATOM      8  O   UNL     1     -19.068 -13.434  25.810  1.00  0.00    -0.550 OA
ATOM      9  O   UNL     1     -18.511 -11.851  24.252  1.00  0.00    -0.550 OA
ENDBRANCH   6   7
ENDBRANCH   5   6
ENDBRANCH   4   5
ENDBRANCH   3   4
ENDBRANCH   2   3
ENDBRANCH   1   2
BRANCH   1  10
ATOM     10  C   UNL     1     -13.463 -17.167  29.254  1.00  0.00     0.000 C 
BRANCH  10  11
ATOM     11  C   UNL     1     -12.681 -16.577  30.437  1.00  0.00    -0.000 C 
BRANCH  11  12
ATOM     12  C   UNL     1     -11.675 -15.500  30.001  1.00  0.00    -0.000 C 
BRANCH  12  13
ATOM     13  C   UNL     1     -12.232 -14.577  28.903  1.00  0.00    -0.000 C 
BRANCH  13  14
ATOM     14  C   UNL     1     -12.796 -13.262  29.466  1.00  0.00    -0.000 C 
BRANCH  14  15
ATOM     15  C   UNL     1     -14.254 -13.397  29.931  1.00  0.00    -0.003 C 
ATOM     16  C   UNL     1     -15.086 -12.200  29.480  1.00  0.00     0.004 C 
ENDBRANCH  14  15
ENDBRANCH  13  14
ENDBRANCH  12  13
ENDBRANCH  11  12
ENDBRANCH  10  11
ENDBRANCH   1  10
TORSDOF 12
ENDMDL
MODEL 8
REMARK VINA RESULT:    -3.105      9.274     10.774
REMARK INTER + INTRA:          -6.669
REMARK INTER:                  -5.029
REMARK INTRA:                  -1.639
REMARK UNBOUND:                -1.386
REMARK SMILES CCCCCCCCCCCCCC(=O)[O-]
REMARK SMILES IDX 8 1 9 2 10 3 11 4 12 5 13 6 14 7 15 8 16 9 7 10 6 11 5 12
REMARK SMILES IDX 4 13 3 14 2 15 1 16
REMARK H PARENT
REMARK Flexibility Score: inf
ROOT
ATOM      1  C   UNL     1     -14.021 -21.059  22.301  1.00  0.00     0.000 C 
ENDROOT
BRANCH   1   2
ATOM      2  C   UNL     1     -13.470 -20.626  20.933  1.00  0.00     0.000 C 
BRANCH   2   3
ATOM      3  C   UNL     1     -12.249 -19.697  21.056  1.00  0.00     0.000 C 
BRANCH   3   4
ATOM      4  C   UNL     1     -11.966 -18.921  19.759  1.00  0.00     0.000 C 
BRANCH   4   5
ATOM      5  C   UNL     1     -10.569 -19.208  19.188  1.00  0.00     0.006 C 
BRANCH   5   6
ATOM      6  C   UNL     1      -9.597 -19.618  20.299  1.00  0.00     0.053 C 
BRANCH   6   7
ATOM      7  C   UNL     1      -8.231 -19.070  20.030  1.00  0.00     0.041 C 
ATOM      8  O   UNL     1      -7.935 -18.641  18.885  1.00  0.00    -0.550 OA
ATOM      9  O   UNL     1      -7.300 -18.990  21.057  1.00  0.00    -0.550 OA
ENDBRANCH   6   7
ENDBRANCH   5   6
ENDBRANCH   4   5
ENDBRANCH   3   4
ENDBRANCH   2   3
ENDBRANCH   1   2
BRANCH   1  10
ATOM     10  C   UNL     1     -12.958 -21.019  23.410  1.00  0.00     0.000 C 
BRANCH  10  11
ATOM     11  C   UNL     1     -12.216 -22.361  23.506  1.00  0.00    -0.000 C 
BRANCH  11  12
ATOM     12  C   UNL     1     -13.081 -23.548  23.055  1.00  0.00    -0.000 C 
BRANCH  12  13
ATOM     13  C   UNL     1     -12.372 -24.438  22.018  1.00  0.00    -0.000 C 
BRANCH  13  14
ATOM     14  C   UNL     1     -12.987 -24.314  20.614  1.00  0.00    -0.000 C 
BRANCH  14  15
ATOM     15  C   UNL     1     -12.017 -23.693  19.598  1.00  0.00    -0.003 C 
ATOM     16  C   UNL     1     -10.742 -23.210  20.282  1.00  0.00     0.004 C 
ENDBRANCH  14  15
ENDBRANCH  13  14
ENDBRANCH  12  13
ENDBRANCH  11  12
ENDBRANCH  10  11
ENDBRANCH   1  10
TORSDOF 12
ENDMDL
MODEL 9
REMARK VINA RESULT:    -3.082      1.309      2.583
REMARK INTER + INTRA:          -6.630
REMARK INTER:                  -5.376
REMARK INTRA:                  -1.254
REMARK UNBOUND:                -1.386
REMARK SMILES CCCCCCCCCCCCCC(=O)[O-]
REMARK SMILES IDX 8 1 9 2 10 3 11 4 12 5 13 6 14 7 15 8 16 9 7 10 6 11 5 12
REMARK SMILES IDX 4 13 3 14 2 15 1 16
REMARK H PARENT
REMARK Flexibility Score: inf
ROOT
ATOM      1  C   UNL     1     -18.542 -14.963  26.759  1.00  0.00     0.000 C 
ENDROOT
BRANCH   1   2
ATOM      2  C   UNL     1     -17.655 -13.724  26.966  1.00  0.00     0.000 C 
BRANCH   2   3
ATOM      3  C   UNL     1     -16.221 -14.090  27.391  1.00  0.00     0.000 C 
BRANCH   3   4
ATOM      4  C   UNL     1     -15.641 -15.251  26.568  1.00  0.00     0.000 C 
BRANCH   4   5
ATOM      5  C   UNL     1     -14.980 -16.327  27.443  1.00  0.00     0.006 C 
BRANCH   5   6
ATOM      6  C   UNL     1     -15.801 -16.581  28.712  1.00  0.00     0.053 C 
BRANCH   6   7
ATOM      7  C   UNL     1     -15.021 -17.407  29.686  1.00  0.00     0.041 C 
ATOM      8  O   UNL     1     -13.841 -17.754  29.419  1.00  0.00    -0.550 OA
ATOM      9  O   UNL     1     -15.581 -17.753  30.908  1.00  0.00    -0.550 OA
ENDBRANCH   6   7
ENDBRANCH   5   6
ENDBRANCH   4   5
ENDBRANCH   3   4
ENDBRANCH   2   3
ENDBRANCH   1   2
BRANCH   1  10
ATOM     10  C   UNL     1     -19.258 -14.961  25.399  1.00  0.00     0.000 C 
BRANCH  10  11
ATOM     11  C   UNL     1     -18.410 -15.670  24.333  1.00  0.00    -0.000 C 
BRANCH  11  12
ATOM     12  C   UNL     1     -18.292 -14.857  23.034  1.00  0.00    -0.000 C 
BRANCH  12  13
ATOM     13  C   UNL     1     -17.629 -13.486  23.252  1.00  0.00    -0.000 C 
BRANCH  13  14
ATOM     14  C   UNL     1     -18.572 -12.315  22.930  1.00  0.00    -0.000 C 
BRANCH  14  15
ATOM     15  C   UNL     1     -19.758 -12.738  22.051  1.00  0.00    -0.003 C 
ATOM     16  C   UNL     1     -19.484 -12.443  20.580  1.00  0.00     0.004 C 
ENDBRANCH  14  15
ENDBRANCH  13  14
ENDBRANCH  12  13
ENDBRANCH  11  12
ENDBRANCH  10  11
ENDBRANCH   1  10
TORSDOF 12
ENDMDL
