MODEL 1
REMARK VINA RESULT:    -4.789      0.000      0.000
REMARK INTER + INTRA:          -6.057
REMARK INTER:                  -5.769
REMARK INTRA:                  -0.288
REMARK UNBOUND:                -0.288
REMARK SMILES O=c1c(O)c(-c2ccc(O)c(O)c2)oc2cc(O)cc(O)c12
REMARK SMILES IDX 5 1 3 2 2 3 1 4 22 5 20 6 19 7 17 8 16 9 15 10 14 11 6 12
REMARK SMILES IDX 7 13 8 14 9 15 13 16 11 17 10 18 12 20 4 22 21 24 18 26
REMARK H PARENT 10 19 12 21 4 23 21 25 18 27
REMARK Flexibility Score: inf
ROOT
ATOM      1  C   UNL     1      13.132   8.983  17.768  1.00  0.00     0.180 A 
ATOM      2  C   UNL     1      11.887   9.294  17.194  1.00  0.00     0.208 A 
ATOM      3  C   UNL     1      11.831   9.643  15.836  1.00  0.00     0.238 A 
ATOM      4  O   UNL     1      10.722   9.973  15.341  1.00  0.00    -0.285 OA
ATOM      5  C   UNL     1      13.018   9.660  15.064  1.00  0.00     0.111 A 
ATOM      6  C   UNL     1      13.073   9.960  13.669  1.00  0.00     0.134 A 
ATOM      7  C   UNL     1      14.317  10.075  13.036  1.00  0.00     0.093 A 
ATOM      8  C   UNL     1      15.502   9.839  13.731  1.00  0.00     0.123 A 
ATOM      9  C   UNL     1      15.458   9.487  15.080  1.00  0.00     0.094 A 
ATOM     10  C   UNL     1      14.233   9.399  15.748  1.00  0.00     0.146 A 
ATOM     11  O   UNL     1      14.235   9.072  17.034  1.00  0.00    -0.452 OA
ENDROOT
BRANCH   1  12
ATOM     12  C   UNL     1      13.267   8.582  19.188  1.00  0.00     0.025 A 
ATOM     13  C   UNL     1      13.673   9.499  20.170  1.00  0.00     0.016 A 
ATOM     14  C   UNL     1      13.771   9.104  21.506  1.00  0.00     0.051 A 
ATOM     15  C   UNL     1      13.455   7.796  21.889  1.00  0.00     0.157 A 
ATOM     16  C   UNL     1      12.929   7.276  19.573  1.00  0.00     0.062 A 
ATOM     17  C   UNL     1      13.024   6.870  20.910  1.00  0.00     0.158 A 
BRANCH  15  18
ATOM     18  O   UNL     1      13.578   7.465  23.240  1.00  0.00    -0.504 OA
ATOM     19  H   UNL     1      14.044   6.635  23.577  1.00  0.00     0.293 HD
ENDBRANCH  15  18
BRANCH  17  20
ATOM     20  O   UNL     1      12.683   5.551  21.217  1.00  0.00    -0.504 OA
ATOM     21  H   UNL     1      12.135   5.283  22.022  1.00  0.00     0.293 HD
ENDBRANCH  17  20
ENDBRANCH   1  12
BRANCH   2  22
ATOM     22  O   UNL     1      10.730   9.292  17.980  1.00  0.00    -0.502 OA
ATOM     23  H   UNL     1      10.759   9.367  18.989  1.00  0.00     0.293 HD
ENDBRANCH   2  22
BRANCH   6  24
ATOM     24  O   UNL     1      11.945  10.124  12.860  1.00  0.00    -0.507 OA
ATOM     25  H   UNL     1      11.038  10.418  13.192  1.00  0.00     0.293 HD
ENDBRANCH   6  24
BRANCH   8  26
ATOM     26  O   UNL     1      16.722   9.948  13.065  1.00  0.00    -0.508 OA
ATOM     27  H   UNL     1      17.410   9.204  13.093  1.00  0.00     0.293 HD
ENDBRANCH   8  26
TORSDOF 6
ENDMDL
MODEL 2
REMARK VINA RESULT:    -4.556      5.889     11.057
REMARK INTER + INTRA:          -5.776
REMARK INTER:                  -5.447
REMARK INTRA:                  -0.329
REMARK UNBOUND:                -0.288
REMARK SMILES O=c1c(O)c(-c2ccc(O)c(O)c2)oc2cc(O)cc(O)c12
REMARK SMILES IDX 5 1 3 2 2 3 1 4 22 5 20 6 19 7 17 8 16 9 15 10 14 11 6 12
REMARK SMILES IDX 7 13 8 14 9 15 13 16 11 17 10 18 12 20 4 22 21 24 18 26
REMARK H PARENT 10 19 12 21 4 23 21 25 18 27
REMARK Flexibility Score: inf
ROOT
ATOM      1  C   UNL     1      12.031   8.227  25.664  1.00  0.00     0.180 A 
ATOM      2  C   UNL     1      10.666   8.545  25.765  1.00  0.00     0.208 A 
ATOM      3  C   UNL     1       9.966   8.184  26.926  1.00  0.00     0.238 A 
ATOM      4  O   UNL     1       8.731   8.423  26.988  1.00  0.00    -0.285 OA
ATOM      5  C   UNL     1      10.643   7.524  27.980  1.00  0.00     0.111 A 
ATOM      6  C   UNL     1      10.042   7.147  29.219  1.00  0.00     0.134 A 
ATOM      7  C   UNL     1      10.773   6.383  30.137  1.00  0.00     0.093 A 
ATOM      8  C   UNL     1      12.101   6.038  29.890  1.00  0.00     0.123 A 
ATOM      9  C   UNL     1      12.717   6.451  28.708  1.00  0.00     0.094 A 
ATOM     10  C   UNL     1      12.002   7.184  27.757  1.00  0.00     0.146 A 
ATOM     11  O   UNL     1      12.622   7.549  26.641  1.00  0.00    -0.452 OA
ENDROOT
BRANCH   1  12
ATOM     12  C   UNL     1      12.842   8.597  24.481  1.00  0.00     0.025 A 
ATOM     13  C   UNL     1      13.551   9.807  24.431  1.00  0.00     0.016 A 
ATOM     14  C   UNL     1      14.328  10.123  23.315  1.00  0.00     0.051 A 
ATOM     15  C   UNL     1      14.423   9.238  22.236  1.00  0.00     0.157 A 
ATOM     16  C   UNL     1      12.953   7.698  23.410  1.00  0.00     0.062 A 
ATOM     17  C   UNL     1      13.729   8.006  22.285  1.00  0.00     0.158 A 
BRANCH  15  18
ATOM     18  O   UNL     1      15.213   9.617  21.149  1.00  0.00    -0.504 OA
ATOM     19  H   UNL     1      15.263  10.559  20.788  1.00  0.00     0.293 HD
ENDBRANCH  15  18
BRANCH  17  20
ATOM     20  O   UNL     1      13.783   7.068  21.253  1.00  0.00    -0.504 OA
ATOM     21  H   UNL     1      13.427   7.232  20.322  1.00  0.00     0.293 HD
ENDBRANCH  17  20
ENDBRANCH   1  12
BRANCH   2  22
ATOM     22  O   UNL     1      10.011   9.178  24.703  1.00  0.00    -0.502 OA
ATOM     23  H   UNL     1       9.815  10.171  24.700  1.00  0.00     0.293 HD
ENDBRANCH   2  22
BRANCH   6  24
ATOM     24  O   UNL     1       8.751   7.518  29.606  1.00  0.00    -0.507 OA
ATOM     25  H   UNL     1       8.373   7.401  30.534  1.00  0.00     0.293 HD
ENDBRANCH   6  24
BRANCH   8  26
ATOM     26  O   UNL     1      12.803   5.289  30.832  1.00  0.00    -0.508 OA
ATOM     27  H   UNL     1      13.555   5.694  31.378  1.00  0.00     0.293 HD
ENDBRANCH   8  26
TORSDOF 6
ENDMDL
MODEL 3
REMARK VINA RESULT:    -4.368     12.193     15.510
REMARK INTER + INTRA:          -5.550
REMARK INTER:                  -5.334
REMARK INTRA:                  -0.215
REMARK UNBOUND:                -0.288
REMARK SMILES O=c1c(O)c(-c2ccc(O)c(O)c2)oc2cc(O)cc(O)c12
REMARK SMILES IDX 5 1 3 2 2 3 1 4 22 5 20 6 19 7 17 8 16 9 15 10 14 11 6 12
REMARK SMILES IDX 7 13 8 14 9 15 13 16 11 17 10 18 12 20 4 22 21 24 18 26
REMARK H PARENT 10 19 12 21 4 23 21 25 18 27
REMARK Flexibility Score: inf
ROOT
ATOM      1  C   UNL     1      13.251  -4.886  20.446  1.00  0.00     0.180 A 
ATOM      2  C   UNL     1      12.694  -6.080  19.958  1.00  0.00     0.208 A 
ATOM      3  C   UNL     1      13.406  -7.279  20.116  1.00  0.00     0.238 A 
ATOM      4  O   UNL     1      12.927  -8.336  19.628  1.00  0.00    -0.285 OA
ATOM      5  C   UNL     1      14.659  -7.272  20.774  1.00  0.00     0.111 A 
ATOM      6  C   UNL     1      15.449  -8.434  21.026  1.00  0.00     0.134 A 
ATOM      7  C   UNL     1      16.732  -8.293  21.569  1.00  0.00     0.093 A 
ATOM      8  C   UNL     1      17.227  -7.041  21.930  1.00  0.00     0.123 A 
ATOM      9  C   UNL     1      16.440  -5.904  21.743  1.00  0.00     0.094 A 
ATOM     10  C   UNL     1      15.170  -6.009  21.170  1.00  0.00     0.146 A 
ATOM     11  O   UNL     1      14.458  -4.902  21.000  1.00  0.00    -0.452 OA
ENDROOT
BRANCH   1  12
ATOM     12  C   UNL     1      12.549  -3.586  20.339  1.00  0.00     0.025 A 
ATOM     13  C   UNL     1      12.986  -2.590  19.451  1.00  0.00     0.016 A 
ATOM     14  C   UNL     1      12.294  -1.382  19.350  1.00  0.00     0.051 A 
ATOM     15  C   UNL     1      11.150  -1.148  20.120  1.00  0.00     0.157 A 
ATOM     16  C   UNL     1      11.389  -3.362  21.096  1.00  0.00     0.062 A 
ATOM     17  C   UNL     1      10.688  -2.153  21.002  1.00  0.00     0.158 A 
BRANCH  15  18
ATOM     18  O   UNL     1      10.507   0.083  19.975  1.00  0.00    -0.504 OA
ATOM     19  H   UNL     1       9.597   0.293  20.359  1.00  0.00     0.293 HD
ENDBRANCH  15  18
BRANCH  17  20
ATOM     20  O   UNL     1       9.549  -1.996  21.795  1.00  0.00    -0.504 OA
ATOM     21  H   UNL     1       9.482  -1.344  22.563  1.00  0.00     0.293 HD
ENDBRANCH  17  20
ENDBRANCH   1  12
BRANCH   2  22
ATOM     22  O   UNL     1      11.465  -6.060  19.290  1.00  0.00    -0.502 OA
ATOM     23  H   UNL     1      10.909  -6.895  19.151  1.00  0.00     0.293 HD
ENDBRANCH   2  22
BRANCH   6  24
ATOM     24  O   UNL     1      15.013  -9.741  20.788  1.00  0.00    -0.507 OA
ATOM     25  H   UNL     1      14.069  -9.995  20.538  1.00  0.00     0.293 HD
ENDBRANCH   6  24
BRANCH   8  26
ATOM     26  O   UNL     1      18.503  -6.939  22.482  1.00  0.00    -0.508 OA
ATOM     27  H   UNL     1      18.641  -6.811  23.478  1.00  0.00     0.293 HD
ENDBRANCH   8  26
TORSDOF 6
ENDMDL
MODEL 4
REMARK VINA RESULT:    -4.357      4.088      6.031
REMARK INTER + INTRA:          -5.536
REMARK INTER:                  -5.862
REMARK INTRA:                   0.326
REMARK UNBOUND:                -0.288
REMARK SMILES O=c1c(O)c(-c2ccc(O)c(O)c2)oc2cc(O)cc(O)c12
REMARK SMILES IDX 5 1 3 2 2 3 1 4 22 5 20 6 19 7 17 8 16 9 15 10 14 11 6 12
REMARK SMILES IDX 7 13 8 14 9 15 13 16 11 17 10 18 12 20 4 22 21 24 18 26
REMARK H PARENT 10 19 12 21 4 23 21 25 18 27
REMARK Flexibility Score: inf
ROOT
ATOM      1  C   UNL     1      13.854   8.249  22.247  1.00  0.00     0.180 A 
ATOM      2  C   UNL     1      12.590   8.267  22.859  1.00  0.00     0.208 A 
ATOM      3  C   UNL     1      11.484   7.768  22.153  1.00  0.00     0.238 A 
ATOM      4  O   UNL     1      10.345   7.837  22.685  1.00  0.00    -0.285 OA
ATOM      5  C   UNL     1      11.659   7.243  20.850  1.00  0.00     0.111 A 
ATOM      6  C   UNL     1      10.616   6.675  20.057  1.00  0.00     0.134 A 
ATOM      7  C   UNL     1      10.878   6.305  18.733  1.00  0.00     0.093 A 
ATOM      8  C   UNL     1      12.158   6.422  18.193  1.00  0.00     0.123 A 
ATOM      9  C   UNL     1      13.199   6.921  18.976  1.00  0.00     0.094 A 
ATOM     10  C   UNL     1      12.960   7.332  20.290  1.00  0.00     0.146 A 
ATOM     11  O   UNL     1      13.975   7.811  20.999  1.00  0.00    -0.452 OA
ENDROOT
BRANCH   1  12
ATOM     12  C   UNL     1      15.072   8.734  22.938  1.00  0.00     0.025 A 
ATOM     13  C   UNL     1      14.999   9.701  23.953  1.00  0.00     0.016 A 
ATOM     14  C   UNL     1      16.158  10.125  24.606  1.00  0.00     0.051 A 
ATOM     15  C   UNL     1      17.405   9.588  24.271  1.00  0.00     0.157 A 
ATOM     16  C   UNL     1      16.319   8.177  22.615  1.00  0.00     0.062 A 
ATOM     17  C   UNL     1      17.487   8.597  23.265  1.00  0.00     0.158 A 
BRANCH  15  18
ATOM     18  O   UNL     1      18.525  10.058  24.960  1.00  0.00    -0.504 OA
ATOM     19  H   UNL     1      19.470   9.757  24.772  1.00  0.00     0.293 HD
ENDBRANCH  15  18
BRANCH  17  20
ATOM     20  O   UNL     1      18.693   8.007  22.882  1.00  0.00    -0.504 OA
ATOM     21  H   UNL     1      18.881   7.658  21.954  1.00  0.00     0.293 HD
ENDBRANCH  17  20
ENDBRANCH   1  12
BRANCH   2  22
ATOM     22  O   UNL     1      12.435   8.810  24.138  1.00  0.00    -0.502 OA
ATOM     23  H   UNL     1      13.037   8.558  24.912  1.00  0.00     0.293 HD
ENDBRANCH   2  22
BRANCH   6  24
ATOM     24  O   UNL     1       9.323   6.429  20.529  1.00  0.00    -0.507 OA
ATOM     25  H   UNL     1       8.754   5.640  20.261  1.00  0.00     0.293 HD
ENDBRANCH   6  24
BRANCH   8  26
ATOM     26  O   UNL     1      12.386   6.031  16.875  1.00  0.00    -0.508 OA
ATOM     27  H   UNL     1      11.675   5.553  16.333  1.00  0.00     0.293 HD
ENDBRANCH   8  26
TORSDOF 6
ENDMDL
MODEL 5
REMARK VINA RESULT:    -4.261     11.526     12.829
REMARK INTER + INTRA:          -5.421
REMARK INTER:                  -5.099
REMARK INTRA:                  -0.322
REMARK UNBOUND:                -0.288
REMARK SMILES O=c1c(O)c(-c2ccc(O)c(O)c2)oc2cc(O)cc(O)c12
REMARK SMILES IDX 5 1 3 2 2 3 1 4 22 5 20 6 19 7 17 8 16 9 15 10 14 11 6 12
REMARK SMILES IDX 7 13 8 14 9 15 13 16 11 17 10 18 12 20 4 22 21 24 18 26
REMARK H PARENT 10 19 12 21 4 23 21 25 18 27
REMARK Flexibility Score: inf
ROOT
ATOM      1  C   UNL     1      10.580  -1.475  13.981  1.00  0.00     0.180 A 
ATOM      2  C   UNL     1      11.845  -1.359  14.582  1.00  0.00     0.208 A 
ATOM      3  C   UNL     1      12.826  -2.323  14.298  1.00  0.00     0.238 A 
ATOM      4  O   UNL     1      13.939  -2.244  14.881  1.00  0.00    -0.285 OA
ATOM      5  C   UNL     1      12.534  -3.382  13.406  1.00  0.00     0.111 A 
ATOM      6  C   UNL     1      13.464  -4.392  13.015  1.00  0.00     0.134 A 
ATOM      7  C   UNL     1      13.028  -5.465  12.228  1.00  0.00     0.093 A 
ATOM      8  C   UNL     1      11.715  -5.531  11.764  1.00  0.00     0.123 A 
ATOM      9  C   UNL     1      10.812  -4.519  12.091  1.00  0.00     0.094 A 
ATOM     10  C   UNL     1      11.208  -3.454  12.904  1.00  0.00     0.146 A 
ATOM     11  O   UNL     1      10.316  -2.516  13.200  1.00  0.00    -0.452 OA
ENDROOT
BRANCH   1  12
ATOM     12  C   UNL     1       9.504  -0.484  14.212  1.00  0.00     0.025 A 
ATOM     13  C   UNL     1       9.303   0.593  13.336  1.00  0.00     0.016 A 
ATOM     14  C   UNL     1       8.266   1.501  13.561  1.00  0.00     0.051 A 
ATOM     15  C   UNL     1       7.405   1.347  14.652  1.00  0.00     0.157 A 
ATOM     16  C   UNL     1       8.628  -0.654  15.295  1.00  0.00     0.062 A 
ATOM     17  C   UNL     1       7.585   0.252  15.530  1.00  0.00     0.158 A 
BRANCH  15  18
ATOM     18  O   UNL     1       6.392   2.292  14.823  1.00  0.00    -0.504 OA
ATOM     19  H   UNL     1       6.449   3.246  14.499  1.00  0.00     0.293 HD
ENDBRANCH  15  18
BRANCH  17  20
ATOM     20  O   UNL     1       6.761   0.026  16.634  1.00  0.00    -0.504 OA
ATOM     21  H   UNL     1       6.151   0.723  17.035  1.00  0.00     0.293 HD
ENDBRANCH  17  20
ENDBRANCH   1  12
BRANCH   2  22
ATOM     22  O   UNL     1      12.105  -0.317  15.478  1.00  0.00    -0.502 OA
ATOM     23  H   UNL     1      12.968   0.212  15.461  1.00  0.00     0.293 HD
ENDBRANCH   2  22
BRANCH   6  24
ATOM     24  O   UNL     1      14.822  -4.374  13.347  1.00  0.00    -0.507 OA
ATOM     25  H   UNL     1      15.561  -4.084  12.725  1.00  0.00     0.293 HD
ENDBRANCH   6  24
BRANCH   8  26
ATOM     26  O   UNL     1      11.319  -6.606  10.971  1.00  0.00    -0.508 OA
ATOM     27  H   UNL     1      11.883  -6.926  10.191  1.00  0.00     0.293 HD
ENDBRANCH   8  26
TORSDOF 6
ENDMDL
MODEL 6
REMARK VINA RESULT:    -4.219      8.868      9.832
REMARK INTER + INTRA:          -5.370
REMARK INTER:                  -5.036
REMARK INTRA:                  -0.334
REMARK UNBOUND:                -0.288
REMARK SMILES O=c1c(O)c(-c2ccc(O)c(O)c2)oc2cc(O)cc(O)c12
REMARK SMILES IDX 5 1 3 2 2 3 1 4 22 5 20 6 19 7 17 8 16 9 15 10 14 11 6 12
REMARK SMILES IDX 7 13 8 14 9 15 13 16 11 17 10 18 12 20 4 22 21 24 18 26
REMARK H PARENT 10 19 12 21 4 23 21 25 18 27
REMARK Flexibility Score: inf
ROOT
ATOM      1  C   UNL     1      10.712   0.389  14.127  1.00  0.00     0.180 A 
ATOM      2  C   UNL     1       9.362   0.250  14.493  1.00  0.00     0.208 A 
ATOM      3  C   UNL     1       8.426   1.177  14.009  1.00  0.00     0.238 A 
ATOM      4  O   UNL     1       7.228   1.080  14.384  1.00  0.00    -0.285 OA
ATOM      5  C   UNL     1       8.848   2.221  13.151  1.00  0.00     0.111 A 
ATOM      6  C   UNL     1       7.979   3.193  12.568  1.00  0.00     0.134 A 
ATOM      7  C   UNL     1       8.524   4.257  11.839  1.00  0.00     0.093 A 
ATOM      8  C   UNL     1       9.897   4.350  11.618  1.00  0.00     0.123 A 
ATOM      9  C   UNL     1      10.751   3.374  12.133  1.00  0.00     0.094 A 
ATOM     10  C   UNL     1      10.240   2.319  12.894  1.00  0.00     0.146 A 
ATOM     11  O   UNL     1      11.087   1.416  13.374  1.00  0.00    -0.452 OA
ENDROOT
BRANCH   1  12
ATOM     12  C   UNL     1      11.753  -0.563  14.578  1.00  0.00     0.025 A 
ATOM     13  C   UNL     1      12.047  -1.725  13.847  1.00  0.00     0.016 A 
ATOM     14  C   UNL     1      13.049  -2.596  14.279  1.00  0.00     0.051 A 
ATOM     15  C   UNL     1      13.784  -2.321  15.437  1.00  0.00     0.157 A 
ATOM     16  C   UNL     1      12.504  -0.274  15.728  1.00  0.00     0.062 A 
ATOM     17  C   UNL     1      13.511  -1.142  16.170  1.00  0.00     0.158 A 
BRANCH  15  18
ATOM     18  O   UNL     1      14.769  -3.234  15.818  1.00  0.00    -0.504 OA
ATOM     19  H   UNL     1      15.435  -3.070  16.558  1.00  0.00     0.293 HD
ENDBRANCH  15  18
BRANCH  17  20
ATOM     20  O   UNL     1      14.207  -0.795  17.329  1.00  0.00    -0.504 OA
ATOM     21  H   UNL     1      13.949  -1.101  18.256  1.00  0.00     0.293 HD
ENDBRANCH  17  20
ENDBRANCH   1  12
BRANCH   2  22
ATOM     22  O   UNL     1       8.970  -0.775  15.360  1.00  0.00    -0.502 OA
ATOM     23  H   UNL     1       9.231  -1.742  15.211  1.00  0.00     0.293 HD
ENDBRANCH   2  22
BRANCH   6  24
ATOM     24  O   UNL     1       6.585   3.143  12.651  1.00  0.00    -0.507 OA
ATOM     25  H   UNL     1       6.059   3.178  13.511  1.00  0.00     0.293 HD
ENDBRANCH   6  24
BRANCH   8  26
ATOM     26  O   UNL     1      10.403   5.416  10.875  1.00  0.00    -0.508 OA
ATOM     27  H   UNL     1       9.791   6.086  10.425  1.00  0.00     0.293 HD
ENDBRANCH   8  26
TORSDOF 6
ENDMDL
MODEL 7
REMARK VINA RESULT:    -4.207     14.114     17.029
REMARK INTER + INTRA:          -5.356
REMARK INTER:                  -5.033
REMARK INTRA:                  -0.323
REMARK UNBOUND:                -0.288
REMARK SMILES O=c1c(O)c(-c2ccc(O)c(O)c2)oc2cc(O)cc(O)c12
REMARK SMILES IDX 5 1 3 2 2 3 1 4 22 5 20 6 19 7 17 8 16 9 15 10 14 11 6 12
REMARK SMILES IDX 7 13 8 14 9 15 13 16 11 17 10 18 12 20 4 22 21 24 18 26
REMARK H PARENT 10 19 12 21 4 23 21 25 18 27
REMARK Flexibility Score: inf
ROOT
ATOM      1  C   UNL     1      10.104  -7.342  21.010  1.00  0.00     0.180 A 
ATOM      2  C   UNL     1      11.054  -8.017  20.225  1.00  0.00     0.208 A 
ATOM      3  C   UNL     1      12.108  -7.287  19.653  1.00  0.00     0.238 A 
ATOM      4  O   UNL     1      12.924  -7.887  18.906  1.00  0.00    -0.285 OA
ATOM      5  C   UNL     1      12.208  -5.894  19.887  1.00  0.00     0.111 A 
ATOM      6  C   UNL     1      13.256  -5.062  19.390  1.00  0.00     0.134 A 
ATOM      7  C   UNL     1      13.184  -3.676  19.574  1.00  0.00     0.093 A 
ATOM      8  C   UNL     1      12.137  -3.099  20.292  1.00  0.00     0.123 A 
ATOM      9  C   UNL     1      11.137  -3.908  20.832  1.00  0.00     0.094 A 
ATOM     10  C   UNL     1      11.163  -5.291  20.635  1.00  0.00     0.146 A 
ATOM     11  O   UNL     1      10.188  -6.025  21.157  1.00  0.00    -0.452 OA
ENDROOT
BRANCH   1  12
ATOM     12  C   UNL     1       8.979  -8.047  21.667  1.00  0.00     0.025 A 
ATOM     13  C   UNL     1       7.755  -8.241  21.009  1.00  0.00     0.016 A 
ATOM     14  C   UNL     1       6.717  -8.931  21.639  1.00  0.00     0.051 A 
ATOM     15  C   UNL     1       6.882  -9.449  22.927  1.00  0.00     0.157 A 
ATOM     16  C   UNL     1       9.155  -8.586  22.951  1.00  0.00     0.062 A 
ATOM     17  C   UNL     1       8.119  -9.278  23.591  1.00  0.00     0.158 A 
BRANCH  15  18
ATOM     18  O   UNL     1       5.804 -10.124  23.503  1.00  0.00    -0.504 OA
ATOM     19  H   UNL     1       5.626 -10.161  24.496  1.00  0.00     0.293 HD
ENDBRANCH  15  18
BRANCH  17  20
ATOM     20  O   UNL     1       8.363  -9.775  24.874  1.00  0.00    -0.504 OA
ATOM     21  H   UNL     1       7.920 -10.599  25.253  1.00  0.00     0.293 HD
ENDBRANCH  17  20
ENDBRANCH   1  12
BRANCH   2  22
ATOM     22  O   UNL     1      10.924  -9.389  19.989  1.00  0.00    -0.502 OA
ATOM     23  H   UNL     1      11.421  -9.861  19.243  1.00  0.00     0.293 HD
ENDBRANCH   2  22
BRANCH   6  24
ATOM     24  O   UNL     1      14.395  -5.545  18.739  1.00  0.00    -0.507 OA
ATOM     25  H   UNL     1      14.381  -6.156  17.937  1.00  0.00     0.293 HD
ENDBRANCH   6  24
BRANCH   8  26
ATOM     26  O   UNL     1      12.104  -1.717  20.468  1.00  0.00    -0.508 OA
ATOM     27  H   UNL     1      12.558  -1.088  19.815  1.00  0.00     0.293 HD
ENDBRANCH   8  26
TORSDOF 6
ENDMDL
MODEL 8
REMARK VINA RESULT:    -4.133      3.284      8.822
REMARK INTER + INTRA:          -5.266
REMARK INTER:                  -5.037
REMARK INTRA:                  -0.230
REMARK UNBOUND:                -0.288
REMARK SMILES O=c1c(O)c(-c2ccc(O)c(O)c2)oc2cc(O)cc(O)c12
REMARK SMILES IDX 5 1 3 2 2 3 1 4 22 5 20 6 19 7 17 8 16 9 15 10 14 11 6 12
REMARK SMILES IDX 7 13 8 14 9 15 13 16 11 17 10 18 12 20 4 22 21 24 18 26
REMARK H PARENT 10 19 12 21 4 23 21 25 18 27
REMARK Flexibility Score: inf
ROOT
ATOM      1  C   UNL     1      13.124   8.381  22.162  1.00  0.00     0.180 A 
ATOM      2  C   UNL     1      14.294   8.987  22.652  1.00  0.00     0.208 A 
ATOM      3  C   UNL     1      14.331   9.415  23.988  1.00  0.00     0.238 A 
ATOM      4  O   UNL     1      15.362  10.006  24.405  1.00  0.00    -0.285 OA
ATOM      5  C   UNL     1      13.205   9.218  24.822  1.00  0.00     0.111 A 
ATOM      6  C   UNL     1      13.146   9.577  26.203  1.00  0.00     0.134 A 
ATOM      7  C   UNL     1      11.936   9.455  26.897  1.00  0.00     0.093 A 
ATOM      8  C   UNL     1      10.802   8.928  26.280  1.00  0.00     0.123 A 
ATOM      9  C   UNL     1      10.864   8.519  24.947  1.00  0.00     0.094 A 
ATOM     10  C   UNL     1      12.047   8.662  24.218  1.00  0.00     0.146 A 
ATOM     11  O   UNL     1      12.062   8.270  22.950  1.00  0.00    -0.452 OA
ENDROOT
BRANCH   1  12
ATOM     12  C   UNL     1      13.018   7.881  20.772  1.00  0.00     0.025 A 
ATOM     13  C   UNL     1      12.972   6.506  20.491  1.00  0.00     0.016 A 
ATOM     14  C   UNL     1      12.847   6.059  19.174  1.00  0.00     0.051 A 
ATOM     15  C   UNL     1      12.755   6.969  18.117  1.00  0.00     0.157 A 
ATOM     16  C   UNL     1      12.903   8.796  19.714  1.00  0.00     0.062 A 
ATOM     17  C   UNL     1      12.779   8.357  18.390  1.00  0.00     0.158 A 
BRANCH  15  18
ATOM     18  O   UNL     1      12.637   6.456  16.823  1.00  0.00    -0.504 OA
ATOM     19  H   UNL     1      11.895   6.703  16.184  1.00  0.00     0.293 HD
ENDBRANCH  15  18
BRANCH  17  20
ATOM     20  O   UNL     1      12.682   9.325  17.388  1.00  0.00    -0.504 OA
ATOM     21  H   UNL     1      13.468   9.849  17.032  1.00  0.00     0.293 HD
ENDBRANCH  17  20
ENDBRANCH   1  12
BRANCH   2  22
ATOM     22  O   UNL     1      15.388   9.191  21.804  1.00  0.00    -0.502 OA
ATOM     23  H   UNL     1      15.468   8.740  20.902  1.00  0.00     0.293 HD
ENDBRANCH   2  22
BRANCH   6  24
ATOM     24  O   UNL     1      14.245  10.027  26.940  1.00  0.00    -0.507 OA
ATOM     25  H   UNL     1      15.131  10.299  26.542  1.00  0.00     0.293 HD
ENDBRANCH   6  24
BRANCH   8  26
ATOM     26  O   UNL     1       9.618   8.808  27.005  1.00  0.00    -0.508 OA
ATOM     27  H   UNL     1       9.408   9.423  27.783  1.00  0.00     0.293 HD
ENDBRANCH   8  26
TORSDOF 6
ENDMDL
MODEL 9
REMARK VINA RESULT:    -4.076      2.846      8.228
REMARK INTER + INTRA:          -5.198
REMARK INTER:                  -5.051
REMARK INTRA:                  -0.147
REMARK UNBOUND:                -0.288
REMARK SMILES O=c1c(O)c(-c2ccc(O)c(O)c2)oc2cc(O)cc(O)c12
REMARK SMILES IDX 5 1 3 2 2 3 1 4 22 5 20 6 19 7 17 8 16 9 15 10 14 11 6 12
REMARK SMILES IDX 7 13 8 14 9 15 13 16 11 17 10 18 12 20 4 22 21 24 18 26
REMARK H PARENT 10 19 12 21 4 23 21 25 18 27
REMARK Flexibility Score: inf
ROOT
ATOM      1  C   UNL     1      12.868   8.952  21.135  1.00  0.00     0.180 A 
ATOM      2  C   UNL     1      13.916   9.113  22.058  1.00  0.00     0.208 A 
ATOM      3  C   UNL     1      13.624   9.084  23.430  1.00  0.00     0.238 A 
ATOM      4  O   UNL     1      14.558   9.282  24.251  1.00  0.00    -0.285 OA
ATOM      5  C   UNL     1      12.292   8.879  23.864  1.00  0.00     0.111 A 
ATOM      6  C   UNL     1      11.888   8.792  25.230  1.00  0.00     0.134 A 
ATOM      7  C   UNL     1      10.526   8.718  25.544  1.00  0.00     0.093 A 
ATOM      8  C   UNL     1       9.558   8.663  24.542  1.00  0.00     0.123 A 
ATOM      9  C   UNL     1       9.945   8.688  23.202  1.00  0.00     0.094 A 
ATOM     10  C   UNL     1      11.295   8.797  22.857  1.00  0.00     0.146 A 
ATOM     11  O   UNL     1      11.620   8.828  21.571  1.00  0.00    -0.452 OA
ENDROOT
BRANCH   1  12
ATOM     12  C   UNL     1      13.100   8.946  19.671  1.00  0.00     0.025 A 
ATOM     13  C   UNL     1      13.595  10.078  19.006  1.00  0.00     0.016 A 
ATOM     14  C   UNL     1      13.829  10.041  17.630  1.00  0.00     0.051 A 
ATOM     15  C   UNL     1      13.587   8.875  16.895  1.00  0.00     0.157 A 
ATOM     16  C   UNL     1      12.877   7.769  18.941  1.00  0.00     0.062 A 
ATOM     17  C   UNL     1      13.108   7.722  17.560  1.00  0.00     0.158 A 
BRANCH  15  18
ATOM     18  O   UNL     1      13.837   8.906  15.522  1.00  0.00    -0.504 OA
ATOM     19  H   UNL     1      13.436   8.256  14.861  1.00  0.00     0.293 HD
ENDBRANCH  15  18
BRANCH  17  20
ATOM     20  O   UNL     1      12.852   6.520  16.897  1.00  0.00    -0.504 OA
ATOM     21  H   UNL     1      12.106   5.887  17.145  1.00  0.00     0.293 HD
ENDBRANCH  17  20
ENDBRANCH   1  12
BRANCH   2  22
ATOM     22  O   UNL     1      15.221   9.336  21.608  1.00  0.00    -0.502 OA
ATOM     23  H   UNL     1      15.880   9.912  22.117  1.00  0.00     0.293 HD
ENDBRANCH   2  22
BRANCH   6  24
ATOM     24  O   UNL     1      12.780   8.747  26.306  1.00  0.00    -0.507 OA
ATOM     25  H   UNL     1      13.780   8.651  26.219  1.00  0.00     0.293 HD
ENDBRANCH   6  24
BRANCH   8  26
ATOM     26  O   UNL     1       8.212   8.575  24.891  1.00  0.00    -0.508 OA
ATOM     27  H   UNL     1       7.636   7.797  24.592  1.00  0.00     0.293 HD
ENDBRANCH   8  26
TORSDOF 6
ENDMDL
