MODEL 1
REMARK VINA RESULT:    -4.318      0.000      0.000
REMARK INTER + INTRA:         -15.516
REMARK INTER:                 -10.881
REMARK INTRA:                  -4.635
REMARK UNBOUND:                -4.635
REMARK SMILES CCCCCCCCCCCCCCCCCCCCCCCCCCCC(=O)[O-]
REMARK SMILES IDX 15 1 16 2 17 3 18 4 19 5 20 6 21 7 22 8 23 9 24 10 25 11
REMARK SMILES IDX 26 12 27 13 28 14 29 15 30 16 14 17 13 18 12 19 11 20 10 21
REMARK SMILES IDX 9 22 8 23 7 24 6 25 5 26 4 27 3 28 2 29 1 30
REMARK H PARENT
REMARK Flexibility Score: inf
ROOT
ATOM      1  C   UNL     1      -9.735   2.802 -39.286  1.00  0.00     0.000 C 
ENDROOT
BRANCH   1   2
ATOM      2  C   UNL     1     -10.947   3.567 -38.714  1.00  0.00     0.000 C 
BRANCH   2   3
ATOM      3  C   UNL     1     -11.792   4.329 -39.750  1.00  0.00     0.000 C 
BRANCH   3   4
ATOM      4  C   UNL     1     -12.556   3.393 -40.702  1.00  0.00     0.000 C 
BRANCH   4   5
ATOM      5  C   UNL     1     -12.052   3.478 -42.155  1.00  0.00     0.000 C 
BRANCH   5   6
ATOM      6  C   UNL     1     -10.968   4.544 -42.417  1.00  0.00     0.000 C 
BRANCH   6   7
ATOM      7  C   UNL     1     -11.362   5.654 -43.409  1.00  0.00     0.000 C 
BRANCH   7   8
ATOM      8  C   UNL     1     -11.452   7.039 -42.750  1.00  0.00     0.000 C 
BRANCH   8   9
ATOM      9  C   UNL     1     -12.898   7.563 -42.644  1.00  0.00     0.000 C 
BRANCH   9  10
ATOM     10  C   UNL     1     -13.750   6.930 -41.528  1.00  0.00     0.000 C 
BRANCH  10  11
ATOM     11  C   UNL     1     -14.797   5.934 -42.059  1.00  0.00     0.000 C 
BRANCH  11  12
ATOM     12  C   UNL     1     -15.804   5.499 -40.978  1.00  0.00     0.006 C 
BRANCH  12  13
ATOM     13  C   UNL     1     -16.654   4.276 -41.357  1.00  0.00     0.053 C 
BRANCH  13  14
ATOM     14  C   UNL     1     -18.085   4.641 -41.604  1.00  0.00     0.041 C 
ATOM     15  O   UNL     1     -18.994   3.779 -41.463  1.00  0.00    -0.550 OA
ATOM     16  O   UNL     1     -18.414   5.927 -42.016  1.00  0.00    -0.550 OA
ENDBRANCH  13  14
ENDBRANCH  12  13
ENDBRANCH  11  12
ENDBRANCH  10  11
ENDBRANCH   9  10
ENDBRANCH   8   9
ENDBRANCH   7   8
ENDBRANCH   6   7
ENDBRANCH   5   6
ENDBRANCH   4   5
ENDBRANCH   3   4
ENDBRANCH   2   3
ENDBRANCH   1   2
BRANCH   1  17
ATOM     17  C   UNL     1      -9.210   1.650 -38.409  1.00  0.00     0.000 C 
BRANCH  17  18
ATOM     18  C   UNL     1     -10.262   0.979 -37.505  1.00  0.00     0.000 C 
BRANCH  18  19
ATOM     19  C   UNL     1     -10.144  -0.558 -37.431  1.00  0.00     0.000 C 
BRANCH  19  20
ATOM     20  C   UNL     1      -8.726  -1.062 -37.753  1.00  0.00     0.000 C 
BRANCH  20  21
ATOM     21  C   UNL     1      -8.705  -2.019 -38.957  1.00  0.00     0.000 C 
BRANCH  21  22
ATOM     22  C   UNL     1      -7.665  -1.611 -40.011  1.00  0.00    -0.000 C 
BRANCH  22  23
ATOM     23  C   UNL     1      -8.317  -0.809 -41.147  1.00  0.00    -0.000 C 
BRANCH  23  24
ATOM     24  C   UNL     1      -9.798  -1.173 -41.361  1.00  0.00    -0.000 C 
BRANCH  24  25
ATOM     25  C   UNL     1     -10.761   0.030 -41.431  1.00  0.00    -0.000 C 
BRANCH  25  26
ATOM     26  C   UNL     1     -12.144  -0.204 -40.792  1.00  0.00    -0.000 C 
BRANCH  26  27
ATOM     27  C   UNL     1     -12.284  -1.526 -40.012  1.00  0.00    -0.000 C 
BRANCH  27  28
ATOM     28  C   UNL     1     -13.724  -1.893 -39.601  1.00  0.00    -0.000 C 
BRANCH  28  29
ATOM     29  C   UNL     1     -14.809  -1.502 -40.619  1.00  0.00    -0.003 C 
ATOM     30  C   UNL     1     -15.719  -0.382 -40.118  1.00  0.00     0.004 C 
ENDBRANCH  28  29
ENDBRANCH  27  28
ENDBRANCH  26  27
ENDBRANCH  25  26
ENDBRANCH  24  25
ENDBRANCH  23  24
ENDBRANCH  22  23
ENDBRANCH  21  22
ENDBRANCH  20  21
ENDBRANCH  19  20
ENDBRANCH  18  19
ENDBRANCH  17  18
ENDBRANCH   1  17
TORSDOF 26
ENDMDL
MODEL 2
REMARK VINA RESULT:    -4.262      1.666      2.627
REMARK INTER + INTRA:         -15.374
REMARK INTER:                 -11.058
REMARK INTRA:                  -4.316
REMARK UNBOUND:                -4.635
REMARK SMILES CCCCCCCCCCCCCCCCCCCCCCCCCCCC(=O)[O-]
REMARK SMILES IDX 15 1 16 2 17 3 18 4 19 5 20 6 21 7 22 8 23 9 24 10 25 11
REMARK SMILES IDX 26 12 27 13 28 14 29 15 30 16 14 17 13 18 12 19 11 20 10 21
REMARK SMILES IDX 9 22 8 23 7 24 6 25 5 26 4 27 3 28 2 29 1 30
REMARK H PARENT
REMARK Flexibility Score: inf
ROOT
ATOM      1  C   UNL     1     -10.773   3.531 -37.884  1.00  0.00     0.000 C 
ENDROOT
BRANCH   1   2
ATOM      2  C   UNL     1     -10.585   2.613 -39.110  1.00  0.00     0.000 C 
BRANCH   2   3
ATOM      3  C   UNL     1      -9.201   2.686 -39.779  1.00  0.00     0.000 C 
BRANCH   3   4
ATOM      4  C   UNL     1      -9.280   2.735 -41.314  1.00  0.00     0.000 C 
BRANCH   4   5
ATOM      5  C   UNL     1     -10.728   2.723 -41.837  1.00  0.00     0.000 C 
BRANCH   5   6
ATOM      6  C   UNL     1     -11.021   3.705 -42.991  1.00  0.00     0.000 C 
BRANCH   6   7
ATOM      7  C   UNL     1     -11.950   4.881 -42.637  1.00  0.00     0.000 C 
BRANCH   7   8
ATOM      8  C   UNL     1     -11.684   5.449 -41.233  1.00  0.00     0.000 C 
BRANCH   8   9
ATOM      9  C   UNL     1     -12.903   5.336 -40.297  1.00  0.00     0.000 C 
BRANCH   9  10
ATOM     10  C   UNL     1     -14.038   4.423 -40.796  1.00  0.00     0.000 C 
BRANCH  10  11
ATOM     11  C   UNL     1     -15.378   5.161 -40.964  1.00  0.00     0.000 C 
BRANCH  11  12
ATOM     12  C   UNL     1     -15.233   6.484 -41.740  1.00  0.00     0.006 C 
BRANCH  12  13
ATOM     13  C   UNL     1     -16.563   7.193 -42.041  1.00  0.00     0.053 C 
BRANCH  13  14
ATOM     14  C   UNL     1     -16.957   8.135 -40.946  1.00  0.00     0.041 C 
ATOM     15  O   UNL     1     -17.691   7.739 -40.001  1.00  0.00    -0.550 OA
ATOM     16  O   UNL     1     -16.536   9.459 -40.982  1.00  0.00    -0.550 OA
ENDBRANCH  13  14
ENDBRANCH  12  13
ENDBRANCH  11  12
ENDBRANCH  10  11
ENDBRANCH   9  10
ENDBRANCH   8   9
ENDBRANCH   7   8
ENDBRANCH   6   7
ENDBRANCH   5   6
ENDBRANCH   4   5
ENDBRANCH   3   4
ENDBRANCH   2   3
ENDBRANCH   1   2
BRANCH   1  17
ATOM     17  C   UNL     1      -9.579   3.589 -36.914  1.00  0.00     0.000 C 
BRANCH  17  18
ATOM     18  C   UNL     1      -9.389   2.342 -36.028  1.00  0.00     0.000 C 
BRANCH  18  19
ATOM     19  C   UNL     1     -10.699   1.787 -35.430  1.00  0.00     0.000 C 
BRANCH  19  20
ATOM     20  C   UNL     1     -10.783   0.253 -35.502  1.00  0.00     0.000 C 
BRANCH  20  21
ATOM     21  C   UNL     1     -10.560  -0.279 -36.928  1.00  0.00     0.000 C 
BRANCH  21  22
ATOM     22  C   UNL     1      -9.319  -1.179 -37.031  1.00  0.00    -0.000 C 
BRANCH  22  23
ATOM     23  C   UNL     1      -8.615  -0.996 -38.384  1.00  0.00    -0.000 C 
BRANCH  23  24
ATOM     24  C   UNL     1      -8.627  -2.274 -39.242  1.00  0.00    -0.000 C 
BRANCH  24  25
ATOM     25  C   UNL     1      -9.399  -2.159 -40.573  1.00  0.00    -0.000 C 
BRANCH  25  26
ATOM     26  C   UNL     1     -10.032  -0.779 -40.841  1.00  0.00    -0.000 C 
BRANCH  26  27
ATOM     27  C   UNL     1     -11.563  -0.724 -40.678  1.00  0.00    -0.000 C 
BRANCH  27  28
ATOM     28  C   UNL     1     -12.181  -1.902 -39.898  1.00  0.00    -0.000 C 
BRANCH  28  29
ATOM     29  C   UNL     1     -13.576  -1.629 -39.309  1.00  0.00    -0.003 C 
ATOM     30  C   UNL     1     -14.623  -1.319 -40.378  1.00  0.00     0.004 C 
ENDBRANCH  28  29
ENDBRANCH  27  28
ENDBRANCH  26  27
ENDBRANCH  25  26
ENDBRANCH  24  25
ENDBRANCH  23  24
ENDBRANCH  22  23
ENDBRANCH  21  22
ENDBRANCH  20  21
ENDBRANCH  19  20
ENDBRANCH  18  19
ENDBRANCH  17  18
ENDBRANCH   1  17
TORSDOF 26
ENDMDL
MODEL 3
REMARK VINA RESULT:    -4.184      1.995      4.801
REMARK INTER + INTRA:         -15.177
REMARK INTER:                 -10.429
REMARK INTRA:                  -4.748
REMARK UNBOUND:                -4.635
REMARK SMILES CCCCCCCCCCCCCCCCCCCCCCCCCCCC(=O)[O-]
REMARK SMILES IDX 15 1 16 2 17 3 18 4 19 5 20 6 21 7 22 8 23 9 24 10 25 11
REMARK SMILES IDX 26 12 27 13 28 14 29 15 30 16 14 17 13 18 12 19 11 20 10 21
REMARK SMILES IDX 9 22 8 23 7 24 6 25 5 26 4 27 3 28 2 29 1 30
REMARK H PARENT
REMARK Flexibility Score: inf
ROOT
ATOM      1  C   UNL     1     -11.984   3.757 -42.533  1.00  0.00     0.000 C 
ENDROOT
BRANCH   1   2
ATOM      2  C   UNL     1     -12.508   4.507 -43.777  1.00  0.00     0.000 C 
BRANCH   2   3
ATOM      3  C   UNL     1     -12.774   6.009 -43.573  1.00  0.00     0.000 C 
BRANCH   3   4
ATOM      4  C   UNL     1     -14.263   6.374 -43.693  1.00  0.00     0.000 C 
BRANCH   4   5
ATOM      5  C   UNL     1     -15.141   5.175 -44.098  1.00  0.00     0.000 C 
BRANCH   5   6
ATOM      6  C   UNL     1     -16.594   5.522 -44.483  1.00  0.00     0.000 C 
BRANCH   6   7
ATOM      7  C   UNL     1     -16.870   7.015 -44.741  1.00  0.00     0.000 C 
BRANCH   7   8
ATOM      8  C   UNL     1     -18.194   7.492 -44.123  1.00  0.00     0.000 C 
BRANCH   8   9
ATOM      9  C   UNL     1     -18.523   6.794 -42.790  1.00  0.00     0.000 C 
BRANCH   9  10
ATOM     10  C   UNL     1     -17.956   7.474 -41.530  1.00  0.00     0.000 C 
BRANCH  10  11
ATOM     11  C   UNL     1     -16.648   6.831 -41.034  1.00  0.00     0.000 C 
BRANCH  11  12
ATOM     12  C   UNL     1     -16.892   5.612 -40.125  1.00  0.00     0.006 C 
BRANCH  12  13
ATOM     13  C   UNL     1     -16.510   4.263 -40.754  1.00  0.00     0.053 C 
BRANCH  13  14
ATOM     14  C   UNL     1     -17.677   3.329 -40.834  1.00  0.00     0.041 C 
ATOM     15  O   UNL     1     -18.648   3.592 -41.593  1.00  0.00    -0.550 OA
ATOM     16  O   UNL     1     -17.706   2.182 -40.050  1.00  0.00    -0.550 OA
ENDBRANCH  13  14
ENDBRANCH  12  13
ENDBRANCH  11  12
ENDBRANCH  10  11
ENDBRANCH   9  10
ENDBRANCH   8   9
ENDBRANCH   7   8
ENDBRANCH   6   7
ENDBRANCH   5   6
ENDBRANCH   4   5
ENDBRANCH   3   4
ENDBRANCH   2   3
ENDBRANCH   1   2
BRANCH   1  17
ATOM     17  C   UNL     1     -12.994   3.608 -41.380  1.00  0.00     0.000 C 
BRANCH  17  18
ATOM     18  C   UNL     1     -12.538   4.190 -40.028  1.00  0.00     0.000 C 
BRANCH  18  19
ATOM     19  C   UNL     1     -12.516   5.732 -39.980  1.00  0.00     0.000 C 
BRANCH  19  20
ATOM     20  C   UNL     1     -11.181   6.292 -39.456  1.00  0.00     0.000 C 
BRANCH  20  21
ATOM     21  C   UNL     1      -9.977   5.794 -40.275  1.00  0.00     0.000 C 
BRANCH  21  22
ATOM     22  C   UNL     1      -8.794   5.382 -39.385  1.00  0.00    -0.000 C 
BRANCH  22  23
ATOM     23  C   UNL     1      -8.468   3.891 -39.558  1.00  0.00    -0.000 C 
BRANCH  23  24
ATOM     24  C   UNL     1      -9.283   2.988 -38.613  1.00  0.00    -0.000 C 
BRANCH  24  25
ATOM     25  C   UNL     1     -10.108   1.888 -39.313  1.00  0.00    -0.000 C 
BRANCH  25  26
ATOM     26  C   UNL     1      -9.603   1.486 -40.713  1.00  0.00    -0.000 C 
BRANCH  26  27
ATOM     27  C   UNL     1     -10.565   0.592 -41.519  1.00  0.00    -0.000 C 
BRANCH  27  28
ATOM     28  C   UNL     1     -11.830   0.142 -40.760  1.00  0.00    -0.000 C 
BRANCH  28  29
ATOM     29  C   UNL     1     -11.837  -1.335 -40.330  1.00  0.00    -0.003 C 
ATOM     30  C   UNL     1     -11.638  -1.519 -38.826  1.00  0.00     0.004 C 
ENDBRANCH  28  29
ENDBRANCH  27  28
ENDBRANCH  26  27
ENDBRANCH  25  26
ENDBRANCH  24  25
ENDBRANCH  23  24
ENDBRANCH  22  23
ENDBRANCH  21  22
ENDBRANCH  20  21
ENDBRANCH  19  20
ENDBRANCH  18  19
ENDBRANCH  17  18
ENDBRANCH   1  17
TORSDOF 26
ENDMDL
MODEL 4
REMARK VINA RESULT:    -4.181      2.519      7.205
REMARK INTER + INTRA:         -15.169
REMARK INTER:                 -10.867
REMARK INTRA:                  -4.303
REMARK UNBOUND:                -4.635
REMARK SMILES CCCCCCCCCCCCCCCCCCCCCCCCCCCC(=O)[O-]
REMARK SMILES IDX 15 1 16 2 17 3 18 4 19 5 20 6 21 7 22 8 23 9 24 10 25 11
REMARK SMILES IDX 26 12 27 13 28 14 29 15 30 16 14 17 13 18 12 19 11 20 10 21
REMARK SMILES IDX 9 22 8 23 7 24 6 25 5 26 4 27 3 28 2 29 1 30
REMARK H PARENT
REMARK Flexibility Score: inf
ROOT
ATOM      1  C   UNL     1     -10.258   1.758 -37.350  1.00  0.00     0.000 C 
ENDROOT
BRANCH   1   2
ATOM      2  C   UNL     1     -10.381   1.387 -35.857  1.00  0.00     0.000 C 
BRANCH   2   3
ATOM      3  C   UNL     1     -10.985   0.000 -35.572  1.00  0.00     0.000 C 
BRANCH   3   4
ATOM      4  C   UNL     1      -9.934  -1.028 -35.121  1.00  0.00     0.000 C 
BRANCH   4   5
ATOM      5  C   UNL     1      -8.504  -0.457 -35.112  1.00  0.00     0.000 C 
BRANCH   5   6
ATOM      6  C   UNL     1      -7.448  -1.308 -35.846  1.00  0.00     0.000 C 
BRANCH   6   7
ATOM      7  C   UNL     1      -7.987  -2.574 -36.538  1.00  0.00     0.000 C 
BRANCH   7   8
ATOM      8  C   UNL     1      -8.095  -2.420 -38.064  1.00  0.00     0.000 C 
BRANCH   8   9
ATOM      9  C   UNL     1      -9.543  -2.210 -38.546  1.00  0.00     0.000 C 
BRANCH   9  10
ATOM     10  C   UNL     1      -9.823  -2.629 -40.002  1.00  0.00     0.000 C 
BRANCH  10  11
ATOM     11  C   UNL     1     -10.431  -1.497 -40.849  1.00  0.00     0.000 C 
BRANCH  11  12
ATOM     12  C   UNL     1     -11.332  -0.558 -40.027  1.00  0.00     0.006 C 
BRANCH  12  13
ATOM     13  C   UNL     1     -12.758  -0.400 -40.579  1.00  0.00     0.053 C 
BRANCH  13  14
ATOM     14  C   UNL     1     -13.683  -1.453 -40.055  1.00  0.00     0.041 C 
ATOM     15  O   UNL     1     -14.876  -1.508 -40.459  1.00  0.00    -0.550 OA
ATOM     16  O   UNL     1     -13.238  -2.357 -39.099  1.00  0.00    -0.550 OA
ENDBRANCH  13  14
ENDBRANCH  12  13
ENDBRANCH  11  12
ENDBRANCH  10  11
ENDBRANCH   9  10
ENDBRANCH   8   9
ENDBRANCH   7   8
ENDBRANCH   6   7
ENDBRANCH   5   6
ENDBRANCH   4   5
ENDBRANCH   3   4
ENDBRANCH   2   3
ENDBRANCH   1   2
BRANCH   1  17
ATOM     17  C   UNL     1      -8.868   2.247 -37.796  1.00  0.00     0.000 C 
BRANCH  17  18
ATOM     18  C   UNL     1      -8.015   1.206 -38.548  1.00  0.00     0.000 C 
BRANCH  18  19
ATOM     19  C   UNL     1      -7.415   1.720 -39.873  1.00  0.00     0.000 C 
BRANCH  19  20
ATOM     20  C   UNL     1      -8.381   1.567 -41.062  1.00  0.00     0.000 C 
BRANCH  20  21
ATOM     21  C   UNL     1      -9.138   2.870 -41.371  1.00  0.00     0.000 C 
BRANCH  21  22
ATOM     22  C   UNL     1     -10.638   2.634 -41.606  1.00  0.00    -0.000 C 
BRANCH  22  23
ATOM     23  C   UNL     1     -11.472   3.184 -40.439  1.00  0.00    -0.000 C 
BRANCH  23  24
ATOM     24  C   UNL     1     -12.884   3.623 -40.869  1.00  0.00    -0.000 C 
BRANCH  24  25
ATOM     25  C   UNL     1     -12.925   4.693 -41.978  1.00  0.00    -0.000 C 
BRANCH  25  26
ATOM     26  C   UNL     1     -14.075   5.713 -41.858  1.00  0.00    -0.000 C 
BRANCH  26  27
ATOM     27  C   UNL     1     -15.437   5.222 -42.384  1.00  0.00    -0.000 C 
BRANCH  27  28
ATOM     28  C   UNL     1     -16.620   5.411 -41.413  1.00  0.00    -0.000 C 
BRANCH  28  29
ATOM     29  C   UNL     1     -17.135   4.117 -40.759  1.00  0.00    -0.003 C 
ATOM     30  C   UNL     1     -18.326   3.510 -41.500  1.00  0.00     0.004 C 
ENDBRANCH  28  29
ENDBRANCH  27  28
ENDBRANCH  26  27
ENDBRANCH  25  26
ENDBRANCH  24  25
ENDBRANCH  23  24
ENDBRANCH  22  23
ENDBRANCH  21  22
ENDBRANCH  20  21
ENDBRANCH  19  20
ENDBRANCH  18  19
ENDBRANCH  17  18
ENDBRANCH   1  17
TORSDOF 26
ENDMDL
MODEL 5
REMARK VINA RESULT:    -4.138      1.394      3.170
REMARK INTER + INTRA:         -15.061
REMARK INTER:                 -10.244
REMARK INTRA:                  -4.818
REMARK UNBOUND:                -4.635
REMARK SMILES CCCCCCCCCCCCCCCCCCCCCCCCCCCC(=O)[O-]
REMARK SMILES IDX 15 1 16 2 17 3 18 4 19 5 20 6 21 7 22 8 23 9 24 10 25 11
REMARK SMILES IDX 26 12 27 13 28 14 29 15 30 16 14 17 13 18 12 19 11 20 10 21
REMARK SMILES IDX 9 22 8 23 7 24 6 25 5 26 4 27 3 28 2 29 1 30
REMARK H PARENT
REMARK Flexibility Score: inf
ROOT
ATOM      1  C   UNL     1     -11.292   3.763 -42.965  1.00  0.00     0.000 C 
ENDROOT
BRANCH   1   2
ATOM      2  C   UNL     1     -10.031   4.276 -43.692  1.00  0.00     0.000 C 
BRANCH   2   3
ATOM      3  C   UNL     1      -8.745   4.288 -42.848  1.00  0.00     0.000 C 
BRANCH   3   4
ATOM      4  C   UNL     1      -8.586   5.573 -42.018  1.00  0.00     0.000 C 
BRANCH   4   5
ATOM      5  C   UNL     1      -8.915   6.846 -42.821  1.00  0.00     0.000 C 
BRANCH   5   6
ATOM      6  C   UNL     1      -9.840   7.855 -42.108  1.00  0.00     0.000 C 
BRANCH   6   7
ATOM      7  C   UNL     1     -10.613   7.299 -40.898  1.00  0.00     0.000 C 
BRANCH   7   8
ATOM      8  C   UNL     1     -12.039   7.864 -40.791  1.00  0.00     0.000 C 
BRANCH   8   9
ATOM      9  C   UNL     1     -13.124   6.772 -40.844  1.00  0.00     0.000 C 
BRANCH   9  10
ATOM     10  C   UNL     1     -13.646   6.426 -42.252  1.00  0.00     0.000 C 
BRANCH  10  11
ATOM     11  C   UNL     1     -14.574   5.199 -42.267  1.00  0.00     0.000 C 
BRANCH  11  12
ATOM     12  C   UNL     1     -14.958   4.727 -40.852  1.00  0.00     0.006 C 
BRANCH  12  13
ATOM     13  C   UNL     1     -16.402   5.058 -40.441  1.00  0.00     0.053 C 
BRANCH  13  14
ATOM     14  C   UNL     1     -17.374   4.029 -40.927  1.00  0.00     0.041 C 
ATOM     15  O   UNL     1     -18.209   4.319 -41.826  1.00  0.00    -0.550 OA
ATOM     16  O   UNL     1     -17.377   2.756 -40.370  1.00  0.00    -0.550 OA
ENDBRANCH  13  14
ENDBRANCH  12  13
ENDBRANCH  11  12
ENDBRANCH  10  11
ENDBRANCH   9  10
ENDBRANCH   8   9
ENDBRANCH   7   8
ENDBRANCH   6   7
ENDBRANCH   5   6
ENDBRANCH   4   5
ENDBRANCH   3   4
ENDBRANCH   2   3
ENDBRANCH   1   2
BRANCH   1  17
ATOM     17  C   UNL     1     -11.040   2.694 -41.885  1.00  0.00     0.000 C 
BRANCH  17  18
ATOM     18  C   UNL     1     -11.776   2.922 -40.550  1.00  0.00     0.000 C 
BRANCH  18  19
ATOM     19  C   UNL     1     -11.079   3.927 -39.609  1.00  0.00     0.000 C 
BRANCH  19  20
ATOM     20  C   UNL     1      -9.831   3.337 -38.928  1.00  0.00     0.000 C 
BRANCH  20  21
ATOM     21  C   UNL     1     -10.130   2.012 -38.206  1.00  0.00     0.000 C 
BRANCH  21  22
ATOM     22  C   UNL     1      -9.054   0.947 -38.467  1.00  0.00    -0.000 C 
BRANCH  22  23
ATOM     23  C   UNL     1      -8.122   1.374 -39.611  1.00  0.00    -0.000 C 
BRANCH  23  24
ATOM     24  C   UNL     1      -8.064   0.341 -40.752  1.00  0.00    -0.000 C 
BRANCH  24  25
ATOM     25  C   UNL     1      -9.090  -0.806 -40.645  1.00  0.00    -0.000 C 
BRANCH  25  26
ATOM     26  C   UNL     1     -10.311  -0.677 -41.578  1.00  0.00    -0.000 C 
BRANCH  26  27
ATOM     27  C   UNL     1     -11.679  -0.734 -40.870  1.00  0.00    -0.000 C 
BRANCH  27  28
ATOM     28  C   UNL     1     -11.746  -1.678 -39.652  1.00  0.00    -0.000 C 
BRANCH  28  29
ATOM     29  C   UNL     1     -13.162  -2.142 -39.269  1.00  0.00    -0.003 C 
ATOM     30  C   UNL     1     -14.249  -1.518 -40.143  1.00  0.00     0.004 C 
ENDBRANCH  28  29
ENDBRANCH  27  28
ENDBRANCH  26  27
ENDBRANCH  25  26
ENDBRANCH  24  25
ENDBRANCH  23  24
ENDBRANCH  22  23
ENDBRANCH  21  22
ENDBRANCH  20  21
ENDBRANCH  19  20
ENDBRANCH  18  19
ENDBRANCH  17  18
ENDBRANCH   1  17
TORSDOF 26
ENDMDL
MODEL 6
REMARK VINA RESULT:    -4.135      2.758      7.179
REMARK INTER + INTRA:         -15.055
REMARK INTER:                 -10.434
REMARK INTRA:                  -4.621
REMARK UNBOUND:                -4.635
REMARK SMILES CCCCCCCCCCCCCCCCCCCCCCCCCCCC(=O)[O-]
REMARK SMILES IDX 15 1 16 2 17 3 18 4 19 5 20 6 21 7 22 8 23 9 24 10 25 11
REMARK SMILES IDX 26 12 27 13 28 14 29 15 30 16 14 17 13 18 12 19 11 20 10 21
REMARK SMILES IDX 9 22 8 23 7 24 6 25 5 26 4 27 3 28 2 29 1 30
REMARK H PARENT
REMARK Flexibility Score: inf
ROOT
ATOM      1  C   UNL     1     -10.895   3.769 -39.112  1.00  0.00     0.000 C 
ENDROOT
BRANCH   1   2
ATOM      2  C   UNL     1      -9.895   3.065 -38.170  1.00  0.00     0.000 C 
BRANCH   2   3
ATOM      3  C   UNL     1     -10.371   2.897 -36.716  1.00  0.00     0.000 C 
BRANCH   3   4
ATOM      4  C   UNL     1     -10.218   1.456 -36.200  1.00  0.00     0.000 C 
BRANCH   4   5
ATOM      5  C   UNL     1     -10.333   0.405 -37.320  1.00  0.00     0.000 C 
BRANCH   5   6
ATOM      6  C   UNL     1      -9.235  -0.679 -37.325  1.00  0.00     0.000 C 
BRANCH   6   7
ATOM      7  C   UNL     1      -8.012  -0.374 -38.210  1.00  0.00     0.000 C 
BRANCH   7   8
ATOM      8  C   UNL     1      -7.819  -1.404 -39.335  1.00  0.00     0.000 C 
BRANCH   8   9
ATOM      9  C   UNL     1      -8.158  -0.843 -40.729  1.00  0.00     0.000 C 
BRANCH   9  10
ATOM     10  C   UNL     1      -8.578   0.639 -40.762  1.00  0.00     0.000 C 
BRANCH  10  11
ATOM     11  C   UNL     1     -10.060   0.838 -41.125  1.00  0.00     0.000 C 
BRANCH  11  12
ATOM     12  C   UNL     1     -10.813  -0.494 -41.299  1.00  0.00     0.006 C 
BRANCH  12  13
ATOM     13  C   UNL     1     -12.152  -0.571 -40.548  1.00  0.00     0.053 C 
BRANCH  13  14
ATOM     14  C   UNL     1     -12.205  -1.739 -39.613  1.00  0.00     0.041 C 
ATOM     15  O   UNL     1     -13.234  -1.948 -38.916  1.00  0.00    -0.550 OA
ATOM     16  O   UNL     1     -11.107  -2.583 -39.491  1.00  0.00    -0.550 OA
ENDBRANCH  13  14
ENDBRANCH  12  13
ENDBRANCH  11  12
ENDBRANCH  10  11
ENDBRANCH   9  10
ENDBRANCH   8   9
ENDBRANCH   7   8
ENDBRANCH   6   7
ENDBRANCH   5   6
ENDBRANCH   4   5
ENDBRANCH   3   4
ENDBRANCH   2   3
ENDBRANCH   1   2
BRANCH   1  17
ATOM     17  C   UNL     1     -11.644   4.968 -38.501  1.00  0.00     0.000 C 
BRANCH  17  18
ATOM     18  C   UNL     1     -11.007   6.346 -38.766  1.00  0.00     0.000 C 
BRANCH  18  19
ATOM     19  C   UNL     1     -11.361   6.953 -40.140  1.00  0.00     0.000 C 
BRANCH  19  20
ATOM     20  C   UNL     1     -10.210   6.839 -41.155  1.00  0.00     0.000 C 
BRANCH  20  21
ATOM     21  C   UNL     1     -10.666   6.227 -42.490  1.00  0.00     0.000 C 
BRANCH  21  22
ATOM     22  C   UNL     1     -10.220   4.765 -42.648  1.00  0.00    -0.000 C 
BRANCH  22  23
ATOM     23  C   UNL     1     -11.429   3.836 -42.830  1.00  0.00    -0.000 C 
BRANCH  23  24
ATOM     24  C   UNL     1     -12.774   4.579 -42.728  1.00  0.00    -0.000 C 
BRANCH  24  25
ATOM     25  C   UNL     1     -13.646   4.188 -41.518  1.00  0.00    -0.000 C 
BRANCH  25  26
ATOM     26  C   UNL     1     -14.589   5.296 -41.008  1.00  0.00    -0.000 C 
BRANCH  26  27
ATOM     27  C   UNL     1     -15.993   4.814 -40.593  1.00  0.00    -0.000 C 
BRANCH  27  28
ATOM     28  C   UNL     1     -17.022   4.733 -41.739  1.00  0.00    -0.000 C 
BRANCH  28  29
ATOM     29  C   UNL     1     -18.159   3.720 -41.518  1.00  0.00    -0.003 C 
ATOM     30  C   UNL     1     -17.825   2.673 -40.456  1.00  0.00     0.004 C 
ENDBRANCH  28  29
ENDBRANCH  27  28
ENDBRANCH  26  27
ENDBRANCH  25  26
ENDBRANCH  24  25
ENDBRANCH  23  24
ENDBRANCH  22  23
ENDBRANCH  21  22
ENDBRANCH  20  21
ENDBRANCH  19  20
ENDBRANCH  18  19
ENDBRANCH  17  18
ENDBRANCH   1  17
TORSDOF 26
ENDMDL
MODEL 7
REMARK VINA RESULT:    -4.131      2.069      4.453
REMARK INTER + INTRA:         -15.045
REMARK INTER:                  -9.403
REMARK INTRA:                  -5.642
REMARK UNBOUND:                -4.635
REMARK SMILES CCCCCCCCCCCCCCCCCCCCCCCCCCCC(=O)[O-]
REMARK SMILES IDX 15 1 16 2 17 3 18 4 19 5 20 6 21 7 22 8 23 9 24 10 25 11
REMARK SMILES IDX 26 12 27 13 28 14 29 15 30 16 14 17 13 18 12 19 11 20 10 21
REMARK SMILES IDX 9 22 8 23 7 24 6 25 5 26 4 27 3 28 2 29 1 30
REMARK H PARENT
REMARK Flexibility Score: inf
ROOT
ATOM      1  C   UNL     1     -12.013   2.976 -41.505  1.00  0.00     0.000 C 
ENDROOT
BRANCH   1   2
ATOM      2  C   UNL     1     -12.345   3.791 -40.237  1.00  0.00     0.000 C 
BRANCH   2   3
ATOM      3  C   UNL     1     -11.140   4.139 -39.346  1.00  0.00     0.000 C 
BRANCH   3   4
ATOM      4  C   UNL     1     -10.608   5.562 -39.590  1.00  0.00     0.000 C 
BRANCH   4   5
ATOM      5  C   UNL     1     -11.728   6.617 -39.646  1.00  0.00     0.000 C 
BRANCH   5   6
ATOM      6  C   UNL     1     -11.525   7.741 -40.683  1.00  0.00     0.000 C 
BRANCH   6   7
ATOM      7  C   UNL     1     -12.668   7.912 -41.701  1.00  0.00     0.000 C 
BRANCH   7   8
ATOM      8  C   UNL     1     -13.810   6.905 -41.491  1.00  0.00     0.000 C 
BRANCH   8   9
ATOM      9  C   UNL     1     -14.456   6.444 -42.811  1.00  0.00     0.000 C 
BRANCH   9  10
ATOM     10  C   UNL     1     -15.430   5.256 -42.692  1.00  0.00     0.000 C 
BRANCH  10  11
ATOM     11  C   UNL     1     -15.833   4.950 -41.239  1.00  0.00     0.000 C 
BRANCH  11  12
ATOM     12  C   UNL     1     -17.357   4.999 -41.023  1.00  0.00     0.006 C 
BRANCH  12  13
ATOM     13  C   UNL     1     -18.028   6.296 -41.504  1.00  0.00     0.053 C 
BRANCH  13  14
ATOM     14  C   UNL     1     -17.682   7.463 -40.632  1.00  0.00     0.041 C 
ATOM     15  O   UNL     1     -18.091   7.508 -39.441  1.00  0.00    -0.550 OA
ATOM     16  O   UNL     1     -16.930   8.514 -41.143  1.00  0.00    -0.550 OA
ENDBRANCH  13  14
ENDBRANCH  12  13
ENDBRANCH  11  12
ENDBRANCH  10  11
ENDBRANCH   9  10
ENDBRANCH   8   9
ENDBRANCH   7   8
ENDBRANCH   6   7
ENDBRANCH   5   6
ENDBRANCH   4   5
ENDBRANCH   3   4
ENDBRANCH   2   3
ENDBRANCH   1   2
BRANCH   1  17
ATOM     17  C   UNL     1     -12.060   3.765 -42.827  1.00  0.00     0.000 C 
BRANCH  17  18
ATOM     18  C   UNL     1     -10.687   4.138 -43.419  1.00  0.00     0.000 C 
BRANCH  18  19
ATOM     19  C   UNL     1     -10.397   5.653 -43.437  1.00  0.00     0.000 C 
BRANCH  19  20
ATOM     20  C   UNL     1      -9.014   6.001 -42.856  1.00  0.00     0.000 C 
BRANCH  20  21
ATOM     21  C   UNL     1      -8.152   4.750 -42.611  1.00  0.00     0.000 C 
BRANCH  21  22
ATOM     22  C   UNL     1      -7.415   4.802 -41.265  1.00  0.00    -0.000 C 
BRANCH  22  23
ATOM     23  C   UNL     1      -7.628   3.505 -40.469  1.00  0.00    -0.000 C 
BRANCH  23  24
ATOM     24  C   UNL     1      -8.363   2.421 -41.280  1.00  0.00    -0.000 C 
BRANCH  24  25
ATOM     25  C   UNL     1      -8.403   1.028 -40.620  1.00  0.00    -0.000 C 
BRANCH  25  26
ATOM     26  C   UNL     1      -8.997   0.997 -39.198  1.00  0.00    -0.000 C 
BRANCH  26  27
ATOM     27  C   UNL     1     -10.449   0.486 -39.112  1.00  0.00    -0.000 C 
BRANCH  27  28
ATOM     28  C   UNL     1     -10.958  -0.252 -40.366  1.00  0.00    -0.000 C 
BRANCH  28  29
ATOM     29  C   UNL     1     -10.768  -1.779 -40.342  1.00  0.00    -0.003 C 
ATOM     30  C   UNL     1      -9.582  -2.244 -41.186  1.00  0.00     0.004 C 
ENDBRANCH  28  29
ENDBRANCH  27  28
ENDBRANCH  26  27
ENDBRANCH  25  26
ENDBRANCH  24  25
ENDBRANCH  23  24
ENDBRANCH  22  23
ENDBRANCH  21  22
ENDBRANCH  20  21
ENDBRANCH  19  20
ENDBRANCH  18  19
ENDBRANCH  17  18
ENDBRANCH   1  17
TORSDOF 26
ENDMDL
MODEL 8
REMARK VINA RESULT:    -4.131      2.466      7.436
REMARK INTER + INTRA:         -15.044
REMARK INTER:                 -10.149
REMARK INTRA:                  -4.895
REMARK UNBOUND:                -4.635
REMARK SMILES CCCCCCCCCCCCCCCCCCCCCCCCCCCC(=O)[O-]
REMARK SMILES IDX 15 1 16 2 17 3 18 4 19 5 20 6 21 7 22 8 23 9 24 10 25 11
REMARK SMILES IDX 26 12 27 13 28 14 29 15 30 16 14 17 13 18 12 19 11 20 10 21
REMARK SMILES IDX 9 22 8 23 7 24 6 25 5 26 4 27 3 28 2 29 1 30
REMARK H PARENT
REMARK Flexibility Score: inf
ROOT
ATOM      1  C   UNL     1     -12.919   3.648 -40.829  1.00  0.00     0.000 C 
ENDROOT
BRANCH   1   2
ATOM      2  C   UNL     1     -12.221   3.811 -42.197  1.00  0.00     0.000 C 
BRANCH   2   3
ATOM      3  C   UNL     1     -10.775   3.287 -42.262  1.00  0.00     0.000 C 
BRANCH   3   4
ATOM      4  C   UNL     1     -10.581   1.970 -41.492  1.00  0.00     0.000 C 
BRANCH   4   5
ATOM      5  C   UNL     1      -9.582   2.101 -40.328  1.00  0.00     0.000 C 
BRANCH   5   6
ATOM      6  C   UNL     1      -8.093   2.013 -40.723  1.00  0.00     0.000 C 
BRANCH   6   7
ATOM      7  C   UNL     1      -7.348   0.765 -40.212  1.00  0.00     0.000 C 
BRANCH   7   8
ATOM      8  C   UNL     1      -7.515  -0.450 -41.138  1.00  0.00     0.000 C 
BRANCH   8   9
ATOM      9  C   UNL     1      -8.451  -1.527 -40.557  1.00  0.00     0.000 C 
BRANCH   9  10
ATOM     10  C   UNL     1      -8.851  -1.329 -39.082  1.00  0.00     0.000 C 
BRANCH  10  11
ATOM     11  C   UNL     1     -10.374  -1.283 -38.872  1.00  0.00     0.000 C 
BRANCH  11  12
ATOM     12  C   UNL     1     -11.161  -1.704 -40.127  1.00  0.00     0.006 C 
BRANCH  12  13
ATOM     13  C   UNL     1     -12.453  -0.907 -40.365  1.00  0.00     0.053 C 
BRANCH  13  14
ATOM     14  C   UNL     1     -13.671  -1.677 -39.961  1.00  0.00     0.041 C 
ATOM     15  O   UNL     1     -13.556  -2.755 -39.319  1.00  0.00    -0.550 OA
ATOM     16  O   UNL     1     -14.934  -1.219 -40.316  1.00  0.00    -0.550 OA
ENDBRANCH  13  14
ENDBRANCH  12  13
ENDBRANCH  11  12
ENDBRANCH  10  11
ENDBRANCH   9  10
ENDBRANCH   8   9
ENDBRANCH   7   8
ENDBRANCH   6   7
ENDBRANCH   5   6
ENDBRANCH   4   5
ENDBRANCH   3   4
ENDBRANCH   2   3
ENDBRANCH   1   2
BRANCH   1  17
ATOM     17  C   UNL     1     -12.750   4.831 -39.858  1.00  0.00     0.000 C 
BRANCH  17  18
ATOM     18  C   UNL     1     -11.610   4.681 -38.832  1.00  0.00     0.000 C 
BRANCH  18  19
ATOM     19  C   UNL     1     -10.637   5.878 -38.788  1.00  0.00     0.000 C 
BRANCH  19  20
ATOM     20  C   UNL     1      -9.597   5.841 -39.922  1.00  0.00     0.000 C 
BRANCH  20  21
ATOM     21  C   UNL     1      -9.921   6.841 -41.045  1.00  0.00     0.000 C 
BRANCH  21  22
ATOM     22  C   UNL     1     -10.403   8.195 -40.504  1.00  0.00    -0.000 C 
BRANCH  22  23
ATOM     23  C   UNL     1     -11.574   8.737 -41.338  1.00  0.00    -0.000 C 
BRANCH  23  24
ATOM     24  C   UNL     1     -12.233   7.657 -42.216  1.00  0.00    -0.000 C 
BRANCH  24  25
ATOM     25  C   UNL     1     -13.754   7.496 -42.019  1.00  0.00    -0.000 C 
BRANCH  25  26
ATOM     26  C   UNL     1     -14.452   6.588 -43.051  1.00  0.00    -0.000 C 
BRANCH  26  27
ATOM     27  C   UNL     1     -15.593   5.720 -42.487  1.00  0.00    -0.000 C 
BRANCH  27  28
ATOM     28  C   UNL     1     -16.278   6.281 -41.223  1.00  0.00    -0.000 C 
BRANCH  28  29
ATOM     29  C   UNL     1     -17.245   5.309 -40.525  1.00  0.00    -0.003 C 
ATOM     30  C   UNL     1     -16.812   3.848 -40.647  1.00  0.00     0.004 C 
ENDBRANCH  28  29
ENDBRANCH  27  28
ENDBRANCH  26  27
ENDBRANCH  25  26
ENDBRANCH  24  25
ENDBRANCH  23  24
ENDBRANCH  22  23
ENDBRANCH  21  22
ENDBRANCH  20  21
ENDBRANCH  19  20
ENDBRANCH  18  19
ENDBRANCH  17  18
ENDBRANCH   1  17
TORSDOF 26
ENDMDL
MODEL 9
REMARK VINA RESULT:    -4.111      3.160      7.856
REMARK INTER + INTRA:         -14.993
REMARK INTER:                  -9.276
REMARK INTRA:                  -5.717
REMARK UNBOUND:                -4.635
REMARK SMILES CCCCCCCCCCCCCCCCCCCCCCCCCCCC(=O)[O-]
REMARK SMILES IDX 15 1 16 2 17 3 18 4 19 5 20 6 21 7 22 8 23 9 24 10 25 11
REMARK SMILES IDX 26 12 27 13 28 14 29 15 30 16 14 17 13 18 12 19 11 20 10 21
REMARK SMILES IDX 9 22 8 23 7 24 6 25 5 26 4 27 3 28 2 29 1 30
REMARK H PARENT
REMARK Flexibility Score: inf
ROOT
ATOM      1  C   UNL     1     -13.585   4.969 -41.512  1.00  0.00     0.000 C 
ENDROOT
BRANCH   1   2
ATOM      2  C   UNL     1     -13.241   3.660 -40.770  1.00  0.00     0.000 C 
BRANCH   2   3
ATOM      3  C   UNL     1     -12.235   2.743 -41.489  1.00  0.00     0.000 C 
BRANCH   3   4
ATOM      4  C   UNL     1     -11.477   3.458 -42.620  1.00  0.00     0.000 C 
BRANCH   4   5
ATOM      5  C   UNL     1      -9.990   3.688 -42.290  1.00  0.00     0.000 C 
BRANCH   5   6
ATOM      6  C   UNL     1      -9.682   4.971 -41.490  1.00  0.00     0.000 C 
BRANCH   6   7
ATOM      7  C   UNL     1      -9.129   4.745 -40.071  1.00  0.00     0.000 C 
BRANCH   7   8
ATOM      8  C   UNL     1     -10.228   4.737 -38.997  1.00  0.00     0.000 C 
BRANCH   8   9
ATOM      9  C   UNL     1     -10.405   3.360 -38.328  1.00  0.00     0.000 C 
BRANCH   9  10
ATOM     10  C   UNL     1      -9.394   2.280 -38.758  1.00  0.00     0.000 C 
BRANCH  10  11
ATOM     11  C   UNL     1     -10.061   1.046 -39.390  1.00  0.00     0.000 C 
BRANCH  11  12
ATOM     12  C   UNL     1      -9.312   0.540 -40.636  1.00  0.00     0.006 C 
BRANCH  12  13
ATOM     13  C   UNL     1     -10.120  -0.430 -41.514  1.00  0.00     0.053 C 
BRANCH  13  14
ATOM     14  C   UNL     1     -10.639  -1.596 -40.731  1.00  0.00     0.041 C 
ATOM     15  O   UNL     1     -11.847  -1.633 -40.372  1.00  0.00    -0.550 OA
ATOM     16  O   UNL     1      -9.783  -2.631 -40.375  1.00  0.00    -0.550 OA
ENDBRANCH  13  14
ENDBRANCH  12  13
ENDBRANCH  11  12
ENDBRANCH  10  11
ENDBRANCH   9  10
ENDBRANCH   8   9
ENDBRANCH   7   8
ENDBRANCH   6   7
ENDBRANCH   5   6
ENDBRANCH   4   5
ENDBRANCH   3   4
ENDBRANCH   2   3
ENDBRANCH   1   2
BRANCH   1  17
ATOM     17  C   UNL     1     -13.209   6.265 -40.770  1.00  0.00     0.000 C 
BRANCH  17  18
ATOM     18  C   UNL     1     -12.446   7.307 -41.612  1.00  0.00     0.000 C 
BRANCH  18  19
ATOM     19  C   UNL     1     -12.910   7.393 -43.081  1.00  0.00     0.000 C 
BRANCH  19  20
ATOM     20  C   UNL     1     -11.845   6.888 -44.071  1.00  0.00     0.000 C 
BRANCH  20  21
ATOM     21  C   UNL     1     -12.425   5.902 -45.100  1.00  0.00     0.000 C 
BRANCH  21  22
ATOM     22  C   UNL     1     -13.827   6.309 -45.577  1.00  0.00    -0.000 C 
BRANCH  22  23
ATOM     23  C   UNL     1     -14.788   5.111 -45.553  1.00  0.00    -0.000 C 
BRANCH  23  24
ATOM     24  C   UNL     1     -15.590   5.014 -44.241  1.00  0.00    -0.000 C 
BRANCH  24  25
ATOM     25  C   UNL     1     -16.800   5.966 -44.145  1.00  0.00    -0.000 C 
BRANCH  25  26
ATOM     26  C   UNL     1     -16.519   7.307 -43.440  1.00  0.00    -0.000 C 
BRANCH  26  27
ATOM     27  C   UNL     1     -16.652   7.275 -41.905  1.00  0.00    -0.000 C 
BRANCH  27  28
ATOM     28  C   UNL     1     -17.653   6.237 -41.357  1.00  0.00    -0.000 C 
BRANCH  28  29
ATOM     29  C   UNL     1     -17.037   5.161 -40.446  1.00  0.00    -0.003 C 
ATOM     30  C   UNL     1     -17.435   3.742 -40.850  1.00  0.00     0.004 C 
ENDBRANCH  28  29
ENDBRANCH  27  28
ENDBRANCH  26  27
ENDBRANCH  25  26
ENDBRANCH  24  25
ENDBRANCH  23  24
ENDBRANCH  22  23
ENDBRANCH  21  22
ENDBRANCH  20  21
ENDBRANCH  19  20
ENDBRANCH  18  19
ENDBRANCH  17  18
ENDBRANCH   1  17
TORSDOF 26
ENDMDL
