MODEL 1
REMARK VINA RESULT:    -2.922      0.000      0.000
REMARK INTER + INTRA:         -11.848
REMARK INTER:                  -6.680
REMARK INTRA:                  -5.168
REMARK UNBOUND:                -5.168
REMARK SMILES CCCCCCCCCCCCCCCCCCCCCCCC(=O)[O-]
REMARK SMILES IDX 13 1 14 2 15 3 16 4 17 5 18 6 19 7 20 8 21 9 22 10 23 11
REMARK SMILES IDX 24 12 25 13 26 14 12 15 11 16 10 17 9 18 8 19 7 20 6 21 5 22
REMARK SMILES IDX 4 23 3 24 2 25 1 26
REMARK H PARENT
REMARK Flexibility Score: inf
ROOT
ATOM      1  C   UNL     1       0.868   8.449   8.825  1.00  0.00     0.000 C 
ENDROOT
BRANCH   1   2
ATOM      2  C   UNL     1       1.141   9.804   9.495  1.00  0.00     0.000 C 
BRANCH   2   3
ATOM      3  C   UNL     1       0.211  10.014  10.698  1.00  0.00     0.000 C 
BRANCH   3   4
ATOM      4  C   UNL     1       0.093   8.767  11.594  1.00  0.00     0.000 C 
BRANCH   4   5
ATOM      5  C   UNL     1       1.086   8.712  12.770  1.00  0.00     0.000 C 
BRANCH   5   6
ATOM      6  C   UNL     1       2.245   7.710  12.604  1.00  0.00     0.000 C 
BRANCH   6   7
ATOM      7  C   UNL     1       3.525   8.327  11.999  1.00  0.00     0.000 C 
BRANCH   7   8
ATOM      8  C   UNL     1       3.719   9.797  12.398  1.00  0.00     0.000 C 
BRANCH   8   9
ATOM      9  C   UNL     1       4.400  10.590  11.276  1.00  0.00     0.000 C 
BRANCH   9  10
ATOM     10  C   UNL     1       4.604   9.714  10.031  1.00  0.00     0.006 C 
BRANCH  10  11
ATOM     11  C   UNL     1       5.353  10.453   8.916  1.00  0.00     0.053 C 
BRANCH  11  12
ATOM     12  C   UNL     1       4.670  10.302   7.591  1.00  0.00     0.041 C 
ATOM     13  O   UNL     1       5.085   9.454   6.757  1.00  0.00    -0.550 OA
ATOM     14  O   UNL     1       3.596  11.120   7.264  1.00  0.00    -0.550 OA
ENDBRANCH  11  12
ENDBRANCH  10  11
ENDBRANCH   9  10
ENDBRANCH   8   9
ENDBRANCH   7   8
ENDBRANCH   6   7
ENDBRANCH   5   6
ENDBRANCH   4   5
ENDBRANCH   3   4
ENDBRANCH   2   3
ENDBRANCH   1   2
BRANCH   1  15
ATOM     15  C   UNL     1       2.146   7.779   8.301  1.00  0.00     0.000 C 
BRANCH  15  16
ATOM     16  C   UNL     1       2.495   6.487   9.061  1.00  0.00     0.000 C 
BRANCH  16  17
ATOM     17  C   UNL     1       1.267   5.861   9.742  1.00  0.00     0.000 C 
BRANCH  17  18
ATOM     18  C   UNL     1       1.626   4.620  10.578  1.00  0.00    -0.000 C 
BRANCH  18  19
ATOM     19  C   UNL     1       3.014   4.048  10.237  1.00  0.00    -0.000 C 
BRANCH  19  20
ATOM     20  C   UNL     1       3.880   3.658  11.451  1.00  0.00    -0.000 C 
BRANCH  20  21
ATOM     21  C   UNL     1       4.845   4.774  11.886  1.00  0.00    -0.000 C 
BRANCH  21  22
ATOM     22  C   UNL     1       6.006   4.982  10.896  1.00  0.00    -0.000 C 
BRANCH  22  23
ATOM     23  C   UNL     1       6.106   6.392  10.287  1.00  0.00    -0.000 C 
BRANCH  23  24
ATOM     24  C   UNL     1       7.398   7.127  10.685  1.00  0.00    -0.000 C 
BRANCH  24  25
ATOM     25  C   UNL     1       7.204   8.027  11.917  1.00  0.00    -0.003 C 
ATOM     26  C   UNL     1       7.954   9.352  11.800  1.00  0.00     0.004 C 
ENDBRANCH  24  25
ENDBRANCH  23  24
ENDBRANCH  22  23
ENDBRANCH  21  22
ENDBRANCH  20  21
ENDBRANCH  19  20
ENDBRANCH  18  19
ENDBRANCH  17  18
ENDBRANCH  16  17
ENDBRANCH  15  16
ENDBRANCH   1  15
TORSDOF 22
ENDMDL
MODEL 2
REMARK VINA RESULT:    -2.841      7.593     10.389
REMARK INTER + INTRA:         -11.663
REMARK INTER:                 -10.373
REMARK INTRA:                  -1.290
REMARK UNBOUND:                -5.168
REMARK SMILES CCCCCCCCCCCCCCCCCCCCCCCC(=O)[O-]
REMARK SMILES IDX 13 1 14 2 15 3 16 4 17 5 18 6 19 7 20 8 21 9 22 10 23 11
REMARK SMILES IDX 24 12 25 13 26 14 12 15 11 16 10 17 9 18 8 19 7 20 6 21 5 22
REMARK SMILES IDX 4 23 3 24 2 25 1 26
REMARK H PARENT
REMARK Flexibility Score: inf
ROOT
ATOM      1  C   UNL     1       7.823   9.199   5.179  1.00  0.00     0.000 C 
ENDROOT
BRANCH   1   2
ATOM      2  C   UNL     1       8.244   8.129   4.161  1.00  0.00     0.000 C 
BRANCH   2   3
ATOM      3  C   UNL     1       7.670   8.442   2.772  1.00  0.00     0.000 C 
BRANCH   3   4
ATOM      4  C   UNL     1       8.358   7.654   1.642  1.00  0.00     0.000 C 
BRANCH   4   5
ATOM      5  C   UNL     1       7.577   6.429   1.133  1.00  0.00     0.000 C 
BRANCH   5   6
ATOM      6  C   UNL     1       7.991   5.081   1.755  1.00  0.00     0.000 C 
BRANCH   6   7
ATOM      7  C   UNL     1       8.004   3.905   0.753  1.00  0.00     0.000 C 
BRANCH   7   8
ATOM      8  C   UNL     1       6.609   3.591   0.193  1.00  0.00     0.000 C 
BRANCH   8   9
ATOM      9  C   UNL     1       6.228   2.127   0.448  1.00  0.00     0.000 C 
BRANCH   9  10
ATOM     10  C   UNL     1       6.709   1.227  -0.699  1.00  0.00     0.006 C 
BRANCH  10  11
ATOM     11  C   UNL     1       6.693   1.950  -2.052  1.00  0.00     0.053 C 
BRANCH  11  12
ATOM     12  C   UNL     1       6.627   0.987  -3.198  1.00  0.00     0.041 C 
ATOM     13  O   UNL     1       5.633   0.223  -3.326  1.00  0.00    -0.550 OA
ATOM     14  O   UNL     1       7.675   0.911  -4.105  1.00  0.00    -0.550 OA
ENDBRANCH  11  12
ENDBRANCH  10  11
ENDBRANCH   9  10
ENDBRANCH   8   9
ENDBRANCH   7   8
ENDBRANCH   6   7
ENDBRANCH   5   6
ENDBRANCH   4   5
ENDBRANCH   3   4
ENDBRANCH   2   3
ENDBRANCH   1   2
BRANCH   1  15
ATOM     15  C   UNL     1       6.326   9.531   5.106  1.00  0.00     0.000 C 
BRANCH  15  16
ATOM     16  C   UNL     1       6.003  10.937   5.645  1.00  0.00     0.000 C 
BRANCH  16  17
ATOM     17  C   UNL     1       5.006  10.898   6.815  1.00  0.00     0.000 C 
BRANCH  17  18
ATOM     18  C   UNL     1       5.286   9.742   7.790  1.00  0.00    -0.000 C 
BRANCH  18  19
ATOM     19  C   UNL     1       4.079   9.408   8.686  1.00  0.00    -0.000 C 
BRANCH  19  20
ATOM     20  C   UNL     1       2.709   9.843   8.132  1.00  0.00    -0.000 C 
BRANCH  20  21
ATOM     21  C   UNL     1       1.607   8.794   8.359  1.00  0.00    -0.000 C 
BRANCH  21  22
ATOM     22  C   UNL     1       2.167   7.398   8.688  1.00  0.00    -0.000 C 
BRANCH  22  23
ATOM     23  C   UNL     1       1.299   6.548   9.634  1.00  0.00    -0.000 C 
BRANCH  23  24
ATOM     24  C   UNL     1       2.087   5.986  10.829  1.00  0.00    -0.000 C 
BRANCH  24  25
ATOM     25  C   UNL     1       3.440   5.388  10.408  1.00  0.00    -0.003 C 
ATOM     26  C   UNL     1       3.320   3.939   9.939  1.00  0.00     0.004 C 
ENDBRANCH  24  25
ENDBRANCH  23  24
ENDBRANCH  22  23
ENDBRANCH  21  22
ENDBRANCH  20  21
ENDBRANCH  19  20
ENDBRANCH  18  19
ENDBRANCH  17  18
ENDBRANCH  16  17
ENDBRANCH  15  16
ENDBRANCH   1  15
TORSDOF 22
ENDMDL
MODEL 3
REMARK VINA RESULT:    -2.812      6.685      8.873
REMARK INTER + INTRA:         -11.596
REMARK INTER:                 -10.124
REMARK INTRA:                  -1.473
REMARK UNBOUND:                -5.168
REMARK SMILES CCCCCCCCCCCCCCCCCCCCCCCC(=O)[O-]
REMARK SMILES IDX 13 1 14 2 15 3 16 4 17 5 18 6 19 7 20 8 21 9 22 10 23 11
REMARK SMILES IDX 24 12 25 13 26 14 12 15 11 16 10 17 9 18 8 19 7 20 6 21 5 22
REMARK SMILES IDX 4 23 3 24 2 25 1 26
REMARK H PARENT
REMARK Flexibility Score: inf
ROOT
ATOM      1  C   UNL     1       6.285   9.599   5.283  1.00  0.00     0.000 C 
ENDROOT
BRANCH   1   2
ATOM      2  C   UNL     1       5.881  10.537   6.431  1.00  0.00     0.000 C 
BRANCH   2   3
ATOM      3  C   UNL     1       6.267   9.934   7.788  1.00  0.00     0.000 C 
BRANCH   3   4
ATOM      4  C   UNL     1       5.084   9.852   8.771  1.00  0.00     0.000 C 
BRANCH   4   5
ATOM      5  C   UNL     1       3.806   9.211   8.198  1.00  0.00     0.000 C 
BRANCH   5   6
ATOM      6  C   UNL     1       2.511  10.018   8.420  1.00  0.00     0.000 C 
BRANCH   6   7
ATOM      7  C   UNL     1       1.455   9.286   9.276  1.00  0.00     0.000 C 
BRANCH   7   8
ATOM      8  C   UNL     1       1.451   7.768   9.040  1.00  0.00     0.000 C 
BRANCH   8   9
ATOM      9  C   UNL     1       0.877   7.022  10.250  1.00  0.00     0.000 C 
BRANCH   9  10
ATOM     10  C   UNL     1       1.994   6.338  11.053  1.00  0.00     0.006 C 
BRANCH  10  11
ATOM     11  C   UNL     1       3.298   6.223  10.254  1.00  0.00     0.053 C 
BRANCH  11  12
ATOM     12  C   UNL     1       3.466   4.860   9.655  1.00  0.00     0.041 C 
ATOM     13  O   UNL     1       2.571   3.987   9.806  1.00  0.00    -0.550 OA
ATOM     14  O   UNL     1       4.625   4.544   8.957  1.00  0.00    -0.550 OA
ENDBRANCH  11  12
ENDBRANCH  10  11
ENDBRANCH   9  10
ENDBRANCH   8   9
ENDBRANCH   7   8
ENDBRANCH   6   7
ENDBRANCH   5   6
ENDBRANCH   4   5
ENDBRANCH   3   4
ENDBRANCH   2   3
ENDBRANCH   1   2
BRANCH   1  15
ATOM     15  C   UNL     1       7.601   8.857   5.558  1.00  0.00     0.000 C 
BRANCH  15  16
ATOM     16  C   UNL     1       8.238   8.284   4.279  1.00  0.00     0.000 C 
BRANCH  16  17
ATOM     17  C   UNL     1       7.526   8.767   3.005  1.00  0.00     0.000 C 
BRANCH  17  18
ATOM     18  C   UNL     1       7.992   8.014   1.748  1.00  0.00    -0.000 C 
BRANCH  18  19
ATOM     19  C   UNL     1       8.629   6.649   2.068  1.00  0.00    -0.000 C 
BRANCH  19  20
ATOM     20  C   UNL     1       8.499   5.586   0.960  1.00  0.00    -0.000 C 
BRANCH  20  21
ATOM     21  C   UNL     1       7.421   4.531   1.261  1.00  0.00    -0.000 C 
BRANCH  21  22
ATOM     22  C   UNL     1       7.234   3.520   0.115  1.00  0.00    -0.000 C 
BRANCH  22  23
ATOM     23  C   UNL     1       6.274   2.355   0.416  1.00  0.00    -0.000 C 
BRANCH  23  24
ATOM     24  C   UNL     1       6.299   1.262  -0.665  1.00  0.00    -0.000 C 
BRANCH  24  25
ATOM     25  C   UNL     1       6.609   1.827  -2.062  1.00  0.00    -0.003 C 
ATOM     26  C   UNL     1       6.825   0.731  -3.103  1.00  0.00     0.004 C 
ENDBRANCH  24  25
ENDBRANCH  23  24
ENDBRANCH  22  23
ENDBRANCH  21  22
ENDBRANCH  20  21
ENDBRANCH  19  20
ENDBRANCH  18  19
ENDBRANCH  17  18
ENDBRANCH  16  17
ENDBRANCH  15  16
ENDBRANCH   1  15
TORSDOF 22
ENDMDL
MODEL 4
REMARK VINA RESULT:    -2.761      2.217      5.630
REMARK INTER + INTRA:         -11.480
REMARK INTER:                  -7.530
REMARK INTRA:                  -3.950
REMARK UNBOUND:                -5.168
REMARK SMILES CCCCCCCCCCCCCCCCCCCCCCCC(=O)[O-]
REMARK SMILES IDX 13 1 14 2 15 3 16 4 17 5 18 6 19 7 20 8 21 9 22 10 23 11
REMARK SMILES IDX 24 12 25 13 26 14 12 15 11 16 10 17 9 18 8 19 7 20 6 21 5 22
REMARK SMILES IDX 4 23 3 24 2 25 1 26
REMARK H PARENT
REMARK Flexibility Score: inf
ROOT
ATOM      1  C   UNL     1       1.613   6.062  11.235  1.00  0.00     0.000 C 
ENDROOT
BRANCH   1   2
ATOM      2  C   UNL     1       1.660   4.594  11.687  1.00  0.00     0.000 C 
BRANCH   2   3
ATOM      3  C   UNL     1       1.485   3.650  10.490  1.00  0.00     0.000 C 
BRANCH   3   4
ATOM      4  C   UNL     1       2.556   2.544  10.432  1.00  0.00     0.000 C 
BRANCH   4   5
ATOM      5  C   UNL     1       2.330   1.367  11.399  1.00  0.00     0.000 C 
BRANCH   5   6
ATOM      6  C   UNL     1       3.498   1.076  12.362  1.00  0.00     0.000 C 
BRANCH   6   7
ATOM      7  C   UNL     1       4.202   2.342  12.895  1.00  0.00     0.000 C 
BRANCH   7   8
ATOM      8  C   UNL     1       5.726   2.294  12.706  1.00  0.00     0.000 C 
BRANCH   8   9
ATOM      9  C   UNL     1       6.248   3.595  12.086  1.00  0.00     0.000 C 
BRANCH   9  10
ATOM     10  C   UNL     1       5.168   4.687  12.113  1.00  0.00     0.006 C 
BRANCH  10  11
ATOM     11  C   UNL     1       5.396   5.758  11.039  1.00  0.00     0.053 C 
BRANCH  11  12
ATOM     12  C   UNL     1       5.728   5.152   9.709  1.00  0.00     0.041 C 
ATOM     13  O   UNL     1       6.880   5.289   9.220  1.00  0.00    -0.550 OA
ATOM     14  O   UNL     1       4.755   4.463   8.996  1.00  0.00    -0.550 OA
ENDBRANCH  11  12
ENDBRANCH  10  11
ENDBRANCH   9  10
ENDBRANCH   8   9
ENDBRANCH   7   8
ENDBRANCH   6   7
ENDBRANCH   5   6
ENDBRANCH   4   5
ENDBRANCH   3   4
ENDBRANCH   2   3
ENDBRANCH   1   2
BRANCH   1  15
ATOM     15  C   UNL     1       1.359   6.211   9.728  1.00  0.00     0.000 C 
BRANCH  15  16
ATOM     16  C   UNL     1       2.470   7.002   9.014  1.00  0.00     0.000 C 
BRANCH  16  17
ATOM     17  C   UNL     1       1.952   8.315   8.404  1.00  0.00     0.000 C 
BRANCH  17  18
ATOM     18  C   UNL     1       0.561   8.702   8.933  1.00  0.00    -0.000 C 
BRANCH  18  19
ATOM     19  C   UNL     1       0.618   9.739  10.070  1.00  0.00    -0.000 C 
BRANCH  19  20
ATOM     20  C   UNL     1      -0.182   9.373  11.334  1.00  0.00    -0.000 C 
BRANCH  20  21
ATOM     21  C   UNL     1       0.451   9.919  12.626  1.00  0.00    -0.000 C 
BRANCH  21  22
ATOM     22  C   UNL     1       1.766   9.209  12.996  1.00  0.00    -0.000 C 
BRANCH  22  23
ATOM     23  C   UNL     1       3.051   9.934  12.556  1.00  0.00    -0.000 C 
BRANCH  23  24
ATOM     24  C   UNL     1       3.920   9.093  11.605  1.00  0.00    -0.000 C 
BRANCH  24  25
ATOM     25  C   UNL     1       4.787   9.963  10.681  1.00  0.00    -0.003 C 
ATOM     26  C   UNL     1       5.472   9.151   9.583  1.00  0.00     0.004 C 
ENDBRANCH  24  25
ENDBRANCH  23  24
ENDBRANCH  22  23
ENDBRANCH  21  22
ENDBRANCH  20  21
ENDBRANCH  19  20
ENDBRANCH  18  19
ENDBRANCH  17  18
ENDBRANCH  16  17
ENDBRANCH  15  16
ENDBRANCH   1  15
TORSDOF 22
ENDMDL
MODEL 5
REMARK VINA RESULT:    -2.727      2.019      4.938
REMARK INTER + INTRA:         -11.403
REMARK INTER:                  -6.909
REMARK INTRA:                  -4.494
REMARK UNBOUND:                -5.168
REMARK SMILES CCCCCCCCCCCCCCCCCCCCCCCC(=O)[O-]
REMARK SMILES IDX 13 1 14 2 15 3 16 4 17 5 18 6 19 7 20 8 21 9 22 10 23 11
REMARK SMILES IDX 24 12 25 13 26 14 12 15 11 16 10 17 9 18 8 19 7 20 6 21 5 22
REMARK SMILES IDX 4 23 3 24 2 25 1 26
REMARK H PARENT
REMARK Flexibility Score: inf
ROOT
ATOM      1  C   UNL     1       0.822   8.598   8.963  1.00  0.00     0.000 C 
ENDROOT
BRANCH   1   2
ATOM      2  C   UNL     1       2.042   9.229   8.274  1.00  0.00     0.000 C 
BRANCH   2   3
ATOM      3  C   UNL     1       2.397  10.575   8.921  1.00  0.00     0.000 C 
BRANCH   3   4
ATOM      4  C   UNL     1       3.903  10.731   9.201  1.00  0.00     0.000 C 
BRANCH   4   5
ATOM      5  C   UNL     1       4.830  10.068   8.166  1.00  0.00     0.000 C 
BRANCH   5   6
ATOM      6  C   UNL     1       6.022   9.289   8.755  1.00  0.00     0.000 C 
BRANCH   6   7
ATOM      7  C   UNL     1       6.570   9.881  10.072  1.00  0.00     0.000 C 
BRANCH   7   8
ATOM      8  C   UNL     1       7.748   9.075  10.638  1.00  0.00     0.000 C 
BRANCH   8   9
ATOM      9  C   UNL     1       7.279   8.100  11.725  1.00  0.00     0.000 C 
BRANCH   9  10
ATOM     10  C   UNL     1       7.663   6.656  11.369  1.00  0.00     0.006 C 
BRANCH  10  11
ATOM     11  C   UNL     1       8.602   6.585  10.158  1.00  0.00     0.053 C 
BRANCH  11  12
ATOM     12  C   UNL     1       7.903   6.058   8.942  1.00  0.00     0.041 C 
ATOM     13  O   UNL     1       8.202   6.498   7.800  1.00  0.00    -0.550 OA
ATOM     14  O   UNL     1       6.902   5.105   9.072  1.00  0.00    -0.550 OA
ENDBRANCH  11  12
ENDBRANCH  10  11
ENDBRANCH   9  10
ENDBRANCH   8   9
ENDBRANCH   7   8
ENDBRANCH   6   7
ENDBRANCH   5   6
ENDBRANCH   4   5
ENDBRANCH   3   4
ENDBRANCH   2   3
ENDBRANCH   1   2
BRANCH   1  15
ATOM     15  C   UNL     1       0.437   9.316  10.264  1.00  0.00     0.000 C 
BRANCH  15  16
ATOM     16  C   UNL     1       0.038   8.341  11.386  1.00  0.00     0.000 C 
BRANCH  16  17
ATOM     17  C   UNL     1       1.189   8.083  12.372  1.00  0.00     0.000 C 
BRANCH  17  18
ATOM     18  C   UNL     1       2.315   9.123  12.249  1.00  0.00    -0.000 C 
BRANCH  18  19
ATOM     19  C   UNL     1       3.714   8.486  12.162  1.00  0.00    -0.000 C 
BRANCH  19  20
ATOM     20  C   UNL     1       3.739   7.017  11.698  1.00  0.00    -0.000 C 
BRANCH  20  21
ATOM     21  C   UNL     1       3.926   6.869  10.178  1.00  0.00    -0.000 C 
BRANCH  21  22
ATOM     22  C   UNL     1       3.297   5.580   9.618  1.00  0.00    -0.000 C 
BRANCH  22  23
ATOM     23  C   UNL     1       1.825   5.345  10.007  1.00  0.00    -0.000 C 
BRANCH  23  24
ATOM     24  C   UNL     1       1.640   4.159  10.968  1.00  0.00    -0.000 C 
BRANCH  24  25
ATOM     25  C   UNL     1       2.246   2.858  10.415  1.00  0.00    -0.003 C 
ATOM     26  C   UNL     1       1.243   1.706  10.394  1.00  0.00     0.004 C 
ENDBRANCH  24  25
ENDBRANCH  23  24
ENDBRANCH  22  23
ENDBRANCH  21  22
ENDBRANCH  20  21
ENDBRANCH  19  20
ENDBRANCH  18  19
ENDBRANCH  17  18
ENDBRANCH  16  17
ENDBRANCH  15  16
ENDBRANCH   1  15
TORSDOF 22
ENDMDL
MODEL 6
REMARK VINA RESULT:    -2.712      1.264      2.159
REMARK INTER + INTRA:         -11.368
REMARK INTER:                  -7.430
REMARK INTRA:                  -3.939
REMARK UNBOUND:                -5.168
REMARK SMILES CCCCCCCCCCCCCCCCCCCCCCCC(=O)[O-]
REMARK SMILES IDX 13 1 14 2 15 3 16 4 17 5 18 6 19 7 20 8 21 9 22 10 23 11
REMARK SMILES IDX 24 12 25 13 26 14 12 15 11 16 10 17 9 18 8 19 7 20 6 21 5 22
REMARK SMILES IDX 4 23 3 24 2 25 1 26
REMARK H PARENT
REMARK Flexibility Score: inf
ROOT
ATOM      1  C   UNL     1       2.513   7.157   9.012  1.00  0.00     0.000 C 
ENDROOT
BRANCH   1   2
ATOM      2  C   UNL     1       1.944   8.511   8.562  1.00  0.00     0.000 C 
BRANCH   2   3
ATOM      3  C   UNL     1       0.557   8.749   9.172  1.00  0.00     0.000 C 
BRANCH   3   4
ATOM      4  C   UNL     1       0.608   9.516  10.507  1.00  0.00     0.000 C 
BRANCH   4   5
ATOM      5  C   UNL     1       0.122   8.721  11.733  1.00  0.00     0.000 C 
BRANCH   5   6
ATOM      6  C   UNL     1       1.232   8.249  12.692  1.00  0.00     0.000 C 
BRANCH   6   7
ATOM      7  C   UNL     1       2.451   9.195  12.756  1.00  0.00     0.000 C 
BRANCH   7   8
ATOM      8  C   UNL     1       3.718   8.566  12.159  1.00  0.00     0.000 C 
BRANCH   8   9
ATOM      9  C   UNL     1       4.608   9.629  11.503  1.00  0.00     0.000 C 
BRANCH   9  10
ATOM     10  C   UNL     1       5.293   9.072  10.246  1.00  0.00     0.006 C 
BRANCH  10  11
ATOM     11  C   UNL     1       5.264  10.067   9.079  1.00  0.00     0.053 C 
BRANCH  11  12
ATOM     12  C   UNL     1       5.658   9.419   7.786  1.00  0.00     0.041 C 
ATOM     13  O   UNL     1       4.888   9.473   6.791  1.00  0.00    -0.550 OA
ATOM     14  O   UNL     1       6.860   8.730   7.690  1.00  0.00    -0.550 OA
ENDBRANCH  11  12
ENDBRANCH  10  11
ENDBRANCH   9  10
ENDBRANCH   8   9
ENDBRANCH   7   8
ENDBRANCH   6   7
ENDBRANCH   5   6
ENDBRANCH   4   5
ENDBRANCH   3   4
ENDBRANCH   2   3
ENDBRANCH   1   2
BRANCH   1  15
ATOM     15  C   UNL     1       1.420   6.168   9.444  1.00  0.00     0.000 C 
BRANCH  15  16
ATOM     16  C   UNL     1       1.814   5.354  10.689  1.00  0.00     0.000 C 
BRANCH  16  17
ATOM     17  C   UNL     1       1.352   3.890  10.599  1.00  0.00     0.000 C 
BRANCH  17  18
ATOM     18  C   UNL     1       2.501   2.930  10.246  1.00  0.00    -0.000 C 
BRANCH  18  19
ATOM     19  C   UNL     1       2.509   1.659  11.115  1.00  0.00    -0.000 C 
BRANCH  19  20
ATOM     20  C   UNL     1       3.579   1.627  12.224  1.00  0.00    -0.000 C 
BRANCH  20  21
ATOM     21  C   UNL     1       3.959   3.029  12.732  1.00  0.00    -0.000 C 
BRANCH  21  22
ATOM     22  C   UNL     1       5.369   3.464  12.292  1.00  0.00    -0.000 C 
BRANCH  22  23
ATOM     23  C   UNL     1       5.493   4.931  11.842  1.00  0.00    -0.000 C 
BRANCH  23  24
ATOM     24  C   UNL     1       5.388   5.103  10.317  1.00  0.00    -0.000 C 
BRANCH  24  25
ATOM     25  C   UNL     1       6.753   4.981   9.619  1.00  0.00    -0.003 C 
ATOM     26  C   UNL     1       7.675   6.160   9.924  1.00  0.00     0.004 C 
ENDBRANCH  24  25
ENDBRANCH  23  24
ENDBRANCH  22  23
ENDBRANCH  21  22
ENDBRANCH  20  21
ENDBRANCH  19  20
ENDBRANCH  18  19
ENDBRANCH  17  18
ENDBRANCH  16  17
ENDBRANCH  15  16
ENDBRANCH   1  15
TORSDOF 22
ENDMDL
MODEL 7
REMARK VINA RESULT:    -2.710      7.581      9.622
REMARK INTER + INTRA:         -11.363
REMARK INTER:                 -10.100
REMARK INTRA:                  -1.264
REMARK UNBOUND:                -5.168
REMARK SMILES CCCCCCCCCCCCCCCCCCCCCCCC(=O)[O-]
REMARK SMILES IDX 13 1 14 2 15 3 16 4 17 5 18 6 19 7 20 8 21 9 22 10 23 11
REMARK SMILES IDX 24 12 25 13 26 14 12 15 11 16 10 17 9 18 8 19 7 20 6 21 5 22
REMARK SMILES IDX 4 23 3 24 2 25 1 26
REMARK H PARENT
REMARK Flexibility Score: inf
ROOT
ATOM      1  C   UNL     1       8.522   7.859   4.222  1.00  0.00     0.000 C 
ENDROOT
BRANCH   1   2
ATOM      2  C   UNL     1       8.102   8.376   5.607  1.00  0.00     0.000 C 
BRANCH   2   3
ATOM      3  C   UNL     1       7.123   9.551   5.476  1.00  0.00     0.000 C 
BRANCH   3   4
ATOM      4  C   UNL     1       6.536  10.001   6.826  1.00  0.00     0.000 C 
BRANCH   4   5
ATOM      5  C   UNL     1       4.998  10.064   6.880  1.00  0.00     0.000 C 
BRANCH   5   6
ATOM      6  C   UNL     1       4.408  10.594   8.202  1.00  0.00     0.000 C 
BRANCH   6   7
ATOM      7  C   UNL     1       3.571   9.553   8.976  1.00  0.00     0.000 C 
BRANCH   7   8
ATOM      8  C   UNL     1       2.077   9.907   9.017  1.00  0.00     0.000 C 
BRANCH   8   9
ATOM      9  C   UNL     1       1.212   8.702   8.630  1.00  0.00     0.000 C 
BRANCH   9  10
ATOM     10  C   UNL     1       2.085   7.482   8.304  1.00  0.00     0.006 C 
BRANCH  10  11
ATOM     11  C   UNL     1       1.938   6.366   9.347  1.00  0.00     0.053 C 
BRANCH  11  12
ATOM     12  C   UNL     1       3.192   5.557   9.478  1.00  0.00     0.041 C 
ATOM     13  O   UNL     1       3.148   4.301   9.393  1.00  0.00    -0.550 OA
ATOM     14  O   UNL     1       4.405   6.188   9.725  1.00  0.00    -0.550 OA
ENDBRANCH  11  12
ENDBRANCH  10  11
ENDBRANCH   9  10
ENDBRANCH   8   9
ENDBRANCH   7   8
ENDBRANCH   6   7
ENDBRANCH   5   6
ENDBRANCH   4   5
ENDBRANCH   3   4
ENDBRANCH   2   3
ENDBRANCH   1   2
BRANCH   1  15
ATOM     15  C   UNL     1       8.624   8.979   3.177  1.00  0.00     0.000 C 
BRANCH  15  16
ATOM     16  C   UNL     1       7.970   8.602   1.836  1.00  0.00     0.000 C 
BRANCH  16  17
ATOM     17  C   UNL     1       8.622   7.366   1.195  1.00  0.00     0.000 C 
BRANCH  17  18
ATOM     18  C   UNL     1       7.608   6.245   0.912  1.00  0.00    -0.000 C 
BRANCH  18  19
ATOM     19  C   UNL     1       8.031   4.889   1.507  1.00  0.00    -0.000 C 
BRANCH  19  20
ATOM     20  C   UNL     1       7.938   3.691   0.542  1.00  0.00    -0.000 C 
BRANCH  20  21
ATOM     21  C   UNL     1       6.494   3.365   0.125  1.00  0.00    -0.000 C 
BRANCH  21  22
ATOM     22  C   UNL     1       6.154   1.869   0.257  1.00  0.00    -0.000 C 
BRANCH  22  23
ATOM     23  C   UNL     1       6.297   1.045  -1.036  1.00  0.00    -0.000 C 
BRANCH  23  24
ATOM     24  C   UNL     1       7.625   0.273  -1.112  1.00  0.00    -0.000 C 
BRANCH  24  25
ATOM     25  C   UNL     1       8.414   0.590  -2.394  1.00  0.00    -0.003 C 
ATOM     26  C   UNL     1       8.786  -0.667  -3.178  1.00  0.00     0.004 C 
ENDBRANCH  24  25
ENDBRANCH  23  24
ENDBRANCH  22  23
ENDBRANCH  21  22
ENDBRANCH  20  21
ENDBRANCH  19  20
ENDBRANCH  18  19
ENDBRANCH  17  18
ENDBRANCH  16  17
ENDBRANCH  15  16
ENDBRANCH   1  15
TORSDOF 22
ENDMDL
MODEL 8
REMARK VINA RESULT:    -2.680      2.899      5.116
REMARK INTER + INTRA:         -11.295
REMARK INTER:                  -6.456
REMARK INTRA:                  -4.839
REMARK UNBOUND:                -5.168
REMARK SMILES CCCCCCCCCCCCCCCCCCCCCCCC(=O)[O-]
REMARK SMILES IDX 13 1 14 2 15 3 16 4 17 5 18 6 19 7 20 8 21 9 22 10 23 11
REMARK SMILES IDX 24 12 25 13 26 14 12 15 11 16 10 17 9 18 8 19 7 20 6 21 5 22
REMARK SMILES IDX 4 23 3 24 2 25 1 26
REMARK H PARENT
REMARK Flexibility Score: inf
ROOT
ATOM      1  C   UNL     1       0.854   8.581   8.968  1.00  0.00     0.000 C 
ENDROOT
BRANCH   1   2
ATOM      2  C   UNL     1       0.413   9.398  10.192  1.00  0.00     0.000 C 
BRANCH   2   3
ATOM      3  C   UNL     1      -0.030   8.472  11.334  1.00  0.00     0.000 C 
BRANCH   3   4
ATOM      4  C   UNL     1       0.969   8.439  12.505  1.00  0.00     0.000 C 
BRANCH   4   5
ATOM      5  C   UNL     1       2.223   9.313  12.318  1.00  0.00     0.000 C 
BRANCH   5   6
ATOM      6  C   UNL     1       3.477   8.565  11.825  1.00  0.00     0.000 C 
BRANCH   6   7
ATOM      7  C   UNL     1       3.279   7.041  11.671  1.00  0.00     0.000 C 
BRANCH   7   8
ATOM      8  C   UNL     1       3.672   6.532  10.276  1.00  0.00     0.000 C 
BRANCH   8   9
ATOM      9  C   UNL     1       2.735   5.411   9.812  1.00  0.00     0.000 C 
BRANCH   9  10
ATOM     10  C   UNL     1       1.683   5.095  10.886  1.00  0.00     0.006 C 
BRANCH  10  11
ATOM     11  C   UNL     1       1.974   3.777  11.616  1.00  0.00     0.053 C 
BRANCH  11  12
ATOM     12  C   UNL     1       1.208   2.633  11.026  1.00  0.00     0.041 C 
ATOM     13  O   UNL     1       1.548   2.150   9.913  1.00  0.00    -0.550 OA
ATOM     14  O   UNL     1       0.101   2.121  11.689  1.00  0.00    -0.550 OA
ENDBRANCH  11  12
ENDBRANCH  10  11
ENDBRANCH   9  10
ENDBRANCH   8   9
ENDBRANCH   7   8
ENDBRANCH   6   7
ENDBRANCH   5   6
ENDBRANCH   4   5
ENDBRANCH   3   4
ENDBRANCH   2   3
ENDBRANCH   1   2
BRANCH   1  15
ATOM     15  C   UNL     1       2.116   9.147   8.301  1.00  0.00     0.000 C 
BRANCH  15  16
ATOM     16  C   UNL     1       2.527  10.516   8.873  1.00  0.00     0.000 C 
BRANCH  16  17
ATOM     17  C   UNL     1       4.023  10.808   8.671  1.00  0.00     0.000 C 
BRANCH  17  18
ATOM     18  C   UNL     1       4.834   9.540   8.357  1.00  0.00    -0.000 C 
BRANCH  18  19
ATOM     19  C   UNL     1       5.985   9.302   9.352  1.00  0.00    -0.000 C 
BRANCH  19  20
ATOM     20  C   UNL     1       7.154   8.454   8.814  1.00  0.00    -0.000 C 
BRANCH  20  21
ATOM     21  C   UNL     1       7.769   7.531   9.881  1.00  0.00    -0.000 C 
BRANCH  21  22
ATOM     22  C   UNL     1       7.051   7.624  11.240  1.00  0.00    -0.000 C 
BRANCH  22  23
ATOM     23  C   UNL     1       6.994   6.313  12.045  1.00  0.00    -0.000 C 
BRANCH  23  24
ATOM     24  C   UNL     1       6.833   5.069  11.154  1.00  0.00    -0.000 C 
BRANCH  24  25
ATOM     25  C   UNL     1       5.998   3.969  11.832  1.00  0.00    -0.003 C 
ATOM     26  C   UNL     1       5.338   4.445  13.124  1.00  0.00     0.004 C 
ENDBRANCH  24  25
ENDBRANCH  23  24
ENDBRANCH  22  23
ENDBRANCH  21  22
ENDBRANCH  20  21
ENDBRANCH  19  20
ENDBRANCH  18  19
ENDBRANCH  17  18
ENDBRANCH  16  17
ENDBRANCH  15  16
ENDBRANCH   1  15
TORSDOF 22
ENDMDL
MODEL 9
REMARK VINA RESULT:    -2.648      2.536      5.258
REMARK INTER + INTRA:         -11.221
REMARK INTER:                  -7.479
REMARK INTRA:                  -3.743
REMARK UNBOUND:                -5.168
REMARK SMILES CCCCCCCCCCCCCCCCCCCCCCCC(=O)[O-]
REMARK SMILES IDX 13 1 14 2 15 3 16 4 17 5 18 6 19 7 20 8 21 9 22 10 23 11
REMARK SMILES IDX 24 12 25 13 26 14 12 15 11 16 10 17 9 18 8 19 7 20 6 21 5 22
REMARK SMILES IDX 4 23 3 24 2 25 1 26
REMARK H PARENT
REMARK Flexibility Score: inf
ROOT
ATOM      1  C   UNL     1       2.224   8.529   8.241  1.00  0.00     0.000 C 
ENDROOT
BRANCH   1   2
ATOM      2  C   UNL     1       2.252   9.952   8.819  1.00  0.00     0.000 C 
BRANCH   2   3
ATOM      3  C   UNL     1       3.609  10.619   8.557  1.00  0.00     0.000 C 
BRANCH   3   4
ATOM      4  C   UNL     1       4.674   9.638   8.036  1.00  0.00     0.000 C 
BRANCH   4   5
ATOM      5  C   UNL     1       5.860   9.398   8.988  1.00  0.00     0.000 C 
BRANCH   5   6
ATOM      6  C   UNL     1       5.494   9.293  10.481  1.00  0.00     0.000 C 
BRANCH   6   7
ATOM      7  C   UNL     1       4.863   7.940  10.879  1.00  0.00     0.000 C 
BRANCH   7   8
ATOM      8  C   UNL     1       5.494   6.753  10.137  1.00  0.00     0.000 C 
BRANCH   8   9
ATOM      9  C   UNL     1       6.626   6.125  10.959  1.00  0.00     0.000 C 
BRANCH   9  10
ATOM     10  C   UNL     1       7.979   6.305  10.257  1.00  0.00     0.006 C 
BRANCH  10  11
ATOM     11  C   UNL     1       8.708   4.972  10.047  1.00  0.00     0.053 C 
BRANCH  11  12
ATOM     12  C   UNL     1       8.623   4.508   8.624  1.00  0.00     0.041 C 
ATOM     13  O   UNL     1       8.853   5.311   7.682  1.00  0.00    -0.550 OA
ATOM     14  O   UNL     1       8.258   3.198   8.340  1.00  0.00    -0.550 OA
ENDBRANCH  11  12
ENDBRANCH  10  11
ENDBRANCH   9  10
ENDBRANCH   8   9
ENDBRANCH   7   8
ENDBRANCH   6   7
ENDBRANCH   5   6
ENDBRANCH   4   5
ENDBRANCH   3   4
ENDBRANCH   2   3
ENDBRANCH   1   2
BRANCH   1  15
ATOM     15  C   UNL     1       1.262   7.600   8.997  1.00  0.00     0.000 C 
BRANCH  15  16
ATOM     16  C   UNL     1       1.906   6.252   9.366  1.00  0.00     0.000 C 
BRANCH  16  17
ATOM     17  C   UNL     1       1.253   5.611  10.602  1.00  0.00     0.000 C 
BRANCH  17  18
ATOM     18  C   UNL     1       1.907   6.068  11.917  1.00  0.00    -0.000 C 
BRANCH  18  19
ATOM     19  C   UNL     1       2.361   4.891  12.801  1.00  0.00    -0.000 C 
BRANCH  19  20
ATOM     20  C   UNL     1       3.853   4.525  12.691  1.00  0.00    -0.000 C 
BRANCH  20  21
ATOM     21  C   UNL     1       4.111   3.323  11.765  1.00  0.00    -0.000 C 
BRANCH  21  22
ATOM     22  C   UNL     1       3.837   1.971  12.447  1.00  0.00    -0.000 C 
BRANCH  22  23
ATOM     23  C   UNL     1       2.753   1.105  11.779  1.00  0.00    -0.000 C 
BRANCH  23  24
ATOM     24  C   UNL     1       2.087   1.798  10.578  1.00  0.00    -0.000 C 
BRANCH  24  25
ATOM     25  C   UNL     1       0.628   2.191  10.864  1.00  0.00    -0.003 C 
ATOM     26  C   UNL     1       0.184   1.809  12.275  1.00  0.00     0.004 C 
ENDBRANCH  24  25
ENDBRANCH  23  24
ENDBRANCH  22  23
ENDBRANCH  21  22
ENDBRANCH  20  21
ENDBRANCH  19  20
ENDBRANCH  18  19
ENDBRANCH  17  18
ENDBRANCH  16  17
ENDBRANCH  15  16
ENDBRANCH   1  15
TORSDOF 22
ENDMDL
