MODEL 1
REMARK VINA RESULT:    -2.917      0.000      0.000
REMARK INTER + INTRA:          -9.826
REMARK INTER:                  -6.328
REMARK INTRA:                  -3.498
REMARK UNBOUND:                -3.498
REMARK SMILES CCCCCCCCCCCCCCCCCCCCCC(=O)[O-]
REMARK SMILES IDX 12 1 11 2 10 3 9 4 8 5 7 6 6 7 5 8 4 9 3 10 2 11 1 12 13 13
REMARK SMILES IDX 14 14 15 15 16 16 17 17 18 18 19 19 20 20 21 21 22 22 23 23
REMARK SMILES IDX 24 24
REMARK H PARENT
REMARK Flexibility Score: inf
ROOT
ATOM      1  C   UNL     1       3.905 -18.370   2.237  1.00  0.00     0.000 C 
ENDROOT
BRANCH   1   2
ATOM      2  C   UNL     1       2.785 -17.779   3.110  1.00  0.00     0.000 C 
BRANCH   2   3
ATOM      3  C   UNL     1       2.819 -18.312   4.554  1.00  0.00     0.000 C 
BRANCH   3   4
ATOM      4  C   UNL     1       1.773 -19.412   4.804  1.00  0.00    -0.000 C 
BRANCH   4   5
ATOM      5  C   UNL     1       1.960 -20.107   6.164  1.00  0.00    -0.000 C 
BRANCH   5   6
ATOM      6  C   UNL     1       2.524 -19.162   7.237  1.00  0.00    -0.000 C 
BRANCH   6   7
ATOM      7  C   UNL     1       3.447 -19.881   8.237  1.00  0.00    -0.000 C 
BRANCH   7   8
ATOM      8  C   UNL     1       4.553 -18.952   8.784  1.00  0.00    -0.000 C 
BRANCH   8   9
ATOM      9  C   UNL     1       5.043 -17.907   7.762  1.00  0.00    -0.000 C 
BRANCH   9  10
ATOM     10  C   UNL     1       6.051 -16.883   8.316  1.00  0.00    -0.000 C 
BRANCH  10  11
ATOM     11  C   UNL     1       7.492 -17.059   7.805  1.00  0.00    -0.003 C 
ATOM     12  C   UNL     1       8.233 -15.733   7.640  1.00  0.00     0.004 C 
ENDBRANCH  10  11
ENDBRANCH   9  10
ENDBRANCH   8   9
ENDBRANCH   7   8
ENDBRANCH   6   7
ENDBRANCH   5   6
ENDBRANCH   4   5
ENDBRANCH   3   4
ENDBRANCH   2   3
ENDBRANCH   1   2
BRANCH   1  13
ATOM     13  C   UNL     1       3.394 -19.456   1.275  1.00  0.00     0.000 C 
BRANCH  13  14
ATOM     14  C   UNL     1       3.569 -20.878   1.835  1.00  0.00     0.000 C 
BRANCH  14  15
ATOM     15  C   UNL     1       4.685 -21.038   2.890  1.00  0.00     0.000 C 
BRANCH  15  16
ATOM     16  C   UNL     1       4.390 -22.060   4.002  1.00  0.00     0.000 C 
BRANCH  16  17
ATOM     17  C   UNL     1       5.093 -21.718   5.323  1.00  0.00     0.000 C 
BRANCH  17  18
ATOM     18  C   UNL     1       5.745 -20.330   5.259  1.00  0.00     0.000 C 
BRANCH  18  19
ATOM     19  C   UNL     1       7.286 -20.410   5.215  1.00  0.00     0.000 C 
BRANCH  19  20
ATOM     20  C   UNL     1       7.959 -19.089   4.797  1.00  0.00     0.006 C 
BRANCH  20  21
ATOM     21  C   UNL     1       7.912 -18.808   3.287  1.00  0.00     0.053 C 
BRANCH  21  22
ATOM     22  C   UNL     1       9.069 -17.970   2.831  1.00  0.00     0.041 C 
ATOM     23  O   UNL     1       9.574 -18.154   1.693  1.00  0.00    -0.550 OA
ATOM     24  O   UNL     1       9.596 -16.994   3.667  1.00  0.00    -0.550 OA
ENDBRANCH  21  22
ENDBRANCH  20  21
ENDBRANCH  19  20
ENDBRANCH  18  19
ENDBRANCH  17  18
ENDBRANCH  16  17
ENDBRANCH  15  16
ENDBRANCH  14  15
ENDBRANCH  13  14
ENDBRANCH   1  13
TORSDOF 20
ENDMDL
MODEL 2
REMARK VINA RESULT:    -2.840      2.632      5.636
REMARK INTER + INTRA:          -9.658
REMARK INTER:                  -5.968
REMARK INTRA:                  -3.690
REMARK UNBOUND:                -3.498
REMARK SMILES CCCCCCCCCCCCCCCCCCCCCC(=O)[O-]
REMARK SMILES IDX 12 1 11 2 10 3 9 4 8 5 7 6 6 7 5 8 4 9 3 10 2 11 1 12 13 13
REMARK SMILES IDX 14 14 15 15 16 16 17 17 18 18 19 19 20 20 21 21 22 22 23 23
REMARK SMILES IDX 24 24
REMARK H PARENT
REMARK Flexibility Score: inf
ROOT
ATOM      1  C   UNL     1       9.658 -18.004   3.656  1.00  0.00     0.000 C 
ENDROOT
BRANCH   1   2
ATOM      2  C   UNL     1       9.592 -16.705   4.477  1.00  0.00     0.000 C 
BRANCH   2   3
ATOM      3  C   UNL     1      10.887 -16.440   5.266  1.00  0.00     0.000 C 
BRANCH   3   4
ATOM      4  C   UNL     1      10.692 -15.415   6.397  1.00  0.00    -0.000 C 
BRANCH   4   5
ATOM      5  C   UNL     1       9.209 -15.099   6.659  1.00  0.00    -0.000 C 
BRANCH   5   6
ATOM      6  C   UNL     1       8.701 -15.701   7.979  1.00  0.00    -0.000 C 
BRANCH   6   7
ATOM      7  C   UNL     1       7.228 -16.140   7.905  1.00  0.00    -0.000 C 
BRANCH   7   8
ATOM      8  C   UNL     1       7.058 -17.657   8.141  1.00  0.00    -0.000 C 
BRANCH   8   9
ATOM      9  C   UNL     1       7.476 -18.520   6.934  1.00  0.00    -0.000 C 
BRANCH   9  10
ATOM     10  C   UNL     1       8.354 -19.737   7.281  1.00  0.00    -0.000 C 
BRANCH  10  11
ATOM     11  C   UNL     1       9.845 -19.575   6.934  1.00  0.00    -0.003 C 
ATOM     12  C   UNL     1      10.637 -18.861   8.027  1.00  0.00     0.004 C 
ENDBRANCH  10  11
ENDBRANCH   9  10
ENDBRANCH   8   9
ENDBRANCH   7   8
ENDBRANCH   6   7
ENDBRANCH   5   6
ENDBRANCH   4   5
ENDBRANCH   3   4
ENDBRANCH   2   3
ENDBRANCH   1   2
BRANCH   1  13
ATOM     13  C   UNL     1       8.303 -18.381   3.034  1.00  0.00     0.000 C 
BRANCH  13  14
ATOM     14  C   UNL     1       7.751 -19.712   3.572  1.00  0.00     0.000 C 
BRANCH  14  15
ATOM     15  C   UNL     1       6.214 -19.790   3.688  1.00  0.00     0.000 C 
BRANCH  15  16
ATOM     16  C   UNL     1       5.677 -21.019   4.443  1.00  0.00     0.000 C 
BRANCH  16  17
ATOM     17  C   UNL     1       4.457 -20.694   5.315  1.00  0.00     0.000 C 
BRANCH  17  18
ATOM     18  C   UNL     1       4.203 -19.181   5.369  1.00  0.00     0.000 C 
BRANCH  18  19
ATOM     19  C   UNL     1       2.795 -18.806   4.859  1.00  0.00     0.000 C 
BRANCH  19  20
ATOM     20  C   UNL     1       2.809 -18.013   3.539  1.00  0.00     0.006 C 
BRANCH  20  21
ATOM     21  C   UNL     1       2.113 -18.726   2.369  1.00  0.00     0.053 C 
BRANCH  21  22
ATOM     22  C   UNL     1       2.915 -19.883   1.853  1.00  0.00     0.041 C 
ATOM     23  O   UNL     1       3.827 -19.695   1.006  1.00  0.00    -0.550 OA
ATOM     24  O   UNL     1       2.647 -21.171   2.299  1.00  0.00    -0.550 OA
ENDBRANCH  21  22
ENDBRANCH  20  21
ENDBRANCH  19  20
ENDBRANCH  18  19
ENDBRANCH  17  18
ENDBRANCH  16  17
ENDBRANCH  15  16
ENDBRANCH  14  15
ENDBRANCH  13  14
ENDBRANCH   1  13
TORSDOF 20
ENDMDL
MODEL 3
REMARK VINA RESULT:    -2.839      2.882      5.778
REMARK INTER + INTRA:          -9.657
REMARK INTER:                  -6.630
REMARK INTRA:                  -3.027
REMARK UNBOUND:                -3.498
REMARK SMILES CCCCCCCCCCCCCCCCCCCCCC(=O)[O-]
REMARK SMILES IDX 12 1 11 2 10 3 9 4 8 5 7 6 6 7 5 8 4 9 3 10 2 11 1 12 13 13
REMARK SMILES IDX 14 14 15 15 16 16 17 17 18 18 19 19 20 20 21 21 22 22 23 23
REMARK SMILES IDX 24 24
REMARK H PARENT
REMARK Flexibility Score: inf
ROOT
ATOM      1  C   UNL     1       7.742 -19.447   5.692  1.00  0.00     0.000 C 
ENDROOT
BRANCH   1   2
ATOM      2  C   UNL     1       8.595 -19.201   4.436  1.00  0.00     0.000 C 
BRANCH   2   3
ATOM      3  C   UNL     1       9.008 -17.726   4.283  1.00  0.00     0.000 C 
BRANCH   3   4
ATOM      4  C   UNL     1       9.728 -17.181   5.529  1.00  0.00    -0.000 C 
BRANCH   4   5
ATOM      5  C   UNL     1       9.433 -15.691   5.776  1.00  0.00    -0.000 C 
BRANCH   5   6
ATOM      6  C   UNL     1       8.825 -15.432   7.164  1.00  0.00    -0.000 C 
BRANCH   6   7
ATOM      7  C   UNL     1       8.648 -16.719   7.987  1.00  0.00    -0.000 C 
BRANCH   7   8
ATOM      8  C   UNL     1       7.333 -16.720   8.797  1.00  0.00    -0.000 C 
BRANCH   8   9
ATOM      9  C   UNL     1       6.067 -16.786   7.920  1.00  0.00    -0.000 C 
BRANCH   9  10
ATOM     10  C   UNL     1       4.977 -15.759   8.276  1.00  0.00    -0.000 C 
BRANCH  10  11
ATOM     11  C   UNL     1       4.484 -14.908   7.092  1.00  0.00    -0.003 C 
ATOM     12  C   UNL     1       5.127 -13.524   7.043  1.00  0.00     0.004 C 
ENDBRANCH  10  11
ENDBRANCH   9  10
ENDBRANCH   8   9
ENDBRANCH   7   8
ENDBRANCH   6   7
ENDBRANCH   5   6
ENDBRANCH   4   5
ENDBRANCH   3   4
ENDBRANCH   2   3
ENDBRANCH   1   2
BRANCH   1  13
ATOM     13  C   UNL     1       6.298 -19.859   5.356  1.00  0.00     0.000 C 
BRANCH  13  14
ATOM     14  C   UNL     1       5.996 -19.792   3.849  1.00  0.00     0.000 C 
BRANCH  14  15
ATOM     15  C   UNL     1       4.889 -20.747   3.356  1.00  0.00     0.000 C 
BRANCH  15  16
ATOM     16  C   UNL     1       4.015 -20.200   2.213  1.00  0.00     0.000 C 
BRANCH  16  17
ATOM     17  C   UNL     1       3.971 -18.667   2.180  1.00  0.00     0.000 C 
BRANCH  17  18
ATOM     18  C   UNL     1       2.681 -18.137   2.822  1.00  0.00     0.000 C 
BRANCH  18  19
ATOM     19  C   UNL     1       2.886 -17.736   4.299  1.00  0.00     0.000 C 
BRANCH  19  20
ATOM     20  C   UNL     1       2.395 -18.800   5.299  1.00  0.00     0.006 C 
BRANCH  20  21
ATOM     21  C   UNL     1       2.440 -18.352   6.768  1.00  0.00     0.053 C 
BRANCH  21  22
ATOM     22  C   UNL     1       2.804 -19.475   7.692  1.00  0.00     0.041 C 
ATOM     23  O   UNL     1       3.994 -19.616   8.079  1.00  0.00    -0.550 OA
ATOM     24  O   UNL     1       1.833 -20.372   8.116  1.00  0.00    -0.550 OA
ENDBRANCH  21  22
ENDBRANCH  20  21
ENDBRANCH  19  20
ENDBRANCH  18  19
ENDBRANCH  17  18
ENDBRANCH  16  17
ENDBRANCH  15  16
ENDBRANCH  14  15
ENDBRANCH  13  14
ENDBRANCH   1  13
TORSDOF 20
ENDMDL
MODEL 4
REMARK VINA RESULT:    -2.787      2.434      5.855
REMARK INTER + INTRA:          -9.543
REMARK INTER:                  -6.436
REMARK INTRA:                  -3.108
REMARK UNBOUND:                -3.498
REMARK SMILES CCCCCCCCCCCCCCCCCCCCCC(=O)[O-]
REMARK SMILES IDX 12 1 11 2 10 3 9 4 8 5 7 6 6 7 5 8 4 9 3 10 2 11 1 12 13 13
REMARK SMILES IDX 14 14 15 15 16 16 17 17 18 18 19 19 20 20 21 21 22 22 23 23
REMARK SMILES IDX 24 24
REMARK H PARENT
REMARK Flexibility Score: inf
ROOT
ATOM      1  C   UNL     1       7.231 -20.051   6.725  1.00  0.00     0.000 C 
ENDROOT
BRANCH   1   2
ATOM      2  C   UNL     1       7.570 -18.834   7.603  1.00  0.00     0.000 C 
BRANCH   2   3
ATOM      3  C   UNL     1       6.323 -18.020   7.990  1.00  0.00     0.000 C 
BRANCH   3   4
ATOM      4  C   UNL     1       6.623 -16.521   8.158  1.00  0.00    -0.000 C 
BRANCH   4   5
ATOM      5  C   UNL     1       8.128 -16.207   8.083  1.00  0.00    -0.000 C 
BRANCH   5   6
ATOM      6  C   UNL     1       8.423 -14.913   7.309  1.00  0.00    -0.000 C 
BRANCH   6   7
ATOM      7  C   UNL     1       9.277 -15.153   6.051  1.00  0.00    -0.000 C 
BRANCH   7   8
ATOM      8  C   UNL     1       9.676 -16.636   5.890  1.00  0.00    -0.000 C 
BRANCH   8   9
ATOM      9  C   UNL     1      10.057 -17.021   4.447  1.00  0.00    -0.000 C 
BRANCH   9  10
ATOM     10  C   UNL     1      10.340 -18.519   4.228  1.00  0.00    -0.000 C 
BRANCH  10  11
ATOM     11  C   UNL     1       9.142 -19.329   3.702  1.00  0.00    -0.003 C 
ATOM     12  C   UNL     1       8.040 -18.450   3.114  1.00  0.00     0.004 C 
ENDBRANCH  10  11
ENDBRANCH   9  10
ENDBRANCH   8   9
ENDBRANCH   7   8
ENDBRANCH   6   7
ENDBRANCH   5   6
ENDBRANCH   4   5
ENDBRANCH   3   4
ENDBRANCH   2   3
ENDBRANCH   1   2
BRANCH   1  13
ATOM     13  C   UNL     1       5.991 -19.818   5.845  1.00  0.00     0.000 C 
BRANCH  13  14
ATOM     14  C   UNL     1       4.947 -20.941   5.980  1.00  0.00     0.000 C 
BRANCH  14  15
ATOM     15  C   UNL     1       3.476 -20.488   5.881  1.00  0.00     0.000 C 
BRANCH  15  16
ATOM     16  C   UNL     1       3.168 -19.122   6.518  1.00  0.00     0.000 C 
BRANCH  16  17
ATOM     17  C   UNL     1       2.855 -18.038   5.477  1.00  0.00     0.000 C 
BRANCH  17  18
ATOM     18  C   UNL     1       2.149 -18.636   4.253  1.00  0.00     0.000 C 
BRANCH  18  19
ATOM     19  C   UNL     1       2.559 -17.934   2.941  1.00  0.00     0.000 C 
BRANCH  19  20
ATOM     20  C   UNL     1       3.979 -18.297   2.466  1.00  0.00     0.006 C 
BRANCH  20  21
ATOM     21  C   UNL     1       4.204 -19.801   2.244  1.00  0.00     0.053 C 
BRANCH  21  22
ATOM     22  C   UNL     1       3.384 -20.333   1.107  1.00  0.00     0.041 C 
ATOM     23  O   UNL     1       3.696 -20.058  -0.082  1.00  0.00    -0.550 OA
ATOM     24  O   UNL     1       2.270 -21.122   1.359  1.00  0.00    -0.550 OA
ENDBRANCH  21  22
ENDBRANCH  20  21
ENDBRANCH  19  20
ENDBRANCH  18  19
ENDBRANCH  17  18
ENDBRANCH  16  17
ENDBRANCH  15  16
ENDBRANCH  14  15
ENDBRANCH  13  14
ENDBRANCH   1  13
TORSDOF 20
ENDMDL
MODEL 5
REMARK VINA RESULT:    -2.748      1.685      6.051
REMARK INTER + INTRA:          -9.458
REMARK INTER:                  -6.810
REMARK INTRA:                  -2.648
REMARK UNBOUND:                -3.498
REMARK SMILES CCCCCCCCCCCCCCCCCCCCCC(=O)[O-]
REMARK SMILES IDX 12 1 11 2 10 3 9 4 8 5 7 6 6 7 5 8 4 9 3 10 2 11 1 12 13 13
REMARK SMILES IDX 14 14 15 15 16 16 17 17 18 18 19 19 20 20 21 21 22 22 23 23
REMARK SMILES IDX 24 24
REMARK H PARENT
REMARK Flexibility Score: inf
ROOT
ATOM      1  C   UNL     1       7.004 -18.088   7.594  1.00  0.00     0.000 C 
ENDROOT
BRANCH   1   2
ATOM      2  C   UNL     1       7.478 -19.551   7.636  1.00  0.00     0.000 C 
BRANCH   2   3
ATOM      3  C   UNL     1       7.052 -20.345   6.388  1.00  0.00     0.000 C 
BRANCH   3   4
ATOM      4  C   UNL     1       5.841 -19.722   5.674  1.00  0.00    -0.000 C 
BRANCH   4   5
ATOM      5  C   UNL     1       4.510 -20.371   6.093  1.00  0.00    -0.000 C 
BRANCH   5   6
ATOM      6  C   UNL     1       3.473 -19.341   6.570  1.00  0.00    -0.000 C 
BRANCH   6   7
ATOM      7  C   UNL     1       2.080 -19.571   5.958  1.00  0.00    -0.000 C 
BRANCH   7   8
ATOM      8  C   UNL     1       2.076 -19.377   4.426  1.00  0.00    -0.000 C 
BRANCH   8   9
ATOM      9  C   UNL     1       2.613 -18.004   3.975  1.00  0.00    -0.000 C 
BRANCH   9  10
ATOM     10  C   UNL     1       3.294 -17.997   2.593  1.00  0.00    -0.000 C 
BRANCH  10  11
ATOM     11  C   UNL     1       3.962 -19.325   2.199  1.00  0.00    -0.003 C 
ATOM     12  C   UNL     1       3.302 -19.990   0.992  1.00  0.00     0.004 C 
ENDBRANCH  10  11
ENDBRANCH   9  10
ENDBRANCH   8   9
ENDBRANCH   7   8
ENDBRANCH   6   7
ENDBRANCH   5   6
ENDBRANCH   4   5
ENDBRANCH   3   4
ENDBRANCH   2   3
ENDBRANCH   1   2
BRANCH   1  13
ATOM     13  C   UNL     1       8.152 -17.088   7.814  1.00  0.00     0.000 C 
BRANCH  13  14
ATOM     14  C   UNL     1       7.745 -15.638   7.501  1.00  0.00     0.000 C 
BRANCH  14  15
ATOM     15  C   UNL     1       8.909 -14.687   7.150  1.00  0.00     0.000 C 
BRANCH  15  16
ATOM     16  C   UNL     1      10.166 -14.842   8.024  1.00  0.00     0.000 C 
BRANCH  16  17
ATOM     17  C   UNL     1      11.335 -15.493   7.273  1.00  0.00     0.000 C 
BRANCH  17  18
ATOM     18  C   UNL     1      11.191 -15.304   5.757  1.00  0.00     0.000 C 
BRANCH  18  19
ATOM     19  C   UNL     1      11.011 -16.646   5.015  1.00  0.00     0.000 C 
BRANCH  19  20
ATOM     20  C   UNL     1       9.639 -16.790   4.329  1.00  0.00     0.006 C 
BRANCH  20  21
ATOM     21  C   UNL     1       9.111 -18.232   4.274  1.00  0.00     0.053 C 
BRANCH  21  22
ATOM     22  C   UNL     1       9.039 -18.755   2.871  1.00  0.00     0.041 C 
ATOM     23  O   UNL     1       9.395 -18.029   1.906  1.00  0.00    -0.550 OA
ATOM     24  O   UNL     1       8.567 -20.038   2.628  1.00  0.00    -0.550 OA
ENDBRANCH  21  22
ENDBRANCH  20  21
ENDBRANCH  19  20
ENDBRANCH  18  19
ENDBRANCH  17  18
ENDBRANCH  16  17
ENDBRANCH  15  16
ENDBRANCH  14  15
ENDBRANCH  13  14
ENDBRANCH   1  13
TORSDOF 20
ENDMDL
MODEL 6
REMARK VINA RESULT:    -2.744      2.527      6.744
REMARK INTER + INTRA:          -9.449
REMARK INTER:                  -6.410
REMARK INTRA:                  -3.040
REMARK UNBOUND:                -3.498
REMARK SMILES CCCCCCCCCCCCCCCCCCCCCC(=O)[O-]
REMARK SMILES IDX 12 1 11 2 10 3 9 4 8 5 7 6 6 7 5 8 4 9 3 10 2 11 1 12 13 13
REMARK SMILES IDX 14 14 15 15 16 16 17 17 18 18 19 19 20 20 21 21 22 22 23 23
REMARK SMILES IDX 24 24
REMARK H PARENT
REMARK Flexibility Score: inf
ROOT
ATOM      1  C   UNL     1       9.333 -17.383   4.361  1.00  0.00     0.000 C 
ENDROOT
BRANCH   1   2
ATOM      2  C   UNL     1       9.375 -18.538   5.376  1.00  0.00     0.000 C 
BRANCH   2   3
ATOM      3  C   UNL     1       8.522 -19.741   4.935  1.00  0.00     0.000 C 
BRANCH   3   4
ATOM      4  C   UNL     1       7.589 -19.407   3.759  1.00  0.00    -0.000 C 
BRANCH   4   5
ATOM      5  C   UNL     1       6.138 -19.856   4.010  1.00  0.00    -0.000 C 
BRANCH   5   6
ATOM      6  C   UNL     1       5.813 -19.992   5.506  1.00  0.00    -0.000 C 
BRANCH   6   7
ATOM      7  C   UNL     1       4.305 -20.139   5.776  1.00  0.00    -0.000 C 
BRANCH   7   8
ATOM      8  C   UNL     1       3.544 -18.810   5.582  1.00  0.00    -0.000 C 
BRANCH   8   9
ATOM      9  C   UNL     1       2.553 -18.832   4.402  1.00  0.00    -0.000 C 
BRANCH   9  10
ATOM     10  C   UNL     1       2.933 -17.920   3.219  1.00  0.00    -0.000 C 
BRANCH  10  11
ATOM     11  C   UNL     1       3.380 -18.667   1.950  1.00  0.00    -0.003 C 
ATOM     12  C   UNL     1       3.137 -20.173   2.028  1.00  0.00     0.004 C 
ENDBRANCH  10  11
ENDBRANCH   9  10
ENDBRANCH   8   9
ENDBRANCH   7   8
ENDBRANCH   6   7
ENDBRANCH   5   6
ENDBRANCH   4   5
ENDBRANCH   3   4
ENDBRANCH   2   3
ENDBRANCH   1   2
BRANCH   1  13
ATOM     13  C   UNL     1      10.505 -16.401   4.533  1.00  0.00     0.000 C 
BRANCH  13  14
ATOM     14  C   UNL     1      11.058 -16.381   5.968  1.00  0.00     0.000 C 
BRANCH  14  15
ATOM     15  C   UNL     1      11.090 -14.994   6.643  1.00  0.00     0.000 C 
BRANCH  15  16
ATOM     16  C   UNL     1      10.077 -14.800   7.786  1.00  0.00     0.000 C 
BRANCH  16  17
ATOM     17  C   UNL     1       8.653 -15.217   7.394  1.00  0.00     0.000 C 
BRANCH  17  18
ATOM     18  C   UNL     1       8.181 -16.418   8.225  1.00  0.00     0.000 C 
BRANCH  18  19
ATOM     19  C   UNL     1       6.894 -17.053   7.656  1.00  0.00     0.000 C 
BRANCH  19  20
ATOM     20  C   UNL     1       5.710 -17.031   8.640  1.00  0.00     0.006 C 
BRANCH  20  21
ATOM     21  C   UNL     1       5.069 -15.647   8.825  1.00  0.00     0.053 C 
BRANCH  21  22
ATOM     22  C   UNL     1       4.657 -15.035   7.520  1.00  0.00     0.041 C 
ATOM     23  O   UNL     1       5.222 -13.990   7.103  1.00  0.00    -0.550 OA
ATOM     24  O   UNL     1       3.641 -15.612   6.769  1.00  0.00    -0.550 OA
ENDBRANCH  21  22
ENDBRANCH  20  21
ENDBRANCH  19  20
ENDBRANCH  18  19
ENDBRANCH  17  18
ENDBRANCH  16  17
ENDBRANCH  15  16
ENDBRANCH  14  15
ENDBRANCH  13  14
ENDBRANCH   1  13
TORSDOF 20
ENDMDL
MODEL 7
REMARK VINA RESULT:    -2.741      1.438      4.402
REMARK INTER + INTRA:          -9.444
REMARK INTER:                  -6.122
REMARK INTRA:                  -3.322
REMARK UNBOUND:                -3.498
REMARK SMILES CCCCCCCCCCCCCCCCCCCCCC(=O)[O-]
REMARK SMILES IDX 12 1 11 2 10 3 9 4 8 5 7 6 6 7 5 8 4 9 3 10 2 11 1 12 13 13
REMARK SMILES IDX 14 14 15 15 16 16 17 17 18 18 19 19 20 20 21 21 22 22 23 23
REMARK SMILES IDX 24 24
REMARK H PARENT
REMARK Flexibility Score: inf
ROOT
ATOM      1  C   UNL     1       1.748 -19.430   5.333  1.00  0.00     0.000 C 
ENDROOT
BRANCH   1   2
ATOM      2  C   UNL     1       0.960 -19.844   4.078  1.00  0.00     0.000 C 
BRANCH   2   3
ATOM      3  C   UNL     1       1.332 -19.003   2.844  1.00  0.00     0.000 C 
BRANCH   3   4
ATOM      4  C   UNL     1       2.532 -18.074   3.101  1.00  0.00    -0.000 C 
BRANCH   4   5
ATOM      5  C   UNL     1       3.786 -18.498   2.316  1.00  0.00    -0.000 C 
BRANCH   5   6
ATOM      6  C   UNL     1       3.923 -20.024   2.202  1.00  0.00    -0.000 C 
BRANCH   6   7
ATOM      7  C   UNL     1       5.014 -20.595   3.126  1.00  0.00    -0.000 C 
BRANCH   7   8
ATOM      8  C   UNL     1       5.861 -19.485   3.785  1.00  0.00    -0.000 C 
BRANCH   8   9
ATOM      9  C   UNL     1       6.894 -20.016   4.798  1.00  0.00    -0.000 C 
BRANCH   9  10
ATOM     10  C   UNL     1       8.219 -19.231   4.845  1.00  0.00    -0.000 C 
BRANCH  10  11
ATOM     11  C   UNL     1       9.011 -19.229   3.526  1.00  0.00    -0.003 C 
ATOM     12  C   UNL     1       8.839 -17.937   2.729  1.00  0.00     0.004 C 
ENDBRANCH  10  11
ENDBRANCH   9  10
ENDBRANCH   8   9
ENDBRANCH   7   8
ENDBRANCH   6   7
ENDBRANCH   5   6
ENDBRANCH   4   5
ENDBRANCH   3   4
ENDBRANCH   2   3
ENDBRANCH   1   2
BRANCH   1  13
ATOM     13  C   UNL     1       2.587 -20.582   5.912  1.00  0.00     0.000 C 
BRANCH  13  14
ATOM     14  C   UNL     1       3.754 -20.087   6.784  1.00  0.00     0.000 C 
BRANCH  14  15
ATOM     15  C   UNL     1       3.703 -18.594   7.169  1.00  0.00     0.000 C 
BRANCH  15  16
ATOM     16  C   UNL     1       5.069 -17.945   7.456  1.00  0.00     0.000 C 
BRANCH  16  17
ATOM     17  C   UNL     1       5.939 -18.788   8.399  1.00  0.00     0.000 C 
BRANCH  17  18
ATOM     18  C   UNL     1       7.400 -18.318   8.367  1.00  0.00     0.000 C 
BRANCH  18  19
ATOM     19  C   UNL     1       7.568 -16.980   7.616  1.00  0.00     0.000 C 
BRANCH  19  20
ATOM     20  C   UNL     1       9.026 -16.488   7.553  1.00  0.00     0.006 C 
BRANCH  20  21
ATOM     21  C   UNL     1       9.282 -15.410   6.488  1.00  0.00     0.053 C 
BRANCH  21  22
ATOM     22  C   UNL     1      10.272 -15.858   5.455  1.00  0.00     0.041 C 
ATOM     23  O   UNL     1      11.032 -16.834   5.688  1.00  0.00    -0.550 OA
ATOM     24  O   UNL     1      10.363 -15.191   4.241  1.00  0.00    -0.550 OA
ENDBRANCH  21  22
ENDBRANCH  20  21
ENDBRANCH  19  20
ENDBRANCH  18  19
ENDBRANCH  17  18
ENDBRANCH  16  17
ENDBRANCH  15  16
ENDBRANCH  14  15
ENDBRANCH  13  14
ENDBRANCH   1  13
TORSDOF 20
ENDMDL
MODEL 8
REMARK VINA RESULT:    -2.716      2.385      6.125
REMARK INTER + INTRA:          -9.390
REMARK INTER:                  -5.841
REMARK INTRA:                  -3.548
REMARK UNBOUND:                -3.498
REMARK SMILES CCCCCCCCCCCCCCCCCCCCCC(=O)[O-]
REMARK SMILES IDX 12 1 11 2 10 3 9 4 8 5 7 6 6 7 5 8 4 9 3 10 2 11 1 12 13 13
REMARK SMILES IDX 14 14 15 15 16 16 17 17 18 18 19 19 20 20 21 21 22 22 23 23
REMARK SMILES IDX 24 24
REMARK H PARENT
REMARK Flexibility Score: inf
ROOT
ATOM      1  C   UNL     1       7.701 -18.913   6.204  1.00  0.00     0.000 C 
ENDROOT
BRANCH   1   2
ATOM      2  C   UNL     1       7.447 -20.234   5.457  1.00  0.00     0.000 C 
BRANCH   2   3
ATOM      3  C   UNL     1       7.934 -20.189   3.998  1.00  0.00     0.000 C 
BRANCH   3   4
ATOM      4  C   UNL     1       7.779 -18.796   3.364  1.00  0.00    -0.000 C 
BRANCH   4   5
ATOM      5  C   UNL     1       9.072 -18.306   2.690  1.00  0.00    -0.000 C 
BRANCH   5   6
ATOM      6  C   UNL     1      10.337 -18.804   3.406  1.00  0.00    -0.000 C 
BRANCH   6   7
ATOM      7  C   UNL     1      11.122 -17.670   4.088  1.00  0.00    -0.000 C 
BRANCH   7   8
ATOM      8  C   UNL     1      11.259 -17.887   5.611  1.00  0.00    -0.000 C 
BRANCH   8   9
ATOM      9  C   UNL     1      10.721 -16.714   6.454  1.00  0.00    -0.000 C 
BRANCH   9  10
ATOM     10  C   UNL     1       9.676 -15.832   5.745  1.00  0.00    -0.000 C 
BRANCH  10  11
ATOM     11  C   UNL     1       8.781 -15.011   6.690  1.00  0.00    -0.003 C 
ATOM     12  C   UNL     1       9.466 -14.669   8.012  1.00  0.00     0.004 C 
ENDBRANCH  10  11
ENDBRANCH   9  10
ENDBRANCH   8   9
ENDBRANCH   7   8
ENDBRANCH   6   7
ENDBRANCH   5   6
ENDBRANCH   4   5
ENDBRANCH   3   4
ENDBRANCH   2   3
ENDBRANCH   1   2
BRANCH   1  13
ATOM     13  C   UNL     1       8.281 -19.130   7.612  1.00  0.00     0.000 C 
BRANCH  13  14
ATOM     14  C   UNL     1       7.688 -18.167   8.655  1.00  0.00     0.000 C 
BRANCH  14  15
ATOM     15  C   UNL     1       6.399 -17.438   8.221  1.00  0.00     0.000 C 
BRANCH  15  16
ATOM     16  C   UNL     1       5.120 -17.878   8.955  1.00  0.00     0.000 C 
BRANCH  16  17
ATOM     17  C   UNL     1       4.363 -18.990   8.217  1.00  0.00     0.000 C 
BRANCH  17  18
ATOM     18  C   UNL     1       4.301 -18.709   6.709  1.00  0.00     0.000 C 
BRANCH  18  19
ATOM     19  C   UNL     1       2.877 -18.886   6.140  1.00  0.00     0.000 C 
BRANCH  19  20
ATOM     20  C   UNL     1       2.842 -19.628   4.791  1.00  0.00     0.006 C 
BRANCH  20  21
ATOM     21  C   UNL     1       4.073 -19.383   3.905  1.00  0.00     0.053 C 
BRANCH  21  22
ATOM     22  C   UNL     1       3.717 -18.702   2.617  1.00  0.00     0.041 C 
ATOM     23  O   UNL     1       3.190 -17.559   2.630  1.00  0.00    -0.550 OA
ATOM     24  O   UNL     1       3.955 -19.335   1.404  1.00  0.00    -0.550 OA
ENDBRANCH  21  22
ENDBRANCH  20  21
ENDBRANCH  19  20
ENDBRANCH  18  19
ENDBRANCH  17  18
ENDBRANCH  16  17
ENDBRANCH  15  16
ENDBRANCH  14  15
ENDBRANCH  13  14
ENDBRANCH   1  13
TORSDOF 20
ENDMDL
MODEL 9
REMARK VINA RESULT:    -2.715      2.869      6.341
REMARK INTER + INTRA:          -9.387
REMARK INTER:                  -6.502
REMARK INTRA:                  -2.885
REMARK UNBOUND:                -3.498
REMARK SMILES CCCCCCCCCCCCCCCCCCCCCC(=O)[O-]
REMARK SMILES IDX 12 1 11 2 10 3 9 4 8 5 7 6 6 7 5 8 4 9 3 10 2 11 1 12 13 13
REMARK SMILES IDX 14 14 15 15 16 16 17 17 18 18 19 19 20 20 21 21 22 22 23 23
REMARK SMILES IDX 24 24
REMARK H PARENT
REMARK Flexibility Score: inf
ROOT
ATOM      1  C   UNL     1       8.884 -17.969   3.045  1.00  0.00     0.000 C 
ENDROOT
BRANCH   1   2
ATOM      2  C   UNL     1       9.765 -17.564   4.239  1.00  0.00     0.000 C 
BRANCH   2   3
ATOM      3  C   UNL     1       9.788 -16.042   4.466  1.00  0.00     0.000 C 
BRANCH   3   4
ATOM      4  C   UNL     1      11.001 -15.585   5.295  1.00  0.00    -0.000 C 
BRANCH   4   5
ATOM      5  C   UNL     1      11.824 -16.766   5.838  1.00  0.00    -0.000 C 
BRANCH   5   6
ATOM      6  C   UNL     1      12.398 -16.493   7.237  1.00  0.00    -0.000 C 
BRANCH   6   7
ATOM      7  C   UNL     1      12.068 -15.080   7.751  1.00  0.00    -0.000 C 
BRANCH   7   8
ATOM      8  C   UNL     1      11.120 -15.108   8.969  1.00  0.00    -0.000 C 
BRANCH   8   9
ATOM      9  C   UNL     1       9.632 -14.954   8.599  1.00  0.00    -0.000 C 
BRANCH   9  10
ATOM     10  C   UNL     1       8.748 -16.164   8.951  1.00  0.00    -0.000 C 
BRANCH  10  11
ATOM     11  C   UNL     1       8.598 -17.201   7.824  1.00  0.00    -0.003 C 
ATOM     12  C   UNL     1       9.401 -18.476   8.075  1.00  0.00     0.004 C 
ENDBRANCH  10  11
ENDBRANCH   9  10
ENDBRANCH   8   9
ENDBRANCH   7   8
ENDBRANCH   6   7
ENDBRANCH   5   6
ENDBRANCH   4   5
ENDBRANCH   3   4
ENDBRANCH   2   3
ENDBRANCH   1   2
BRANCH   1  13
ATOM     13  C   UNL     1       7.876 -19.074   3.401  1.00  0.00     0.000 C 
BRANCH  13  14
ATOM     14  C   UNL     1       8.139 -19.697   4.783  1.00  0.00     0.000 C 
BRANCH  14  15
ATOM     15  C   UNL     1       6.910 -19.785   5.712  1.00  0.00     0.000 C 
BRANCH  15  16
ATOM     16  C   UNL     1       5.562 -19.982   4.995  1.00  0.00     0.000 C 
BRANCH  16  17
ATOM     17  C   UNL     1       4.362 -19.586   5.867  1.00  0.00     0.000 C 
BRANCH  17  18
ATOM     18  C   UNL     1       3.080 -19.489   5.030  1.00  0.00     0.000 C 
BRANCH  18  19
ATOM     19  C   UNL     1       2.857 -18.070   4.464  1.00  0.00     0.000 C 
BRANCH  19  20
ATOM     20  C   UNL     1       2.597 -18.046   2.946  1.00  0.00     0.006 C 
BRANCH  20  21
ATOM     21  C   UNL     1       3.755 -18.597   2.100  1.00  0.00     0.053 C 
BRANCH  21  22
ATOM     22  C   UNL     1       3.325 -19.735   1.224  1.00  0.00     0.041 C 
ATOM     23  O   UNL     1       2.537 -20.613   1.667  1.00  0.00    -0.550 OA
ATOM     24  O   UNL     1       3.802 -19.834  -0.077  1.00  0.00    -0.550 OA
ENDBRANCH  21  22
ENDBRANCH  20  21
ENDBRANCH  19  20
ENDBRANCH  18  19
ENDBRANCH  17  18
ENDBRANCH  16  17
ENDBRANCH  15  16
ENDBRANCH  14  15
ENDBRANCH  13  14
ENDBRANCH   1  13
TORSDOF 20
ENDMDL
