MODEL 1
REMARK VINA RESULT:    -2.511      0.000      0.000
REMARK INTER + INTRA:         -11.613
REMARK INTER:                  -6.621
REMARK INTRA:                  -4.993
REMARK UNBOUND:                -4.993
REMARK SMILES CCCCCCCCCCCCCCCCCCCCCCCCCCCCCC(=O)[O-]
REMARK SMILES IDX 16 1 17 2 18 3 19 4 20 5 21 6 22 7 23 8 24 9 25 10 26 11
REMARK SMILES IDX 27 12 28 13 29 14 30 15 31 16 32 17 15 18 14 19 13 20 12 21
REMARK SMILES IDX 11 22 10 23 9 24 8 25 7 26 6 27 5 28 4 29 3 30 2 31 1 32
REMARK H PARENT
REMARK Flexibility Score: inf
ROOT
ATOM      1  C   UNL     1      77.816  90.718  77.578  1.00  0.00     0.000 C 
ENDROOT
BRANCH   1   2
ATOM      2  C   UNL     1      77.152  90.466  76.211  1.00  0.00     0.000 C 
BRANCH   2   3
ATOM      3  C   UNL     1      75.627  90.676  76.179  1.00  0.00     0.000 C 
BRANCH   3   4
ATOM      4  C   UNL     1      75.168  91.767  75.190  1.00  0.00     0.000 C 
BRANCH   4   5
ATOM      5  C   UNL     1      75.261  91.315  73.724  1.00  0.00     0.000 C 
BRANCH   5   6
ATOM      6  C   UNL     1      74.040  90.496  73.268  1.00  0.00     0.000 C 
BRANCH   6   7
ATOM      7  C   UNL     1      74.379  89.040  72.883  1.00  0.00     0.000 C 
BRANCH   7   8
ATOM      8  C   UNL     1      75.885  88.749  72.971  1.00  0.00     0.000 C 
BRANCH   8   9
ATOM      9  C   UNL     1      76.140  87.286  73.363  1.00  0.00     0.000 C 
BRANCH   9  10
ATOM     10  C   UNL     1      76.777  87.152  74.756  1.00  0.00     0.000 C 
BRANCH  10  11
ATOM     11  C   UNL     1      75.726  86.951  75.863  1.00  0.00     0.000 C 
BRANCH  11  12
ATOM     12  C   UNL     1      74.469  86.221  75.362  1.00  0.00     0.000 C 
BRANCH  12  13
ATOM     13  C   UNL     1      74.085  85.023  76.244  1.00  0.00     0.006 C 
BRANCH  13  14
ATOM     14  C   UNL     1      75.317  84.179  76.585  1.00  0.00     0.053 C 
BRANCH  14  15
ATOM     15  C   UNL     1      75.395  82.964  75.713  1.00  0.00     0.041 C 
ATOM     16  O   UNL     1      76.514  82.517  75.345  1.00  0.00    -0.550 OA
ATOM     17  O   UNL     1      74.229  82.331  75.292  1.00  0.00    -0.550 OA
ENDBRANCH  14  15
ENDBRANCH  13  14
ENDBRANCH  12  13
ENDBRANCH  11  12
ENDBRANCH  10  11
ENDBRANCH   9  10
ENDBRANCH   8   9
ENDBRANCH   7   8
ENDBRANCH   6   7
ENDBRANCH   5   6
ENDBRANCH   4   5
ENDBRANCH   3   4
ENDBRANCH   2   3
ENDBRANCH   1   2
BRANCH   1  18
ATOM     18  C   UNL     1      77.003  90.244  78.802  1.00  0.00     0.000 C 
BRANCH  18  19
ATOM     19  C   UNL     1      76.690  91.339  79.839  1.00  0.00     0.000 C 
BRANCH  19  20
ATOM     20  C   UNL     1      75.337  92.031  79.593  1.00  0.00     0.000 C 
BRANCH  20  21
ATOM     21  C   UNL     1      74.140  91.072  79.743  1.00  0.00     0.000 C 
BRANCH  21  22
ATOM     22  C   UNL     1      73.053  91.548  80.729  1.00  0.00     0.000 C 
BRANCH  22  23
ATOM     23  C   UNL     1      71.930  90.521  80.983  1.00  0.00     0.000 C 
BRANCH  23  24
ATOM     24  C   UNL     1      72.080  89.726  82.297  1.00  0.00    -0.000 C 
BRANCH  24  25
ATOM     25  C   UNL     1      72.229  88.206  82.073  1.00  0.00    -0.000 C 
BRANCH  25  26
ATOM     26  C   UNL     1      73.662  87.809  81.688  1.00  0.00    -0.000 C 
BRANCH  26  27
ATOM     27  C   UNL     1      73.672  86.962  80.406  1.00  0.00    -0.000 C 
BRANCH  27  28
ATOM     28  C   UNL     1      74.873  87.297  79.496  1.00  0.00    -0.000 C 
BRANCH  28  29
ATOM     29  C   UNL     1      76.010  86.261  79.580  1.00  0.00    -0.000 C 
BRANCH  29  30
ATOM     30  C   UNL     1      77.383  86.853  79.949  1.00  0.00    -0.000 C 
BRANCH  30  31
ATOM     31  C   UNL     1      77.369  87.578  81.304  1.00  0.00    -0.003 C 
ATOM     32  C   UNL     1      78.729  88.200  81.602  1.00  0.00     0.004 C 
ENDBRANCH  30  31
ENDBRANCH  29  30
ENDBRANCH  28  29
ENDBRANCH  27  28
ENDBRANCH  26  27
ENDBRANCH  25  26
ENDBRANCH  24  25
ENDBRANCH  23  24
ENDBRANCH  22  23
ENDBRANCH  21  22
ENDBRANCH  20  21
ENDBRANCH  19  20
ENDBRANCH  18  19
ENDBRANCH   1  18
TORSDOF 28
ENDMDL
MODEL 2
REMARK VINA RESULT:    -2.393      9.825     12.762
REMARK INTER + INTRA:         -11.304
REMARK INTER:                  -5.065
REMARK INTRA:                  -6.239
REMARK UNBOUND:                -4.993
REMARK SMILES CCCCCCCCCCCCCCCCCCCCCCCCCCCCCC(=O)[O-]
REMARK SMILES IDX 16 1 17 2 18 3 19 4 20 5 21 6 22 7 23 8 24 9 25 10 26 11
REMARK SMILES IDX 27 12 28 13 29 14 30 15 31 16 32 17 15 18 14 19 13 20 12 21
REMARK SMILES IDX 11 22 10 23 9 24 8 25 7 26 6 27 5 28 4 29 3 30 2 31 1 32
REMARK H PARENT
REMARK Flexibility Score: inf
ROOT
ATOM      1  C   UNL     1      87.364  88.528  79.021  1.00  0.00     0.000 C 
ENDROOT
BRANCH   1   2
ATOM      2  C   UNL     1      86.370  88.553  77.843  1.00  0.00     0.000 C 
BRANCH   2   3
ATOM      3  C   UNL     1      85.077  89.349  78.099  1.00  0.00     0.000 C 
BRANCH   3   4
ATOM      4  C   UNL     1      85.054  90.736  77.424  1.00  0.00     0.000 C 
BRANCH   4   5
ATOM      5  C   UNL     1      83.920  90.874  76.395  1.00  0.00     0.000 C 
BRANCH   5   6
ATOM      6  C   UNL     1      84.433  91.023  74.952  1.00  0.00     0.000 C 
BRANCH   6   7
ATOM      7  C   UNL     1      84.159  89.788  74.067  1.00  0.00     0.000 C 
BRANCH   7   8
ATOM      8  C   UNL     1      85.152  88.646  74.335  1.00  0.00     0.000 C 
BRANCH   8   9
ATOM      9  C   UNL     1      84.426  87.295  74.421  1.00  0.00     0.000 C 
BRANCH   9  10
ATOM     10  C   UNL     1      83.344  87.277  75.513  1.00  0.00     0.000 C 
BRANCH  10  11
ATOM     11  C   UNL     1      83.399  86.000  76.370  1.00  0.00     0.000 C 
BRANCH  11  12
ATOM     12  C   UNL     1      84.807  85.386  76.429  1.00  0.00     0.000 C 
BRANCH  12  13
ATOM     13  C   UNL     1      85.279  85.118  77.867  1.00  0.00     0.006 C 
BRANCH  13  14
ATOM     14  C   UNL     1      84.176  85.454  78.875  1.00  0.00     0.053 C 
BRANCH  14  15
ATOM     15  C   UNL     1      84.748  86.077  80.111  1.00  0.00     0.041 C 
ATOM     16  O   UNL     1      84.153  87.036  80.671  1.00  0.00    -0.550 OA
ATOM     17  O   UNL     1      85.947  85.609  80.638  1.00  0.00    -0.550 OA
ENDBRANCH  14  15
ENDBRANCH  13  14
ENDBRANCH  12  13
ENDBRANCH  11  12
ENDBRANCH  10  11
ENDBRANCH   9  10
ENDBRANCH   8   9
ENDBRANCH   7   8
ENDBRANCH   6   7
ENDBRANCH   5   6
ENDBRANCH   4   5
ENDBRANCH   3   4
ENDBRANCH   2   3
ENDBRANCH   1   2
BRANCH   1  18
ATOM     18  C   UNL     1      88.053  89.875  79.330  1.00  0.00     0.000 C 
BRANCH  18  19
ATOM     19  C   UNL     1      89.534  89.958  78.914  1.00  0.00     0.000 C 
BRANCH  19  20
ATOM     20  C   UNL     1      90.133  88.587  78.548  1.00  0.00     0.000 C 
BRANCH  20  21
ATOM     21  C   UNL     1      91.508  88.343  79.198  1.00  0.00     0.000 C 
BRANCH  21  22
ATOM     22  C   UNL     1      91.526  87.231  80.268  1.00  0.00     0.000 C 
BRANCH  22  23
ATOM     23  C   UNL     1      90.301  87.231  81.206  1.00  0.00     0.000 C 
BRANCH  23  24
ATOM     24  C   UNL     1      89.453  85.944  81.144  1.00  0.00    -0.000 C 
BRANCH  24  25
ATOM     25  C   UNL     1      89.844  85.015  79.975  1.00  0.00    -0.000 C 
BRANCH  25  26
ATOM     26  C   UNL     1      88.878  85.131  78.787  1.00  0.00    -0.000 C 
BRANCH  26  27
ATOM     27  C   UNL     1      89.185  84.068  77.722  1.00  0.00    -0.000 C 
BRANCH  27  28
ATOM     28  C   UNL     1      89.313  84.677  76.309  1.00  0.00    -0.000 C 
BRANCH  28  29
ATOM     29  C   UNL     1      88.712  86.091  76.197  1.00  0.00    -0.000 C 
BRANCH  29  30
ATOM     30  C   UNL     1      88.051  86.394  74.840  1.00  0.00    -0.000 C 
BRANCH  30  31
ATOM     31  C   UNL     1      88.238  85.257  73.824  1.00  0.00    -0.003 C 
ATOM     32  C   UNL     1      86.894  84.646  73.437  1.00  0.00     0.004 C 
ENDBRANCH  30  31
ENDBRANCH  29  30
ENDBRANCH  28  29
ENDBRANCH  27  28
ENDBRANCH  26  27
ENDBRANCH  25  26
ENDBRANCH  24  25
ENDBRANCH  23  24
ENDBRANCH  22  23
ENDBRANCH  21  22
ENDBRANCH  20  21
ENDBRANCH  19  20
ENDBRANCH  18  19
ENDBRANCH   1  18
TORSDOF 28
ENDMDL
MODEL 3
REMARK VINA RESULT:    -2.319      8.676     13.099
REMARK INTER + INTRA:         -11.108
REMARK INTER:                  -5.475
REMARK INTRA:                  -5.633
REMARK UNBOUND:                -4.993
REMARK SMILES CCCCCCCCCCCCCCCCCCCCCCCCCCCCCC(=O)[O-]
REMARK SMILES IDX 16 1 17 2 18 3 19 4 20 5 21 6 22 7 23 8 24 9 25 10 26 11
REMARK SMILES IDX 27 12 28 13 29 14 30 15 31 16 32 17 15 18 14 19 13 20 12 21
REMARK SMILES IDX 11 22 10 23 9 24 8 25 7 26 6 27 5 28 4 29 3 30 2 31 1 32
REMARK H PARENT
REMARK Flexibility Score: inf
ROOT
ATOM      1  C   UNL     1      78.713  76.254  77.322  1.00  0.00     0.000 C 
ENDROOT
BRANCH   1   2
ATOM      2  C   UNL     1      79.053  75.758  75.903  1.00  0.00     0.000 C 
BRANCH   2   3
ATOM      3  C   UNL     1      78.681  76.730  74.768  1.00  0.00     0.000 C 
BRANCH   3   4
ATOM      4  C   UNL     1      77.790  76.102  73.676  1.00  0.00     0.000 C 
BRANCH   4   5
ATOM      5  C   UNL     1      76.290  76.255  73.976  1.00  0.00     0.000 C 
BRANCH   5   6
ATOM      6  C   UNL     1      75.897  77.691  74.362  1.00  0.00     0.000 C 
BRANCH   6   7
ATOM      7  C   UNL     1      74.994  78.387  73.321  1.00  0.00     0.000 C 
BRANCH   7   8
ATOM      8  C   UNL     1      73.561  77.834  73.330  1.00  0.00     0.000 C 
BRANCH   8   9
ATOM      9  C   UNL     1      72.545  78.944  73.641  1.00  0.00     0.000 C 
BRANCH   9  10
ATOM     10  C   UNL     1      72.018  78.873  75.083  1.00  0.00     0.000 C 
BRANCH  10  11
ATOM     11  C   UNL     1      72.217  77.483  75.711  1.00  0.00     0.000 C 
BRANCH  11  12
ATOM     12  C   UNL     1      73.235  77.492  76.863  1.00  0.00     0.000 C 
BRANCH  12  13
ATOM     13  C   UNL     1      73.393  78.878  77.506  1.00  0.00     0.006 C 
BRANCH  13  14
ATOM     14  C   UNL     1      74.860  79.318  77.501  1.00  0.00     0.053 C 
BRANCH  14  15
ATOM     15  C   UNL     1      74.991  80.750  77.084  1.00  0.00     0.041 C 
ATOM     16  O   UNL     1      74.024  81.545  77.230  1.00  0.00    -0.550 OA
ATOM     17  O   UNL     1      76.177  81.208  76.518  1.00  0.00    -0.550 OA
ENDBRANCH  14  15
ENDBRANCH  13  14
ENDBRANCH  12  13
ENDBRANCH  11  12
ENDBRANCH  10  11
ENDBRANCH   9  10
ENDBRANCH   8   9
ENDBRANCH   7   8
ENDBRANCH   6   7
ENDBRANCH   5   6
ENDBRANCH   4   5
ENDBRANCH   3   4
ENDBRANCH   2   3
ENDBRANCH   1   2
BRANCH   1  18
ATOM     18  C   UNL     1      77.207  76.425  77.616  1.00  0.00     0.000 C 
BRANCH  18  19
ATOM     19  C   UNL     1      76.386  75.122  77.584  1.00  0.00     0.000 C 
BRANCH  19  20
ATOM     20  C   UNL     1      77.001  74.004  78.446  1.00  0.00     0.000 C 
BRANCH  20  21
ATOM     21  C   UNL     1      76.741  74.199  79.953  1.00  0.00     0.000 C 
BRANCH  21  22
ATOM     22  C   UNL     1      76.211  72.947  80.682  1.00  0.00     0.000 C 
BRANCH  22  23
ATOM     23  C   UNL     1      75.442  71.962  79.778  1.00  0.00     0.000 C 
BRANCH  23  24
ATOM     24  C   UNL     1      73.918  72.195  79.734  1.00  0.00    -0.000 C 
BRANCH  24  25
ATOM     25  C   UNL     1      73.426  72.735  78.374  1.00  0.00    -0.000 C 
BRANCH  25  26
ATOM     26  C   UNL     1      72.992  74.206  78.450  1.00  0.00    -0.000 C 
BRANCH  26  27
ATOM     27  C   UNL     1      72.808  74.650  79.909  1.00  0.00    -0.000 C 
BRANCH  27  28
ATOM     28  C   UNL     1      73.532  75.980  80.210  1.00  0.00    -0.000 C 
BRANCH  28  29
ATOM     29  C   UNL     1      74.164  76.027  81.613  1.00  0.00    -0.000 C 
BRANCH  29  30
ATOM     30  C   UNL     1      73.581  75.006  82.608  1.00  0.00    -0.000 C 
BRANCH  30  31
ATOM     31  C   UNL     1      74.610  74.541  83.649  1.00  0.00    -0.003 C 
ATOM     32  C   UNL     1      74.052  74.675  85.063  1.00  0.00     0.004 C 
ENDBRANCH  30  31
ENDBRANCH  29  30
ENDBRANCH  28  29
ENDBRANCH  27  28
ENDBRANCH  26  27
ENDBRANCH  25  26
ENDBRANCH  24  25
ENDBRANCH  23  24
ENDBRANCH  22  23
ENDBRANCH  21  22
ENDBRANCH  20  21
ENDBRANCH  19  20
ENDBRANCH  18  19
ENDBRANCH   1  18
TORSDOF 28
ENDMDL
MODEL 4
REMARK VINA RESULT:    -2.293      8.813     12.717
REMARK INTER + INTRA:         -11.038
REMARK INTER:                  -5.244
REMARK INTRA:                  -5.795
REMARK UNBOUND:                -4.993
REMARK SMILES CCCCCCCCCCCCCCCCCCCCCCCCCCCCCC(=O)[O-]
REMARK SMILES IDX 16 1 17 2 18 3 19 4 20 5 21 6 22 7 23 8 24 9 25 10 26 11
REMARK SMILES IDX 27 12 28 13 29 14 30 15 31 16 32 17 15 18 14 19 13 20 12 21
REMARK SMILES IDX 11 22 10 23 9 24 8 25 7 26 6 27 5 28 4 29 3 30 2 31 1 32
REMARK H PARENT
REMARK Flexibility Score: inf
ROOT
ATOM      1  C   UNL     1      76.090  77.825  75.784  1.00  0.00     0.000 C 
ENDROOT
BRANCH   1   2
ATOM      2  C   UNL     1      76.275  76.296  75.821  1.00  0.00     0.000 C 
BRANCH   2   3
ATOM      3  C   UNL     1      77.365  75.795  76.788  1.00  0.00     0.000 C 
BRANCH   3   4
ATOM      4  C   UNL     1      77.157  74.343  77.264  1.00  0.00     0.000 C 
BRANCH   4   5
ATOM      5  C   UNL     1      75.672  73.952  77.341  1.00  0.00     0.000 C 
BRANCH   5   6
ATOM      6  C   UNL     1      75.031  74.289  78.699  1.00  0.00     0.000 C 
BRANCH   6   7
ATOM      7  C   UNL     1      73.939  75.377  78.615  1.00  0.00     0.000 C 
BRANCH   7   8
ATOM      8  C   UNL     1      72.540  74.825  78.931  1.00  0.00     0.000 C 
BRANCH   8   9
ATOM      9  C   UNL     1      71.935  75.529  80.154  1.00  0.00     0.000 C 
BRANCH   9  10
ATOM     10  C   UNL     1      72.570  76.905  80.417  1.00  0.00     0.000 C 
BRANCH  10  11
ATOM     11  C   UNL     1      72.663  77.229  81.918  1.00  0.00     0.000 C 
BRANCH  11  12
ATOM     12  C   UNL     1      72.135  76.090  82.805  1.00  0.00     0.000 C 
BRANCH  12  13
ATOM     13  C   UNL     1      73.255  75.358  83.561  1.00  0.00     0.006 C 
BRANCH  13  14
ATOM     14  C   UNL     1      73.116  73.840  83.405  1.00  0.00     0.053 C 
BRANCH  14  15
ATOM     15  C   UNL     1      73.993  73.330  82.304  1.00  0.00     0.041 C 
ATOM     16  O   UNL     1      75.190  73.714  82.216  1.00  0.00    -0.550 OA
ATOM     17  O   UNL     1      73.486  72.441  81.362  1.00  0.00    -0.550 OA
ENDBRANCH  14  15
ENDBRANCH  13  14
ENDBRANCH  12  13
ENDBRANCH  11  12
ENDBRANCH  10  11
ENDBRANCH   9  10
ENDBRANCH   8   9
ENDBRANCH   7   8
ENDBRANCH   6   7
ENDBRANCH   5   6
ENDBRANCH   4   5
ENDBRANCH   3   4
ENDBRANCH   2   3
ENDBRANCH   1   2
BRANCH   1  18
ATOM     18  C   UNL     1      77.017  78.576  74.804  1.00  0.00     0.000 C 
BRANCH  18  19
ATOM     19  C   UNL     1      76.454  79.904  74.263  1.00  0.00     0.000 C 
BRANCH  19  20
ATOM     20  C   UNL     1      75.286  80.448  75.107  1.00  0.00     0.000 C 
BRANCH  20  21
ATOM     21  C   UNL     1      74.021  80.722  74.270  1.00  0.00     0.000 C 
BRANCH  21  22
ATOM     22  C   UNL     1      73.775  79.715  73.127  1.00  0.00     0.000 C 
BRANCH  22  23
ATOM     23  C   UNL     1      73.068  78.415  73.566  1.00  0.00     0.000 C 
BRANCH  23  24
ATOM     24  C   UNL     1      72.099  78.588  74.754  1.00  0.00    -0.000 C 
BRANCH  24  25
ATOM     25  C   UNL     1      72.431  77.666  75.947  1.00  0.00    -0.000 C 
BRANCH  25  26
ATOM     26  C   UNL     1      72.241  78.369  77.299  1.00  0.00    -0.000 C 
BRANCH  26  27
ATOM     27  C   UNL     1      71.875  79.847  77.104  1.00  0.00    -0.000 C 
BRANCH  27  28
ATOM     28  C   UNL     1      72.851  80.792  77.839  1.00  0.00    -0.000 C 
BRANCH  28  29
ATOM     29  C   UNL     1      73.268  80.276  79.230  1.00  0.00    -0.000 C 
BRANCH  29  30
ATOM     30  C   UNL     1      74.725  80.592  79.614  1.00  0.00    -0.000 C 
BRANCH  30  31
ATOM     31  C   UNL     1      75.740  79.760  78.815  1.00  0.00    -0.003 C 
ATOM     32  C   UNL     1      75.905  78.371  79.425  1.00  0.00     0.004 C 
ENDBRANCH  30  31
ENDBRANCH  29  30
ENDBRANCH  28  29
ENDBRANCH  27  28
ENDBRANCH  26  27
ENDBRANCH  25  26
ENDBRANCH  24  25
ENDBRANCH  23  24
ENDBRANCH  22  23
ENDBRANCH  21  22
ENDBRANCH  20  21
ENDBRANCH  19  20
ENDBRANCH  18  19
ENDBRANCH   1  18
TORSDOF 28
ENDMDL
MODEL 5
REMARK VINA RESULT:    -2.292      6.505     12.155
REMARK INTER + INTRA:         -11.037
REMARK INTER:                  -5.056
REMARK INTRA:                  -5.982
REMARK UNBOUND:                -4.993
REMARK SMILES CCCCCCCCCCCCCCCCCCCCCCCCCCCCCC(=O)[O-]
REMARK SMILES IDX 16 1 17 2 18 3 19 4 20 5 21 6 22 7 23 8 24 9 25 10 26 11
REMARK SMILES IDX 27 12 28 13 29 14 30 15 31 16 32 17 15 18 14 19 13 20 12 21
REMARK SMILES IDX 11 22 10 23 9 24 8 25 7 26 6 27 5 28 4 29 3 30 2 31 1 32
REMARK H PARENT
REMARK Flexibility Score: inf
ROOT
ATOM      1  C   UNL     1      72.418  78.357  78.306  1.00  0.00     0.000 C 
ENDROOT
BRANCH   1   2
ATOM      2  C   UNL     1      71.958  76.932  78.668  1.00  0.00     0.000 C 
BRANCH   2   3
ATOM      3  C   UNL     1      71.936  76.620  80.176  1.00  0.00     0.000 C 
BRANCH   3   4
ATOM      4  C   UNL     1      73.333  76.613  80.833  1.00  0.00     0.000 C 
BRANCH   4   5
ATOM      5  C   UNL     1      73.702  75.244  81.426  1.00  0.00     0.000 C 
BRANCH   5   6
ATOM      6  C   UNL     1      72.751  74.119  80.979  1.00  0.00     0.000 C 
BRANCH   6   7
ATOM      7  C   UNL     1      73.387  73.132  79.977  1.00  0.00     0.000 C 
BRANCH   7   8
ATOM      8  C   UNL     1      74.879  73.417  79.744  1.00  0.00     0.000 C 
BRANCH   8   9
ATOM      9  C   UNL     1      75.172  73.621  78.251  1.00  0.00     0.000 C 
BRANCH   9  10
ATOM     10  C   UNL     1      74.843  75.045  77.773  1.00  0.00     0.000 C 
BRANCH  10  11
ATOM     11  C   UNL     1      75.942  76.056  78.145  1.00  0.00     0.000 C 
BRANCH  11  12
ATOM     12  C   UNL     1      75.845  77.361  77.338  1.00  0.00     0.000 C 
BRANCH  12  13
ATOM     13  C   UNL     1      75.639  77.117  75.835  1.00  0.00     0.006 C 
BRANCH  13  14
ATOM     14  C   UNL     1      76.977  77.142  75.089  1.00  0.00     0.053 C 
BRANCH  14  15
ATOM     15  C   UNL     1      77.259  75.820  74.445  1.00  0.00     0.041 C 
ATOM     16  O   UNL     1      76.725  74.770  74.890  1.00  0.00    -0.550 OA
ATOM     17  O   UNL     1      78.126  75.744  73.360  1.00  0.00    -0.550 OA
ENDBRANCH  14  15
ENDBRANCH  13  14
ENDBRANCH  12  13
ENDBRANCH  11  12
ENDBRANCH  10  11
ENDBRANCH   9  10
ENDBRANCH   8   9
ENDBRANCH   7   8
ENDBRANCH   6   7
ENDBRANCH   5   6
ENDBRANCH   4   5
ENDBRANCH   3   4
ENDBRANCH   2   3
ENDBRANCH   1   2
BRANCH   1  18
ATOM     18  C   UNL     1      72.340  78.712  76.805  1.00  0.00     0.000 C 
BRANCH  18  19
ATOM     19  C   UNL     1      72.097  77.516  75.865  1.00  0.00     0.000 C 
BRANCH  19  20
ATOM     20  C   UNL     1      72.293  77.870  74.379  1.00  0.00     0.000 C 
BRANCH  20  21
ATOM     21  C   UNL     1      72.571  79.370  74.154  1.00  0.00     0.000 C 
BRANCH  21  22
ATOM     22  C   UNL     1      73.924  79.680  73.482  1.00  0.00     0.000 C 
BRANCH  22  23
ATOM     23  C   UNL     1      74.630  80.939  74.026  1.00  0.00     0.000 C 
BRANCH  23  24
ATOM     24  C   UNL     1      76.141  80.760  74.284  1.00  0.00    -0.000 C 
BRANCH  24  25
ATOM     25  C   UNL     1      76.507  80.780  75.784  1.00  0.00    -0.000 C 
BRANCH  25  26
ATOM     26  C   UNL     1      75.277  80.976  76.683  1.00  0.00    -0.000 C 
BRANCH  26  27
ATOM     27  C   UNL     1      75.632  81.806  77.926  1.00  0.00    -0.000 C 
BRANCH  27  28
ATOM     28  C   UNL     1      75.241  83.291  77.765  1.00  0.00    -0.000 C 
BRANCH  28  29
ATOM     29  C   UNL     1      74.148  83.524  76.704  1.00  0.00    -0.000 C 
BRANCH  29  30
ATOM     30  C   UNL     1      74.521  84.554  75.623  1.00  0.00    -0.000 C 
BRANCH  30  31
ATOM     31  C   UNL     1      75.994  84.456  75.197  1.00  0.00    -0.003 C 
ATOM     32  C   UNL     1      76.122  84.438  73.677  1.00  0.00     0.004 C 
ENDBRANCH  30  31
ENDBRANCH  29  30
ENDBRANCH  28  29
ENDBRANCH  27  28
ENDBRANCH  26  27
ENDBRANCH  25  26
ENDBRANCH  24  25
ENDBRANCH  23  24
ENDBRANCH  22  23
ENDBRANCH  21  22
ENDBRANCH  20  21
ENDBRANCH  19  20
ENDBRANCH  18  19
ENDBRANCH   1  18
TORSDOF 28
ENDMDL
MODEL 6
REMARK VINA RESULT:    -2.288      9.327     12.599
REMARK INTER + INTRA:         -11.025
REMARK INTER:                  -4.988
REMARK INTRA:                  -6.036
REMARK UNBOUND:                -4.993
REMARK SMILES CCCCCCCCCCCCCCCCCCCCCCCCCCCCCC(=O)[O-]
REMARK SMILES IDX 16 1 17 2 18 3 19 4 20 5 21 6 22 7 23 8 24 9 25 10 26 11
REMARK SMILES IDX 27 12 28 13 29 14 30 15 31 16 32 17 15 18 14 19 13 20 12 21
REMARK SMILES IDX 11 22 10 23 9 24 8 25 7 26 6 27 5 28 4 29 3 30 2 31 1 32
REMARK H PARENT
REMARK Flexibility Score: inf
ROOT
ATOM      1  C   UNL     1      86.741  88.074  81.572  1.00  0.00     0.000 C 
ENDROOT
BRANCH   1   2
ATOM      2  C   UNL     1      88.040  88.722  82.087  1.00  0.00     0.000 C 
BRANCH   2   3
ATOM      3  C   UNL     1      89.309  87.868  81.908  1.00  0.00     0.000 C 
BRANCH   3   4
ATOM      4  C   UNL     1      90.368  88.511  80.988  1.00  0.00     0.000 C 
BRANCH   4   5
ATOM      5  C   UNL     1      89.885  89.826  80.356  1.00  0.00     0.000 C 
BRANCH   5   6
ATOM      6  C   UNL     1      89.565  89.690  78.857  1.00  0.00     0.000 C 
BRANCH   6   7
ATOM      7  C   UNL     1      90.414  88.621  78.137  1.00  0.00     0.000 C 
BRANCH   7   8
ATOM      8  C   UNL     1      89.549  87.604  77.376  1.00  0.00     0.000 C 
BRANCH   8   9
ATOM      9  C   UNL     1      88.236  87.331  78.124  1.00  0.00     0.000 C 
BRANCH   9  10
ATOM     10  C   UNL     1      88.253  85.990  78.877  1.00  0.00     0.000 C 
BRANCH  10  11
ATOM     11  C   UNL     1      86.929  85.221  78.733  1.00  0.00     0.000 C 
BRANCH  11  12
ATOM     12  C   UNL     1      86.737  84.627  77.328  1.00  0.00     0.000 C 
BRANCH  12  13
ATOM     13  C   UNL     1      88.006  83.945  76.793  1.00  0.00     0.006 C 
BRANCH  13  14
ATOM     14  C   UNL     1      87.854  83.599  75.308  1.00  0.00     0.053 C 
BRANCH  14  15
ATOM     15  C   UNL     1      87.801  84.838  74.469  1.00  0.00     0.041 C 
ATOM     16  O   UNL     1      86.891  84.985  73.610  1.00  0.00    -0.550 OA
ATOM     17  O   UNL     1      88.767  85.827  74.623  1.00  0.00    -0.550 OA
ENDBRANCH  14  15
ENDBRANCH  13  14
ENDBRANCH  12  13
ENDBRANCH  11  12
ENDBRANCH  10  11
ENDBRANCH   9  10
ENDBRANCH   8   9
ENDBRANCH   7   8
ENDBRANCH   6   7
ENDBRANCH   5   6
ENDBRANCH   4   5
ENDBRANCH   3   4
ENDBRANCH   2   3
ENDBRANCH   1   2
BRANCH   1  18
ATOM     18  C   UNL     1      86.029  88.839  80.435  1.00  0.00     0.000 C 
BRANCH  18  19
ATOM     19  C   UNL     1      85.622  90.285  80.779  1.00  0.00     0.000 C 
BRANCH  19  20
ATOM     20  C   UNL     1      86.456  91.339  80.027  1.00  0.00     0.000 C 
BRANCH  20  21
ATOM     21  C   UNL     1      86.276  91.263  78.498  1.00  0.00     0.000 C 
BRANCH  21  22
ATOM     22  C   UNL     1      84.817  91.390  78.015  1.00  0.00     0.000 C 
BRANCH  22  23
ATOM     23  C   UNL     1      84.646  91.326  76.483  1.00  0.00     0.000 C 
BRANCH  23  24
ATOM     24  C   UNL     1      83.191  91.127  76.012  1.00  0.00    -0.000 C 
BRANCH  24  25
ATOM     25  C   UNL     1      83.033  91.201  74.478  1.00  0.00    -0.000 C 
BRANCH  25  26
ATOM     26  C   UNL     1      84.150  90.449  73.739  1.00  0.00    -0.000 C 
BRANCH  26  27
ATOM     27  C   UNL     1      84.004  88.931  73.920  1.00  0.00    -0.000 C 
BRANCH  27  28
ATOM     28  C   UNL     1      85.293  88.283  74.471  1.00  0.00    -0.000 C 
BRANCH  28  29
ATOM     29  C   UNL     1      85.027  87.227  75.560  1.00  0.00    -0.000 C 
BRANCH  29  30
ATOM     30  C   UNL     1      84.756  87.811  76.959  1.00  0.00    -0.000 C 
BRANCH  30  31
ATOM     31  C   UNL     1      83.424  87.328  77.553  1.00  0.00    -0.003 C 
ATOM     32  C   UNL     1      82.890  88.326  78.576  1.00  0.00     0.004 C 
ENDBRANCH  30  31
ENDBRANCH  29  30
ENDBRANCH  28  29
ENDBRANCH  27  28
ENDBRANCH  26  27
ENDBRANCH  25  26
ENDBRANCH  24  25
ENDBRANCH  23  24
ENDBRANCH  22  23
ENDBRANCH  21  22
ENDBRANCH  20  21
ENDBRANCH  19  20
ENDBRANCH  18  19
ENDBRANCH   1  18
TORSDOF 28
ENDMDL
MODEL 7
REMARK VINA RESULT:    -2.276     16.084     19.365
REMARK INTER + INTRA:         -10.993
REMARK INTER:                  -4.929
REMARK INTRA:                  -6.064
REMARK UNBOUND:                -4.993
REMARK SMILES CCCCCCCCCCCCCCCCCCCCCCCCCCCCCC(=O)[O-]
REMARK SMILES IDX 16 1 17 2 18 3 19 4 20 5 21 6 22 7 23 8 24 9 25 10 26 11
REMARK SMILES IDX 27 12 28 13 29 14 30 15 31 16 32 17 15 18 14 19 13 20 12 21
REMARK SMILES IDX 11 22 10 23 9 24 8 25 7 26 6 27 5 28 4 29 3 30 2 31 1 32
REMARK H PARENT
REMARK Flexibility Score: inf
ROOT
ATOM      1  C   UNL     1      91.077  87.129  88.689  1.00  0.00     0.000 C 
ENDROOT
BRANCH   1   2
ATOM      2  C   UNL     1      89.634  87.587  88.977  1.00  0.00     0.000 C 
BRANCH   2   3
ATOM      3  C   UNL     1      89.399  88.142  90.395  1.00  0.00     0.000 C 
BRANCH   3   4
ATOM      4  C   UNL     1      90.654  88.115  91.292  1.00  0.00     0.000 C 
BRANCH   4   5
ATOM      5  C   UNL     1      90.361  87.582  92.704  1.00  0.00     0.000 C 
BRANCH   5   6
ATOM      6  C   UNL     1      91.215  86.357  93.073  1.00  0.00     0.000 C 
BRANCH   6   7
ATOM      7  C   UNL     1      91.644  85.512  91.854  1.00  0.00     0.000 C 
BRANCH   7   8
ATOM      8  C   UNL     1      91.527  84.003  92.121  1.00  0.00     0.000 C 
BRANCH   8   9
ATOM      9  C   UNL     1      90.073  83.531  91.977  1.00  0.00     0.000 C 
BRANCH   9  10
ATOM     10  C   UNL     1      89.291  84.342  90.929  1.00  0.00     0.000 C 
BRANCH  10  11
ATOM     11  C   UNL     1      87.950  84.863  91.474  1.00  0.00     0.000 C 
BRANCH  11  12
ATOM     12  C   UNL     1      86.808  84.744  90.452  1.00  0.00     0.000 C 
BRANCH  12  13
ATOM     13  C   UNL     1      86.170  86.101  90.112  1.00  0.00     0.006 C 
BRANCH  13  14
ATOM     14  C   UNL     1      86.158  87.020  91.338  1.00  0.00     0.053 C 
BRANCH  14  15
ATOM     15  C   UNL     1      84.757  87.359  91.742  1.00  0.00     0.041 C 
ATOM     16  O   UNL     1      83.780  86.797  91.178  1.00  0.00    -0.550 OA
ATOM     17  O   UNL     1      84.526  88.308  92.733  1.00  0.00    -0.550 OA
ENDBRANCH  14  15
ENDBRANCH  13  14
ENDBRANCH  12  13
ENDBRANCH  11  12
ENDBRANCH  10  11
ENDBRANCH   9  10
ENDBRANCH   8   9
ENDBRANCH   7   8
ENDBRANCH   6   7
ENDBRANCH   5   6
ENDBRANCH   4   5
ENDBRANCH   3   4
ENDBRANCH   2   3
ENDBRANCH   1   2
BRANCH   1  18
ATOM     18  C   UNL     1      91.789  87.881  87.543  1.00  0.00     0.000 C 
BRANCH  18  19
ATOM     19  C   UNL     1      91.111  89.193  87.106  1.00  0.00     0.000 C 
BRANCH  19  20
ATOM     20  C   UNL     1      90.723  89.200  85.616  1.00  0.00     0.000 C 
BRANCH  20  21
ATOM     21  C   UNL     1      90.444  87.789  85.064  1.00  0.00     0.000 C 
BRANCH  21  22
ATOM     22  C   UNL     1      88.964  87.357  85.118  1.00  0.00     0.000 C 
BRANCH  22  23
ATOM     23  C   UNL     1      88.746  85.829  85.090  1.00  0.00     0.000 C 
BRANCH  23  24
ATOM     24  C   UNL     1      89.487  85.060  86.202  1.00  0.00    -0.000 C 
BRANCH  24  25
ATOM     25  C   UNL     1      88.538  84.449  87.255  1.00  0.00    -0.000 C 
BRANCH  25  26
ATOM     26  C   UNL     1      87.914  83.127  86.783  1.00  0.00    -0.000 C 
BRANCH  26  27
ATOM     27  C   UNL     1      87.482  82.266  87.979  1.00  0.00    -0.000 C 
BRANCH  27  28
ATOM     28  C   UNL     1      88.646  81.419  88.539  1.00  0.00    -0.000 C 
BRANCH  28  29
ATOM     29  C   UNL     1      88.384  80.887  89.960  1.00  0.00    -0.000 C 
BRANCH  29  30
ATOM     30  C   UNL     1      86.912  80.958  90.404  1.00  0.00    -0.000 C 
BRANCH  30  31
ATOM     31  C   UNL     1      86.760  81.335  91.886  1.00  0.00    -0.003 C 
ATOM     32  C   UNL     1      87.879  80.721  92.722  1.00  0.00     0.004 C 
ENDBRANCH  30  31
ENDBRANCH  29  30
ENDBRANCH  28  29
ENDBRANCH  27  28
ENDBRANCH  26  27
ENDBRANCH  25  26
ENDBRANCH  24  25
ENDBRANCH  23  24
ENDBRANCH  22  23
ENDBRANCH  21  22
ENDBRANCH  20  21
ENDBRANCH  19  20
ENDBRANCH  18  19
ENDBRANCH   1  18
TORSDOF 28
ENDMDL
MODEL 8
REMARK VINA RESULT:    -2.248      9.369     13.522
REMARK INTER + INTRA:         -10.921
REMARK INTER:                  -4.732
REMARK INTRA:                  -6.189
REMARK UNBOUND:                -4.993
REMARK SMILES CCCCCCCCCCCCCCCCCCCCCCCCCCCCCC(=O)[O-]
REMARK SMILES IDX 16 1 17 2 18 3 19 4 20 5 21 6 22 7 23 8 24 9 25 10 26 11
REMARK SMILES IDX 27 12 28 13 29 14 30 15 31 16 32 17 15 18 14 19 13 20 12 21
REMARK SMILES IDX 11 22 10 23 9 24 8 25 7 26 6 27 5 28 4 29 3 30 2 31 1 32
REMARK H PARENT
REMARK Flexibility Score: inf
ROOT
ATOM      1  C   UNL     1      75.779  77.758  80.711  1.00  0.00     0.000 C 
ENDROOT
BRANCH   1   2
ATOM      2  C   UNL     1      75.602  77.479  82.216  1.00  0.00     0.000 C 
BRANCH   2   3
ATOM      3  C   UNL     1      75.060  76.078  82.559  1.00  0.00     0.000 C 
BRANCH   3   4
ATOM      4  C   UNL     1      73.618  76.085  83.108  1.00  0.00     0.000 C 
BRANCH   4   5
ATOM      5  C   UNL     1      72.713  75.060  82.405  1.00  0.00     0.000 C 
BRANCH   5   6
ATOM      6  C   UNL     1      72.919  73.624  82.920  1.00  0.00     0.000 C 
BRANCH   6   7
ATOM      7  C   UNL     1      73.255  72.610  81.806  1.00  0.00     0.000 C 
BRANCH   7   8
ATOM      8  C   UNL     1      73.137  73.224  80.402  1.00  0.00     0.000 C 
BRANCH   8   9
ATOM      9  C   UNL     1      74.439  73.038  79.609  1.00  0.00     0.000 C 
BRANCH   9  10
ATOM     10  C   UNL     1      75.687  73.086  80.506  1.00  0.00     0.000 C 
BRANCH  10  11
ATOM     11  C   UNL     1      76.769  74.029  79.952  1.00  0.00     0.000 C 
BRANCH  11  12
ATOM     12  C   UNL     1      76.460  74.515  78.526  1.00  0.00     0.000 C 
BRANCH  12  13
ATOM     13  C   UNL     1      77.437  73.953  77.481  1.00  0.00     0.006 C 
BRANCH  13  14
ATOM     14  C   UNL     1      76.918  72.633  76.902  1.00  0.00     0.053 C 
BRANCH  14  15
ATOM     15  C   UNL     1      77.236  72.523  75.443  1.00  0.00     0.041 C 
ATOM     16  O   UNL     1      78.404  72.751  75.030  1.00  0.00    -0.550 OA
ATOM     17  O   UNL     1      76.239  72.185  74.535  1.00  0.00    -0.550 OA
ENDBRANCH  14  15
ENDBRANCH  13  14
ENDBRANCH  12  13
ENDBRANCH  11  12
ENDBRANCH  10  11
ENDBRANCH   9  10
ENDBRANCH   8   9
ENDBRANCH   7   8
ENDBRANCH   6   7
ENDBRANCH   5   6
ENDBRANCH   4   5
ENDBRANCH   3   4
ENDBRANCH   2   3
ENDBRANCH   1   2
BRANCH   1  18
ATOM     18  C   UNL     1      74.768  78.754  80.104  1.00  0.00     0.000 C 
BRANCH  18  19
ATOM     19  C   UNL     1      73.454  78.124  79.605  1.00  0.00     0.000 C 
BRANCH  19  20
ATOM     20  C   UNL     1      73.616  76.652  79.182  1.00  0.00     0.000 C 
BRANCH  20  21
ATOM     21  C   UNL     1      73.333  76.426  77.684  1.00  0.00     0.000 C 
BRANCH  21  22
ATOM     22  C   UNL     1      72.115  77.198  77.135  1.00  0.00     0.000 C 
BRANCH  22  23
ATOM     23  C   UNL     1      72.170  77.478  75.619  1.00  0.00     0.000 C 
BRANCH  23  24
ATOM     24  C   UNL     1      72.107  78.973  75.244  1.00  0.00    -0.000 C 
BRANCH  24  25
ATOM     25  C   UNL     1      73.499  79.633  75.149  1.00  0.00    -0.000 C 
BRANCH  25  26
ATOM     26  C   UNL     1      73.853  80.436  76.410  1.00  0.00    -0.000 C 
BRANCH  26  27
ATOM     27  C   UNL     1      75.312  80.193  76.824  1.00  0.00    -0.000 C 
BRANCH  27  28
ATOM     28  C   UNL     1      75.963  79.044  76.023  1.00  0.00    -0.000 C 
BRANCH  28  29
ATOM     29  C   UNL     1      76.444  77.880  76.909  1.00  0.00    -0.000 C 
BRANCH  29  30
ATOM     30  C   UNL     1      77.975  77.748  77.008  1.00  0.00    -0.000 C 
BRANCH  30  31
ATOM     31  C   UNL     1      78.518  78.178  78.380  1.00  0.00    -0.003 C 
ATOM     32  C   UNL     1      79.253  77.026  79.060  1.00  0.00     0.004 C 
ENDBRANCH  30  31
ENDBRANCH  29  30
ENDBRANCH  28  29
ENDBRANCH  27  28
ENDBRANCH  26  27
ENDBRANCH  25  26
ENDBRANCH  24  25
ENDBRANCH  23  24
ENDBRANCH  22  23
ENDBRANCH  21  22
ENDBRANCH  20  21
ENDBRANCH  19  20
ENDBRANCH  18  19
ENDBRANCH   1  18
TORSDOF 28
ENDMDL
MODEL 9
REMARK VINA RESULT:    -2.208      8.145     12.775
REMARK INTER + INTRA:         -10.814
REMARK INTER:                  -4.857
REMARK INTRA:                  -5.957
REMARK UNBOUND:                -4.993
REMARK SMILES CCCCCCCCCCCCCCCCCCCCCCCCCCCCCC(=O)[O-]
REMARK SMILES IDX 16 1 17 2 18 3 19 4 20 5 21 6 22 7 23 8 24 9 25 10 26 11
REMARK SMILES IDX 27 12 28 13 29 14 30 15 31 16 32 17 15 18 14 19 13 20 12 21
REMARK SMILES IDX 11 22 10 23 9 24 8 25 7 26 6 27 5 28 4 29 3 30 2 31 1 32
REMARK H PARENT
REMARK Flexibility Score: inf
ROOT
ATOM      1  C   UNL     1      74.886  76.584  76.980  1.00  0.00     0.000 C 
ENDROOT
BRANCH   1   2
ATOM      2  C   UNL     1      76.306  76.626  77.579  1.00  0.00     0.000 C 
BRANCH   2   3
ATOM      3  C   UNL     1      76.490  75.814  78.875  1.00  0.00     0.000 C 
BRANCH   3   4
ATOM      4  C   UNL     1      76.139  76.598  80.157  1.00  0.00     0.000 C 
BRANCH   4   5
ATOM      5  C   UNL     1      75.389  75.740  81.189  1.00  0.00     0.000 C 
BRANCH   5   6
ATOM      6  C   UNL     1      73.979  76.272  81.500  1.00  0.00     0.000 C 
BRANCH   6   7
ATOM      7  C   UNL     1      72.965  76.047  80.357  1.00  0.00     0.000 C 
BRANCH   7   8
ATOM      8  C   UNL     1      72.662  74.558  80.131  1.00  0.00     0.000 C 
BRANCH   8   9
ATOM      9  C   UNL     1      73.015  74.138  78.696  1.00  0.00     0.000 C 
BRANCH   9  10
ATOM     10  C   UNL     1      73.790  72.810  78.645  1.00  0.00     0.000 C 
BRANCH  10  11
ATOM     11  C   UNL     1      74.644  72.680  77.372  1.00  0.00     0.000 C 
BRANCH  11  12
ATOM     12  C   UNL     1      76.121  72.383  77.676  1.00  0.00     0.000 C 
BRANCH  12  13
ATOM     13  C   UNL     1      77.006  72.421  76.421  1.00  0.00     0.006 C 
BRANCH  13  14
ATOM     14  C   UNL     1      76.494  73.466  75.424  1.00  0.00     0.053 C 
BRANCH  14  15
ATOM     15  C   UNL     1      76.672  72.997  74.013  1.00  0.00     0.041 C 
ATOM     16  O   UNL     1      76.153  71.912  73.636  1.00  0.00    -0.550 OA
ATOM     17  O   UNL     1      77.424  73.748  73.116  1.00  0.00    -0.550 OA
ENDBRANCH  14  15
ENDBRANCH  13  14
ENDBRANCH  12  13
ENDBRANCH  11  12
ENDBRANCH  10  11
ENDBRANCH   9  10
ENDBRANCH   8   9
ENDBRANCH   7   8
ENDBRANCH   6   7
ENDBRANCH   5   6
ENDBRANCH   4   5
ENDBRANCH   3   4
ENDBRANCH   2   3
ENDBRANCH   1   2
BRANCH   1  18
ATOM     18  C   UNL     1      73.980  77.778  77.350  1.00  0.00     0.000 C 
BRANCH  18  19
ATOM     19  C   UNL     1      72.583  77.760  76.702  1.00  0.00     0.000 C 
BRANCH  19  20
ATOM     20  C   UNL     1      72.242  79.073  75.973  1.00  0.00     0.000 C 
BRANCH  20  21
ATOM     21  C   UNL     1      72.346  78.949  74.440  1.00  0.00     0.000 C 
BRANCH  21  22
ATOM     22  C   UNL     1      73.722  79.327  73.855  1.00  0.00     0.000 C 
BRANCH  22  23
ATOM     23  C   UNL     1      74.087  80.819  73.999  1.00  0.00     0.000 C 
BRANCH  23  24
ATOM     24  C   UNL     1      75.416  81.081  74.737  1.00  0.00    -0.000 C 
BRANCH  24  25
ATOM     25  C   UNL     1      76.055  79.798  75.310  1.00  0.00    -0.000 C 
BRANCH  25  26
ATOM     26  C   UNL     1      77.546  79.980  75.632  1.00  0.00    -0.000 C 
BRANCH  26  27
ATOM     27  C   UNL     1      77.802  79.852  77.141  1.00  0.00    -0.000 C 
BRANCH  27  28
ATOM     28  C   UNL     1      76.901  80.796  77.967  1.00  0.00    -0.000 C 
BRANCH  28  29
ATOM     29  C   UNL     1      76.209  80.096  79.152  1.00  0.00    -0.000 C 
BRANCH  29  30
ATOM     30  C   UNL     1      74.802  80.631  79.473  1.00  0.00    -0.000 C 
BRANCH  30  31
ATOM     31  C   UNL     1      74.151  81.336  78.273  1.00  0.00    -0.003 C 
ATOM     32  C   UNL     1      72.687  81.659  78.559  1.00  0.00     0.004 C 
ENDBRANCH  30  31
ENDBRANCH  29  30
ENDBRANCH  28  29
ENDBRANCH  27  28
ENDBRANCH  26  27
ENDBRANCH  25  26
ENDBRANCH  24  25
ENDBRANCH  23  24
ENDBRANCH  22  23
ENDBRANCH  21  22
ENDBRANCH  20  21
ENDBRANCH  19  20
ENDBRANCH  18  19
ENDBRANCH   1  18
TORSDOF 28
ENDMDL
