MODEL 1
REMARK VINA RESULT:    -5.067      0.000      0.000
REMARK INTER + INTRA:         -12.656
REMARK INTER:                  -9.511
REMARK INTRA:                  -3.145
REMARK UNBOUND:                -3.145
REMARK SMILES CCCCCCCCC=CCCCCCCCC(=O)[O-]
REMARK SMILES IDX 10 1 9 2 11 3 12 4 13 5 14 6 15 7 16 8 17 9 18 10 19 11
REMARK SMILES IDX 20 12 8 13 7 14 6 15 5 16 4 17 3 18 2 19 1 20
REMARK H PARENT
REMARK Flexibility Score: inf
ROOT
ATOM      1  C   UNL     1      26.375   4.900  22.318  1.00  0.00    -0.031 C 
ATOM      2  C   UNL     1      26.750   5.646  21.268  1.00  0.00    -0.031 C 
ENDROOT
BRANCH   1   3
ATOM      3  C   UNL     1      25.762   3.537  22.139  1.00  0.00     0.027 C 
BRANCH   3   4
ATOM      4  C   UNL     1      24.257   3.609  21.842  1.00  0.00     0.004 C 
BRANCH   4   5
ATOM      5  C   UNL     1      23.878   2.826  20.573  1.00  0.00     0.000 C 
BRANCH   5   6
ATOM      6  C   UNL     1      24.020   3.660  19.288  1.00  0.00     0.000 C 
BRANCH   6   7
ATOM      7  C   UNL     1      23.763   5.169  19.459  1.00  0.00     0.000 C 
BRANCH   7   8
ATOM      8  C   UNL     1      24.426   6.018  18.364  1.00  0.00     0.006 C 
BRANCH   8   9
ATOM      9  C   UNL     1      24.373   7.506  18.717  1.00  0.00     0.053 C 
BRANCH   9  10
ATOM     10  C   UNL     1      23.024   8.073  18.406  1.00  0.00     0.041 C 
ATOM     11  O   UNL     1      22.445   7.774  17.328  1.00  0.00    -0.550 OA
ATOM     12  O   UNL     1      22.427   8.969  19.282  1.00  0.00    -0.550 OA
ENDBRANCH   9  10
ENDBRANCH   8   9
ENDBRANCH   7   8
ENDBRANCH   6   7
ENDBRANCH   5   6
ENDBRANCH   4   5
ENDBRANCH   3   4
ENDBRANCH   1   3
BRANCH   2  13
ATOM     13  C   UNL     1      27.355   7.010  21.447  1.00  0.00     0.027 C 
BRANCH  13  14
ATOM     14  C   UNL     1      26.577   7.823  22.493  1.00  0.00     0.004 C 
BRANCH  14  15
ATOM     15  C   UNL     1      25.749   8.958  21.867  1.00  0.00     0.000 C 
BRANCH  15  16
ATOM     16  C   UNL     1      24.260   8.883  22.251  1.00  0.00     0.000 C 
BRANCH  16  17
ATOM     17  C   UNL     1      23.743   7.438  22.334  1.00  0.00    -0.000 C 
BRANCH  17  18
ATOM     18  C   UNL     1      22.933   7.172  23.616  1.00  0.00    -0.000 C 
BRANCH  18  19
ATOM     19  C   UNL     1      23.539   6.050  24.473  1.00  0.00    -0.003 C 
ATOM     20  C   UNL     1      24.715   6.524  25.328  1.00  0.00     0.004 C 
ENDBRANCH  18  19
ENDBRANCH  17  18
ENDBRANCH  16  17
ENDBRANCH  15  16
ENDBRANCH  14  15
ENDBRANCH  13  14
ENDBRANCH   2  13
TORSDOF 15
ENDMDL
MODEL 2
REMARK VINA RESULT:    -5.017      2.733      5.161
REMARK INTER + INTRA:         -12.561
REMARK INTER:                  -9.674
REMARK INTRA:                  -2.887
REMARK UNBOUND:                -3.145
REMARK SMILES CCCCCCCCC=CCCCCCCCC(=O)[O-]
REMARK SMILES IDX 10 1 9 2 11 3 12 4 13 5 14 6 15 7 16 8 17 9 18 10 19 11
REMARK SMILES IDX 20 12 8 13 7 14 6 15 5 16 4 17 3 18 2 19 1 20
REMARK H PARENT
REMARK Flexibility Score: inf
ROOT
ATOM      1  C   UNL     1      26.956   7.265  21.201  1.00  0.00    -0.031 C 
ATOM      2  C   UNL     1      27.459   6.311  20.403  1.00  0.00    -0.031 C 
ENDROOT
BRANCH   1   3
ATOM      3  C   UNL     1      27.151   7.230  22.693  1.00  0.00     0.027 C 
BRANCH   3   4
ATOM      4  C   UNL     1      25.817   7.248  23.456  1.00  0.00     0.004 C 
BRANCH   4   5
ATOM      5  C   UNL     1      25.986   6.832  24.928  1.00  0.00     0.000 C 
BRANCH   5   6
ATOM      6  C   UNL     1      24.652   6.470  25.605  1.00  0.00     0.000 C 
BRANCH   6   7
ATOM      7  C   UNL     1      23.461   6.294  24.646  1.00  0.00     0.000 C 
BRANCH   7   8
ATOM      8  C   UNL     1      22.849   4.886  24.702  1.00  0.00     0.006 C 
BRANCH   8   9
ATOM      9  C   UNL     1      21.363   4.919  24.336  1.00  0.00     0.053 C 
BRANCH   9  10
ATOM     10  C   UNL     1      21.010   3.754  23.465  1.00  0.00     0.041 C 
ATOM     11  O   UNL     1      19.807   3.524  23.172  1.00  0.00    -0.550 OA
ATOM     12  O   UNL     1      22.004   2.894  23.018  1.00  0.00    -0.550 OA
ENDBRANCH   9  10
ENDBRANCH   8   9
ENDBRANCH   7   8
ENDBRANCH   6   7
ENDBRANCH   5   6
ENDBRANCH   4   5
ENDBRANCH   3   4
ENDBRANCH   1   3
BRANCH   2  13
ATOM     13  C   UNL     1      27.257   6.344  18.914  1.00  0.00     0.027 C 
BRANCH  13  14
ATOM     14  C   UNL     1      25.831   6.794  18.563  1.00  0.00     0.004 C 
BRANCH  14  15
ATOM     15  C   UNL     1      24.793   5.675  18.746  1.00  0.00     0.000 C 
BRANCH  15  16
ATOM     16  C   UNL     1      23.667   6.067  19.720  1.00  0.00     0.000 C 
BRANCH  16  17
ATOM     17  C   UNL     1      23.729   5.283  21.041  1.00  0.00    -0.000 C 
BRANCH  17  18
ATOM     18  C   UNL     1      24.745   4.127  20.995  1.00  0.00    -0.000 C 
BRANCH  18  19
ATOM     19  C   UNL     1      25.372   3.840  22.368  1.00  0.00    -0.003 C 
ATOM     20  C   UNL     1      26.635   2.984  22.277  1.00  0.00     0.004 C 
ENDBRANCH  18  19
ENDBRANCH  17  18
ENDBRANCH  16  17
ENDBRANCH  15  16
ENDBRANCH  14  15
ENDBRANCH  13  14
ENDBRANCH   2  13
TORSDOF 15
ENDMDL
MODEL 3
REMARK VINA RESULT:    -5.001      2.170      4.684
REMARK INTER + INTRA:         -12.530
REMARK INTER:                 -10.122
REMARK INTRA:                  -2.408
REMARK UNBOUND:                -3.145
REMARK SMILES CCCCCCCCC=CCCCCCCCC(=O)[O-]
REMARK SMILES IDX 10 1 9 2 11 3 12 4 13 5 14 6 15 7 16 8 17 9 18 10 19 11
REMARK SMILES IDX 20 12 8 13 7 14 6 15 5 16 4 17 3 18 2 19 1 20
REMARK H PARENT
REMARK Flexibility Score: inf
ROOT
ATOM      1  C   UNL     1      25.935   8.408  22.186  1.00  0.00    -0.031 C 
ATOM      2  C   UNL     1      25.565   9.668  21.909  1.00  0.00    -0.031 C 
ENDROOT
BRANCH   1   3
ATOM      3  C   UNL     1      27.382   7.992  22.185  1.00  0.00     0.027 C 
BRANCH   3   4
ATOM      4  C   UNL     1      27.557   6.493  21.896  1.00  0.00     0.004 C 
BRANCH   4   5
ATOM      5  C   UNL     1      27.015   5.615  23.038  1.00  0.00     0.000 C 
BRANCH   5   6
ATOM      6  C   UNL     1      25.829   4.735  22.607  1.00  0.00     0.000 C 
BRANCH   6   7
ATOM      7  C   UNL     1      26.196   3.290  22.225  1.00  0.00     0.000 C 
BRANCH   7   8
ATOM      8  C   UNL     1      25.238   2.682  21.189  1.00  0.00     0.006 C 
BRANCH   8   9
ATOM      9  C   UNL     1      24.509   3.777  20.407  1.00  0.00     0.053 C 
BRANCH   9  10
ATOM     10  C   UNL     1      23.585   3.174  19.396  1.00  0.00     0.041 C 
ATOM     11  O   UNL     1      23.489   3.679  18.246  1.00  0.00    -0.550 OA
ATOM     12  O   UNL     1      22.793   2.087  19.739  1.00  0.00    -0.550 OA
ENDBRANCH   9  10
ENDBRANCH   8   9
ENDBRANCH   7   8
ENDBRANCH   6   7
ENDBRANCH   5   6
ENDBRANCH   4   5
ENDBRANCH   3   4
ENDBRANCH   1   3
BRANCH   2  13
ATOM     13  C   UNL     1      24.120  10.080  21.903  1.00  0.00     0.027 C 
BRANCH  13  14
ATOM     14  C   UNL     1      23.224   8.951  22.436  1.00  0.00     0.004 C 
BRANCH  14  15
ATOM     15  C   UNL     1      22.257   8.407  21.371  1.00  0.00     0.000 C 
BRANCH  15  16
ATOM     16  C   UNL     1      22.691   7.035  20.825  1.00  0.00     0.000 C 
BRANCH  16  17
ATOM     17  C   UNL     1      22.924   7.052  19.305  1.00  0.00    -0.000 C 
BRANCH  17  18
ATOM     18  C   UNL     1      24.144   7.900  18.903  1.00  0.00    -0.000 C 
BRANCH  18  19
ATOM     19  C   UNL     1      25.060   7.177  17.905  1.00  0.00    -0.003 C 
ATOM     20  C   UNL     1      26.257   6.504  18.577  1.00  0.00     0.004 C 
ENDBRANCH  18  19
ENDBRANCH  17  18
ENDBRANCH  16  17
ENDBRANCH  15  16
ENDBRANCH  14  15
ENDBRANCH  13  14
ENDBRANCH   2  13
TORSDOF 15
ENDMDL
MODEL 4
REMARK VINA RESULT:    -4.981      2.609      4.765
REMARK INTER + INTRA:         -12.494
REMARK INTER:                  -9.510
REMARK INTRA:                  -2.984
REMARK UNBOUND:                -3.145
REMARK SMILES CCCCCCCCC=CCCCCCCCC(=O)[O-]
REMARK SMILES IDX 10 1 9 2 11 3 12 4 13 5 14 6 15 7 16 8 17 9 18 10 19 11
REMARK SMILES IDX 20 12 8 13 7 14 6 15 5 16 4 17 3 18 2 19 1 20
REMARK H PARENT
REMARK Flexibility Score: inf
ROOT
ATOM      1  C   UNL     1      26.842   5.813  21.973  1.00  0.00    -0.031 C 
ATOM      2  C   UNL     1      25.974   4.857  21.609  1.00  0.00    -0.031 C 
ENDROOT
BRANCH   1   3
ATOM      3  C   UNL     1      27.350   5.920  23.386  1.00  0.00     0.027 C 
BRANCH   3   4
ATOM      4  C   UNL     1      26.782   7.146  24.119  1.00  0.00     0.004 C 
BRANCH   4   5
ATOM      5  C   UNL     1      25.874   6.749  25.296  1.00  0.00     0.000 C 
BRANCH   5   6
ATOM      6  C   UNL     1      24.377   6.822  24.950  1.00  0.00     0.000 C 
BRANCH   6   7
ATOM      7  C   UNL     1      23.770   5.515  24.407  1.00  0.00     0.000 C 
BRANCH   7   8
ATOM      8  C   UNL     1      22.396   5.719  23.750  1.00  0.00     0.006 C 
BRANCH   8   9
ATOM      9  C   UNL     1      22.322   5.003  22.400  1.00  0.00     0.053 C 
BRANCH   9  10
ATOM     10  C   UNL     1      22.315   3.519  22.591  1.00  0.00     0.041 C 
ATOM     11  O   UNL     1      23.064   2.787  21.892  1.00  0.00    -0.550 OA
ATOM     12  O   UNL     1      21.447   2.940  23.507  1.00  0.00    -0.550 OA
ENDBRANCH   9  10
ENDBRANCH   8   9
ENDBRANCH   7   8
ENDBRANCH   6   7
ENDBRANCH   5   6
ENDBRANCH   4   5
ENDBRANCH   3   4
ENDBRANCH   1   3
BRANCH   2  13
ATOM     13  C   UNL     1      25.462   4.756  20.200  1.00  0.00     0.027 C 
BRANCH  13  14
ATOM     14  C   UNL     1      25.999   5.907  19.336  1.00  0.00     0.004 C 
BRANCH  14  15
ATOM     15  C   UNL     1      24.913   6.545  18.454  1.00  0.00     0.000 C 
BRANCH  15  16
ATOM     16  C   UNL     1      24.468   7.925  18.970  1.00  0.00     0.000 C 
BRANCH  16  17
ATOM     17  C   UNL     1      23.453   7.826  20.120  1.00  0.00    -0.000 C 
BRANCH  17  18
ATOM     18  C   UNL     1      24.076   8.156  21.488  1.00  0.00    -0.000 C 
BRANCH  18  19
ATOM     19  C   UNL     1      24.462   9.637  21.617  1.00  0.00    -0.003 C 
ATOM     20  C   UNL     1      25.947   9.840  21.917  1.00  0.00     0.004 C 
ENDBRANCH  18  19
ENDBRANCH  17  18
ENDBRANCH  16  17
ENDBRANCH  15  16
ENDBRANCH  14  15
ENDBRANCH  13  14
ENDBRANCH   2  13
TORSDOF 15
ENDMDL
MODEL 5
REMARK VINA RESULT:    -4.963      1.653      4.671
REMARK INTER + INTRA:         -12.459
REMARK INTER:                  -9.963
REMARK INTRA:                  -2.497
REMARK UNBOUND:                -3.145
REMARK SMILES CCCCCCCCC=CCCCCCCCC(=O)[O-]
REMARK SMILES IDX 10 1 9 2 11 3 12 4 13 5 14 6 15 7 16 8 17 9 18 10 19 11
REMARK SMILES IDX 20 12 8 13 7 14 6 15 5 16 4 17 3 18 2 19 1 20
REMARK H PARENT
REMARK Flexibility Score: inf
ROOT
ATOM      1  C   UNL     1      24.374   6.518  24.517  1.00  0.00    -0.031 C 
ATOM      2  C   UNL     1      23.533   5.522  24.834  1.00  0.00    -0.031 C 
ENDROOT
BRANCH   1   3
ATOM      3  C   UNL     1      25.635   6.767  25.301  1.00  0.00     0.027 C 
BRANCH   3   4
ATOM      4  C   UNL     1      26.872   6.876  24.396  1.00  0.00     0.004 C 
BRANCH   4   5
ATOM      5  C   UNL     1      26.503   7.264  22.953  1.00  0.00     0.000 C 
BRANCH   5   6
ATOM      6  C   UNL     1      26.759   8.750  22.648  1.00  0.00     0.000 C 
BRANCH   6   7
ATOM      7  C   UNL     1      25.690   9.428  21.771  1.00  0.00     0.000 C 
BRANCH   7   8
ATOM      8  C   UNL     1      24.715   8.427  21.134  1.00  0.00     0.006 C 
BRANCH   8   9
ATOM      9  C   UNL     1      23.294   8.632  21.664  1.00  0.00     0.053 C 
BRANCH   9  10
ATOM     10  C   UNL     1      22.376   9.053  20.559  1.00  0.00     0.041 C 
ATOM     11  O   UNL     1      22.736   8.934  19.358  1.00  0.00    -0.550 OA
ATOM     12  O   UNL     1      21.146   9.623  20.855  1.00  0.00    -0.550 OA
ENDBRANCH   9  10
ENDBRANCH   8   9
ENDBRANCH   7   8
ENDBRANCH   6   7
ENDBRANCH   5   6
ENDBRANCH   4   5
ENDBRANCH   3   4
ENDBRANCH   1   3
BRANCH   2  13
ATOM     13  C   UNL     1      22.271   5.279  24.056  1.00  0.00     0.027 C 
BRANCH  13  14
ATOM     14  C   UNL     1      22.157   3.805  23.639  1.00  0.00     0.004 C 
BRANCH  14  15
ATOM     15  C   UNL     1      22.381   3.594  22.133  1.00  0.00     0.000 C 
BRANCH  15  16
ATOM     16  C   UNL     1      22.889   4.864  21.428  1.00  0.00     0.000 C 
BRANCH  16  17
ATOM     17  C   UNL     1      24.355   4.745  20.981  1.00  0.00    -0.000 C 
BRANCH  17  18
ATOM     18  C   UNL     1      24.741   3.305  20.595  1.00  0.00    -0.000 C 
BRANCH  18  19
ATOM     19  C   UNL     1      25.585   2.613  21.677  1.00  0.00    -0.003 C 
ATOM     20  C   UNL     1      26.498   3.582  22.428  1.00  0.00     0.004 C 
ENDBRANCH  18  19
ENDBRANCH  17  18
ENDBRANCH  16  17
ENDBRANCH  15  16
ENDBRANCH  14  15
ENDBRANCH  13  14
ENDBRANCH   2  13
TORSDOF 15
ENDMDL
MODEL 6
REMARK VINA RESULT:    -4.935      1.372      3.541
REMARK INTER + INTRA:         -12.407
REMARK INTER:                  -9.788
REMARK INTRA:                  -2.620
REMARK UNBOUND:                -3.145
REMARK SMILES CCCCCCCCC=CCCCCCCCC(=O)[O-]
REMARK SMILES IDX 10 1 9 2 11 3 12 4 13 5 14 6 15 7 16 8 17 9 18 10 19 11
REMARK SMILES IDX 20 12 8 13 7 14 6 15 5 16 4 17 3 18 2 19 1 20
REMARK H PARENT
REMARK Flexibility Score: inf
ROOT
ATOM      1  C   UNL     1      25.619   3.800  22.071  1.00  0.00    -0.031 C 
ATOM      2  C   UNL     1      25.249   2.881  21.166  1.00  0.00    -0.031 C 
ENDROOT
BRANCH   1   3
ATOM      3  C   UNL     1      27.027   3.862  22.601  1.00  0.00     0.027 C 
BRANCH   3   4
ATOM      4  C   UNL     1      27.485   5.304  22.872  1.00  0.00     0.004 C 
BRANCH   4   5
ATOM      5  C   UNL     1      28.066   5.974  21.615  1.00  0.00     0.000 C 
BRANCH   5   6
ATOM      6  C   UNL     1      27.014   6.757  20.811  1.00  0.00     0.000 C 
BRANCH   6   7
ATOM      7  C   UNL     1      26.851   6.312  19.346  1.00  0.00     0.000 C 
BRANCH   7   8
ATOM      8  C   UNL     1      25.390   6.028  18.965  1.00  0.00     0.006 C 
BRANCH   8   9
ATOM      9  C   UNL     1      24.441   7.011  19.655  1.00  0.00     0.053 C 
BRANCH   9  10
ATOM     10  C   UNL     1      23.806   7.921  18.651  1.00  0.00     0.041 C 
ATOM     11  O   UNL     1      22.941   8.760  19.016  1.00  0.00    -0.550 OA
ATOM     12  O   UNL     1      24.132   7.808  17.306  1.00  0.00    -0.550 OA
ENDBRANCH   9  10
ENDBRANCH   8   9
ENDBRANCH   7   8
ENDBRANCH   6   7
ENDBRANCH   5   6
ENDBRANCH   4   5
ENDBRANCH   3   4
ENDBRANCH   1   3
BRANCH   2  13
ATOM     13  C   UNL     1      23.841   2.815  20.643  1.00  0.00     0.027 C 
BRANCH  13  14
ATOM     14  C   UNL     1      22.824   3.045  21.772  1.00  0.00     0.004 C 
BRANCH  14  15
ATOM     15  C   UNL     1      22.131   4.414  21.678  1.00  0.00     0.000 C 
BRANCH  15  16
ATOM     16  C   UNL     1      21.713   4.960  23.055  1.00  0.00     0.000 C 
BRANCH  16  17
ATOM     17  C   UNL     1      22.670   4.526  24.177  1.00  0.00    -0.000 C 
BRANCH  17  18
ATOM     18  C   UNL     1      23.205   5.718  24.991  1.00  0.00    -0.000 C 
BRANCH  18  19
ATOM     19  C   UNL     1      24.478   6.324  24.380  1.00  0.00    -0.003 C 
ATOM     20  C   UNL     1      24.186   7.485  23.430  1.00  0.00     0.004 C 
ENDBRANCH  18  19
ENDBRANCH  17  18
ENDBRANCH  16  17
ENDBRANCH  15  16
ENDBRANCH  14  15
ENDBRANCH  13  14
ENDBRANCH   2  13
TORSDOF 15
ENDMDL
MODEL 7
REMARK VINA RESULT:    -4.928      1.924      3.608
REMARK INTER + INTRA:         -12.394
REMARK INTER:                  -9.631
REMARK INTRA:                  -2.763
REMARK UNBOUND:                -3.145
REMARK SMILES CCCCCCCCC=CCCCCCCCC(=O)[O-]
REMARK SMILES IDX 10 1 9 2 11 3 12 4 13 5 14 6 15 7 16 8 17 9 18 10 19 11
REMARK SMILES IDX 20 12 8 13 7 14 6 15 5 16 4 17 3 18 2 19 1 20
REMARK H PARENT
REMARK Flexibility Score: inf
ROOT
ATOM      1  C   UNL     1      23.457   6.388  24.183  1.00  0.00    -0.031 C 
ATOM      2  C   UNL     1      24.231   6.203  25.263  1.00  0.00    -0.031 C 
ENDROOT
BRANCH   1   3
ATOM      3  C   UNL     1      22.102   5.744  24.063  1.00  0.00     0.027 C 
BRANCH   3   4
ATOM      4  C   UNL     1      22.142   4.239  24.370  1.00  0.00     0.004 C 
BRANCH   4   5
ATOM      5  C   UNL     1      21.497   3.402  23.252  1.00  0.00     0.000 C 
BRANCH   5   6
ATOM      6  C   UNL     1      22.203   3.568  21.895  1.00  0.00     0.000 C 
BRANCH   6   7
ATOM      7  C   UNL     1      23.723   3.324  21.917  1.00  0.00     0.000 C 
BRANCH   7   8
ATOM      8  C   UNL     1      24.524   4.476  21.292  1.00  0.00     0.006 C 
BRANCH   8   9
ATOM      9  C   UNL     1      23.633   5.342  20.398  1.00  0.00     0.053 C 
BRANCH   9  10
ATOM     10  C   UNL     1      24.070   5.246  18.970  1.00  0.00     0.041 C 
ATOM     11  O   UNL     1      23.509   4.432  18.190  1.00  0.00    -0.550 OA
ATOM     12  O   UNL     1      25.129   6.019  18.513  1.00  0.00    -0.550 OA
ENDBRANCH   9  10
ENDBRANCH   8   9
ENDBRANCH   7   8
ENDBRANCH   6   7
ENDBRANCH   5   6
ENDBRANCH   4   5
ENDBRANCH   3   4
ENDBRANCH   1   3
BRANCH   2  13
ATOM     13  C   UNL     1      25.587   6.841  25.378  1.00  0.00     0.027 C 
BRANCH  13  14
ATOM     14  C   UNL     1      26.426   6.580  24.117  1.00  0.00     0.004 C 
BRANCH  14  15
ATOM     15  C   UNL     1      27.405   7.724  23.809  1.00  0.00     0.000 C 
BRANCH  15  16
ATOM     16  C   UNL     1      26.939   8.600  22.632  1.00  0.00     0.000 C 
BRANCH  16  17
ATOM     17  C   UNL     1      25.964   7.864  21.699  1.00  0.00    -0.000 C 
BRANCH  17  18
ATOM     18  C   UNL     1      24.893   8.798  21.107  1.00  0.00    -0.000 C 
BRANCH  18  19
ATOM     19  C   UNL     1      24.023   9.455  22.190  1.00  0.00    -0.003 C 
ATOM     20  C   UNL     1      22.541   9.494  21.818  1.00  0.00     0.004 C 
ENDBRANCH  18  19
ENDBRANCH  17  18
ENDBRANCH  16  17
ENDBRANCH  15  16
ENDBRANCH  14  15
ENDBRANCH  13  14
ENDBRANCH   2  13
TORSDOF 15
ENDMDL
MODEL 8
REMARK VINA RESULT:    -4.897      2.590      5.129
REMARK INTER + INTRA:         -12.336
REMARK INTER:                  -9.396
REMARK INTRA:                  -2.939
REMARK UNBOUND:                -3.145
REMARK SMILES CCCCCCCCC=CCCCCCCCC(=O)[O-]
REMARK SMILES IDX 10 1 9 2 11 3 12 4 13 5 14 6 15 7 16 8 17 9 18 10 19 11
REMARK SMILES IDX 20 12 8 13 7 14 6 15 5 16 4 17 3 18 2 19 1 20
REMARK H PARENT
REMARK Flexibility Score: inf
ROOT
ATOM      1  C   UNL     1      24.517   8.797  20.774  1.00  0.00    -0.031 C 
ATOM      2  C   UNL     1      23.913   8.240  19.714  1.00  0.00    -0.031 C 
ENDROOT
BRANCH   1   3
ATOM      3  C   UNL     1      23.741   9.560  21.814  1.00  0.00     0.027 C 
BRANCH   3   4
ATOM      4  C   UNL     1      22.230   9.549  21.538  1.00  0.00     0.004 C 
BRANCH   4   5
ATOM      5  C   UNL     1      21.431   8.959  22.713  1.00  0.00     0.000 C 
BRANCH   5   6
ATOM      6  C   UNL     1      21.276   7.430  22.626  1.00  0.00     0.000 C 
BRANCH   6   7
ATOM      7  C   UNL     1      22.344   6.623  23.387  1.00  0.00     0.000 C 
BRANCH   7   8
ATOM      8  C   UNL     1      23.293   5.855  22.454  1.00  0.00     0.006 C 
BRANCH   8   9
ATOM      9  C   UNL     1      23.650   4.487  23.040  1.00  0.00     0.053 C 
BRANCH   9  10
ATOM     10  C   UNL     1      22.694   3.442  22.557  1.00  0.00     0.041 C 
ATOM     11  O   UNL     1      22.798   2.980  21.390  1.00  0.00    -0.550 OA
ATOM     12  O   UNL     1      21.658   3.016  23.377  1.00  0.00    -0.550 OA
ENDBRANCH   9  10
ENDBRANCH   8   9
ENDBRANCH   7   8
ENDBRANCH   6   7
ENDBRANCH   5   6
ENDBRANCH   4   5
ENDBRANCH   3   4
ENDBRANCH   1   3
BRANCH   2  13
ATOM     13  C   UNL     1      24.690   7.485  18.672  1.00  0.00     0.027 C 
BRANCH  13  14
ATOM     14  C   UNL     1      24.606   5.970  18.914  1.00  0.00     0.004 C 
BRANCH  14  15
ATOM     15  C   UNL     1      25.760   5.442  19.782  1.00  0.00     0.000 C 
BRANCH  15  16
ATOM     16  C   UNL     1      27.076   6.205  19.542  1.00  0.00     0.000 C 
BRANCH  16  17
ATOM     17  C   UNL     1      27.709   6.714  20.848  1.00  0.00    -0.000 C 
BRANCH  17  18
ATOM     18  C   UNL     1      26.947   6.240  22.099  1.00  0.00    -0.000 C 
BRANCH  18  19
ATOM     19  C   UNL     1      26.908   7.308  23.203  1.00  0.00    -0.003 C 
ATOM     20  C   UNL     1      26.244   6.810  24.487  1.00  0.00     0.004 C 
ENDBRANCH  18  19
ENDBRANCH  17  18
ENDBRANCH  16  17
ENDBRANCH  15  16
ENDBRANCH  14  15
ENDBRANCH  13  14
ENDBRANCH   2  13
TORSDOF 15
ENDMDL
MODEL 9
REMARK VINA RESULT:    -4.868      1.610      3.825
REMARK INTER + INTRA:         -12.282
REMARK INTER:                  -9.701
REMARK INTRA:                  -2.582
REMARK UNBOUND:                -3.145
REMARK SMILES CCCCCCCCC=CCCCCCCCC(=O)[O-]
REMARK SMILES IDX 10 1 9 2 11 3 12 4 13 5 14 6 15 7 16 8 17 9 18 10 19 11
REMARK SMILES IDX 20 12 8 13 7 14 6 15 5 16 4 17 3 18 2 19 1 20
REMARK H PARENT
REMARK Flexibility Score: inf
ROOT
ATOM      1  C   UNL     1      26.756   5.615  23.080  1.00  0.00    -0.031 C 
ATOM      2  C   UNL     1      26.640   6.660  23.913  1.00  0.00    -0.031 C 
ENDROOT
BRANCH   1   3
ATOM      3  C   UNL     1      27.863   5.535  22.064  1.00  0.00     0.027 C 
BRANCH   3   4
ATOM      4  C   UNL     1      27.902   6.767  21.146  1.00  0.00     0.004 C 
BRANCH   4   5
ATOM      5  C   UNL     1      27.722   6.392  19.664  1.00  0.00     0.000 C 
BRANCH   5   6
ATOM      6  C   UNL     1      26.275   6.002  19.316  1.00  0.00     0.000 C 
BRANCH   6   7
ATOM      7  C   UNL     1      25.406   7.148  18.767  1.00  0.00     0.000 C 
BRANCH   7   8
ATOM      8  C   UNL     1      24.183   7.447  19.647  1.00  0.00     0.006 C 
BRANCH   8   9
ATOM      9  C   UNL     1      24.601   8.117  20.958  1.00  0.00     0.053 C 
BRANCH   9  10
ATOM     10  C   UNL     1      23.741   9.310  21.236  1.00  0.00     0.041 C 
ATOM     11  O   UNL     1      24.195  10.274  21.907  1.00  0.00    -0.550 OA
ATOM     12  O   UNL     1      22.424   9.336  20.797  1.00  0.00    -0.550 OA
ENDBRANCH   9  10
ENDBRANCH   8   9
ENDBRANCH   7   8
ENDBRANCH   6   7
ENDBRANCH   5   6
ENDBRANCH   4   5
ENDBRANCH   3   4
ENDBRANCH   1   3
BRANCH   2  13
ATOM     13  C   UNL     1      25.529   6.742  24.923  1.00  0.00     0.027 C 
BRANCH  13  14
ATOM     14  C   UNL     1      24.158   6.769  24.230  1.00  0.00     0.004 C 
BRANCH  14  15
ATOM     15  C   UNL     1      23.236   5.630  24.693  1.00  0.00     0.000 C 
BRANCH  15  16
ATOM     16  C   UNL     1      23.276   4.416  23.748  1.00  0.00     0.000 C 
BRANCH  16  17
ATOM     17  C   UNL     1      23.279   4.823  22.265  1.00  0.00    -0.000 C 
BRANCH  17  18
ATOM     18  C   UNL     1      23.123   3.617  21.321  1.00  0.00    -0.000 C 
BRANCH  18  19
ATOM     19  C   UNL     1      24.429   3.273  20.587  1.00  0.00    -0.003 C 
ATOM     20  C   UNL     1      25.461   2.603  21.494  1.00  0.00     0.004 C 
ENDBRANCH  18  19
ENDBRANCH  17  18
ENDBRANCH  16  17
ENDBRANCH  15  16
ENDBRANCH  14  15
ENDBRANCH  13  14
ENDBRANCH   2  13
TORSDOF 15
ENDMDL
