MODEL 1
REMARK VINA RESULT:    -4.109      0.000      0.000
REMARK INTER + INTRA:          -8.526
REMARK INTER:                  -7.472
REMARK INTRA:                  -1.055
REMARK UNBOUND:                -1.055
REMARK SMILES CCCCCCCCCCCCCCCC(=O)[O-]
REMARK SMILES IDX 9 1 10 2 11 3 12 4 13 5 14 6 15 7 16 8 17 9 18 10 8 11 7 12
REMARK SMILES IDX 6 13 5 14 4 15 3 16 2 17 1 18
REMARK H PARENT
REMARK Flexibility Score: inf
ROOT
ATOM      1  C   UNL     1       2.817  11.579  18.399  1.00  0.00     0.000 C 
ENDROOT
BRANCH   1   2
ATOM      2  C   UNL     1       2.761  13.051  18.833  1.00  0.00     0.000 C 
BRANCH   2   3
ATOM      3  C   UNL     1       2.044  13.907  17.780  1.00  0.00     0.000 C 
BRANCH   3   4
ATOM      4  C   UNL     1       1.728  15.328  18.278  1.00  0.00     0.000 C 
BRANCH   4   5
ATOM      5  C   UNL     1       0.256  15.763  18.126  1.00  0.00     0.000 C 
BRANCH   5   6
ATOM      6  C   UNL     1      -0.082  17.149  18.712  1.00  0.00     0.006 C 
BRANCH   6   7
ATOM      7  C   UNL     1       1.027  18.199  18.537  1.00  0.00     0.053 C 
BRANCH   7   8
ATOM      8  C   UNL     1       0.579  19.349  17.687  1.00  0.00     0.041 C 
ATOM      9  O   UNL     1      -0.555  19.865  17.866  1.00  0.00    -0.550 OA
ATOM     10  O   UNL     1       1.428  19.872  16.720  1.00  0.00    -0.550 OA
ENDBRANCH   7   8
ENDBRANCH   6   7
ENDBRANCH   5   6
ENDBRANCH   4   5
ENDBRANCH   3   4
ENDBRANCH   2   3
ENDBRANCH   1   2
BRANCH   1  11
ATOM     11  C   UNL     1       3.885  10.777  19.159  1.00  0.00     0.000 C 
BRANCH  11  12
ATOM     12  C   UNL     1       5.129  11.614  19.494  1.00  0.00    -0.000 C 
BRANCH  12  13
ATOM     13  C   UNL     1       6.374  11.054  18.797  1.00  0.00    -0.000 C 
BRANCH  13  14
ATOM     14  C   UNL     1       6.653  11.803  17.485  1.00  0.00    -0.000 C 
BRANCH  14  15
ATOM     15  C   UNL     1       5.625  11.483  16.387  1.00  0.00    -0.000 C 
BRANCH  15  16
ATOM     16  C   UNL     1       5.189  12.732  15.603  1.00  0.00    -0.000 C 
BRANCH  16  17
ATOM     17  C   UNL     1       4.305  12.388  14.395  1.00  0.00    -0.003 C 
ATOM     18  C   UNL     1       2.860  12.862  14.561  1.00  0.00     0.004 C 
ENDBRANCH  16  17
ENDBRANCH  15  16
ENDBRANCH  14  15
ENDBRANCH  13  14
ENDBRANCH  12  13
ENDBRANCH  11  12
ENDBRANCH   1  11
TORSDOF 14
ENDMDL
MODEL 2
REMARK VINA RESULT:    -4.002      0.886      3.282
REMARK INTER + INTRA:          -8.332
REMARK INTER:                  -7.828
REMARK INTRA:                  -0.503
REMARK UNBOUND:                -1.055
REMARK SMILES CCCCCCCCCCCCCCCC(=O)[O-]
REMARK SMILES IDX 9 1 10 2 11 3 12 4 13 5 14 6 15 7 16 8 17 9 18 10 8 11 7 12
REMARK SMILES IDX 6 13 5 14 4 15 3 16 2 17 1 18
REMARK H PARENT
REMARK Flexibility Score: inf
ROOT
ATOM      1  C   UNL     1       2.533  13.794  15.955  1.00  0.00     0.000 C 
ENDROOT
BRANCH   1   2
ATOM      2  C   UNL     1       2.731  13.309  17.399  1.00  0.00     0.000 C 
BRANCH   2   3
ATOM      3  C   UNL     1       2.003  14.227  18.391  1.00  0.00     0.000 C 
BRANCH   3   4
ATOM      4  C   UNL     1       1.242  15.372  17.701  1.00  0.00     0.000 C 
BRANCH   4   5
ATOM      5  C   UNL     1      -0.111  15.740  18.342  1.00  0.00     0.000 C 
BRANCH   5   6
ATOM      6  C   UNL     1      -0.230  17.198  18.830  1.00  0.00     0.006 C 
BRANCH   6   7
ATOM      7  C   UNL     1       1.005  18.066  18.540  1.00  0.00     0.053 C 
BRANCH   7   8
ATOM      8  C   UNL     1       0.649  19.308  17.781  1.00  0.00     0.041 C 
ATOM      9  O   UNL     1       1.483  19.831  16.996  1.00  0.00    -0.550 OA
ATOM     10  O   UNL     1      -0.616  19.868  17.914  1.00  0.00    -0.550 OA
ENDBRANCH   7   8
ENDBRANCH   6   7
ENDBRANCH   5   6
ENDBRANCH   4   5
ENDBRANCH   3   4
ENDBRANCH   2   3
ENDBRANCH   1   2
BRANCH   1  11
ATOM     11  C   UNL     1       3.059  12.791  14.916  1.00  0.00     0.000 C 
BRANCH  11  12
ATOM     12  C   UNL     1       4.577  12.578  15.011  1.00  0.00    -0.000 C 
BRANCH  12  13
ATOM     13  C   UNL     1       4.932  11.670  16.195  1.00  0.00    -0.000 C 
BRANCH  13  14
ATOM     14  C   UNL     1       6.387  11.887  16.637  1.00  0.00    -0.000 C 
BRANCH  14  15
ATOM     15  C   UNL     1       6.611  11.558  18.123  1.00  0.00    -0.000 C 
BRANCH  15  16
ATOM     16  C   UNL     1       5.301  11.229  18.860  1.00  0.00    -0.000 C 
BRANCH  16  17
ATOM     17  C   UNL     1       5.545  10.527  20.204  1.00  0.00    -0.003 C 
ATOM     18  C   UNL     1       7.030  10.390  20.543  1.00  0.00     0.004 C 
ENDBRANCH  16  17
ENDBRANCH  15  16
ENDBRANCH  14  15
ENDBRANCH  13  14
ENDBRANCH  12  13
ENDBRANCH  11  12
ENDBRANCH   1  11
TORSDOF 14
ENDMDL
MODEL 3
REMARK VINA RESULT:    -3.957      3.970      7.931
REMARK INTER + INTRA:          -8.250
REMARK INTER:                  -7.314
REMARK INTRA:                  -0.936
REMARK UNBOUND:                -1.055
REMARK SMILES CCCCCCCCCCCCCCCC(=O)[O-]
REMARK SMILES IDX 9 1 10 2 11 3 12 4 13 5 14 6 15 7 16 8 17 9 18 10 8 11 7 12
REMARK SMILES IDX 6 13 5 14 4 15 3 16 2 17 1 18
REMARK H PARENT
REMARK Flexibility Score: inf
ROOT
ATOM      1  C   UNL     1       2.742  13.369  17.700  1.00  0.00     0.000 C 
ENDROOT
BRANCH   1   2
ATOM      2  C   UNL     1       2.723  13.582  16.179  1.00  0.00     0.000 C 
BRANCH   2   3
ATOM      3  C   UNL     1       3.707  12.634  15.478  1.00  0.00     0.000 C 
BRANCH   3   4
ATOM      4  C   UNL     1       4.416  11.680  16.454  1.00  0.00     0.000 C 
BRANCH   4   5
ATOM      5  C   UNL     1       5.954  11.793  16.480  1.00  0.00     0.000 C 
BRANCH   5   6
ATOM      6  C   UNL     1       6.611  11.488  17.842  1.00  0.00     0.006 C 
BRANCH   6   7
ATOM      7  C   UNL     1       5.670  11.637  19.048  1.00  0.00     0.053 C 
BRANCH   7   8
ATOM      8  C   UNL     1       5.976  10.639  20.122  1.00  0.00     0.041 C 
ATOM      9  O   UNL     1       5.044   9.994  20.671  1.00  0.00    -0.550 OA
ATOM     10  O   UNL     1       7.293  10.395  20.493  1.00  0.00    -0.550 OA
ENDBRANCH   7   8
ENDBRANCH   6   7
ENDBRANCH   5   6
ENDBRANCH   4   5
ENDBRANCH   3   4
ENDBRANCH   2   3
ENDBRANCH   1   2
BRANCH   1  11
ATOM     11  C   UNL     1       1.942  14.439  18.459  1.00  0.00     0.000 C 
BRANCH  11  12
ATOM     12  C   UNL     1       0.958  15.196  17.554  1.00  0.00    -0.000 C 
BRANCH  12  13
ATOM     13  C   UNL     1      -0.132  15.886  18.383  1.00  0.00    -0.000 C 
BRANCH  13  14
ATOM     14  C   UNL     1       0.281  17.318  18.753  1.00  0.00    -0.000 C 
BRANCH  14  15
ATOM     15  C   UNL     1      -0.871  18.325  18.609  1.00  0.00    -0.000 C 
BRANCH  15  16
ATOM     16  C   UNL     1      -0.375  19.755  18.329  1.00  0.00    -0.000 C 
BRANCH  16  17
ATOM     17  C   UNL     1       1.116  19.797  17.963  1.00  0.00    -0.003 C 
ATOM     18  C   UNL     1       1.357  20.125  16.489  1.00  0.00     0.004 C 
ENDBRANCH  16  17
ENDBRANCH  15  16
ENDBRANCH  14  15
ENDBRANCH  13  14
ENDBRANCH  12  13
ENDBRANCH  11  12
ENDBRANCH   1  11
TORSDOF 14
ENDMDL
MODEL 4
REMARK VINA RESULT:    -3.863      3.605      7.749
REMARK INTER + INTRA:          -8.079
REMARK INTER:                  -7.243
REMARK INTRA:                  -0.836
REMARK UNBOUND:                -1.055
REMARK SMILES CCCCCCCCCCCCCCCC(=O)[O-]
REMARK SMILES IDX 9 1 10 2 11 3 12 4 13 5 14 6 15 7 16 8 17 9 18 10 8 11 7 12
REMARK SMILES IDX 6 13 5 14 4 15 3 16 2 17 1 18
REMARK H PARENT
REMARK Flexibility Score: inf
ROOT
ATOM      1  C   UNL     1       3.069  13.381  16.379  1.00  0.00     0.000 C 
ENDROOT
BRANCH   1   2
ATOM      2  C   UNL     1       3.200  12.923  14.919  1.00  0.00     0.000 C 
BRANCH   2   3
ATOM      3  C   UNL     1       4.498  12.130  14.706  1.00  0.00     0.000 C 
BRANCH   3   4
ATOM      4  C   UNL     1       4.913  11.318  15.945  1.00  0.00     0.000 C 
BRANCH   4   5
ATOM      5  C   UNL     1       6.134  11.868  16.709  1.00  0.00     0.000 C 
BRANCH   5   6
ATOM      6  C   UNL     1       6.353  11.268  18.113  1.00  0.00     0.006 C 
BRANCH   6   7
ATOM      7  C   UNL     1       5.387  11.795  19.186  1.00  0.00     0.053 C 
BRANCH   7   8
ATOM      8  C   UNL     1       4.366  10.769  19.572  1.00  0.00     0.041 C 
ATOM      9  O   UNL     1       4.584   9.990  20.536  1.00  0.00    -0.550 OA
ATOM     10  O   UNL     1       3.159  10.696  18.887  1.00  0.00    -0.550 OA
ENDBRANCH   7   8
ENDBRANCH   6   7
ENDBRANCH   5   6
ENDBRANCH   4   5
ENDBRANCH   3   4
ENDBRANCH   2   3
ENDBRANCH   1   2
BRANCH   1  11
ATOM     11  C   UNL     1       1.990  14.459  16.567  1.00  0.00     0.000 C 
BRANCH  11  12
ATOM     12  C   UNL     1       1.626  14.683  18.042  1.00  0.00    -0.000 C 
BRANCH  12  13
ATOM     13  C   UNL     1       0.835  15.984  18.223  1.00  0.00    -0.000 C 
BRANCH  13  14
ATOM     14  C   UNL     1      -0.664  15.697  18.392  1.00  0.00    -0.000 C 
BRANCH  14  15
ATOM     15  C   UNL     1      -1.489  16.971  18.641  1.00  0.00    -0.000 C 
BRANCH  15  16
ATOM     16  C   UNL     1      -0.948  17.805  19.815  1.00  0.00    -0.000 C 
BRANCH  16  17
ATOM     17  C   UNL     1      -0.793  19.291  19.457  1.00  0.00    -0.003 C 
ATOM     18  C   UNL     1      -0.194  19.508  18.067  1.00  0.00     0.004 C 
ENDBRANCH  16  17
ENDBRANCH  15  16
ENDBRANCH  14  15
ENDBRANCH  13  14
ENDBRANCH  12  13
ENDBRANCH  11  12
ENDBRANCH   1  11
TORSDOF 14
ENDMDL
MODEL 5
REMARK VINA RESULT:    -3.861      4.077      7.734
REMARK INTER + INTRA:          -8.075
REMARK INTER:                  -6.914
REMARK INTRA:                  -1.161
REMARK UNBOUND:                -1.055
REMARK SMILES CCCCCCCCCCCCCCCC(=O)[O-]
REMARK SMILES IDX 9 1 10 2 11 3 12 4 13 5 14 6 15 7 16 8 17 9 18 10 8 11 7 12
REMARK SMILES IDX 6 13 5 14 4 15 3 16 2 17 1 18
REMARK H PARENT
REMARK Flexibility Score: inf
ROOT
ATOM      1  C   UNL     1       2.044  13.700  15.364  1.00  0.00     0.000 C 
ENDROOT
BRANCH   1   2
ATOM      2  C   UNL     1       3.146  12.817  14.760  1.00  0.00     0.000 C 
BRANCH   2   3
ATOM      3  C   UNL     1       4.423  12.872  15.611  1.00  0.00     0.000 C 
BRANCH   3   4
ATOM      4  C   UNL     1       4.657  11.587  16.424  1.00  0.00     0.000 C 
BRANCH   4   5
ATOM      5  C   UNL     1       3.553  11.248  17.445  1.00  0.00     0.000 C 
BRANCH   5   6
ATOM      6  C   UNL     1       3.967  11.378  18.925  1.00  0.00     0.006 C 
BRANCH   6   7
ATOM      7  C   UNL     1       5.485  11.431  19.157  1.00  0.00     0.053 C 
BRANCH   7   8
ATOM      8  C   UNL     1       5.913  10.528  20.273  1.00  0.00     0.041 C 
ATOM      9  O   UNL     1       7.135  10.299  20.470  1.00  0.00    -0.550 OA
ATOM     10  O   UNL     1       4.963   9.967  21.118  1.00  0.00    -0.550 OA
ENDBRANCH   7   8
ENDBRANCH   6   7
ENDBRANCH   5   6
ENDBRANCH   4   5
ENDBRANCH   3   4
ENDBRANCH   2   3
ENDBRANCH   1   2
BRANCH   1  11
ATOM     11  C   UNL     1       2.553  14.575  16.521  1.00  0.00     0.000 C 
BRANCH  11  12
ATOM     12  C   UNL     1       1.788  14.329  17.831  1.00  0.00    -0.000 C 
BRANCH  12  13
ATOM     13  C   UNL     1       0.639  15.331  17.993  1.00  0.00    -0.000 C 
BRANCH  13  14
ATOM     14  C   UNL     1       1.173  16.733  18.321  1.00  0.00    -0.000 C 
BRANCH  14  15
ATOM     15  C   UNL     1       0.069  17.695  18.789  1.00  0.00    -0.000 C 
BRANCH  15  16
ATOM     16  C   UNL     1      -1.324  17.043  18.784  1.00  0.00    -0.000 C 
BRANCH  16  17
ATOM     17  C   UNL     1      -1.943  16.969  20.188  1.00  0.00    -0.003 C 
ATOM     18  C   UNL     1      -1.983  15.545  20.745  1.00  0.00     0.004 C 
ENDBRANCH  16  17
ENDBRANCH  15  16
ENDBRANCH  14  15
ENDBRANCH  13  14
ENDBRANCH  12  13
ENDBRANCH  11  12
ENDBRANCH   1  11
TORSDOF 14
ENDMDL
MODEL 6
REMARK VINA RESULT:    -3.808      4.080      8.240
REMARK INTER + INTRA:          -7.979
REMARK INTER:                  -7.076
REMARK INTRA:                  -0.904
REMARK UNBOUND:                -1.055
REMARK SMILES CCCCCCCCCCCCCCCC(=O)[O-]
REMARK SMILES IDX 9 1 10 2 11 3 12 4 13 5 14 6 15 7 16 8 17 9 18 10 8 11 7 12
REMARK SMILES IDX 6 13 5 14 4 15 3 16 2 17 1 18
REMARK H PARENT
REMARK Flexibility Score: inf
ROOT
ATOM      1  C   UNL     1       1.228  15.036  17.302  1.00  0.00     0.000 C 
ENDROOT
BRANCH   1   2
ATOM      2  C   UNL     1       2.249  14.044  17.879  1.00  0.00     0.000 C 
BRANCH   2   3
ATOM      3  C   UNL     1       3.049  13.365  16.758  1.00  0.00     0.000 C 
BRANCH   3   4
ATOM      4  C   UNL     1       3.460  11.924  17.105  1.00  0.00     0.000 C 
BRANCH   4   5
ATOM      5  C   UNL     1       4.902  11.542  16.716  1.00  0.00     0.000 C 
BRANCH   5   6
ATOM      6  C   UNL     1       5.905  11.488  17.887  1.00  0.00     0.006 C 
BRANCH   6   7
ATOM      7  C   UNL     1       5.264  11.619  19.277  1.00  0.00     0.053 C 
BRANCH   7   8
ATOM      8  C   UNL     1       5.836  10.635  20.251  1.00  0.00     0.041 C 
ATOM      9  O   UNL     1       5.077   9.987  21.018  1.00  0.00    -0.550 OA
ATOM     10  O   UNL     1       7.207  10.409  20.289  1.00  0.00    -0.550 OA
ENDBRANCH   7   8
ENDBRANCH   6   7
ENDBRANCH   5   6
ENDBRANCH   4   5
ENDBRANCH   3   4
ENDBRANCH   2   3
ENDBRANCH   1   2
BRANCH   1  11
ATOM     11  C   UNL     1       0.642  15.973  18.371  1.00  0.00     0.000 C 
BRANCH  11  12
ATOM     12  C   UNL     1      -0.829  15.663  18.689  1.00  0.00    -0.000 C 
BRANCH  12  13
ATOM     13  C   UNL     1      -1.457  16.782  19.529  1.00  0.00    -0.000 C 
BRANCH  13  14
ATOM     14  C   UNL     1      -1.498  18.102  18.745  1.00  0.00    -0.000 C 
BRANCH  14  15
ATOM     15  C   UNL     1      -0.931  19.286  19.545  1.00  0.00    -0.000 C 
BRANCH  15  16
ATOM     16  C   UNL     1       0.499  19.660  19.115  1.00  0.00    -0.000 C 
BRANCH  16  17
ATOM     17  C   UNL     1       0.592  20.002  17.621  1.00  0.00    -0.003 C 
ATOM     18  C   UNL     1       2.026  19.975  17.093  1.00  0.00     0.004 C 
ENDBRANCH  16  17
ENDBRANCH  15  16
ENDBRANCH  14  15
ENDBRANCH  13  14
ENDBRANCH  12  13
ENDBRANCH  11  12
ENDBRANCH   1  11
TORSDOF 14
ENDMDL
MODEL 7
REMARK VINA RESULT:    -3.778      1.395      1.901
REMARK INTER + INTRA:          -7.925
REMARK INTER:                  -6.474
REMARK INTRA:                  -1.452
REMARK UNBOUND:                -1.055
REMARK SMILES CCCCCCCCCCCCCCCC(=O)[O-]
REMARK SMILES IDX 9 1 10 2 11 3 12 4 13 5 14 6 15 7 16 8 17 9 18 10 8 11 7 12
REMARK SMILES IDX 6 13 5 14 4 15 3 16 2 17 1 18
REMARK H PARENT
REMARK Flexibility Score: inf
ROOT
ATOM      1  C   UNL     1       3.751  10.808  19.164  1.00  0.00     0.000 C 
ENDROOT
BRANCH   1   2
ATOM      2  C   UNL     1       2.855  11.562  18.170  1.00  0.00     0.000 C 
BRANCH   2   3
ATOM      3  C   UNL     1       2.442  12.930  18.731  1.00  0.00     0.000 C 
BRANCH   3   4
ATOM      4  C   UNL     1       2.579  14.065  17.701  1.00  0.00     0.000 C 
BRANCH   4   5
ATOM      5  C   UNL     1       1.259  14.759  17.310  1.00  0.00     0.000 C 
BRANCH   5   6
ATOM      6  C   UNL     1       0.756  15.822  18.308  1.00  0.00     0.006 C 
BRANCH   6   7
ATOM      7  C   UNL     1      -0.770  15.854  18.485  1.00  0.00     0.053 C 
BRANCH   7   8
ATOM      8  C   UNL     1      -1.232  17.128  19.124  1.00  0.00     0.041 C 
ATOM      9  O   UNL     1      -1.882  17.096  20.202  1.00  0.00    -0.550 OA
ATOM     10  O   UNL     1      -0.915  18.352  18.548  1.00  0.00    -0.550 OA
ENDBRANCH   7   8
ENDBRANCH   6   7
ENDBRANCH   5   6
ENDBRANCH   4   5
ENDBRANCH   3   4
ENDBRANCH   2   3
ENDBRANCH   1   2
BRANCH   1  11
ATOM     11  C   UNL     1       4.882  11.684  19.724  1.00  0.00     0.000 C 
BRANCH  11  12
ATOM     12  C   UNL     1       6.177  10.895  19.971  1.00  0.00    -0.000 C 
BRANCH  12  13
ATOM     13  C   UNL     1       7.036  10.836  18.702  1.00  0.00    -0.000 C 
BRANCH  13  14
ATOM     14  C   UNL     1       6.726  12.018  17.772  1.00  0.00    -0.000 C 
BRANCH  14  15
ATOM     15  C   UNL     1       6.195  11.571  16.400  1.00  0.00    -0.000 C 
BRANCH  15  16
ATOM     16  C   UNL     1       5.231  12.595  15.776  1.00  0.00    -0.000 C 
BRANCH  16  17
ATOM     17  C   UNL     1       4.340  11.976  14.688  1.00  0.00    -0.003 C 
ATOM     18  C   UNL     1       3.046  12.758  14.463  1.00  0.00     0.004 C 
ENDBRANCH  16  17
ENDBRANCH  15  16
ENDBRANCH  14  15
ENDBRANCH  13  14
ENDBRANCH  12  13
ENDBRANCH  11  12
ENDBRANCH   1  11
TORSDOF 14
ENDMDL
MODEL 8
REMARK VINA RESULT:    -3.751      1.447      3.562
REMARK INTER + INTRA:          -7.875
REMARK INTER:                  -7.008
REMARK INTRA:                  -0.867
REMARK UNBOUND:                -1.055
REMARK SMILES CCCCCCCCCCCCCCCC(=O)[O-]
REMARK SMILES IDX 9 1 10 2 11 3 12 4 13 5 14 6 15 7 16 8 17 9 18 10 8 11 7 12
REMARK SMILES IDX 6 13 5 14 4 15 3 16 2 17 1 18
REMARK H PARENT
REMARK Flexibility Score: inf
ROOT
ATOM      1  C   UNL     1       1.996  14.293  17.644  1.00  0.00     0.000 C 
ENDROOT
BRANCH   1   2
ATOM      2  C   UNL     1       1.244  15.593  17.968  1.00  0.00     0.000 C 
BRANCH   2   3
ATOM      3  C   UNL     1      -0.100  15.294  18.649  1.00  0.00     0.000 C 
BRANCH   3   4
ATOM      4  C   UNL     1      -1.151  16.390  18.403  1.00  0.00     0.000 C 
BRANCH   4   5
ATOM      5  C   UNL     1      -1.599  17.162  19.661  1.00  0.00     0.000 C 
BRANCH   5   6
ATOM      6  C   UNL     1      -1.769  18.684  19.470  1.00  0.00     0.006 C 
BRANCH   6   7
ATOM      7  C   UNL     1      -0.956  19.271  18.305  1.00  0.00     0.053 C 
BRANCH   7   8
ATOM      8  C   UNL     1       0.409  19.710  18.741  1.00  0.00     0.041 C 
ATOM      9  O   UNL     1       0.599  20.111  19.919  1.00  0.00    -0.550 OA
ATOM     10  O   UNL     1       1.478  19.643  17.855  1.00  0.00    -0.550 OA
ENDBRANCH   7   8
ENDBRANCH   6   7
ENDBRANCH   5   6
ENDBRANCH   4   5
ENDBRANCH   3   4
ENDBRANCH   2   3
ENDBRANCH   1   2
BRANCH   1  11
ATOM     11  C   UNL     1       2.105  14.032  16.134  1.00  0.00     0.000 C 
BRANCH  11  12
ATOM     12  C   UNL     1       3.430  13.361  15.742  1.00  0.00    -0.000 C 
BRANCH  12  13
ATOM     13  C   UNL     1       3.619  12.036  16.490  1.00  0.00    -0.000 C 
BRANCH  13  14
ATOM     14  C   UNL     1       5.091  11.598  16.470  1.00  0.00    -0.000 C 
BRANCH  14  15
ATOM     15  C   UNL     1       5.707  11.520  17.876  1.00  0.00    -0.000 C 
BRANCH  15  16
ATOM     16  C   UNL     1       4.647  11.338  18.976  1.00  0.00    -0.000 C 
BRANCH  16  17
ATOM     17  C   UNL     1       5.167  10.509  20.161  1.00  0.00    -0.003 C 
ATOM     18  C   UNL     1       6.686  10.580  20.315  1.00  0.00     0.004 C 
ENDBRANCH  16  17
ENDBRANCH  15  16
ENDBRANCH  14  15
ENDBRANCH  13  14
ENDBRANCH  12  13
ENDBRANCH  11  12
ENDBRANCH   1  11
TORSDOF 14
ENDMDL
MODEL 9
REMARK VINA RESULT:    -3.747      2.999      6.764
REMARK INTER + INTRA:          -7.868
REMARK INTER:                  -6.702
REMARK INTRA:                  -1.166
REMARK UNBOUND:                -1.055
REMARK SMILES CCCCCCCCCCCCCCCC(=O)[O-]
REMARK SMILES IDX 9 1 10 2 11 3 12 4 13 5 14 6 15 7 16 8 17 9 18 10 8 11 7 12
REMARK SMILES IDX 6 13 5 14 4 15 3 16 2 17 1 18
REMARK H PARENT
REMARK Flexibility Score: inf
ROOT
ATOM      1  C   UNL     1       3.874  10.691  19.381  1.00  0.00     0.000 C 
ENDROOT
BRANCH   1   2
ATOM      2  C   UNL     1       4.971  11.710  19.725  1.00  0.00     0.000 C 
BRANCH   2   3
ATOM      3  C   UNL     1       6.339  11.022  19.850  1.00  0.00     0.000 C 
BRANCH   3   4
ATOM      4  C   UNL     1       7.035  10.822  18.493  1.00  0.00     0.000 C 
BRANCH   4   5
ATOM      5  C   UNL     1       6.773  11.930  17.453  1.00  0.00     0.000 C 
BRANCH   5   6
ATOM      6  C   UNL     1       5.923  11.502  16.239  1.00  0.00     0.006 C 
BRANCH   6   7
ATOM      7  C   UNL     1       5.143  12.648  15.575  1.00  0.00     0.053 C 
BRANCH   7   8
ATOM      8  C   UNL     1       4.077  12.139  14.654  1.00  0.00     0.041 C 
ATOM      9  O   UNL     1       3.024  12.805  14.475  1.00  0.00    -0.550 OA
ATOM     10  O   UNL     1       4.261  10.945  13.967  1.00  0.00    -0.550 OA
ENDBRANCH   7   8
ENDBRANCH   6   7
ENDBRANCH   5   6
ENDBRANCH   4   5
ENDBRANCH   3   4
ENDBRANCH   2   3
ENDBRANCH   1   2
BRANCH   1  11
ATOM     11  C   UNL     1       2.728  11.308  18.564  1.00  0.00     0.000 C 
BRANCH  11  12
ATOM     12  C   UNL     1       3.021  12.751  18.127  1.00  0.00    -0.000 C 
BRANCH  12  13
ATOM     13  C   UNL     1       1.979  13.721  18.698  1.00  0.00    -0.000 C 
BRANCH  13  14
ATOM     14  C   UNL     1       1.648  14.829  17.687  1.00  0.00    -0.000 C 
BRANCH  14  15
ATOM     15  C   UNL     1       0.446  15.686  18.118  1.00  0.00    -0.000 C 
BRANCH  15  16
ATOM     16  C   UNL     1       0.853  17.116  18.515  1.00  0.00    -0.000 C 
BRANCH  16  17
ATOM     17  C   UNL     1      -0.342  17.953  19.000  1.00  0.00    -0.003 C 
ATOM     18  C   UNL     1      -1.284  17.169  19.914  1.00  0.00     0.004 C 
ENDBRANCH  16  17
ENDBRANCH  15  16
ENDBRANCH  14  15
ENDBRANCH  13  14
ENDBRANCH  12  13
ENDBRANCH  11  12
ENDBRANCH   1  11
TORSDOF 14
ENDMDL
