MODEL 1
REMARK VINA RESULT:    -6.913      0.000      0.000
REMARK INTER + INTRA:          -7.317
REMARK INTER:                  -7.317
REMARK INTRA:                   0.000
REMARK UNBOUND:                 0.000
REMARK SMILES O=c1ccc2cc(O)c(O)cc2o1
REMARK SMILES IDX 4 1 3 2 2 3 1 4 13 5 12 6 11 7 9 8 7 9 6 10 5 11 8 12 10 14
REMARK H PARENT 8 13 10 15
REMARK Flexibility Score: inf
ROOT
ATOM      1  C   UNL     1      81.303  59.156  10.897  1.00  0.00     0.019 A 
ATOM      2  C   UNL     1      80.070  58.524  11.042  1.00  0.00     0.094 A 
ATOM      3  C   UNL     1      78.955  59.289  11.405  1.00  0.00     0.336 A 
ATOM      4  O   UNL     1      77.832  58.737  11.542  1.00  0.00    -0.246 OA
ATOM      5  O   UNL     1      79.074  60.598  11.608  1.00  0.00    -0.423 OA
ATOM      6  C   UNL     1      80.232  61.241  11.479  1.00  0.00     0.142 A 
ATOM      7  C   UNL     1      80.297  62.618  11.706  1.00  0.00     0.098 A 
ATOM      8  C   UNL     1      81.516  63.300  11.572  1.00  0.00     0.161 A 
ATOM      9  C   UNL     1      82.676  62.598  11.210  1.00  0.00     0.158 A 
ATOM     10  C   UNL     1      82.617  61.215  10.983  1.00  0.00     0.062 A 
ATOM     11  C   UNL     1      81.400  60.534  11.116  1.00  0.00     0.022 A 
ENDROOT
BRANCH   9  12
ATOM     12  O   UNL     1      83.883  63.283  11.079  1.00  0.00    -0.504 OA
ATOM     13  H   UNL     1      83.915  64.293  11.014  1.00  0.00     0.293 HD
ENDBRANCH   9  12
BRANCH   8  14
ATOM     14  O   UNL     1      81.583  64.674  11.797  1.00  0.00    -0.504 OA
ATOM     15  H   UNL     1      82.400  65.103  12.215  1.00  0.00     0.293 HD
ENDBRANCH   8  14
TORSDOF 2
ENDMDL
MODEL 2
REMARK VINA RESULT:    -6.264      2.464      3.184
REMARK INTER + INTRA:          -6.630
REMARK INTER:                  -6.630
REMARK INTRA:                   0.000
REMARK UNBOUND:                 0.000
REMARK SMILES O=c1ccc2cc(O)c(O)cc2o1
REMARK SMILES IDX 4 1 3 2 2 3 1 4 13 5 12 6 11 7 9 8 7 9 6 10 5 11 8 12 10 14
REMARK H PARENT 8 13 10 15
REMARK Flexibility Score: inf
ROOT
ATOM      1  C   UNL     1      78.619  60.406  10.193  1.00  0.00     0.019 A 
ATOM      2  C   UNL     1      77.555  61.051  10.820  1.00  0.00     0.094 A 
ATOM      3  C   UNL     1      77.724  61.526  12.126  1.00  0.00     0.336 A 
ATOM      4  O   UNL     1      76.775  62.112  12.710  1.00  0.00    -0.246 OA
ATOM      5  O   UNL     1      78.884  61.362  12.756  1.00  0.00    -0.423 OA
ATOM      6  C   UNL     1      79.925  60.752  12.194  1.00  0.00     0.142 A 
ATOM      7  C   UNL     1      81.119  60.608  12.906  1.00  0.00     0.098 A 
ATOM      8  C   UNL     1      82.219  59.966  12.318  1.00  0.00     0.161 A 
ATOM      9  C   UNL     1      82.123  59.465  11.011  1.00  0.00     0.158 A 
ATOM     10  C   UNL     1      80.926  59.605  10.293  1.00  0.00     0.062 A 
ATOM     11  C   UNL     1      79.828  60.247  10.879  1.00  0.00     0.022 A 
ENDROOT
BRANCH   9  12
ATOM     12  O   UNL     1      83.220  58.828  10.435  1.00  0.00    -0.504 OA
ATOM     13  H   UNL     1      84.095  59.314  10.281  1.00  0.00     0.293 HD
ENDBRANCH   9  12
BRANCH   8  14
ATOM     14  O   UNL     1      83.411  59.822  13.026  1.00  0.00    -0.504 OA
ATOM     15  H   UNL     1      83.611  60.380  13.847  1.00  0.00     0.293 HD
ENDBRANCH   8  14
TORSDOF 2
ENDMDL
MODEL 3
REMARK VINA RESULT:    -6.106      2.029      4.401
REMARK INTER + INTRA:          -6.463
REMARK INTER:                  -6.463
REMARK INTRA:                   0.000
REMARK UNBOUND:                 0.000
REMARK SMILES O=c1ccc2cc(O)c(O)cc2o1
REMARK SMILES IDX 4 1 3 2 2 3 1 4 13 5 12 6 11 7 9 8 7 9 6 10 5 11 8 12 10 14
REMARK H PARENT 8 13 10 15
REMARK Flexibility Score: inf
ROOT
ATOM      1  C   UNL     1      81.012  60.232  12.382  1.00  0.00     0.019 A 
ATOM      2  C   UNL     1      82.261  60.679  11.956  1.00  0.00     0.094 A 
ATOM      3  C   UNL     1      82.339  61.859  11.206  1.00  0.00     0.336 A 
ATOM      4  O   UNL     1      83.458  62.279  10.811  1.00  0.00    -0.246 OA
ATOM      5  O   UNL     1      81.237  62.541  10.907  1.00  0.00    -0.423 OA
ATOM      6  C   UNL     1      80.025  62.149  11.294  1.00  0.00     0.142 A 
ATOM      7  C   UNL     1      78.902  62.906  10.948  1.00  0.00     0.098 A 
ATOM      8  C   UNL     1      77.623  62.498  11.355  1.00  0.00     0.161 A 
ATOM      9  C   UNL     1      77.467  61.326  12.110  1.00  0.00     0.158 A 
ATOM     10  C   UNL     1      78.590  60.561  12.458  1.00  0.00     0.062 A 
ATOM     11  C   UNL     1      79.869  60.969  12.053  1.00  0.00     0.022 A 
ENDROOT
BRANCH   9  12
ATOM     12  O   UNL     1      76.193  60.927  12.509  1.00  0.00    -0.504 OA
ATOM     13  H   UNL     1      76.017  59.998  12.870  1.00  0.00     0.293 HD
ENDBRANCH   9  12
BRANCH   8  14
ATOM     14  O   UNL     1      76.502  63.252  11.012  1.00  0.00    -0.504 OA
ATOM     15  H   UNL     1      75.914  62.999  10.226  1.00  0.00     0.293 HD
ENDBRANCH   8  14
TORSDOF 2
ENDMDL
MODEL 4
REMARK VINA RESULT:    -6.076      1.081      2.236
REMARK INTER + INTRA:          -6.431
REMARK INTER:                  -6.431
REMARK INTRA:                   0.000
REMARK UNBOUND:                 0.000
REMARK SMILES O=c1ccc2cc(O)c(O)cc2o1
REMARK SMILES IDX 4 1 3 2 2 3 1 4 13 5 12 6 11 7 9 8 7 9 6 10 5 11 8 12 10 14
REMARK H PARENT 8 13 10 15
REMARK Flexibility Score: inf
ROOT
ATOM      1  C   UNL     1      78.487  60.967  11.950  1.00  0.00     0.019 A 
ATOM      2  C   UNL     1      78.137  59.682  11.539  1.00  0.00     0.094 A 
ATOM      3  C   UNL     1      79.040  58.949  10.761  1.00  0.00     0.336 A 
ATOM      4  O   UNL     1      78.743  57.787  10.379  1.00  0.00    -0.246 OA
ATOM      5  O   UNL     1      80.215  59.473  10.420  1.00  0.00    -0.423 OA
ATOM      6  C   UNL     1      80.588  60.696  10.791  1.00  0.00     0.142 A 
ATOM      7  C   UNL     1      81.834  61.195  10.402  1.00  0.00     0.098 A 
ATOM      8  C   UNL     1      82.233  62.482  10.791  1.00  0.00     0.161 A 
ATOM      9  C   UNL     1      81.379  63.275  11.573  1.00  0.00     0.158 A 
ATOM     10  C   UNL     1      80.126  62.780  11.965  1.00  0.00     0.062 A 
ATOM     11  C   UNL     1      79.728  61.493  11.577  1.00  0.00     0.022 A 
ENDROOT
BRANCH   9  12
ATOM     12  O   UNL     1      81.782  64.553  11.955  1.00  0.00    -0.504 OA
ATOM     13  H   UNL     1      82.757  64.776  12.111  1.00  0.00     0.293 HD
ENDBRANCH   9  12
BRANCH   8  14
ATOM     14  O   UNL     1      83.475  62.982  10.405  1.00  0.00    -0.504 OA
ATOM     15  H   UNL     1      83.558  63.735   9.732  1.00  0.00     0.293 HD
ENDBRANCH   8  14
TORSDOF 2
ENDMDL
MODEL 5
REMARK VINA RESULT:    -6.050      2.508      3.552
REMARK INTER + INTRA:          -6.404
REMARK INTER:                  -6.404
REMARK INTRA:                   0.000
REMARK UNBOUND:                 0.000
REMARK SMILES O=c1ccc2cc(O)c(O)cc2o1
REMARK SMILES IDX 4 1 3 2 2 3 1 4 13 5 12 6 11 7 9 8 7 9 6 10 5 11 8 12 10 14
REMARK H PARENT 8 13 10 15
REMARK Flexibility Score: inf
ROOT
ATOM      1  C   UNL     1      79.295  61.986  13.110  1.00  0.00     0.019 A 
ATOM      2  C   UNL     1      78.218  62.551  12.430  1.00  0.00     0.094 A 
ATOM      3  C   UNL     1      78.123  62.377  11.045  1.00  0.00     0.336 A 
ATOM      4  O   UNL     1      77.158  62.881  10.413  1.00  0.00    -0.246 OA
ATOM      5  O   UNL     1      79.048  61.682  10.389  1.00  0.00    -0.423 OA
ATOM      6  C   UNL     1      80.092  61.125  10.999  1.00  0.00     0.142 A 
ATOM      7  C   UNL     1      81.034  60.406  10.257  1.00  0.00     0.098 A 
ATOM      8  C   UNL     1      82.135  59.816  10.896  1.00  0.00     0.161 A 
ATOM      9  C   UNL     1      82.296  59.949  12.283  1.00  0.00     0.158 A 
ATOM     10  C   UNL     1      81.355  60.671  13.032  1.00  0.00     0.062 A 
ATOM     11  C   UNL     1      80.254  61.259  12.395  1.00  0.00     0.022 A 
ENDROOT
BRANCH   9  12
ATOM     12  O   UNL     1      83.393  59.361  12.909  1.00  0.00    -0.504 OA
ATOM     13  H   UNL     1      83.835  59.788  13.715  1.00  0.00     0.293 HD
ENDBRANCH   9  12
BRANCH   8  14
ATOM     14  O   UNL     1      83.075  59.099  10.158  1.00  0.00    -0.504 OA
ATOM     15  H   UNL     1      83.255  59.306   9.183  1.00  0.00     0.293 HD
ENDBRANCH   8  14
TORSDOF 2
ENDMDL
MODEL 6
REMARK VINA RESULT:    -6.049      2.476      4.075
REMARK INTER + INTRA:          -6.403
REMARK INTER:                  -6.403
REMARK INTRA:                   0.000
REMARK UNBOUND:                 0.000
REMARK SMILES O=c1ccc2cc(O)c(O)cc2o1
REMARK SMILES IDX 4 1 3 2 2 3 1 4 13 5 12 6 11 7 9 8 7 9 6 10 5 11 8 12 10 14
REMARK H PARENT 8 13 10 15
REMARK Flexibility Score: inf
ROOT
ATOM      1  C   UNL     1      81.581  62.105  10.728  1.00  0.00     0.019 A 
ATOM      2  C   UNL     1      82.538  61.233  11.244  1.00  0.00     0.094 A 
ATOM      3  C   UNL     1      82.162  60.328  12.244  1.00  0.00     0.336 A 
ATOM      4  O   UNL     1      83.011  59.532  12.722  1.00  0.00    -0.246 OA
ATOM      5  O   UNL     1      80.910  60.304  12.694  1.00  0.00    -0.423 OA
ATOM      6  C   UNL     1      79.966  61.120  12.229  1.00  0.00     0.142 A 
ATOM      7  C   UNL     1      78.668  61.050  12.741  1.00  0.00     0.098 A 
ATOM      8  C   UNL     1      77.669  61.907  12.254  1.00  0.00     0.161 A 
ATOM      9  C   UNL     1      77.973  62.839  11.251  1.00  0.00     0.158 A 
ATOM     10  C   UNL     1      79.275  62.915  10.734  1.00  0.00     0.062 A 
ATOM     11  C   UNL     1      80.272  62.059  11.220  1.00  0.00     0.022 A 
ENDROOT
BRANCH   9  12
ATOM     12  O   UNL     1      76.975  63.688  10.774  1.00  0.00    -0.504 OA
ATOM     13  H   UNL     1      75.994  63.494  10.934  1.00  0.00     0.293 HD
ENDBRANCH   9  12
BRANCH   8  14
ATOM     14  O   UNL     1      76.373  61.839  12.763  1.00  0.00    -0.504 OA
ATOM     15  H   UNL     1      75.866  60.963  12.805  1.00  0.00     0.293 HD
ENDBRANCH   8  14
TORSDOF 2
ENDMDL
MODEL 7
REMARK VINA RESULT:    -6.026      2.592      4.929
REMARK INTER + INTRA:          -6.379
REMARK INTER:                  -6.379
REMARK INTRA:                   0.000
REMARK UNBOUND:                 0.000
REMARK SMILES O=c1ccc2cc(O)c(O)cc2o1
REMARK SMILES IDX 4 1 3 2 2 3 1 4 13 5 12 6 11 7 9 8 7 9 6 10 5 11 8 12 10 14
REMARK H PARENT 8 13 10 15
REMARK Flexibility Score: inf
ROOT
ATOM      1  C   UNL     1      80.559  60.977  12.753  1.00  0.00     0.019 A 
ATOM      2  C   UNL     1      81.799  60.511  12.319  1.00  0.00     0.094 A 
ATOM      3  C   UNL     1      81.848  59.597  11.260  1.00  0.00     0.336 A 
ATOM      4  O   UNL     1      82.958  59.164  10.855  1.00  0.00    -0.246 OA
ATOM      5  O   UNL     1      80.727  59.181  10.678  1.00  0.00    -0.423 OA
ATOM      6  C   UNL     1      79.523  59.601  11.060  1.00  0.00     0.142 A 
ATOM      7  C   UNL     1      78.379  59.127  10.412  1.00  0.00     0.098 A 
ATOM      8  C   UNL     1      77.108  59.567  10.810  1.00  0.00     0.161 A 
ATOM      9  C   UNL     1      76.981  60.483  11.865  1.00  0.00     0.158 A 
ATOM     10  C   UNL     1      78.126  60.961  12.521  1.00  0.00     0.062 A 
ATOM     11  C   UNL     1      79.396  60.523  12.122  1.00  0.00     0.022 A 
ENDROOT
BRANCH   9  12
ATOM     12  O   UNL     1      75.715  60.914  12.256  1.00  0.00    -0.504 OA
ATOM     13  H   UNL     1      75.592  61.606  12.986  1.00  0.00     0.293 HD
ENDBRANCH   9  12
BRANCH   8  14
ATOM     14  O   UNL     1      75.965  59.097  10.165  1.00  0.00    -0.504 OA
ATOM     15  H   UNL     1      75.982  58.252   9.606  1.00  0.00     0.293 HD
ENDBRANCH   8  14
TORSDOF 2
ENDMDL
MODEL 8
REMARK VINA RESULT:    -5.882      1.974      3.261
REMARK INTER + INTRA:          -6.226
REMARK INTER:                  -6.226
REMARK INTRA:                   0.000
REMARK UNBOUND:                 0.000
REMARK SMILES O=c1ccc2cc(O)c(O)cc2o1
REMARK SMILES IDX 4 1 3 2 2 3 1 4 13 5 12 6 11 7 9 8 7 9 6 10 5 11 8 12 10 14
REMARK H PARENT 8 13 10 15
REMARK Flexibility Score: inf
ROOT
ATOM      1  C   UNL     1      78.128  60.884  12.487  1.00  0.00     0.019 A 
ATOM      2  C   UNL     1      76.952  60.302  12.017  1.00  0.00     0.094 A 
ATOM      3  C   UNL     1      77.035  59.265  11.081  1.00  0.00     0.336 A 
ATOM      4  O   UNL     1      75.985  58.727  10.644  1.00  0.00    -0.246 OA
ATOM      5  O   UNL     1      78.220  58.844  10.647  1.00  0.00    -0.423 OA
ATOM      6  C   UNL     1      79.367  59.371  11.069  1.00  0.00     0.142 A 
ATOM      7  C   UNL     1      80.582  58.888  10.577  1.00  0.00     0.098 A 
ATOM      8  C   UNL     1      81.794  59.441  11.020  1.00  0.00     0.161 A 
ATOM      9  C   UNL     1      81.788  60.484  11.958  1.00  0.00     0.158 A 
ATOM     10  C   UNL     1      80.571  60.974  12.455  1.00  0.00     0.062 A 
ATOM     11  C   UNL     1      79.360  60.421  12.014  1.00  0.00     0.022 A 
ENDROOT
BRANCH   9  12
ATOM     12  O   UNL     1      82.995  61.028  12.392  1.00  0.00    -0.504 OA
ATOM     13  H   UNL     1      83.885  60.629  12.117  1.00  0.00     0.293 HD
ENDBRANCH   9  12
BRANCH   8  14
ATOM     14  O   UNL     1      83.007  58.960  10.531  1.00  0.00    -0.504 OA
ATOM     15  H   UNL     1      83.847  59.526  10.550  1.00  0.00     0.293 HD
ENDBRANCH   8  14
TORSDOF 2
ENDMDL
MODEL 9
REMARK VINA RESULT:    -5.871      1.233      5.014
REMARK INTER + INTRA:          -6.214
REMARK INTER:                  -6.214
REMARK INTRA:                   0.000
REMARK UNBOUND:                 0.000
REMARK SMILES O=c1ccc2cc(O)c(O)cc2o1
REMARK SMILES IDX 4 1 3 2 2 3 1 4 13 5 12 6 11 7 9 8 7 9 6 10 5 11 8 12 10 14
REMARK H PARENT 8 13 10 15
REMARK Flexibility Score: inf
ROOT
ATOM      1  C   UNL     1      80.626  63.023  11.663  1.00  0.00     0.019 A 
ATOM      2  C   UNL     1      81.898  63.466  11.305  1.00  0.00     0.094 A 
ATOM      3  C   UNL     1      82.824  62.541  10.809  1.00  0.00     0.336 A 
ATOM      4  O   UNL     1      83.978  62.921  10.481  1.00  0.00    -0.246 OA
ATOM      5  O   UNL     1      82.493  61.259  10.683  1.00  0.00    -0.423 OA
ATOM      6  C   UNL     1      81.290  60.793  11.012  1.00  0.00     0.142 A 
ATOM      7  C   UNL     1      80.999  59.435  10.859  1.00  0.00     0.098 A 
ATOM      8  C   UNL     1      79.733  58.940  11.204  1.00  0.00     0.161 A 
ATOM      9  C   UNL     1      78.753  59.809  11.708  1.00  0.00     0.158 A 
ATOM     10  C   UNL     1      79.040  61.173  11.865  1.00  0.00     0.062 A 
ATOM     11  C   UNL     1      80.304  61.668  11.519  1.00  0.00     0.022 A 
ENDROOT
BRANCH   9  12
ATOM     12  O   UNL     1      77.498  59.309  12.049  1.00  0.00    -0.504 OA
ATOM     13  H   UNL     1      77.025  59.600  12.896  1.00  0.00     0.293 HD
ENDBRANCH   9  12
BRANCH   8  14
ATOM     14  O   UNL     1      79.441  57.586  11.052  1.00  0.00    -0.504 OA
ATOM     15  H   UNL     1      78.506  57.268  10.824  1.00  0.00     0.293 HD
ENDBRANCH   8  14
TORSDOF 2
ENDMDL
