MODEL 1
REMARK VINA RESULT:     5.393      0.000      0.000
REMARK INTER + INTRA:           8.042
REMARK INTER:                   7.915
REMARK INTRA:                   0.127
REMARK UNBOUND:                 0.127
REMARK SMILES O=c1c(O[C@H]2O[C@@H](CO)[C@H](O)[C@@H](O)[C@@H]2O)c(-c2ccc(O)c(O)c2)oc2cc(O)cc(O)c12
REMARK SMILES IDX 4 1 3 2 16 3 25 4 2 5 26 6 1 7 33 8 27 9 31 10 28 11 30 12
REMARK SMILES IDX 17 13 18 14 19 15 20 16 24 17 22 18 21 19 23 21 32 23 29 25
REMARK SMILES IDX 5 27 14 28 6 29 12 30 7 31 10 32 15 33 13 35 8 37 9 38 11 40
REMARK H PARENT 21 20 23 22 32 24 29 26 15 34 13 36 9 39 11 41
REMARK Flexibility Score: inf
ROOT
ATOM      1  O   UNL     1     -35.238  11.416 -39.877  1.00  0.00    -0.454 OA
ENDROOT
BRANCH   1   2
ATOM      2  C   UNL     1     -35.178  10.085 -40.445  1.00  0.00     0.214 A 
ATOM      3  C   UNL     1     -35.800   9.662 -41.725  1.00  0.00     0.180 A 
ATOM      4  O   UNL     1     -34.992   9.039 -42.666  1.00  0.00    -0.452 OA
ATOM      5  C   UNL     1     -34.068   9.250 -40.076  1.00  0.00     0.239 A 
ATOM      6  C   UNL     1     -33.693   8.880 -42.470  1.00  0.00     0.146 A 
ATOM      7  O   UNL     1     -33.816   9.032 -38.860  1.00  0.00    -0.285 OA
ATOM      8  C   UNL     1     -33.164   8.886 -41.120  1.00  0.00     0.111 A 
ATOM      9  C   UNL     1     -32.794   8.969 -43.534  1.00  0.00     0.094 A 
ATOM     10  C   UNL     1     -31.749   8.973 -40.911  1.00  0.00     0.134 A 
ATOM     11  C   UNL     1     -31.529   9.493 -43.258  1.00  0.00     0.123 A 
ATOM     12  C   UNL     1     -30.935   9.335 -41.998  1.00  0.00     0.093 A 
BRANCH   3  13
ATOM     13  C   UNL     1     -37.233   9.838 -42.073  1.00  0.00     0.025 A 
ATOM     14  C   UNL     1     -37.693  10.959 -42.829  1.00  0.00     0.016 A 
ATOM     15  C   UNL     1     -39.022  11.381 -42.591  1.00  0.00     0.051 A 
ATOM     16  C   UNL     1     -39.746  10.784 -41.524  1.00  0.00     0.157 A 
ATOM     17  C   UNL     1     -38.212   8.896 -41.651  1.00  0.00     0.062 A 
ATOM     18  C   UNL     1     -39.438   9.490 -41.142  1.00  0.00     0.158 A 
BRANCH  16  19
ATOM     19  O   UNL     1     -40.192  11.583 -40.412  1.00  0.00    -0.504 OA
ATOM     20  H   UNL     1     -41.184  12.002 -40.437  1.00  0.00     0.293 HD
ENDBRANCH  16  19
BRANCH  18  21
ATOM     21  O   UNL     1     -39.984   9.022 -39.933  1.00  0.00    -0.504 OA
ATOM     22  H   UNL     1     -40.779   8.361 -39.989  1.00  0.00     0.293 HD
ENDBRANCH  18  21
ENDBRANCH   3  13
BRANCH  10  23
ATOM     23  O   UNL     1     -31.194   8.875 -39.613  1.00  0.00    -0.507 OA
ATOM     24  H   UNL     1     -30.623   8.063 -39.325  1.00  0.00     0.293 HD
ENDBRANCH  10  23
BRANCH  11  25
ATOM     25  O   UNL     1     -31.022  10.416 -44.122  1.00  0.00    -0.508 OA
ATOM     26  H   UNL     1     -31.584  11.225 -44.523  1.00  0.00     0.293 HD
ENDBRANCH  11  25
ENDBRANCH   1   2
BRANCH   1  27
ATOM     27  C   UNL     1     -34.432  12.021 -38.786  1.00  0.00     0.339 C 
ATOM     28  C   UNL     1     -33.052  12.833 -38.951  1.00  0.00     0.214 C 
ATOM     29  O   UNL     1     -34.848  11.591 -37.480  1.00  0.00    -0.332 OA
ATOM     30  C   UNL     1     -32.219  13.008 -37.625  1.00  0.00     0.180 C 
ATOM     31  C   UNL     1     -33.841  11.230 -36.537  1.00  0.00     0.179 C 
ATOM     32  C   UNL     1     -33.035  12.557 -36.316  1.00  0.00     0.177 C 
BRANCH  28  33
ATOM     33  O   UNL     1     -33.263  14.125 -39.541  1.00  0.00    -0.384 OA
ATOM     34  H   UNL     1     -32.449  14.703 -39.341  1.00  0.00     0.211 HD
ENDBRANCH  28  33
BRANCH  30  35
ATOM     35  O   UNL     1     -30.940  12.326 -37.695  1.00  0.00    -0.387 OA
ATOM     36  H   UNL     1     -30.546  12.289 -36.741  1.00  0.00     0.211 HD
ENDBRANCH  30  35
BRANCH  31  37
ATOM     37  C   UNL     1     -34.122   9.655 -36.535  1.00  0.00     0.191 C 
BRANCH  37  38
ATOM     38  O   UNL     1     -32.991   9.010 -35.929  1.00  0.00    -0.394 OA
ATOM     39  H   UNL     1     -32.725   8.249 -36.533  1.00  0.00     0.210 HD
ENDBRANCH  37  38
ENDBRANCH  31  37
BRANCH  32  40
ATOM     40  O   UNL     1     -33.931  13.598 -35.931  1.00  0.00    -0.387 OA
ATOM     41  H   UNL     1     -34.410  13.292 -35.112  1.00  0.00     0.211 HD
ENDBRANCH  32  40
ENDBRANCH   1  27
TORSDOF 12
ENDMDL
