MODEL 1
REMARK VINA RESULT:    -5.564      0.000      0.000
REMARK INTER + INTRA:          -8.521
REMARK INTER:                  -7.353
REMARK INTRA:                  -1.168
REMARK UNBOUND:                -1.168
REMARK SMILES CC[C@H](C=C[C@@H](C)[C@@H]1CC[C@@H]2C3=CC[C@H]4C[C@H](O)CC[C@@]4(C)[C@H]3CC[C@@]21C)C(C)C
REMARK SMILES IDX 6 1 7 2 5 3 4 4 3 5 2 6 1 7 28 8 29 9 30 10 8 11 9 12 26 13
REMARK SMILES IDX 10 14 11 15 25 16 27 17 12 18 24 19 23 20 13 21 21 22 14 23
REMARK SMILES IDX 15 24 20 25 22 26 16 27 19 28 17 29 18 30
REMARK H PARENT 18 31
REMARK Flexibility Score: inf
ROOT
ATOM      1  C   UNL     1       8.752  -2.494  -4.429  1.00  0.00     0.012 C 
ATOM      2  C   UNL     1       8.588  -2.861  -2.938  1.00  0.00     0.012 C 
ENDROOT
BRANCH   1   3
ATOM      3  C   UNL     1       9.732  -1.347  -4.564  1.00  0.00    -0.028 C 
ATOM      4  C   UNL     1       9.531  -0.306  -5.394  1.00  0.00    -0.027 C 
BRANCH   4   5
ATOM      5  C   UNL     1      10.394   0.945  -5.334  1.00  0.00     0.014 C 
BRANCH   5   6
ATOM      6  C   UNL     1      11.081   1.170  -6.702  1.00  0.00     0.004 C 
ATOM      7  C   UNL     1      10.715   0.109  -7.739  1.00  0.00     0.004 C 
ENDBRANCH   5   6
BRANCH   5   8
ATOM      8  C   UNL     1       9.511   2.165  -4.906  1.00  0.00    -0.011 C 
ATOM      9  C   UNL     1       8.570   2.647  -6.026  1.00  0.00     0.008 C 
ATOM     10  C   UNL     1      10.381   3.350  -4.449  1.00  0.00     0.008 C 
ENDBRANCH   5   8
ENDBRANCH   4   5
ENDBRANCH   1   3
BRANCH   1  11
ATOM     11  C   UNL     1       7.378  -2.208  -5.120  1.00  0.00     0.002 C 
ATOM     12  C   UNL     1       6.244  -2.012  -4.099  1.00  0.00     0.005 C 
ATOM     13  C   UNL     1       6.832  -3.292  -6.101  1.00  0.00    -0.023 C 
ATOM     14  C   UNL     1       4.945  -2.421  -4.786  1.00  0.00     0.009 C 
ATOM     15  C   UNL     1       5.328  -2.942  -6.172  1.00  0.00     0.021 C 
ATOM     16  C   UNL     1       7.054  -4.733  -5.548  1.00  0.00     0.008 C 
ATOM     17  C   UNL     1       7.458  -3.153  -7.510  1.00  0.00     0.012 C 
ATOM     18  C   UNL     1       4.427  -4.082  -6.636  1.00  0.00    -0.067 C 
ATOM     19  C   UNL     1       6.210  -5.789  -6.268  1.00  0.00     0.009 C 
ATOM     20  C   UNL     1       4.702  -5.490  -6.125  1.00  0.00     0.021 C 
ATOM     21  C   UNL     1       3.283  -3.769  -7.265  1.00  0.00    -0.027 C 
ATOM     22  C   UNL     1       3.764  -6.637  -6.692  1.00  0.00    -0.023 C 
ATOM     23  C   UNL     1       2.335  -4.796  -7.784  1.00  0.00     0.031 C 
ATOM     24  C   UNL     1       2.323  -6.075  -6.928  1.00  0.00     0.002 C 
ATOM     25  C   UNL     1       4.304  -7.239  -8.028  1.00  0.00     0.010 C 
ATOM     26  C   UNL     1       3.707  -7.760  -5.610  1.00  0.00     0.012 C 
ATOM     27  C   UNL     1       1.374  -7.118  -7.568  1.00  0.00     0.036 C 
ATOM     28  C   UNL     1       3.357  -8.274  -8.662  1.00  0.00     0.032 C 
ATOM     29  C   UNL     1       1.937  -7.732  -8.866  1.00  0.00     0.114 C 
BRANCH  29  30
ATOM     30  O   UNL     1       1.110  -8.783  -9.289  1.00  0.00    -0.393 OA
ATOM     31  H   UNL     1       1.317  -8.944 -10.247  1.00  0.00     0.210 HD
ENDBRANCH  29  30
ENDBRANCH   1  11
TORSDOF 6
ENDMDL
MODEL 2
REMARK VINA RESULT:    -5.309      3.175      7.962
REMARK INTER + INTRA:          -8.184
REMARK INTER:                  -6.962
REMARK INTRA:                  -1.221
REMARK UNBOUND:                -1.168
REMARK SMILES CC[C@H](C=C[C@@H](C)[C@@H]1CC[C@@H]2C3=CC[C@H]4C[C@H](O)CC[C@@]4(C)[C@H]3CC[C@@]21C)C(C)C
REMARK SMILES IDX 6 1 7 2 5 3 4 4 3 5 2 6 1 7 28 8 29 9 30 10 8 11 9 12 26 13
REMARK SMILES IDX 10 14 11 15 25 16 27 17 12 18 24 19 23 20 13 21 21 22 14 23
REMARK SMILES IDX 15 24 20 25 22 26 16 27 19 28 17 29 18 30
REMARK H PARENT 18 31
REMARK Flexibility Score: inf
ROOT
ATOM      1  C   UNL     1       1.952  -5.803  -7.778  1.00  0.00     0.012 C 
ATOM      2  C   UNL     1       0.999  -6.948  -8.179  1.00  0.00     0.012 C 
ENDROOT
BRANCH   1   3
ATOM      3  C   UNL     1       1.888  -4.702  -8.817  1.00  0.00    -0.028 C 
ATOM      4  C   UNL     1       1.264  -3.528  -8.603  1.00  0.00    -0.027 C 
BRANCH   4   5
ATOM      5  C   UNL     1       1.423  -2.351  -9.553  1.00  0.00     0.014 C 
BRANCH   5   6
ATOM      6  C   UNL     1       0.037  -1.932 -10.098  1.00  0.00     0.004 C 
ATOM      7  C   UNL     1      -1.123  -2.428  -9.235  1.00  0.00     0.004 C 
ENDBRANCH   5   6
BRANCH   5   8
ATOM      8  C   UNL     1       2.148  -1.179  -8.812  1.00  0.00    -0.011 C 
ATOM      9  C   UNL     1       3.680  -1.235  -8.955  1.00  0.00     0.008 C 
ATOM     10  C   UNL     1       1.793  -1.160  -7.315  1.00  0.00     0.008 C 
ENDBRANCH   5   8
ENDBRANCH   4   5
ENDBRANCH   1   3
BRANCH   1  11
ATOM     11  C   UNL     1       3.408  -6.312  -7.517  1.00  0.00     0.002 C 
ATOM     12  C   UNL     1       3.513  -7.133  -6.220  1.00  0.00     0.005 C 
ATOM     13  C   UNL     1       4.529  -5.234  -7.385  1.00  0.00    -0.023 C 
ATOM     14  C   UNL     1       4.944  -6.988  -5.712  1.00  0.00     0.009 C 
ATOM     15  C   UNL     1       5.648  -6.013  -6.656  1.00  0.00     0.021 C 
ATOM     16  C   UNL     1       4.053  -4.008  -6.547  1.00  0.00     0.008 C 
ATOM     17  C   UNL     1       5.043  -4.773  -8.770  1.00  0.00     0.012 C 
ATOM     18  C   UNL     1       6.671  -5.140  -5.936  1.00  0.00    -0.067 C 
ATOM     19  C   UNL     1       5.207  -3.124  -6.068  1.00  0.00     0.009 C 
ATOM     20  C   UNL     1       6.183  -3.915  -5.173  1.00  0.00     0.021 C 
ATOM     21  C   UNL     1       7.916  -5.617  -5.786  1.00  0.00    -0.027 C 
ATOM     22  C   UNL     1       7.305  -3.019  -4.496  1.00  0.00    -0.023 C 
ATOM     23  C   UNL     1       9.006  -4.846  -5.122  1.00  0.00     0.031 C 
ATOM     24  C   UNL     1       8.482  -3.925  -4.006  1.00  0.00     0.002 C 
ATOM     25  C   UNL     1       7.864  -1.934  -5.469  1.00  0.00     0.010 C 
ATOM     26  C   UNL     1       6.650  -2.317  -3.267  1.00  0.00     0.012 C 
ATOM     27  C   UNL     1       9.657  -3.107  -3.414  1.00  0.00     0.036 C 
ATOM     28  C   UNL     1       9.033  -1.125  -4.879  1.00  0.00     0.032 C 
ATOM     29  C   UNL     1      10.174  -2.014  -4.372  1.00  0.00     0.114 C 
BRANCH  29  30
ATOM     30  O   UNL     1      11.111  -1.209  -3.706  1.00  0.00    -0.393 OA
ATOM     31  H   UNL     1      11.677  -1.817  -3.162  1.00  0.00     0.210 HD
ENDBRANCH  29  30
ENDBRANCH   1  11
TORSDOF 6
ENDMDL
MODEL 3
REMARK VINA RESULT:    -5.305      3.204      8.290
REMARK INTER + INTRA:          -8.179
REMARK INTER:                  -7.004
REMARK INTRA:                  -1.175
REMARK UNBOUND:                -1.168
REMARK SMILES CC[C@H](C=C[C@@H](C)[C@@H]1CC[C@@H]2C3=CC[C@H]4C[C@H](O)CC[C@@]4(C)[C@H]3CC[C@@]21C)C(C)C
REMARK SMILES IDX 6 1 7 2 5 3 4 4 3 5 2 6 1 7 28 8 29 9 30 10 8 11 9 12 26 13
REMARK SMILES IDX 10 14 11 15 25 16 27 17 12 18 24 19 23 20 13 21 21 22 14 23
REMARK SMILES IDX 15 24 20 25 22 26 16 27 19 28 17 29 18 30
REMARK H PARENT 18 31
REMARK Flexibility Score: inf
ROOT
ATOM      1  C   UNL     1       2.384  -7.577  -7.008  1.00  0.00     0.012 C 
ATOM      2  C   UNL     1       1.629  -8.918  -7.120  1.00  0.00     0.012 C 
ENDROOT
BRANCH   1   3
ATOM      3  C   UNL     1       2.234  -6.800  -8.300  1.00  0.00    -0.028 C 
ATOM      4  C   UNL     1       1.392  -5.758  -8.434  1.00  0.00    -0.027 C 
BRANCH   4   5
ATOM      5  C   UNL     1       1.436  -4.844  -9.649  1.00  0.00     0.014 C 
BRANCH   5   6
ATOM      6  C   UNL     1       0.043  -4.800 -10.319  1.00  0.00     0.004 C 
ATOM      7  C   UNL     1      -0.270  -3.451 -10.966  1.00  0.00     0.004 C 
ENDBRANCH   5   6
BRANCH   5   8
ATOM      8  C   UNL     1       1.928  -3.423  -9.212  1.00  0.00    -0.011 C 
ATOM      9  C   UNL     1       3.446  -3.232  -9.389  1.00  0.00     0.008 C 
ATOM     10  C   UNL     1       1.563  -3.133  -7.745  1.00  0.00     0.008 C 
ENDBRANCH   5   8
ENDBRANCH   4   5
ENDBRANCH   1   3
BRANCH   1  11
ATOM     11  C   UNL     1       3.878  -7.776  -6.586  1.00  0.00     0.002 C 
ATOM     12  C   UNL     1       4.013  -8.205  -5.115  1.00  0.00     0.005 C 
ATOM     13  C   UNL     1       4.828  -6.544  -6.719  1.00  0.00    -0.023 C 
ATOM     14  C   UNL     1       5.376  -7.720  -4.629  1.00  0.00     0.009 C 
ATOM     15  C   UNL     1       5.996  -6.929  -5.782  1.00  0.00     0.021 C 
ATOM     16  C   UNL     1       4.134  -5.229  -6.250  1.00  0.00     0.008 C 
ATOM     17  C   UNL     1       5.359  -6.389  -8.164  1.00  0.00     0.012 C 
ATOM     18  C   UNL     1       6.840  -5.755  -5.297  1.00  0.00    -0.067 C 
ATOM     19  C   UNL     1       5.122  -4.087  -5.998  1.00  0.00     0.009 C 
ATOM     20  C   UNL     1       6.140  -4.462  -4.900  1.00  0.00     0.021 C 
ATOM     21  C   UNL     1       8.128  -5.984  -4.995  1.00  0.00    -0.027 C 
ATOM     22  C   UNL     1       7.082  -3.262  -4.460  1.00  0.00    -0.023 C 
ATOM     23  C   UNL     1       9.056  -4.912  -4.535  1.00  0.00     0.031 C 
ATOM     24  C   UNL     1       8.340  -3.821  -3.718  1.00  0.00     0.002 C 
ATOM     25  C   UNL     1       7.546  -2.396  -5.674  1.00  0.00     0.010 C 
ATOM     26  C   UNL     1       6.259  -2.371  -3.479  1.00  0.00     0.012 C 
ATOM     27  C   UNL     1       9.350  -2.711  -3.338  1.00  0.00     0.036 C 
ATOM     28  C   UNL     1       8.551  -1.295  -5.294  1.00  0.00     0.032 C 
ATOM     29  C   UNL     1       9.770  -1.840  -4.539  1.00  0.00     0.114 C 
BRANCH  29  30
ATOM     30  O   UNL     1      10.543  -0.757  -4.091  1.00  0.00    -0.393 OA
ATOM     31  H   UNL     1       9.955  -0.209  -3.507  1.00  0.00     0.210 HD
ENDBRANCH  29  30
ENDBRANCH   1  11
TORSDOF 6
ENDMDL
MODEL 4
REMARK VINA RESULT:    -5.241      3.394      8.039
REMARK INTER + INTRA:          -8.094
REMARK INTER:                  -7.849
REMARK INTRA:                  -0.246
REMARK UNBOUND:                -1.168
REMARK SMILES CC[C@H](C=C[C@@H](C)[C@@H]1CC[C@@H]2C3=CC[C@H]4C[C@H](O)CC[C@@]4(C)[C@H]3CC[C@@]21C)C(C)C
REMARK SMILES IDX 6 1 7 2 5 3 4 4 3 5 2 6 1 7 28 8 29 9 30 10 8 11 9 12 26 13
REMARK SMILES IDX 10 14 11 15 25 16 27 17 12 18 24 19 23 20 13 21 21 22 14 23
REMARK SMILES IDX 15 24 20 25 22 26 16 27 19 28 17 29 18 30
REMARK H PARENT 18 31
REMARK Flexibility Score: inf
ROOT
ATOM      1  C   UNL     1       1.702  -5.683  -8.859  1.00  0.00     0.012 C 
ATOM      2  C   UNL     1       1.963  -5.535 -10.373  1.00  0.00     0.012 C 
ENDROOT
BRANCH   1   3
ATOM      3  C   UNL     1       1.433  -4.320  -8.255  1.00  0.00    -0.028 C 
ATOM      4  C   UNL     1       0.882  -3.307  -8.949  1.00  0.00    -0.027 C 
BRANCH   4   5
ATOM      5  C   UNL     1       0.394  -2.039  -8.265  1.00  0.00     0.014 C 
BRANCH   5   6
ATOM      6  C   UNL     1       1.497  -0.955  -8.329  1.00  0.00     0.004 C 
ATOM      7  C   UNL     1       2.218  -0.753  -6.997  1.00  0.00     0.004 C 
ENDBRANCH   5   6
BRANCH   5   8
ATOM      8  C   UNL     1      -0.939  -1.567  -8.935  1.00  0.00    -0.011 C 
ATOM      9  C   UNL     1      -1.597  -2.661  -9.797  1.00  0.00     0.008 C 
ATOM     10  C   UNL     1      -0.715  -0.320  -9.808  1.00  0.00     0.008 C 
ENDBRANCH   5   8
ENDBRANCH   4   5
ENDBRANCH   1   3
BRANCH   1  11
ATOM     11  C   UNL     1       2.855  -6.454  -8.136  1.00  0.00     0.002 C 
ATOM     12  C   UNL     1       2.399  -7.059  -6.797  1.00  0.00     0.005 C 
ATOM     13  C   UNL     1       4.141  -5.645  -7.777  1.00  0.00    -0.023 C 
ATOM     14  C   UNL     1       3.632  -7.156  -5.905  1.00  0.00     0.009 C 
ATOM     15  C   UNL     1       4.787  -6.526  -6.683  1.00  0.00     0.021 C 
ATOM     16  C   UNL     1       3.794  -4.226  -7.231  1.00  0.00     0.008 C 
ATOM     17  C   UNL     1       5.103  -5.538  -8.985  1.00  0.00     0.012 C 
ATOM     18  C   UNL     1       5.774  -5.798  -5.776  1.00  0.00    -0.067 C 
ATOM     19  C   UNL     1       4.970  -3.555  -6.516  1.00  0.00     0.009 C 
ATOM     20  C   UNL     1       5.436  -4.390  -5.305  1.00  0.00     0.021 C 
ATOM     21  C   UNL     1       6.769  -6.509  -5.223  1.00  0.00    -0.027 C 
ATOM     22  C   UNL     1       6.532  -3.668  -4.412  1.00  0.00    -0.023 C 
ATOM     23  C   UNL     1       7.806  -5.903  -4.340  1.00  0.00     0.031 C 
ATOM     24  C   UNL     1       7.263  -4.722  -3.516  1.00  0.00     0.002 C 
ATOM     25  C   UNL     1       7.589  -2.905  -5.271  1.00  0.00     0.010 C 
ATOM     26  C   UNL     1       5.781  -2.650  -3.499  1.00  0.00     0.012 C 
ATOM     27  C   UNL     1       8.410  -4.102  -2.681  1.00  0.00     0.036 C 
ATOM     28  C   UNL     1       8.729  -2.291  -4.438  1.00  0.00     0.032 C 
ATOM     29  C   UNL     1       9.426  -3.319  -3.538  1.00  0.00     0.114 C 
BRANCH  29  30
ATOM     30  O   UNL     1      10.330  -2.646  -2.702  1.00  0.00    -0.393 OA
ATOM     31  H   UNL     1      11.215  -2.678  -3.151  1.00  0.00     0.210 HD
ENDBRANCH  29  30
ENDBRANCH   1  11
TORSDOF 6
ENDMDL
MODEL 5
REMARK VINA RESULT:    -5.237      3.396      7.815
REMARK INTER + INTRA:          -8.088
REMARK INTER:                  -7.792
REMARK INTRA:                  -0.297
REMARK UNBOUND:                -1.168
REMARK SMILES CC[C@H](C=C[C@@H](C)[C@@H]1CC[C@@H]2C3=CC[C@H]4C[C@H](O)CC[C@@]4(C)[C@H]3CC[C@@]21C)C(C)C
REMARK SMILES IDX 6 1 7 2 5 3 4 4 3 5 2 6 1 7 28 8 29 9 30 10 8 11 9 12 26 13
REMARK SMILES IDX 10 14 11 15 25 16 27 17 12 18 24 19 23 20 13 21 21 22 14 23
REMARK SMILES IDX 15 24 20 25 22 26 16 27 19 28 17 29 18 30
REMARK H PARENT 18 31
REMARK Flexibility Score: inf
ROOT
ATOM      1  C   UNL     1       1.563  -5.727  -8.512  1.00  0.00     0.012 C 
ATOM      2  C   UNL     1       1.042  -6.377  -9.812  1.00  0.00     0.012 C 
ENDROOT
BRANCH   1   3
ATOM      3  C   UNL     1       1.797  -4.248  -8.743  1.00  0.00    -0.028 C 
ATOM      4  C   UNL     1       0.843  -3.419  -9.206  1.00  0.00    -0.027 C 
BRANCH   4   5
ATOM      5  C   UNL     1       1.020  -1.908  -9.195  1.00  0.00     0.014 C 
BRANCH   5   6
ATOM      6  C   UNL     1      -0.298  -1.234  -8.745  1.00  0.00     0.004 C 
ATOM      7  C   UNL     1      -0.861  -0.264  -9.784  1.00  0.00     0.004 C 
ENDBRANCH   5   6
BRANCH   5   8
ATOM      8  C   UNL     1       2.224  -1.533  -8.268  1.00  0.00    -0.011 C 
ATOM      9  C   UNL     1       1.796  -0.737  -7.020  1.00  0.00     0.008 C 
ATOM     10  C   UNL     1       3.284  -0.720  -9.031  1.00  0.00     0.008 C 
ENDBRANCH   5   8
ENDBRANCH   4   5
ENDBRANCH   1   3
BRANCH   1  11
ATOM     11  C   UNL     1       2.824  -6.464  -7.950  1.00  0.00     0.002 C 
ATOM     12  C   UNL     1       2.526  -7.201  -6.633  1.00  0.00     0.005 C 
ATOM     13  C   UNL     1       4.079  -5.592  -7.632  1.00  0.00    -0.023 C 
ATOM     14  C   UNL     1       3.836  -7.275  -5.854  1.00  0.00     0.009 C 
ATOM     15  C   UNL     1       4.875  -6.503  -6.669  1.00  0.00     0.021 C 
ATOM     16  C   UNL     1       3.686  -4.248  -6.945  1.00  0.00     0.008 C 
ATOM     17  C   UNL     1       4.923  -5.323  -8.900  1.00  0.00     0.012 C 
ATOM     18  C   UNL     1       5.885  -5.776  -5.788  1.00  0.00    -0.067 C 
ATOM     19  C   UNL     1       4.871  -3.548  -6.274  1.00  0.00     0.009 C 
ATOM     20  C   UNL     1       5.496  -4.436  -5.178  1.00  0.00     0.021 C 
ATOM     21  C   UNL     1       6.969  -6.452  -5.378  1.00  0.00    -0.027 C 
ATOM     22  C   UNL     1       6.613  -3.706  -4.320  1.00  0.00    -0.023 C 
ATOM     23  C   UNL     1       8.036  -5.840  -4.534  1.00  0.00     0.031 C 
ATOM     24  C   UNL     1       7.488  -4.768  -3.575  1.00  0.00     0.002 C 
ATOM     25  C   UNL     1       7.539  -2.803  -5.196  1.00  0.00     0.010 C 
ATOM     26  C   UNL     1       5.877  -2.818  -3.269  1.00  0.00     0.012 C 
ATOM     27  C   UNL     1       8.659  -4.130  -2.788  1.00  0.00     0.036 C 
ATOM     28  C   UNL     1       8.702  -2.172  -4.411  1.00  0.00     0.032 C 
ATOM     29  C   UNL     1       9.542  -3.211  -3.657  1.00  0.00     0.114 C 
BRANCH  29  30
ATOM     30  O   UNL     1      10.467  -2.539  -2.844  1.00  0.00    -0.393 OA
ATOM     31  H   UNL     1      11.366  -2.886  -3.085  1.00  0.00     0.210 HD
ENDBRANCH  29  30
ENDBRANCH   1  11
TORSDOF 6
ENDMDL
MODEL 6
REMARK VINA RESULT:    -5.183      4.317      7.042
REMARK INTER + INTRA:          -8.017
REMARK INTER:                  -6.999
REMARK INTRA:                  -1.018
REMARK UNBOUND:                -1.168
REMARK SMILES CC[C@H](C=C[C@@H](C)[C@@H]1CC[C@@H]2C3=CC[C@H]4C[C@H](O)CC[C@@]4(C)[C@H]3CC[C@@]21C)C(C)C
REMARK SMILES IDX 6 1 7 2 5 3 4 4 3 5 2 6 1 7 28 8 29 9 30 10 8 11 9 12 26 13
REMARK SMILES IDX 10 14 11 15 25 16 27 17 12 18 24 19 23 20 13 21 21 22 14 23
REMARK SMILES IDX 15 24 20 25 22 26 16 27 19 28 17 29 18 30
REMARK H PARENT 18 31
REMARK Flexibility Score: inf
ROOT
ATOM      1  C   UNL     1       2.616  -0.953  -8.340  1.00  0.00     0.012 C 
ATOM      2  C   UNL     1       1.972  -0.393  -7.054  1.00  0.00     0.012 C 
ENDROOT
BRANCH   1   3
ATOM      3  C   UNL     1       2.018  -0.264  -9.549  1.00  0.00    -0.028 C 
ATOM      4  C   UNL     1       1.020   0.636  -9.460  1.00  0.00    -0.027 C 
BRANCH   4   5
ATOM      5  C   UNL     1       0.607   1.494 -10.647  1.00  0.00     0.014 C 
BRANCH   5   6
ATOM      6  C   UNL     1      -0.871   1.210 -11.005  1.00  0.00     0.004 C 
ATOM      7  C   UNL     1      -1.561   0.275 -10.011  1.00  0.00     0.004 C 
ENDBRANCH   5   6
BRANCH   5   8
ATOM      8  C   UNL     1       0.856   3.002 -10.310  1.00  0.00    -0.011 C 
ATOM      9  C   UNL     1       1.481   3.210  -8.918  1.00  0.00     0.008 C 
ATOM     10  C   UNL     1      -0.448   3.815 -10.391  1.00  0.00     0.008 C 
ENDBRANCH   5   8
ENDBRANCH   4   5
ENDBRANCH   1   3
BRANCH   1  11
ATOM     11  C   UNL     1       2.518  -2.513  -8.416  1.00  0.00     0.002 C 
ATOM     12  C   UNL     1       1.437  -3.074  -7.476  1.00  0.00     0.005 C 
ATOM     13  C   UNL     1       3.802  -3.327  -8.061  1.00  0.00    -0.023 C 
ATOM     14  C   UNL     1       1.858  -4.492  -7.104  1.00  0.00     0.009 C 
ATOM     15  C   UNL     1       3.225  -4.727  -7.749  1.00  0.00     0.021 C 
ATOM     16  C   UNL     1       4.539  -2.729  -6.824  1.00  0.00     0.008 C 
ATOM     17  C   UNL     1       4.765  -3.427  -9.268  1.00  0.00     0.012 C 
ATOM     18  C   UNL     1       4.126  -5.616  -6.898  1.00  0.00    -0.067 C 
ATOM     19  C   UNL     1       5.559  -3.692  -6.210  1.00  0.00     0.009 C 
ATOM     20  C   UNL     1       4.880  -4.993  -5.731  1.00  0.00     0.021 C 
ATOM     21  C   UNL     1       4.025  -6.946  -7.046  1.00  0.00    -0.027 C 
ATOM     22  C   UNL     1       5.845  -5.960  -4.924  1.00  0.00    -0.023 C 
ATOM     23  C   UNL     1       4.870  -7.913  -6.287  1.00  0.00     0.031 C 
ATOM     24  C   UNL     1       5.237  -7.401  -4.883  1.00  0.00     0.002 C 
ATOM     25  C   UNL     1       7.276  -6.025  -5.545  1.00  0.00     0.010 C 
ATOM     26  C   UNL     1       5.942  -5.402  -3.470  1.00  0.00     0.012 C 
ATOM     27  C   UNL     1       6.171  -8.422  -4.187  1.00  0.00     0.036 C 
ATOM     28  C   UNL     1       8.200  -7.042  -4.852  1.00  0.00     0.032 C 
ATOM     29  C   UNL     1       7.592  -8.448  -4.786  1.00  0.00     0.114 C 
BRANCH  29  30
ATOM     30  O   UNL     1       8.421  -9.262  -3.999  1.00  0.00    -0.393 OA
ATOM     31  H   UNL     1       7.942 -10.123  -3.873  1.00  0.00     0.210 HD
ENDBRANCH  29  30
ENDBRANCH   1  11
TORSDOF 6
ENDMDL
MODEL 7
REMARK VINA RESULT:    -5.169      3.721      6.160
REMARK INTER + INTRA:          -7.998
REMARK INTER:                  -6.680
REMARK INTRA:                  -1.318
REMARK UNBOUND:                -1.168
REMARK SMILES CC[C@H](C=C[C@@H](C)[C@@H]1CC[C@@H]2C3=CC[C@H]4C[C@H](O)CC[C@@]4(C)[C@H]3CC[C@@]21C)C(C)C
REMARK SMILES IDX 6 1 7 2 5 3 4 4 3 5 2 6 1 7 28 8 29 9 30 10 8 11 9 12 26 13
REMARK SMILES IDX 10 14 11 15 25 16 27 17 12 18 24 19 23 20 13 21 21 22 14 23
REMARK SMILES IDX 15 24 20 25 22 26 16 27 19 28 17 29 18 30
REMARK H PARENT 18 31
REMARK Flexibility Score: inf
ROOT
ATOM      1  C   UNL     1       9.099  -5.191  -4.675  1.00  0.00     0.012 C 
ATOM      2  C   UNL     1      10.098  -5.287  -5.847  1.00  0.00     0.012 C 
ENDROOT
BRANCH   1   3
ATOM      3  C   UNL     1       9.705  -5.822  -3.438  1.00  0.00    -0.028 C 
ATOM      4  C   UNL     1       9.071  -5.862  -2.251  1.00  0.00    -0.027 C 
BRANCH   4   5
ATOM      5  C   UNL     1       9.584  -6.710  -1.097  1.00  0.00     0.014 C 
BRANCH   5   6
ATOM      6  C   UNL     1      10.030  -5.792   0.066  1.00  0.00     0.004 C 
ATOM      7  C   UNL     1       9.932  -4.305  -0.272  1.00  0.00     0.004 C 
ENDBRANCH   5   6
BRANCH   5   8
ATOM      8  C   UNL     1       8.471  -7.721  -0.660  1.00  0.00    -0.011 C 
ATOM      9  C   UNL     1       7.252  -7.714  -1.601  1.00  0.00     0.008 C 
ATOM     10  C   UNL     1       7.989  -7.436   0.773  1.00  0.00     0.008 C 
ENDBRANCH   5   8
ENDBRANCH   4   5
ENDBRANCH   1   3
BRANCH   1  11
ATOM     11  C   UNL     1       7.701  -5.790  -5.043  1.00  0.00     0.002 C 
ATOM     12  C   UNL     1       7.700  -6.456  -6.430  1.00  0.00     0.005 C 
ATOM     13  C   UNL     1       6.490  -4.805  -5.086  1.00  0.00    -0.023 C 
ATOM     14  C   UNL     1       6.274  -6.376  -6.966  1.00  0.00     0.009 C 
ATOM     15  C   UNL     1       5.464  -5.585  -5.938  1.00  0.00     0.021 C 
ATOM     16  C   UNL     1       6.874  -3.452  -5.758  1.00  0.00     0.008 C 
ATOM     17  C   UNL     1       5.905  -4.560  -3.674  1.00  0.00     0.012 C 
ATOM     18  C   UNL     1       4.383  -4.725  -6.585  1.00  0.00    -0.067 C 
ATOM     19  C   UNL     1       5.656  -2.619  -6.168  1.00  0.00     0.009 C 
ATOM     20  C   UNL     1       4.776  -3.380  -7.183  1.00  0.00     0.021 C 
ATOM     21  C   UNL     1       3.189  -5.286  -6.832  1.00  0.00    -0.027 C 
ATOM     22  C   UNL     1       3.595  -2.510  -7.788  1.00  0.00    -0.023 C 
ATOM     23  C   UNL     1       2.051  -4.539  -7.438  1.00  0.00     0.031 C 
ATOM     24  C   UNL     1       2.516  -3.449  -8.420  1.00  0.00     0.002 C 
ATOM     25  C   UNL     1       2.917  -1.601  -6.714  1.00  0.00     0.010 C 
ATOM     26  C   UNL     1       4.212  -1.611  -8.903  1.00  0.00     0.012 C 
ATOM     27  C   UNL     1       1.286  -2.672  -8.951  1.00  0.00     0.036 C 
ATOM     28  C   UNL     1       1.695  -0.832  -7.244  1.00  0.00     0.032 C 
ATOM     29  C   UNL     1       0.650  -1.750  -7.891  1.00  0.00     0.114 C 
BRANCH  29  30
ATOM     30  O   UNL     1      -0.340  -0.955  -8.489  1.00  0.00    -0.393 OA
ATOM     31  H   UNL     1      -0.246  -1.071  -9.471  1.00  0.00     0.210 HD
ENDBRANCH  29  30
ENDBRANCH   1  11
TORSDOF 6
ENDMDL
MODEL 8
REMARK VINA RESULT:    -5.050      3.778      6.692
REMARK INTER + INTRA:          -7.842
REMARK INTER:                  -7.296
REMARK INTRA:                  -0.546
REMARK UNBOUND:                -1.168
REMARK SMILES CC[C@H](C=C[C@@H](C)[C@@H]1CC[C@@H]2C3=CC[C@H]4C[C@H](O)CC[C@@]4(C)[C@H]3CC[C@@]21C)C(C)C
REMARK SMILES IDX 6 1 7 2 5 3 4 4 3 5 2 6 1 7 28 8 29 9 30 10 8 11 9 12 26 13
REMARK SMILES IDX 10 14 11 15 25 16 27 17 12 18 24 19 23 20 13 21 21 22 14 23
REMARK SMILES IDX 15 24 20 25 22 26 16 27 19 28 17 29 18 30
REMARK H PARENT 18 31
REMARK Flexibility Score: inf
ROOT
ATOM      1  C   UNL     1       4.510  -7.457  -6.536  1.00  0.00     0.012 C 
ATOM      2  C   UNL     1       3.340  -8.383  -6.141  1.00  0.00     0.012 C 
ENDROOT
BRANCH   1   3
ATOM      3  C   UNL     1       4.730  -6.425  -5.449  1.00  0.00    -0.028 C 
ATOM      4  C   UNL     1       5.849  -6.374  -4.704  1.00  0.00    -0.027 C 
BRANCH   4   5
ATOM      5  C   UNL     1       6.156  -5.192  -3.797  1.00  0.00     0.014 C 
BRANCH   5   6
ATOM      6  C   UNL     1       7.626  -5.267  -3.322  1.00  0.00     0.004 C 
ATOM      7  C   UNL     1       7.954  -6.566  -2.588  1.00  0.00     0.004 C 
ENDBRANCH   5   6
BRANCH   5   8
ATOM      8  C   UNL     1       5.847  -3.860  -4.559  1.00  0.00    -0.011 C 
ATOM      9  C   UNL     1       6.852  -3.567  -5.689  1.00  0.00     0.008 C 
ATOM     10  C   UNL     1       5.823  -2.659  -3.597  1.00  0.00     0.008 C 
ENDBRANCH   5   8
ENDBRANCH   4   5
ENDBRANCH   1   3
BRANCH   1  11
ATOM     11  C   UNL     1       4.304  -6.820  -7.950  1.00  0.00     0.002 C 
ATOM     12  C   UNL     1       5.469  -5.896  -8.346  1.00  0.00     0.005 C 
ATOM     13  C   UNL     1       3.027  -5.946  -8.161  1.00  0.00    -0.023 C 
ATOM     14  C   UNL     1       4.908  -4.855  -9.311  1.00  0.00     0.009 C 
ATOM     15  C   UNL     1       3.404  -5.112  -9.407  1.00  0.00     0.021 C 
ATOM     16  C   UNL     1       2.746  -5.031  -6.931  1.00  0.00     0.008 C 
ATOM     17  C   UNL     1       1.788  -6.816  -8.481  1.00  0.00     0.012 C 
ATOM     18  C   UNL     1       2.603  -3.827  -9.583  1.00  0.00    -0.067 C 
ATOM     19  C   UNL     1       1.759  -3.901  -7.236  1.00  0.00     0.009 C 
ATOM     20  C   UNL     1       2.292  -2.982  -8.354  1.00  0.00     0.021 C 
ATOM     21  C   UNL     1       2.423  -3.358 -10.828  1.00  0.00    -0.027 C 
ATOM     22  C   UNL     1       1.406  -1.688  -8.599  1.00  0.00    -0.023 C 
ATOM     23  C   UNL     1       1.639  -2.125 -11.125  1.00  0.00     0.031 C 
ATOM     24  C   UNL     1       1.736  -1.078 -10.001  1.00  0.00     0.002 C 
ATOM     25  C   UNL     1      -0.124  -1.993  -8.520  1.00  0.00     0.010 C 
ATOM     26  C   UNL     1       1.781  -0.659  -7.489  1.00  0.00     0.012 C 
ATOM     27  C   UNL     1       0.841   0.138 -10.347  1.00  0.00     0.036 C 
ATOM     28  C   UNL     1      -1.009  -0.784  -8.867  1.00  0.00     0.032 C 
ATOM     29  C   UNL     1      -0.666  -0.167 -10.228  1.00  0.00     0.114 C 
BRANCH  29  30
ATOM     30  O   UNL     1      -1.401   1.018 -10.385  1.00  0.00    -0.393 OA
ATOM     31  H   UNL     1      -0.933   1.717  -9.857  1.00  0.00     0.210 HD
ENDBRANCH  29  30
ENDBRANCH   1  11
TORSDOF 6
ENDMDL
MODEL 9
REMARK VINA RESULT:    -4.983      3.180      9.246
REMARK INTER + INTRA:          -7.752
REMARK INTER:                  -6.360
REMARK INTRA:                  -1.392
REMARK UNBOUND:                -1.168
REMARK SMILES CC[C@H](C=C[C@@H](C)[C@@H]1CC[C@@H]2C3=CC[C@H]4C[C@H](O)CC[C@@]4(C)[C@H]3CC[C@@]21C)C(C)C
REMARK SMILES IDX 6 1 7 2 5 3 4 4 3 5 2 6 1 7 28 8 29 9 30 10 8 11 9 12 26 13
REMARK SMILES IDX 10 14 11 15 25 16 27 17 12 18 24 19 23 20 13 21 21 22 14 23
REMARK SMILES IDX 15 24 20 25 22 26 16 27 19 28 17 29 18 30
REMARK H PARENT 18 31
REMARK Flexibility Score: inf
ROOT
ATOM      1  C   UNL     1       3.821  -7.768  -5.465  1.00  0.00     0.012 C 
ATOM      2  C   UNL     1       4.244  -9.035  -4.693  1.00  0.00     0.012 C 
ENDROOT
BRANCH   1   3
ATOM      3  C   UNL     1       2.569  -8.057  -6.268  1.00  0.00    -0.028 C 
ATOM      4  C   UNL     1       2.282  -7.434  -7.427  1.00  0.00    -0.027 C 
BRANCH   4   5
ATOM      5  C   UNL     1       1.159  -7.909  -8.336  1.00  0.00     0.014 C 
BRANCH   5   6
ATOM      6  C   UNL     1       1.104  -7.023  -9.602  1.00  0.00     0.004 C 
ATOM      7  C   UNL     1       2.146  -5.905  -9.599  1.00  0.00     0.004 C 
ENDBRANCH   5   6
BRANCH   5   8
ATOM      8  C   UNL     1       1.374  -9.421  -8.679  1.00  0.00    -0.011 C 
ATOM      9  C   UNL     1       2.713  -9.690  -9.393  1.00  0.00     0.008 C 
ATOM     10  C   UNL     1       0.231  -9.963  -9.556  1.00  0.00     0.008 C 
ENDBRANCH   5   8
ENDBRANCH   4   5
ENDBRANCH   1   3
BRANCH   1  11
ATOM     11  C   UNL     1       4.986  -7.193  -6.337  1.00  0.00     0.002 C 
ATOM     12  C   UNL     1       6.283  -8.008  -6.184  1.00  0.00     0.005 C 
ATOM     13  C   UNL     1       5.421  -5.718  -6.066  1.00  0.00    -0.023 C 
ATOM     14  C   UNL     1       7.444  -7.059  -6.464  1.00  0.00     0.009 C 
ATOM     15  C   UNL     1       6.835  -5.675  -6.689  1.00  0.00     0.021 C 
ATOM     16  C   UNL     1       5.463  -5.402  -4.540  1.00  0.00     0.008 C 
ATOM     17  C   UNL     1       4.505  -4.711  -6.801  1.00  0.00     0.012 C 
ATOM     18  C   UNL     1       7.729  -4.553  -6.169  1.00  0.00    -0.067 C 
ATOM     19  C   UNL     1       6.240  -4.123  -4.214  1.00  0.00     0.009 C 
ATOM     20  C   UNL     1       7.706  -4.226  -4.682  1.00  0.00     0.021 C 
ATOM     21  C   UNL     1       8.680  -4.072  -6.985  1.00  0.00    -0.027 C 
ATOM     22  C   UNL     1       8.616  -3.011  -4.218  1.00  0.00    -0.023 C 
ATOM     23  C   UNL     1       9.596  -2.962  -6.597  1.00  0.00     0.031 C 
ATOM     24  C   UNL     1       9.913  -2.957  -5.091  1.00  0.00     0.002 C 
ATOM     25  C   UNL     1       7.872  -1.641  -4.319  1.00  0.00     0.010 C 
ATOM     26  C   UNL     1       9.007  -3.273  -2.731  1.00  0.00     0.012 C 
ATOM     27  C   UNL     1      10.807  -1.738  -4.754  1.00  0.00     0.036 C 
ATOM     28  C   UNL     1       8.764  -0.433  -3.985  1.00  0.00     0.032 C 
ATOM     29  C   UNL     1      10.050  -0.396  -4.820  1.00  0.00     0.114 C 
BRANCH  29  30
ATOM     30  O   UNL     1      10.872   0.634  -4.337  1.00  0.00    -0.393 OA
ATOM     31  H   UNL     1      11.563   0.206  -3.767  1.00  0.00     0.210 HD
ENDBRANCH  29  30
ENDBRANCH   1  11
TORSDOF 6
ENDMDL
