MODEL 1
REMARK VINA RESULT:    -6.959      0.000      0.000
REMARK INTER + INTRA:          -7.416
REMARK INTER:                  -7.569
REMARK INTRA:                   0.153
REMARK UNBOUND:                 0.153
REMARK SMILES C[C@H]1[C@H](C)CC[C@@]2(C(=O)[O-])CC[C@]3(C)C(=CC[C@@H]4[C@@]5(C)CC[C@H](O)C(C)(C)[C@H]5CC[C@@]43C)[C@H]12
REMARK SMILES IDX 7 1 6 2 11 3 33 4 5 5 12 6 15 7 2 8 3 9 13 10 16 11 1 12
REMARK SMILES IDX 4 13 14 14 31 15 17 16 18 17 30 18 32 19 19 20 29 21 28 22
REMARK SMILES IDX 21 23 20 24 25 25 22 26 23 27 26 28 27 29 8 30 9 31 10 32
REMARK SMILES IDX 24 33
REMARK H PARENT 24 34
REMARK Flexibility Score: inf
ROOT
ATOM      1  C   UNL     1      69.659  47.413   7.852  1.00  0.00     0.017 C 
ATOM      2  C   UNL     1      69.112  48.504   6.873  1.00  0.00     0.014 C 
ATOM      3  C   UNL     1      68.674  46.237   7.919  1.00  0.00     0.014 C 
ATOM      4  C   UNL     1      71.007  46.867   7.273  1.00  0.00     0.030 C 
ATOM      5  C   UNL     1      70.203  49.281   6.101  1.00  0.00     0.004 C 
ATOM      6  C   UNL     1      69.120  45.205   8.965  1.00  0.00     0.013 C 
ATOM      7  C   UNL     1      71.392  45.438   7.745  1.00  0.00    -0.063 C 
ATOM      8  C   UNL     1      72.115  47.993   7.346  1.00  0.00    -0.003 C 
ATOM      9  C   UNL     1      71.573  49.377   6.814  1.00  0.00    -0.011 C 
ATOM     10  C   UNL     1      70.568  44.596   8.753  1.00  0.00    -0.006 C 
ATOM     11  C   UNL     1      72.324  44.789   7.025  1.00  0.00    -0.027 C 
ATOM     12  C   UNL     1      73.422  47.652   6.606  1.00  0.00     0.008 C 
ATOM     13  C   UNL     1      71.571  50.473   7.893  1.00  0.00     0.008 C 
ATOM     14  C   UNL     1      71.342  44.669  10.103  1.00  0.00     0.017 C 
ATOM     15  C   UNL     1      70.452  43.052   8.273  1.00  0.00    -0.020 C 
ATOM     16  C   UNL     1      72.864  43.436   7.358  1.00  0.00     0.032 C 
ATOM     17  C   UNL     1      71.883  42.412   8.032  1.00  0.00     0.006 C 
ATOM     18  C   UNL     1      69.680  42.985   6.919  1.00  0.00     0.008 C 
ATOM     19  C   UNL     1      69.680  42.241   9.381  1.00  0.00     0.012 C 
ATOM     20  C   UNL     1      71.941  40.974   7.308  1.00  0.00    -0.025 C 
ATOM     21  C   UNL     1      69.687  41.613   6.238  1.00  0.00     0.005 C 
ATOM     22  C   UNL     1      71.104  41.013   5.969  1.00  0.00     0.003 C 
ATOM     23  C   UNL     1      71.382  39.820   8.208  1.00  0.00     0.010 C 
ATOM     24  C   UNL     1      73.461  40.646   7.072  1.00  0.00     0.012 C 
ATOM     25  C   UNL     1      70.996  39.605   5.221  1.00  0.00    -0.006 C 
ATOM     26  C   UNL     1      71.322  38.447   7.513  1.00  0.00     0.033 C 
ATOM     27  C   UNL     1      70.514  38.491   6.205  1.00  0.00     0.120 C 
ATOM     28  C   UNL     1      72.346  39.208   4.556  1.00  0.00     0.014 C 
ATOM     29  C   UNL     1      69.974  39.680   4.048  1.00  0.00     0.014 C 
ENDROOT
BRANCH   1  30
ATOM     30  C   UNL     1      69.730  48.032   9.255  1.00  0.00     0.048 C 
ATOM     31  O   UNL     1      70.732  47.890   9.999  1.00  0.00    -0.550 OA
ATOM     32  O   UNL     1      68.623  48.703   9.765  1.00  0.00    -0.550 OA
ENDBRANCH   1  30
BRANCH  27  33
ATOM     33  O   UNL     1      70.572  37.233   5.577  1.00  0.00    -0.393 OA
ATOM     34  H   UNL     1      70.119  36.586   6.178  1.00  0.00     0.210 HD
ENDBRANCH  27  33
TORSDOF 2
ENDMDL
MODEL 2
REMARK VINA RESULT:    -6.643      1.719      8.078
REMARK INTER + INTRA:          -7.073
REMARK INTER:                  -7.221
REMARK INTRA:                   0.148
REMARK UNBOUND:                 0.153
REMARK SMILES C[C@H]1[C@H](C)CC[C@@]2(C(=O)[O-])CC[C@]3(C)C(=CC[C@@H]4[C@@]5(C)CC[C@H](O)C(C)(C)[C@H]5CC[C@@]43C)[C@H]12
REMARK SMILES IDX 7 1 6 2 11 3 33 4 5 5 12 6 15 7 2 8 3 9 13 10 16 11 1 12
REMARK SMILES IDX 4 13 14 14 31 15 17 16 18 17 30 18 32 19 19 20 29 21 28 22
REMARK SMILES IDX 21 23 20 24 25 25 22 26 23 27 26 28 27 29 8 30 9 31 10 32
REMARK SMILES IDX 24 33
REMARK H PARENT 24 34
REMARK Flexibility Score: inf
ROOT
ATOM      1  C   UNL     1      71.924  40.750   5.731  1.00  0.00     0.017 C 
ATOM      2  C   UNL     1      71.228  40.080   4.500  1.00  0.00     0.014 C 
ATOM      3  C   UNL     1      72.793  41.925   5.258  1.00  0.00     0.014 C 
ATOM      4  C   UNL     1      70.811  41.333   6.664  1.00  0.00     0.030 C 
ATOM      5  C   UNL     1      69.825  39.498   4.790  1.00  0.00     0.004 C 
ATOM      6  C   UNL     1      73.587  42.526   6.426  1.00  0.00     0.013 C 
ATOM      7  C   UNL     1      71.271  42.498   7.585  1.00  0.00    -0.063 C 
ATOM      8  C   UNL     1      69.992  40.151   7.323  1.00  0.00    -0.003 C 
ATOM      9  C   UNL     1      69.586  39.061   6.256  1.00  0.00    -0.011 C 
ATOM     10  C   UNL     1      72.721  43.042   7.650  1.00  0.00    -0.006 C 
ATOM     11  C   UNL     1      70.307  43.259   8.131  1.00  0.00    -0.027 C 
ATOM     12  C   UNL     1      68.732  40.595   8.088  1.00  0.00     0.008 C 
ATOM     13  C   UNL     1      70.205  37.683   6.541  1.00  0.00     0.008 C 
ATOM     14  C   UNL     1      73.331  42.476   8.966  1.00  0.00     0.017 C 
ATOM     15  C   UNL     1      72.739  44.663   7.693  1.00  0.00    -0.020 C 
ATOM     16  C   UNL     1      70.551  44.382   9.085  1.00  0.00     0.032 C 
ATOM     17  C   UNL     1      71.866  45.219   8.895  1.00  0.00     0.006 C 
ATOM     18  C   UNL     1      72.123  45.226   6.374  1.00  0.00     0.008 C 
ATOM     19  C   UNL     1      74.231  45.143   7.845  1.00  0.00     0.012 C 
ATOM     20  C   UNL     1      71.569  46.802   8.926  1.00  0.00    -0.025 C 
ATOM     21  C   UNL     1      71.874  46.737   6.370  1.00  0.00     0.005 C 
ATOM     22  C   UNL     1      70.979  47.266   7.536  1.00  0.00     0.003 C 
ATOM     23  C   UNL     1      72.848  47.653   9.230  1.00  0.00     0.010 C 
ATOM     24  C   UNL     1      70.581  47.055  10.125  1.00  0.00     0.012 C 
ATOM     25  C   UNL     1      70.751  48.842   7.411  1.00  0.00    -0.006 C 
ATOM     26  C   UNL     1      72.626  49.176   9.164  1.00  0.00     0.033 C 
ATOM     27  C   UNL     1      72.044  49.622   7.811  1.00  0.00     0.120 C 
ATOM     28  C   UNL     1      69.537  49.312   8.265  1.00  0.00     0.014 C 
ATOM     29  C   UNL     1      70.391  49.234   5.947  1.00  0.00     0.014 C 
ENDROOT
BRANCH   1  30
ATOM     30  C   UNL     1      72.861  39.713   6.364  1.00  0.00     0.048 C 
ATOM     31  O   UNL     1      72.888  39.504   7.602  1.00  0.00    -0.550 OA
ATOM     32  O   UNL     1      73.774  39.034   5.563  1.00  0.00    -0.550 OA
ENDBRANCH   1  30
BRANCH  27  33
ATOM     33  O   UNL     1      71.784  51.004   7.847  1.00  0.00    -0.393 OA
ATOM     34  H   UNL     1      72.185  51.398   7.029  1.00  0.00     0.210 HD
ENDBRANCH  27  33
TORSDOF 2
ENDMDL
MODEL 3
REMARK VINA RESULT:    -6.418      1.753      8.091
REMARK INTER + INTRA:          -6.828
REMARK INTER:                  -7.029
REMARK INTRA:                   0.201
REMARK UNBOUND:                 0.153
REMARK SMILES C[C@H]1[C@H](C)CC[C@@]2(C(=O)[O-])CC[C@]3(C)C(=CC[C@@H]4[C@@]5(C)CC[C@H](O)C(C)(C)[C@H]5CC[C@@]43C)[C@H]12
REMARK SMILES IDX 7 1 6 2 11 3 33 4 5 5 12 6 15 7 2 8 3 9 13 10 16 11 1 12
REMARK SMILES IDX 4 13 14 14 31 15 17 16 18 17 30 18 32 19 19 20 29 21 28 22
REMARK SMILES IDX 21 23 20 24 25 25 22 26 23 27 26 28 27 29 8 30 9 31 10 32
REMARK SMILES IDX 24 33
REMARK H PARENT 24 34
REMARK Flexibility Score: inf
ROOT
ATOM      1  C   UNL     1      70.360  40.284   6.341  1.00  0.00     0.017 C 
ATOM      2  C   UNL     1      69.031  39.496   6.590  1.00  0.00     0.014 C 
ATOM      3  C   UNL     1      70.074  41.525   5.483  1.00  0.00     0.014 C 
ATOM      4  C   UNL     1      70.899  40.782   7.724  1.00  0.00     0.030 C 
ATOM      5  C   UNL     1      68.952  38.781   7.957  1.00  0.00     0.004 C 
ATOM      6  C   UNL     1      71.375  42.252   5.117  1.00  0.00     0.013 C 
ATOM      7  C   UNL     1      71.831  42.023   7.656  1.00  0.00    -0.063 C 
ATOM      8  C   UNL     1      71.378  39.545   8.587  1.00  0.00    -0.003 C 
ATOM      9  C   UNL     1      70.316  38.378   8.569  1.00  0.00    -0.011 C 
ATOM     10  C   UNL     1      72.267  42.721   6.342  1.00  0.00    -0.006 C 
ATOM     11  C   UNL     1      72.030  42.698   8.802  1.00  0.00    -0.027 C 
ATOM     12  C   UNL     1      71.724  39.883  10.049  1.00  0.00     0.008 C 
ATOM     13  C   UNL     1      70.857  37.086   7.936  1.00  0.00     0.008 C 
ATOM     14  C   UNL     1      73.737  42.274   6.088  1.00  0.00     0.017 C 
ATOM     15  C   UNL     1      72.203  44.335   6.484  1.00  0.00    -0.020 C 
ATOM     16  C   UNL     1      72.936  43.878   8.945  1.00  0.00     0.032 C 
ATOM     17  C   UNL     1      73.069  44.842   7.713  1.00  0.00     0.006 C 
ATOM     18  C   UNL     1      70.729  44.777   6.742  1.00  0.00     0.008 C 
ATOM     19  C   UNL     1      72.738  44.976   5.149  1.00  0.00     0.012 C 
ATOM     20  C   UNL     1      72.907  46.384   8.148  1.00  0.00    -0.025 C 
ATOM     21  C   UNL     1      70.552  46.252   7.115  1.00  0.00     0.005 C 
ATOM     22  C   UNL     1      71.379  46.728   8.352  1.00  0.00     0.003 C 
ATOM     23  C   UNL     1      73.503  47.376   7.093  1.00  0.00     0.010 C 
ATOM     24  C   UNL     1      73.758  46.577   9.458  1.00  0.00     0.012 C 
ATOM     25  C   UNL     1      71.089  48.265   8.676  1.00  0.00    -0.006 C 
ATOM     26  C   UNL     1      73.273  48.864   7.423  1.00  0.00     0.033 C 
ATOM     27  C   UNL     1      71.784  49.193   7.628  1.00  0.00     0.120 C 
ATOM     28  C   UNL     1      71.531  48.636  10.121  1.00  0.00     0.014 C 
ATOM     29  C   UNL     1      69.560  48.559   8.632  1.00  0.00     0.014 C 
ENDROOT
BRANCH   1  30
ATOM     30  C   UNL     1      71.301  39.378   5.537  1.00  0.00     0.048 C 
ATOM     31  O   UNL     1      70.919  38.756   4.514  1.00  0.00    -0.550 OA
ATOM     32  O   UNL     1      72.599  39.162   5.989  1.00  0.00    -0.550 OA
ENDBRANCH   1  30
BRANCH  27  33
ATOM     33  O   UNL     1      71.652  50.540   8.012  1.00  0.00    -0.393 OA
ATOM     34  H   UNL     1      72.174  51.080   7.364  1.00  0.00     0.210 HD
ENDBRANCH  27  33
TORSDOF 2
ENDMDL
MODEL 4
REMARK VINA RESULT:    -6.273      1.406      2.046
REMARK INTER + INTRA:          -6.670
REMARK INTER:                  -6.852
REMARK INTRA:                   0.182
REMARK UNBOUND:                 0.153
REMARK SMILES C[C@H]1[C@H](C)CC[C@@]2(C(=O)[O-])CC[C@]3(C)C(=CC[C@@H]4[C@@]5(C)CC[C@H](O)C(C)(C)[C@H]5CC[C@@]43C)[C@H]12
REMARK SMILES IDX 7 1 6 2 11 3 33 4 5 5 12 6 15 7 2 8 3 9 13 10 16 11 1 12
REMARK SMILES IDX 4 13 14 14 31 15 17 16 18 17 30 18 32 19 19 20 29 21 28 22
REMARK SMILES IDX 21 23 20 24 25 25 22 26 23 27 26 28 27 29 8 30 9 31 10 32
REMARK SMILES IDX 24 33
REMARK H PARENT 24 34
REMARK Flexibility Score: inf
ROOT
ATOM      1  C   UNL     1      70.606  46.921   8.218  1.00  0.00     0.017 C 
ATOM      2  C   UNL     1      69.252  47.689   8.053  1.00  0.00     0.014 C 
ATOM      3  C   UNL     1      70.366  45.606   8.975  1.00  0.00     0.014 C 
ATOM      4  C   UNL     1      71.137  46.553   6.792  1.00  0.00     0.030 C 
ATOM      5  C   UNL     1      69.134  48.512   6.749  1.00  0.00     0.004 C 
ATOM      6  C   UNL     1      71.692  44.888   9.263  1.00  0.00     0.013 C 
ATOM      7  C   UNL     1      72.102  45.336   6.746  1.00  0.00    -0.063 C 
ATOM      8  C   UNL     1      71.570  47.868   6.027  1.00  0.00    -0.003 C 
ATOM      9  C   UNL     1      70.477  49.000   6.155  1.00  0.00    -0.011 C 
ATOM     10  C   UNL     1      72.576  44.546   7.992  1.00  0.00    -0.006 C 
ATOM     11  C   UNL     1      72.301  44.763   5.546  1.00  0.00    -0.027 C 
ATOM     12  C   UNL     1      71.902  47.661   4.538  1.00  0.00     0.008 C 
ATOM     13  C   UNL     1      70.994  50.251   6.886  1.00  0.00     0.008 C 
ATOM     14  C   UNL     1      74.038  45.011   8.263  1.00  0.00     0.017 C 
ATOM     15  C   UNL     1      72.553  42.948   7.719  1.00  0.00    -0.020 C 
ATOM     16  C   UNL     1      73.236  43.624   5.295  1.00  0.00     0.032 C 
ATOM     17  C   UNL     1      73.413  42.567   6.442  1.00  0.00     0.006 C 
ATOM     18  C   UNL     1      71.088  42.487   7.445  1.00  0.00     0.008 C 
ATOM     19  C   UNL     1      73.125  42.215   8.990  1.00  0.00     0.012 C 
ATOM     20  C   UNL     1      73.286  41.062   5.883  1.00  0.00    -0.025 C 
ATOM     21  C   UNL     1      70.945  41.043   6.955  1.00  0.00     0.005 C 
ATOM     22  C   UNL     1      71.765  40.693   5.672  1.00  0.00     0.003 C 
ATOM     23  C   UNL     1      73.924  40.003   6.845  1.00  0.00     0.010 C 
ATOM     24  C   UNL     1      74.122  41.000   4.551  1.00  0.00     0.012 C 
ATOM     25  C   UNL     1      71.510  39.181   5.227  1.00  0.00    -0.006 C 
ATOM     26  C   UNL     1      73.729  38.542   6.397  1.00  0.00     0.033 C 
ATOM     27  C   UNL     1      72.246  38.190   6.185  1.00  0.00     0.120 C 
ATOM     28  C   UNL     1      71.940  38.941   3.750  1.00  0.00     0.014 C 
ATOM     29  C   UNL     1      69.990  38.841   5.266  1.00  0.00     0.014 C 
ENDROOT
BRANCH   1  30
ATOM     30  C   UNL     1      71.535  47.784   9.082  1.00  0.00     0.048 C 
ATOM     31  O   UNL     1      71.134  48.364  10.122  1.00  0.00    -0.550 OA
ATOM     32  O   UNL     1      72.844  48.009   8.668  1.00  0.00    -0.550 OA
ENDBRANCH   1  30
BRANCH  27  33
ATOM     33  O   UNL     1      72.144  36.875   5.693  1.00  0.00    -0.393 OA
ATOM     34  H   UNL     1      71.273  36.808   5.221  1.00  0.00     0.210 HD
ENDBRANCH  27  33
TORSDOF 2
ENDMDL
MODEL 5
REMARK VINA RESULT:    -6.212      1.989      3.566
REMARK INTER + INTRA:          -6.604
REMARK INTER:                  -6.802
REMARK INTRA:                   0.198
REMARK UNBOUND:                 0.153
REMARK SMILES C[C@H]1[C@H](C)CC[C@@]2(C(=O)[O-])CC[C@]3(C)C(=CC[C@@H]4[C@@]5(C)CC[C@H](O)C(C)(C)[C@H]5CC[C@@]43C)[C@H]12
REMARK SMILES IDX 7 1 6 2 11 3 33 4 5 5 12 6 15 7 2 8 3 9 13 10 16 11 1 12
REMARK SMILES IDX 4 13 14 14 31 15 17 16 18 17 30 18 32 19 19 20 29 21 28 22
REMARK SMILES IDX 21 23 20 24 25 25 22 26 23 27 26 28 27 29 8 30 9 31 10 32
REMARK SMILES IDX 24 33
REMARK H PARENT 24 34
REMARK Flexibility Score: inf
ROOT
ATOM      1  C   UNL     1      73.129  47.001   8.666  1.00  0.00     0.017 C 
ATOM      2  C   UNL     1      72.856  47.739  10.019  1.00  0.00     0.014 C 
ATOM      3  C   UNL     1      73.932  45.719   8.928  1.00  0.00     0.014 C 
ATOM      4  C   UNL     1      71.752  46.577   8.054  1.00  0.00     0.030 C 
ATOM      5  C   UNL     1      71.512  48.500  10.079  1.00  0.00     0.004 C 
ATOM      6  C   UNL     1      74.323  45.035   7.611  1.00  0.00     0.013 C 
ATOM      7  C   UNL     1      71.813  45.375   7.071  1.00  0.00    -0.063 C 
ATOM      8  C   UNL     1      70.951  47.863   7.599  1.00  0.00    -0.003 C 
ATOM      9  C   UNL     1      70.968  48.983   8.712  1.00  0.00    -0.011 C 
ATOM     10  C   UNL     1      73.118  44.650   6.654  1.00  0.00    -0.006 C 
ATOM     11  C   UNL     1      70.653  44.751   6.800  1.00  0.00    -0.027 C 
ATOM     12  C   UNL     1      69.493  47.594   7.184  1.00  0.00     0.008 C 
ATOM     13  C   UNL     1      71.666  50.273   8.253  1.00  0.00     0.008 C 
ATOM     14  C   UNL     1      73.444  45.151   5.216  1.00  0.00     0.017 C 
ATOM     15  C   UNL     1      72.918  43.041   6.641  1.00  0.00    -0.020 C 
ATOM     16  C   UNL     1      70.504  43.618   5.838  1.00  0.00     0.032 C 
ATOM     17  C   UNL     1      71.707  42.617   5.708  1.00  0.00     0.006 C 
ATOM     18  C   UNL     1      72.588  42.545   8.083  1.00  0.00     0.008 C 
ATOM     19  C   UNL     1      74.250  42.376   6.128  1.00  0.00     0.012 C 
ATOM     20  C   UNL     1      71.213  41.086   5.785  1.00  0.00    -0.025 C 
ATOM     21  C   UNL     1      72.158  41.079   8.180  1.00  0.00     0.005 C 
ATOM     22  C   UNL     1      70.938  40.684   7.288  1.00  0.00     0.003 C 
ATOM     23  C   UNL     1      72.255  40.082   5.186  1.00  0.00     0.010 C 
ATOM     24  C   UNL     1      69.931  40.977   4.878  1.00  0.00     0.012 C 
ATOM     25  C   UNL     1      70.550  39.149   7.497  1.00  0.00    -0.006 C 
ATOM     26  C   UNL     1      71.865  38.599   5.336  1.00  0.00     0.033 C 
ATOM     27  C   UNL     1      71.591  38.214   6.800  1.00  0.00     0.120 C 
ATOM     28  C   UNL     1      69.111  38.849   6.986  1.00  0.00     0.014 C 
ATOM     29  C   UNL     1      70.524  38.787   9.012  1.00  0.00     0.014 C 
ENDROOT
BRANCH   1  30
ATOM     30  C   UNL     1      74.000  47.917   7.797  1.00  0.00     0.048 C 
ATOM     31  O   UNL     1      75.021  48.495   8.247  1.00  0.00    -0.550 OA
ATOM     32  O   UNL     1      73.614  48.193   6.489  1.00  0.00    -0.550 OA
ENDBRANCH   1  30
BRANCH  27  33
ATOM     33  O   UNL     1      71.156  36.877   6.858  1.00  0.00    -0.393 OA
ATOM     34  H   UNL     1      71.750  36.351   6.262  1.00  0.00     0.210 HD
ENDBRANCH  27  33
TORSDOF 2
ENDMDL
MODEL 6
REMARK VINA RESULT:    -6.091      1.755      8.228
REMARK INTER + INTRA:          -6.472
REMARK INTER:                  -6.623
REMARK INTRA:                   0.151
REMARK UNBOUND:                 0.153
REMARK SMILES C[C@H]1[C@H](C)CC[C@@]2(C(=O)[O-])CC[C@]3(C)C(=CC[C@@H]4[C@@]5(C)CC[C@H](O)C(C)(C)[C@H]5CC[C@@]43C)[C@H]12
REMARK SMILES IDX 7 1 6 2 11 3 33 4 5 5 12 6 15 7 2 8 3 9 13 10 16 11 1 12
REMARK SMILES IDX 4 13 14 14 31 15 17 16 18 17 30 18 32 19 19 20 29 21 28 22
REMARK SMILES IDX 21 23 20 24 25 25 22 26 23 27 26 28 27 29 8 30 9 31 10 32
REMARK SMILES IDX 24 33
REMARK H PARENT 24 34
REMARK Flexibility Score: inf
ROOT
ATOM      1  C   UNL     1      72.258  38.956   6.490  1.00  0.00     0.017 C 
ATOM      2  C   UNL     1      73.277  37.841   6.899  1.00  0.00     0.014 C 
ATOM      3  C   UNL     1      71.719  39.651   7.748  1.00  0.00     0.014 C 
ATOM      4  C   UNL     1      73.022  40.031   5.648  1.00  0.00     0.030 C 
ATOM      5  C   UNL     1      74.430  37.621   5.894  1.00  0.00     0.004 C 
ATOM      6  C   UNL     1      70.625  40.666   7.390  1.00  0.00     0.013 C 
ATOM      7  C   UNL     1      72.377  41.445   5.649  1.00  0.00    -0.063 C 
ATOM      8  C   UNL     1      73.449  39.415   4.255  1.00  0.00    -0.003 C 
ATOM      9  C   UNL     1      74.103  37.989   4.426  1.00  0.00    -0.011 C 
ATOM     10  C   UNL     1      71.051  41.802   6.369  1.00  0.00    -0.006 C 
ATOM     11  C   UNL     1      73.154  42.469   5.255  1.00  0.00    -0.027 C 
ATOM     12  C   UNL     1      74.396  40.303   3.427  1.00  0.00     0.008 C 
ATOM     13  C   UNL     1      73.300  36.876   3.733  1.00  0.00     0.008 C 
ATOM     14  C   UNL     1      69.971  41.898   5.251  1.00  0.00     0.017 C 
ATOM     15  C   UNL     1      71.166  43.223   7.142  1.00  0.00    -0.020 C 
ATOM     16  C   UNL     1      72.694  43.885   5.134  1.00  0.00     0.032 C 
ATOM     17  C   UNL     1      71.610  44.383   6.156  1.00  0.00     0.006 C 
ATOM     18  C   UNL     1      72.252  43.122   8.257  1.00  0.00     0.008 C 
ATOM     19  C   UNL     1      69.764  43.562   7.775  1.00  0.00     0.012 C 
ATOM     20  C   UNL     1      72.019  45.797   6.810  1.00  0.00    -0.025 C 
ATOM     21  C   UNL     1      72.622  44.452   8.921  1.00  0.00     0.005 C 
ATOM     22  C   UNL     1      73.097  45.573   7.943  1.00  0.00     0.003 C 
ATOM     23  C   UNL     1      70.797  46.553   7.431  1.00  0.00     0.010 C 
ATOM     24  C   UNL     1      72.544  46.705   5.636  1.00  0.00     0.012 C 
ATOM     25  C   UNL     1      73.495  46.897   8.742  1.00  0.00    -0.006 C 
ATOM     26  C   UNL     1      71.164  47.860   8.160  1.00  0.00     0.033 C 
ATOM     27  C   UNL     1      72.220  47.639   9.257  1.00  0.00     0.120 C 
ATOM     28  C   UNL     1      74.371  47.846   7.873  1.00  0.00     0.014 C 
ATOM     29  C   UNL     1      74.378  46.552   9.978  1.00  0.00     0.014 C 
ENDROOT
BRANCH   1  30
ATOM     30  C   UNL     1      71.069  38.276   5.798  1.00  0.00     0.048 C 
ATOM     31  O   UNL     1      70.595  38.698   4.713  1.00  0.00    -0.550 OA
ATOM     32  O   UNL     1      70.432  37.208   6.420  1.00  0.00    -0.550 OA
ENDBRANCH   1  30
BRANCH  27  33
ATOM     33  O   UNL     1      72.575  48.878   9.821  1.00  0.00    -0.393 OA
ATOM     34  H   UNL     1      73.504  49.074   9.532  1.00  0.00     0.210 HD
ENDBRANCH  27  33
TORSDOF 2
ENDMDL
MODEL 7
REMARK VINA RESULT:    -6.019      3.943      6.322
REMARK INTER + INTRA:          -6.394
REMARK INTER:                  -6.581
REMARK INTRA:                   0.187
REMARK UNBOUND:                 0.153
REMARK SMILES C[C@H]1[C@H](C)CC[C@@]2(C(=O)[O-])CC[C@]3(C)C(=CC[C@@H]4[C@@]5(C)CC[C@H](O)C(C)(C)[C@H]5CC[C@@]43C)[C@H]12
REMARK SMILES IDX 7 1 6 2 11 3 33 4 5 5 12 6 15 7 2 8 3 9 13 10 16 11 1 12
REMARK SMILES IDX 4 13 14 14 31 15 17 16 18 17 30 18 32 19 19 20 29 21 28 22
REMARK SMILES IDX 21 23 20 24 25 25 22 26 23 27 26 28 27 29 8 30 9 31 10 32
REMARK SMILES IDX 24 33
REMARK H PARENT 24 34
REMARK Flexibility Score: inf
ROOT
ATOM      1  C   UNL     1      70.822  48.397   6.604  1.00  0.00     0.017 C 
ATOM      2  C   UNL     1      71.533  48.420   5.210  1.00  0.00     0.014 C 
ATOM      3  C   UNL     1      69.410  48.985   6.476  1.00  0.00     0.014 C 
ATOM      4  C   UNL     1      70.672  46.905   7.053  1.00  0.00     0.030 C 
ATOM      5  C   UNL     1      72.511  47.248   4.966  1.00  0.00     0.004 C 
ATOM      6  C   UNL     1      68.731  49.092   7.848  1.00  0.00     0.013 C 
ATOM      7  C   UNL     1      69.524  46.637   8.065  1.00  0.00    -0.063 C 
ATOM      8  C   UNL     1      72.097  46.298   7.373  1.00  0.00    -0.003 C 
ATOM      9  C   UNL     1      73.143  46.643   6.243  1.00  0.00    -0.011 C 
ATOM     10  C   UNL     1      68.605  47.735   8.658  1.00  0.00    -0.006 C 
ATOM     11  C   UNL     1      69.124  45.362   8.207  1.00  0.00    -0.027 C 
ATOM     12  C   UNL     1      72.104  44.777   7.612  1.00  0.00     0.008 C 
ATOM     13  C   UNL     1      74.314  47.500   6.753  1.00  0.00     0.008 C 
ATOM     14  C   UNL     1      69.107  47.974  10.112  1.00  0.00     0.017 C 
ATOM     15  C   UNL     1      67.057  47.253   8.687  1.00  0.00    -0.020 C 
ATOM     16  C   UNL     1      68.079  44.903   9.172  1.00  0.00     0.032 C 
ATOM     17  C   UNL     1      66.892  45.885   9.474  1.00  0.00     0.006 C 
ATOM     18  C   UNL     1      66.559  47.010   7.228  1.00  0.00     0.008 C 
ATOM     19  C   UNL     1      66.196  48.377   9.377  1.00  0.00     0.012 C 
ATOM     20  C   UNL     1      65.468  45.140   9.376  1.00  0.00    -0.025 C 
ATOM     21  C   UNL     1      65.186  46.342   7.116  1.00  0.00     0.005 C 
ATOM     22  C   UNL     1      65.050  44.975   7.861  1.00  0.00     0.003 C 
ATOM     23  C   UNL     1      64.328  45.910  10.124  1.00  0.00     0.010 C 
ATOM     24  C   UNL     1      65.625  43.762  10.120  1.00  0.00     0.012 C 
ATOM     25  C   UNL     1      63.597  44.349   7.644  1.00  0.00    -0.006 C 
ATOM     26  C   UNL     1      62.929  45.284   9.964  1.00  0.00     0.033 C 
ATOM     27  C   UNL     1      62.530  45.119   8.487  1.00  0.00     0.120 C 
ATOM     28  C   UNL     1      63.575  42.830   7.982  1.00  0.00     0.014 C 
ATOM     29  C   UNL     1      63.176  44.436   6.147  1.00  0.00     0.014 C 
ENDROOT
BRANCH   1  30
ATOM     30  C   UNL     1      71.613  49.310   7.551  1.00  0.00     0.048 C 
ATOM     31  O   UNL     1      72.013  48.921   8.677  1.00  0.00    -0.550 OA
ATOM     32  O   UNL     1      71.831  50.639   7.200  1.00  0.00    -0.550 OA
ENDBRANCH   1  30
BRANCH  27  33
ATOM     33  O   UNL     1      61.287  44.463   8.409  1.00  0.00    -0.393 OA
ATOM     34  H   UNL     1      60.918  44.430   9.330  1.00  0.00     0.210 HD
ENDBRANCH  27  33
TORSDOF 2
ENDMDL
MODEL 8
REMARK VINA RESULT:    -5.925      1.804      7.940
REMARK INTER + INTRA:          -6.292
REMARK INTER:                  -6.443
REMARK INTRA:                   0.152
REMARK UNBOUND:                 0.153
REMARK SMILES C[C@H]1[C@H](C)CC[C@@]2(C(=O)[O-])CC[C@]3(C)C(=CC[C@@H]4[C@@]5(C)CC[C@H](O)C(C)(C)[C@H]5CC[C@@]43C)[C@H]12
REMARK SMILES IDX 7 1 6 2 11 3 33 4 5 5 12 6 15 7 2 8 3 9 13 10 16 11 1 12
REMARK SMILES IDX 4 13 14 14 31 15 17 16 18 17 30 18 32 19 19 20 29 21 28 22
REMARK SMILES IDX 21 23 20 24 25 25 22 26 23 27 26 28 27 29 8 30 9 31 10 32
REMARK SMILES IDX 24 33
REMARK H PARENT 24 34
REMARK Flexibility Score: inf
ROOT
ATOM      1  C   UNL     1      70.539  39.556   8.269  1.00  0.00     0.017 C 
ATOM      2  C   UNL     1      71.426  38.332   8.673  1.00  0.00     0.014 C 
ATOM      3  C   UNL     1      70.463  40.549   9.438  1.00  0.00     0.014 C 
ATOM      4  C   UNL     1      71.234  40.289   7.073  1.00  0.00     0.030 C 
ATOM      5  C   UNL     1      72.232  37.708   7.511  1.00  0.00     0.004 C 
ATOM      6  C   UNL     1      69.500  41.701   9.119  1.00  0.00     0.013 C 
ATOM      7  C   UNL     1      70.857  41.789   6.916  1.00  0.00    -0.063 C 
ATOM      8  C   UNL     1      71.182  39.375   5.783  1.00  0.00    -0.003 C 
ATOM      9  C   UNL     1      71.609  37.890   6.106  1.00  0.00    -0.011 C 
ATOM     10  C   UNL     1      69.837  42.535   7.814  1.00  0.00    -0.006 C 
ATOM     11  C   UNL     1      71.669  42.543   6.155  1.00  0.00    -0.027 C 
ATOM     12  C   UNL     1      72.023  39.891   4.601  1.00  0.00     0.008 C 
ATOM     13  C   UNL     1      70.481  36.876   5.855  1.00  0.00     0.008 C 
ATOM     14  C   UNL     1      68.540  42.674   6.963  1.00  0.00     0.017 C 
ATOM     15  C   UNL     1      70.382  44.005   8.225  1.00  0.00    -0.020 C 
ATOM     16  C   UNL     1      71.438  43.986   5.840  1.00  0.00     0.032 C 
ATOM     17  C   UNL     1      70.749  44.865   6.943  1.00  0.00     0.006 C 
ATOM     18  C   UNL     1      71.683  43.861   9.074  1.00  0.00     0.008 C 
ATOM     19  C   UNL     1      69.265  44.737   9.061  1.00  0.00     0.012 C 
ATOM     20  C   UNL     1      71.542  46.247   7.179  1.00  0.00    -0.025 C 
ATOM     21  C   UNL     1      72.427  45.171   9.345  1.00  0.00     0.005 C 
ATOM     22  C   UNL     1      72.820  45.988   8.072  1.00  0.00     0.003 C 
ATOM     23  C   UNL     1      70.663  47.339   7.876  1.00  0.00     0.010 C 
ATOM     24  C   UNL     1      71.897  46.816   5.755  1.00  0.00     0.012 C 
ATOM     25  C   UNL     1      73.625  47.309   8.467  1.00  0.00    -0.006 C 
ATOM     26  C   UNL     1      71.418  48.639   8.215  1.00  0.00     0.033 C 
ATOM     27  C   UNL     1      72.665  48.381   9.078  1.00  0.00     0.120 C 
ATOM     28  C   UNL     1      74.397  47.892   7.248  1.00  0.00     0.014 C 
ATOM     29  C   UNL     1      74.722  46.992   9.527  1.00  0.00     0.014 C 
ENDROOT
BRANCH   1  30
ATOM     30  C   UNL     1      69.117  39.042   8.011  1.00  0.00     0.048 C 
ATOM     31  O   UNL     1      68.457  39.379   6.996  1.00  0.00    -0.550 OA
ATOM     32  O   UNL     1      68.493  38.242   8.963  1.00  0.00    -0.550 OA
ENDBRANCH   1  30
BRANCH  27  33
ATOM     33  O   UNL     1      73.355  49.591   9.276  1.00  0.00    -0.393 OA
ATOM     34  H   UNL     1      72.704  50.325   9.125  1.00  0.00     0.210 HD
ENDBRANCH  27  33
TORSDOF 2
ENDMDL
MODEL 9
REMARK VINA RESULT:    -5.851      1.961      3.828
REMARK INTER + INTRA:          -6.212
REMARK INTER:                  -6.364
REMARK INTRA:                   0.152
REMARK UNBOUND:                 0.153
REMARK SMILES C[C@H]1[C@H](C)CC[C@@]2(C(=O)[O-])CC[C@]3(C)C(=CC[C@@H]4[C@@]5(C)CC[C@H](O)C(C)(C)[C@H]5CC[C@@]43C)[C@H]12
REMARK SMILES IDX 7 1 6 2 11 3 33 4 5 5 12 6 15 7 2 8 3 9 13 10 16 11 1 12
REMARK SMILES IDX 4 13 14 14 31 15 17 16 18 17 30 18 32 19 19 20 29 21 28 22
REMARK SMILES IDX 21 23 20 24 25 25 22 26 23 27 26 28 27 29 8 30 9 31 10 32
REMARK SMILES IDX 24 33
REMARK H PARENT 24 34
REMARK Flexibility Score: inf
ROOT
ATOM      1  C   UNL     1      71.827  47.326   8.363  1.00  0.00     0.017 C 
ATOM      2  C   UNL     1      71.474  47.882   9.783  1.00  0.00     0.014 C 
ATOM      3  C   UNL     1      73.195  46.630   8.404  1.00  0.00     0.014 C 
ATOM      4  C   UNL     1      70.761  46.246   7.982  1.00  0.00     0.030 C 
ATOM      5  C   UNL     1      69.967  47.869  10.123  1.00  0.00     0.004 C 
ATOM      6  C   UNL     1      73.628  46.183   7.002  1.00  0.00     0.013 C 
ATOM      7  C   UNL     1      71.234  45.198   6.936  1.00  0.00    -0.063 C 
ATOM      8  C   UNL     1      69.357  46.939   7.750  1.00  0.00    -0.003 C 
ATOM      9  C   UNL     1      69.016  47.959   8.905  1.00  0.00    -0.011 C 
ATOM     10  C   UNL     1      72.625  45.208   6.254  1.00  0.00    -0.006 C 
ATOM     11  C   UNL     1      70.513  44.067   6.840  1.00  0.00    -0.027 C 
ATOM     12  C   UNL     1      68.181  45.959   7.586  1.00  0.00     0.008 C 
ATOM     13  C   UNL     1      68.879  49.406   8.404  1.00  0.00     0.008 C 
ATOM     14  C   UNL     1      72.389  45.746   4.811  1.00  0.00     0.017 C 
ATOM     15  C   UNL     1      73.257  43.716   6.184  1.00  0.00    -0.020 C 
ATOM     16  C   UNL     1      70.778  42.974   5.856  1.00  0.00     0.032 C 
ATOM     17  C   UNL     1      72.273  42.706   5.458  1.00  0.00     0.006 C 
ATOM     18  C   UNL     1      73.487  43.180   7.630  1.00  0.00     0.008 C 
ATOM     19  C   UNL     1      74.624  43.788   5.405  1.00  0.00     0.012 C 
ATOM     20  C   UNL     1      72.632  41.137   5.533  1.00  0.00    -0.025 C 
ATOM     21  C   UNL     1      73.873  41.700   7.718  1.00  0.00     0.005 C 
ATOM     22  C   UNL     1      72.874  40.712   7.035  1.00  0.00     0.003 C 
ATOM     23  C   UNL     1      73.907  40.768   4.702  1.00  0.00     0.010 C 
ATOM     24  C   UNL     1      71.436  40.365   4.863  1.00  0.00     0.012 C 
ATOM     25  C   UNL     1      73.350  39.199   7.222  1.00  0.00    -0.006 C 
ATOM     26  C   UNL     1      74.345  39.296   4.834  1.00  0.00     0.033 C 
ATOM     27  C   UNL     1      74.571  38.885   6.299  1.00  0.00     0.120 C 
ATOM     28  C   UNL     1      72.187  38.199   6.957  1.00  0.00     0.014 C 
ATOM     29  C   UNL     1      73.784  38.934   8.694  1.00  0.00     0.014 C 
ENDROOT
BRANCH   1  30
ATOM     30  C   UNL     1      71.950  48.520   7.407  1.00  0.00     0.048 C 
ATOM     31  O   UNL     1      71.418  48.524   6.268  1.00  0.00    -0.550 OA
ATOM     32  O   UNL     1      72.741  49.607   7.765  1.00  0.00    -0.550 OA
ENDBRANCH   1  30
BRANCH  27  33
ATOM     33  O   UNL     1      74.881  37.513   6.356  1.00  0.00    -0.393 OA
ATOM     34  H   UNL     1      75.571  37.400   7.060  1.00  0.00     0.210 HD
ENDBRANCH  27  33
TORSDOF 2
ENDMDL
