MODEL 1
REMARK VINA RESULT:    -4.590      0.000      0.000
REMARK INTER + INTRA:          -5.046
REMARK INTER:                  -4.992
REMARK INTRA:                  -0.054
REMARK UNBOUND:                -0.054
REMARK SMILES COc1cc2ccc(=O)oc2cc1O
REMARK SMILES IDX 3 1 13 2 12 3 11 4 5 5 4 6 6 7 7 8 8 9 9 10 10 11 2 12 1 13
REMARK SMILES IDX 14 14
REMARK H PARENT 14 15
REMARK Flexibility Score: inf
ROOT
ATOM      1  C   UNL     1      11.818  40.566  13.576  1.00  0.00     0.161 A 
ATOM      2  C   UNL     1      12.556  41.085  14.659  1.00  0.00     0.161 A 
ATOM      3  C   UNL     1      11.928  41.328  15.887  1.00  0.00     0.098 A 
ATOM      4  C   UNL     1      10.568  41.057  16.052  1.00  0.00     0.142 A 
ATOM      5  C   UNL     1       9.822  40.537  14.974  1.00  0.00     0.022 A 
ATOM      6  C   UNL     1      10.445  40.292  13.744  1.00  0.00     0.062 A 
ATOM      7  C   UNL     1       8.462  40.277  15.171  1.00  0.00     0.019 A 
ATOM      8  C   UNL     1       7.887  40.537  16.415  1.00  0.00     0.094 A 
ATOM      9  C   UNL     1       8.690  41.053  17.438  1.00  0.00     0.336 A 
ATOM     10  O   UNL     1       8.191  41.295  18.568  1.00  0.00    -0.246 OA
ATOM     11  O   UNL     1       9.981  41.292  17.224  1.00  0.00    -0.423 OA
ENDROOT
BRANCH   1  12
ATOM     12  O   UNL     1      12.478  40.334  12.359  1.00  0.00    -0.493 OA
ATOM     13  C   UNL     1      12.477  39.091  11.663  1.00  0.00     0.278 C 
ENDBRANCH   1  12
BRANCH   2  14
ATOM     14  O   UNL     1      13.915  41.368  14.532  1.00  0.00    -0.504 OA
ATOM     15  H   UNL     1      14.625  40.649  14.598  1.00  0.00     0.293 HD
ENDBRANCH   2  14
TORSDOF 2
ENDMDL
MODEL 2
REMARK VINA RESULT:    -4.578      1.650      5.567
REMARK INTER + INTRA:          -5.033
REMARK INTER:                  -5.011
REMARK INTRA:                  -0.022
REMARK UNBOUND:                -0.054
REMARK SMILES COc1cc2ccc(=O)oc2cc1O
REMARK SMILES IDX 3 1 13 2 12 3 11 4 5 5 4 6 6 7 7 8 8 9 9 10 10 11 2 12 1 13
REMARK SMILES IDX 14 14
REMARK H PARENT 14 15
REMARK Flexibility Score: inf
ROOT
ATOM      1  C   UNL     1      10.842  40.775  15.761  1.00  0.00     0.161 A 
ATOM      2  C   UNL     1      10.033  40.241  14.739  1.00  0.00     0.161 A 
ATOM      3  C   UNL     1      10.450  40.308  13.404  1.00  0.00     0.098 A 
ATOM      4  C   UNL     1      11.670  40.901  13.072  1.00  0.00     0.142 A 
ATOM      5  C   UNL     1      12.486  41.439  14.089  1.00  0.00     0.022 A 
ATOM      6  C   UNL     1      12.074  41.375  15.426  1.00  0.00     0.062 A 
ATOM      7  C   UNL     1      13.702  42.027  13.725  1.00  0.00     0.019 A 
ATOM      8  C   UNL     1      14.069  42.067  12.380  1.00  0.00     0.094 A 
ATOM      9  C   UNL     1      13.208  41.513  11.427  1.00  0.00     0.336 A 
ATOM     10  O   UNL     1      13.520  41.538  10.207  1.00  0.00    -0.246 OA
ATOM     11  O   UNL     1      12.057  40.959  11.800  1.00  0.00    -0.423 OA
ENDROOT
BRANCH   1  12
ATOM     12  O   UNL     1      10.394  40.692  17.090  1.00  0.00    -0.493 OA
ATOM     13  C   UNL     1       9.494  41.613  17.698  1.00  0.00     0.278 C 
ENDBRANCH   1  12
BRANCH   2  14
ATOM     14  O   UNL     1       8.809  39.640  15.030  1.00  0.00    -0.504 OA
ATOM     15  H   UNL     1       8.745  38.719  15.445  1.00  0.00     0.293 HD
ENDBRANCH   2  14
TORSDOF 2
ENDMDL
MODEL 3
REMARK VINA RESULT:    -4.426      1.140      4.900
REMARK INTER + INTRA:          -4.869
REMARK INTER:                  -4.804
REMARK INTRA:                  -0.065
REMARK UNBOUND:                -0.054
REMARK SMILES COc1cc2ccc(=O)oc2cc1O
REMARK SMILES IDX 3 1 13 2 12 3 11 4 5 5 4 6 6 7 7 8 8 9 9 10 10 11 2 12 1 13
REMARK SMILES IDX 14 14
REMARK H PARENT 14 15
REMARK Flexibility Score: inf
ROOT
ATOM      1  C   UNL     1       8.092  40.545  16.503  1.00  0.00     0.161 A 
ATOM      2  C   UNL     1       8.978  41.058  17.472  1.00  0.00     0.161 A 
ATOM      3  C   UNL     1      10.316  41.306  17.141  1.00  0.00     0.098 A 
ATOM      4  C   UNL     1      10.785  41.049  15.851  1.00  0.00     0.142 A 
ATOM      5  C   UNL     1       9.906  40.536  14.875  1.00  0.00     0.022 A 
ATOM      6  C   UNL     1       8.567  40.286  15.201  1.00  0.00     0.062 A 
ATOM      7  C   UNL     1      10.406  40.289  13.592  1.00  0.00     0.019 A 
ATOM      8  C   UNL     1      11.747  40.554  13.317  1.00  0.00     0.094 A 
ATOM      9  C   UNL     1      12.561  41.063  14.336  1.00  0.00     0.336 A 
ATOM     10  O   UNL     1      13.774  41.309  14.108  1.00  0.00    -0.246 OA
ATOM     11  O   UNL     1      12.059  41.289  15.547  1.00  0.00    -0.423 OA
ENDROOT
BRANCH   1  12
ATOM     12  O   UNL     1       6.757  40.308  16.868  1.00  0.00    -0.493 OA
ATOM     13  C   UNL     1       6.223  39.029  17.193  1.00  0.00     0.278 C 
ENDBRANCH   1  12
BRANCH   2  14
ATOM     14  O   UNL     1       8.547  41.327  18.770  1.00  0.00    -0.504 OA
ATOM     15  H   UNL     1       7.643  41.739  18.965  1.00  0.00     0.293 HD
ENDBRANCH   2  14
TORSDOF 2
ENDMDL
MODEL 4
REMARK VINA RESULT:    -4.043      1.588      5.429
REMARK INTER + INTRA:          -4.452
REMARK INTER:                  -4.390
REMARK INTRA:                  -0.062
REMARK UNBOUND:                -0.054
REMARK SMILES COc1cc2ccc(=O)oc2cc1O
REMARK SMILES IDX 3 1 13 2 12 3 11 4 5 5 4 6 6 7 7 8 8 9 9 10 10 11 2 12 1 13
REMARK SMILES IDX 14 14
REMARK H PARENT 14 15
REMARK Flexibility Score: inf
ROOT
ATOM      1  C   UNL     1       9.033  40.902  16.609  1.00  0.00     0.161 A 
ATOM      2  C   UNL     1       8.079  40.993  15.575  1.00  0.00     0.161 A 
ATOM      3  C   UNL     1       8.492  41.044  14.238  1.00  0.00     0.098 A 
ATOM      4  C   UNL     1       9.850  41.003  13.916  1.00  0.00     0.142 A 
ATOM      5  C   UNL     1      10.812  40.911  14.943  1.00  0.00     0.022 A 
ATOM      6  C   UNL     1      10.404  40.860  16.282  1.00  0.00     0.062 A 
ATOM      7  C   UNL     1      12.164  40.873  14.588  1.00  0.00     0.019 A 
ATOM      8  C   UNL     1      12.520  40.926  13.240  1.00  0.00     0.094 A 
ATOM      9  C   UNL     1      11.511  41.016  12.276  1.00  0.00     0.336 A 
ATOM     10  O   UNL     1      11.812  41.066  11.054  1.00  0.00    -0.246 OA
ATOM     11  O   UNL     1      10.232  41.051  12.641  1.00  0.00    -0.423 OA
ENDROOT
BRANCH   1  12
ATOM     12  O   UNL     1       8.584  40.853  17.939  1.00  0.00    -0.493 OA
ATOM     13  C   UNL     1       8.465  41.986  18.793  1.00  0.00     0.278 C 
ENDBRANCH   1  12
BRANCH   2  14
ATOM     14  O   UNL     1       6.715  41.036  15.858  1.00  0.00    -0.504 OA
ATOM     15  H   UNL     1       6.360  41.266  16.778  1.00  0.00     0.293 HD
ENDBRANCH   2  14
TORSDOF 2
ENDMDL
MODEL 5
REMARK VINA RESULT:    -4.019     14.381     15.122
REMARK INTER + INTRA:          -4.426
REMARK INTER:                  -4.361
REMARK INTRA:                  -0.065
REMARK UNBOUND:                -0.054
REMARK SMILES COc1cc2ccc(=O)oc2cc1O
REMARK SMILES IDX 3 1 13 2 12 3 11 4 5 5 4 6 6 7 7 8 8 9 9 10 10 11 2 12 1 13
REMARK SMILES IDX 14 14
REMARK H PARENT 14 15
REMARK Flexibility Score: inf
ROOT
ATOM      1  C   UNL     1       9.936  34.147   0.778  1.00  0.00     0.161 A 
ATOM      2  C   UNL     1      10.872  35.190   0.926  1.00  0.00     0.161 A 
ATOM      3  C   UNL     1      10.435  36.503   1.141  1.00  0.00     0.098 A 
ATOM      4  C   UNL     1       9.071  36.792   1.212  1.00  0.00     0.142 A 
ATOM      5  C   UNL     1       8.127  35.754   1.065  1.00  0.00     0.022 A 
ATOM      6  C   UNL     1       8.559  34.439   0.851  1.00  0.00     0.062 A 
ATOM      7  C   UNL     1       6.767  36.075   1.141  1.00  0.00     0.019 A 
ATOM      8  C   UNL     1       6.387  37.400   1.357  1.00  0.00     0.094 A 
ATOM      9  C   UNL     1       7.380  38.376   1.493  1.00  0.00     0.336 A 
ATOM     10  O   UNL     1       7.058  39.578   1.689  1.00  0.00    -0.246 OA
ATOM     11  O   UNL     1       8.666  38.044   1.417  1.00  0.00    -0.423 OA
ENDROOT
BRANCH   1  12
ATOM     12  O   UNL     1      10.408  32.842   0.564  1.00  0.00    -0.493 OA
ATOM     13  C   UNL     1      10.471  31.831   1.565  1.00  0.00     0.278 C 
ENDBRANCH   1  12
BRANCH   2  14
ATOM     14  O   UNL     1      12.242  34.941   0.861  1.00  0.00    -0.504 OA
ATOM     15  H   UNL     1      12.671  34.151   1.327  1.00  0.00     0.293 HD
ENDBRANCH   2  14
TORSDOF 2
ENDMDL
MODEL 6
REMARK VINA RESULT:    -3.916      1.439      1.989
REMARK INTER + INTRA:          -4.313
REMARK INTER:                  -4.252
REMARK INTRA:                  -0.062
REMARK UNBOUND:                -0.054
REMARK SMILES COc1cc2ccc(=O)oc2cc1O
REMARK SMILES IDX 3 1 13 2 12 3 11 4 5 5 4 6 6 7 7 8 8 9 9 10 10 11 2 12 1 13
REMARK SMILES IDX 14 14
REMARK H PARENT 14 15
REMARK Flexibility Score: inf
ROOT
ATOM      1  C   UNL     1      10.413  40.549  14.686  1.00  0.00     0.161 A 
ATOM      2  C   UNL     1      11.009  40.890  15.917  1.00  0.00     0.161 A 
ATOM      3  C   UNL     1      10.215  41.077  17.055  1.00  0.00     0.098 A 
ATOM      4  C   UNL     1       8.828  40.928  16.983  1.00  0.00     0.142 A 
ATOM      5  C   UNL     1       8.224  40.588  15.755  1.00  0.00     0.022 A 
ATOM      6  C   UNL     1       9.013  40.399  14.614  1.00  0.00     0.062 A 
ATOM      7  C   UNL     1       6.832  40.446  15.715  1.00  0.00     0.019 A 
ATOM      8  C   UNL     1       6.090  40.645  16.879  1.00  0.00     0.094 A 
ATOM      9  C   UNL     1       6.759  40.980  18.061  1.00  0.00     0.336 A 
ATOM     10  O   UNL     1       6.107  41.164  19.122  1.00  0.00    -0.246 OA
ATOM     11  O   UNL     1       8.083  41.109  18.071  1.00  0.00    -0.423 OA
ENDROOT
BRANCH   1  12
ATOM     12  O   UNL     1      11.238  40.368  13.564  1.00  0.00    -0.493 OA
ATOM     13  C   UNL     1      11.262  41.231  12.431  1.00  0.00     0.278 C 
ENDBRANCH   1  12
BRANCH   2  14
ATOM     14  O   UNL     1      12.390  41.046  16.028  1.00  0.00    -0.504 OA
ATOM     15  H   UNL     1      12.829  41.385  16.875  1.00  0.00     0.293 HD
ENDBRANCH   2  14
TORSDOF 2
ENDMDL
MODEL 7
REMARK VINA RESULT:    -3.844     18.284     19.835
REMARK INTER + INTRA:          -4.236
REMARK INTER:                  -4.192
REMARK INTRA:                  -0.043
REMARK UNBOUND:                -0.054
REMARK SMILES COc1cc2ccc(=O)oc2cc1O
REMARK SMILES IDX 3 1 13 2 12 3 11 4 5 5 4 6 6 7 7 8 8 9 9 10 10 11 2 12 1 13
REMARK SMILES IDX 14 14
REMARK H PARENT 14 15
REMARK Flexibility Score: inf
ROOT
ATOM      1  C   UNL     1       8.418  26.583   3.459  1.00  0.00     0.161 A 
ATOM      2  C   UNL     1       8.305  25.585   4.447  1.00  0.00     0.161 A 
ATOM      3  C   UNL     1       9.338  24.658   4.633  1.00  0.00     0.098 A 
ATOM      4  C   UNL     1      10.489  24.714   3.845  1.00  0.00     0.142 A 
ATOM      5  C   UNL     1      10.611  25.709   2.853  1.00  0.00     0.022 A 
ATOM      6  C   UNL     1       9.581  26.639   2.663  1.00  0.00     0.062 A 
ATOM      7  C   UNL     1      11.776  25.739   2.079  1.00  0.00     0.019 A 
ATOM      8  C   UNL     1      12.774  24.791   2.307  1.00  0.00     0.094 A 
ATOM      9  C   UNL     1      12.583  23.833   3.309  1.00  0.00     0.336 A 
ATOM     10  O   UNL     1      13.472  22.970   3.531  1.00  0.00    -0.246 OA
ATOM     11  O   UNL     1      11.465  23.828   4.031  1.00  0.00    -0.423 OA
ENDROOT
BRANCH   1  12
ATOM     12  O   UNL     1       7.364  27.496   3.298  1.00  0.00    -0.493 OA
ATOM     13  C   UNL     1       7.296  28.479   2.269  1.00  0.00     0.278 C 
ENDBRANCH   1  12
BRANCH   2  14
ATOM     14  O   UNL     1       7.171  25.498   5.254  1.00  0.00    -0.504 OA
ATOM     15  H   UNL     1       7.215  25.188   6.217  1.00  0.00     0.293 HD
ENDBRANCH   2  14
TORSDOF 2
ENDMDL
MODEL 8
REMARK VINA RESULT:    -3.727     16.387     18.312
REMARK INTER + INTRA:          -4.108
REMARK INTER:                  -4.063
REMARK INTRA:                  -0.045
REMARK UNBOUND:                -0.054
REMARK SMILES COc1cc2ccc(=O)oc2cc1O
REMARK SMILES IDX 3 1 13 2 12 3 11 4 5 5 4 6 6 7 7 8 8 9 9 10 10 11 2 12 1 13
REMARK SMILES IDX 14 14
REMARK H PARENT 14 15
REMARK Flexibility Score: inf
ROOT
ATOM      1  C   UNL     1       8.587  30.582   2.009  1.00  0.00     0.161 A 
ATOM      2  C   UNL     1       8.168  29.429   2.703  1.00  0.00     0.161 A 
ATOM      3  C   UNL     1       6.964  28.801   2.362  1.00  0.00     0.098 A 
ATOM      4  C   UNL     1       6.168  29.308   1.332  1.00  0.00     0.142 A 
ATOM      5  C   UNL     1       6.580  30.461   0.633  1.00  0.00     0.022 A 
ATOM      6  C   UNL     1       7.783  31.093   0.970  1.00  0.00     0.062 A 
ATOM      7  C   UNL     1       5.761  30.946  -0.393  1.00  0.00     0.019 A 
ATOM      8  C   UNL     1       4.571  30.281  -0.691  1.00  0.00     0.094 A 
ATOM      9  C   UNL     1       4.228  29.142   0.045  1.00  0.00     0.336 A 
ATOM     10  O   UNL     1       3.159  28.528  -0.208  1.00  0.00    -0.246 OA
ATOM     11  O   UNL     1       5.026  28.703   1.016  1.00  0.00    -0.423 OA
ENDROOT
BRANCH   1  12
ATOM     12  O   UNL     1       9.800  31.187   2.376  1.00  0.00    -0.493 OA
ATOM     13  C   UNL     1      10.618  31.954   1.499  1.00  0.00     0.278 C 
ENDBRANCH   1  12
BRANCH   2  14
ATOM     14  O   UNL     1       8.936  28.893   3.735  1.00  0.00    -0.504 OA
ATOM     15  H   UNL     1       9.436  29.474   4.396  1.00  0.00     0.293 HD
ENDBRANCH   2  14
TORSDOF 2
ENDMDL
MODEL 9
REMARK VINA RESULT:    -3.710     15.785     16.960
REMARK INTER + INTRA:          -4.090
REMARK INTER:                  -4.025
REMARK INTRA:                  -0.065
REMARK UNBOUND:                -0.054
REMARK SMILES COc1cc2ccc(=O)oc2cc1O
REMARK SMILES IDX 3 1 13 2 12 3 11 4 5 5 4 6 6 7 7 8 8 9 9 10 10 11 2 12 1 13
REMARK SMILES IDX 14 14
REMARK H PARENT 14 15
REMARK Flexibility Score: inf
ROOT
ATOM      1  C   UNL     1       9.076  32.649   0.893  1.00  0.00     0.161 A 
ATOM      2  C   UNL     1      10.233  32.142   1.519  1.00  0.00     0.161 A 
ATOM      3  C   UNL     1      10.198  30.898   2.161  1.00  0.00     0.098 A 
ATOM      4  C   UNL     1       9.020  30.148   2.187  1.00  0.00     0.142 A 
ATOM      5  C   UNL     1       7.858  30.648   1.564  1.00  0.00     0.022 A 
ATOM      6  C   UNL     1       7.887  31.891   0.920  1.00  0.00     0.062 A 
ATOM      7  C   UNL     1       6.693  29.874   1.609  1.00  0.00     0.019 A 
ATOM      8  C   UNL     1       6.714  28.642   2.262  1.00  0.00     0.094 A 
ATOM      9  C   UNL     1       7.905  28.211   2.858  1.00  0.00     0.336 A 
ATOM     10  O   UNL     1       7.944  27.102   3.453  1.00  0.00    -0.246 OA
ATOM     11  O   UNL     1       8.998  28.967   2.801  1.00  0.00    -0.423 OA
ENDROOT
BRANCH   1  12
ATOM     12  O   UNL     1       9.146  33.899   0.258  1.00  0.00    -0.493 OA
ATOM     13  C   UNL     1       8.737  35.129   0.848  1.00  0.00     0.278 C 
ENDBRANCH   1  12
BRANCH   2  14
ATOM     14  O   UNL     1      11.427  32.860   1.512  1.00  0.00    -0.504 OA
ATOM     15  H   UNL     1      11.931  33.079   2.363  1.00  0.00     0.293 HD
ENDBRANCH   2  14
TORSDOF 2
ENDMDL
