MODEL 1
REMARK VINA RESULT:    -8.256      0.000      0.000
REMARK INTER + INTRA:          -9.984
REMARK INTER:                  -9.945
REMARK INTRA:                  -0.038
REMARK UNBOUND:                -0.038
REMARK SMILES O=c1c(O)c(-c2ccc(O)c(O)c2)oc2cc(O)cc(O)c12
REMARK SMILES IDX 5 1 3 2 2 3 1 4 22 5 20 6 19 7 17 8 16 9 15 10 14 11 6 12
REMARK SMILES IDX 7 13 8 14 9 15 13 16 11 17 10 18 12 20 4 22 21 24 18 26
REMARK H PARENT 10 19 12 21 4 23 21 25 18 27
REMARK Flexibility Score: inf
ROOT
ATOM      1  C   UNL     1     -32.490   5.609   1.376  1.00  0.00     0.180 A 
ATOM      2  C   UNL     1     -31.736   4.554   0.835  1.00  0.00     0.208 A 
ATOM      3  C   UNL     1     -30.350   4.715   0.683  1.00  0.00     0.238 A 
ATOM      4  O   UNL     1     -29.693   3.796   0.130  1.00  0.00    -0.285 OA
ATOM      5  C   UNL     1     -29.726   5.906   1.127  1.00  0.00     0.111 A 
ATOM      6  C   UNL     1     -28.321   6.159   1.065  1.00  0.00     0.134 A 
ATOM      7  C   UNL     1     -27.830   7.417   1.436  1.00  0.00     0.093 A 
ATOM      8  C   UNL     1     -28.683   8.408   1.928  1.00  0.00     0.123 A 
ATOM      9  C   UNL     1     -30.046   8.152   2.044  1.00  0.00     0.094 A 
ATOM     10  C   UNL     1     -30.573   6.921   1.646  1.00  0.00     0.146 A 
ATOM     11  O   UNL     1     -31.881   6.727   1.753  1.00  0.00    -0.452 OA
ENDROOT
BRANCH   1  12
ATOM     12  C   UNL     1     -33.957   5.520   1.553  1.00  0.00     0.025 A 
ATOM     13  C   UNL     1     -34.819   6.499   1.028  1.00  0.00     0.016 A 
ATOM     14  C   UNL     1     -36.198   6.407   1.230  1.00  0.00     0.051 A 
ATOM     15  C   UNL     1     -36.736   5.346   1.969  1.00  0.00     0.157 A 
ATOM     16  C   UNL     1     -34.499   4.470   2.312  1.00  0.00     0.062 A 
ATOM     17  C   UNL     1     -35.881   4.374   2.516  1.00  0.00     0.158 A 
BRANCH  15  18
ATOM     18  O   UNL     1     -38.113   5.256   2.166  1.00  0.00    -0.504 OA
ATOM     19  H   UNL     1     -38.596   4.364   2.144  1.00  0.00     0.293 HD
ENDBRANCH  15  18
BRANCH  17  20
ATOM     20  O   UNL     1     -36.384   3.310   3.262  1.00  0.00    -0.504 OA
ATOM     21  H   UNL     1     -37.015   3.449   4.042  1.00  0.00     0.293 HD
ENDBRANCH  17  20
ENDBRANCH   1  12
BRANCH   2  22
ATOM     22  O   UNL     1     -32.360   3.357   0.473  1.00  0.00    -0.502 OA
ATOM     23  H   UNL     1     -32.443   3.056  -0.491  1.00  0.00     0.293 HD
ENDBRANCH   2  22
BRANCH   6  24
ATOM     24  O   UNL     1     -27.371   5.212   0.674  1.00  0.00    -0.507 OA
ATOM     25  H   UNL     1     -27.394   4.235   0.923  1.00  0.00     0.293 HD
ENDBRANCH   6  24
BRANCH   8  26
ATOM     26  O   UNL     1     -28.182   9.651   2.311  1.00  0.00    -0.508 OA
ATOM     27  H   UNL     1     -27.316  10.014   1.929  1.00  0.00     0.293 HD
ENDBRANCH   8  26
TORSDOF 6
ENDMDL
MODEL 2
REMARK VINA RESULT:    -8.089      2.296      7.449
REMARK INTER + INTRA:          -9.782
REMARK INTER:                  -9.558
REMARK INTRA:                  -0.224
REMARK UNBOUND:                -0.038
REMARK SMILES O=c1c(O)c(-c2ccc(O)c(O)c2)oc2cc(O)cc(O)c12
REMARK SMILES IDX 5 1 3 2 2 3 1 4 22 5 20 6 19 7 17 8 16 9 15 10 14 11 6 12
REMARK SMILES IDX 7 13 8 14 9 15 13 16 11 17 10 18 12 20 4 22 21 24 18 26
REMARK H PARENT 10 19 12 21 4 23 21 25 18 27
REMARK Flexibility Score: inf
ROOT
ATOM      1  C   UNL     1     -29.993   7.644   1.944  1.00  0.00     0.180 A 
ATOM      2  C   UNL     1     -30.427   7.873   3.260  1.00  0.00     0.208 A 
ATOM      3  C   UNL     1     -31.773   7.643   3.584  1.00  0.00     0.238 A 
ATOM      4  O   UNL     1     -32.170   7.921   4.745  1.00  0.00    -0.285 OA
ATOM      5  C   UNL     1     -32.657   7.131   2.603  1.00  0.00     0.111 A 
ATOM      6  C   UNL     1     -34.031   6.817   2.831  1.00  0.00     0.134 A 
ATOM      7  C   UNL     1     -34.835   6.417   1.756  1.00  0.00     0.093 A 
ATOM      8  C   UNL     1     -34.301   6.259   0.475  1.00  0.00     0.123 A 
ATOM      9  C   UNL     1     -32.950   6.510   0.254  1.00  0.00     0.094 A 
ATOM     10  C   UNL     1     -32.129   6.947   1.297  1.00  0.00     0.146 A 
ATOM     11  O   UNL     1     -30.852   7.196   1.036  1.00  0.00    -0.452 OA
ENDROOT
BRANCH   1  12
ATOM     12  C   UNL     1     -28.593   7.878   1.522  1.00  0.00     0.025 A 
ATOM     13  C   UNL     1     -28.056   9.176   1.454  1.00  0.00     0.016 A 
ATOM     14  C   UNL     1     -26.740   9.374   1.029  1.00  0.00     0.051 A 
ATOM     15  C   UNL     1     -25.945   8.283   0.655  1.00  0.00     0.157 A 
ATOM     16  C   UNL     1     -27.800   6.789   1.125  1.00  0.00     0.062 A 
ATOM     17  C   UNL     1     -26.480   6.984   0.700  1.00  0.00     0.158 A 
BRANCH  15  18
ATOM     18  O   UNL     1     -24.632   8.483   0.234  1.00  0.00    -0.504 OA
ATOM     19  H   UNL     1     -24.417   8.787  -0.709  1.00  0.00     0.293 HD
ENDBRANCH  15  18
BRANCH  17  20
ATOM     20  O   UNL     1     -25.718   5.878   0.327  1.00  0.00    -0.504 OA
ATOM     21  H   UNL     1     -25.642   5.054   0.910  1.00  0.00     0.293 HD
ENDBRANCH  17  20
ENDBRANCH   1  12
BRANCH   2  22
ATOM     22  O   UNL     1     -29.521   8.305   4.234  1.00  0.00    -0.502 OA
ATOM     23  H   UNL     1     -29.535   7.953   5.183  1.00  0.00     0.293 HD
ENDBRANCH   2  22
BRANCH   6  24
ATOM     24  O   UNL     1     -34.645   6.855   4.086  1.00  0.00    -0.507 OA
ATOM     25  H   UNL     1     -34.896   6.045   4.631  1.00  0.00     0.293 HD
ENDBRANCH   6  24
BRANCH   8  26
ATOM     26  O   UNL     1     -35.105   5.844  -0.584  1.00  0.00    -0.508 OA
ATOM     27  H   UNL     1     -35.055   6.288  -1.494  1.00  0.00     0.293 HD
ENDBRANCH   8  26
TORSDOF 6
ENDMDL
MODEL 3
REMARK VINA RESULT:    -8.061      2.393      7.586
REMARK INTER + INTRA:          -9.749
REMARK INTER:                  -9.619
REMARK INTRA:                  -0.130
REMARK UNBOUND:                -0.038
REMARK SMILES O=c1c(O)c(-c2ccc(O)c(O)c2)oc2cc(O)cc(O)c12
REMARK SMILES IDX 5 1 3 2 2 3 1 4 22 5 20 6 19 7 17 8 16 9 15 10 14 11 6 12
REMARK SMILES IDX 7 13 8 14 9 15 13 16 11 17 10 18 12 20 4 22 21 24 18 26
REMARK H PARENT 10 19 12 21 4 23 21 25 18 27
REMARK Flexibility Score: inf
ROOT
ATOM      1  C   UNL     1     -29.980   7.483   1.891  1.00  0.00     0.180 A 
ATOM      2  C   UNL     1     -30.411   7.790   3.192  1.00  0.00     0.208 A 
ATOM      3  C   UNL     1     -31.768   7.637   3.515  1.00  0.00     0.238 A 
ATOM      4  O   UNL     1     -32.159   7.985   4.659  1.00  0.00    -0.285 OA
ATOM      5  C   UNL     1     -32.669   7.125   2.550  1.00  0.00     0.111 A 
ATOM      6  C   UNL     1     -34.058   6.885   2.781  1.00  0.00     0.134 A 
ATOM      7  C   UNL     1     -34.873   6.476   1.718  1.00  0.00     0.093 A 
ATOM      8  C   UNL     1     -34.339   6.236   0.450  1.00  0.00     0.123 A 
ATOM      9  C   UNL     1     -32.977   6.413   0.229  1.00  0.00     0.094 A 
ATOM     10  C   UNL     1     -32.143   6.858   1.258  1.00  0.00     0.146 A 
ATOM     11  O   UNL     1     -30.854   7.035   0.997  1.00  0.00    -0.452 OA
ENDROOT
BRANCH   1  12
ATOM     12  C   UNL     1     -28.568   7.632   1.471  1.00  0.00     0.025 A 
ATOM     13  C   UNL     1     -27.793   6.519   1.098  1.00  0.00     0.016 A 
ATOM     14  C   UNL     1     -26.456   6.682   0.730  1.00  0.00     0.051 A 
ATOM     15  C   UNL     1     -25.868   7.953   0.741  1.00  0.00     0.157 A 
ATOM     16  C   UNL     1     -27.969   8.902   1.501  1.00  0.00     0.062 A 
ATOM     17  C   UNL     1     -26.629   9.069   1.132  1.00  0.00     0.158 A 
BRANCH  15  18
ATOM     18  O   UNL     1     -24.534   8.112   0.370  1.00  0.00    -0.504 OA
ATOM     19  H   UNL     1     -23.862   8.558   0.985  1.00  0.00     0.293 HD
ENDBRANCH  15  18
BRANCH  17  20
ATOM     20  O   UNL     1     -26.072  10.346   1.160  1.00  0.00    -0.504 OA
ATOM     21  H   UNL     1     -26.641  11.183   1.155  1.00  0.00     0.293 HD
ENDBRANCH  17  20
ENDBRANCH   1  12
BRANCH   2  22
ATOM     22  O   UNL     1     -29.492   8.222   4.153  1.00  0.00    -0.502 OA
ATOM     23  H   UNL     1     -29.308   7.701   5.002  1.00  0.00     0.293 HD
ENDBRANCH   2  22
BRANCH   6  24
ATOM     24  O   UNL     1     -34.677   7.008   4.028  1.00  0.00    -0.507 OA
ATOM     25  H   UNL     1     -34.247   7.402   4.850  1.00  0.00     0.293 HD
ENDBRANCH   6  24
BRANCH   8  26
ATOM     26  O   UNL     1     -35.156   5.812  -0.597  1.00  0.00    -0.508 OA
ATOM     27  H   UNL     1     -36.164   5.764  -0.497  1.00  0.00     0.293 HD
ENDBRANCH   8  26
TORSDOF 6
ENDMDL
MODEL 4
REMARK VINA RESULT:    -7.955      1.836      2.895
REMARK INTER + INTRA:          -9.621
REMARK INTER:                  -9.314
REMARK INTRA:                  -0.307
REMARK UNBOUND:                -0.038
REMARK SMILES O=c1c(O)c(-c2ccc(O)c(O)c2)oc2cc(O)cc(O)c12
REMARK SMILES IDX 5 1 3 2 2 3 1 4 22 5 20 6 19 7 17 8 16 9 15 10 14 11 6 12
REMARK SMILES IDX 7 13 8 14 9 15 13 16 11 17 10 18 12 20 4 22 21 24 18 26
REMARK H PARENT 10 19 12 21 4 23 21 25 18 27
REMARK Flexibility Score: inf
ROOT
ATOM      1  C   UNL     1     -32.701   7.005   2.319  1.00  0.00     0.180 A 
ATOM      2  C   UNL     1     -32.162   7.525   3.508  1.00  0.00     0.208 A 
ATOM      3  C   UNL     1     -30.829   7.966   3.516  1.00  0.00     0.238 A 
ATOM      4  O   UNL     1     -30.331   8.360   4.602  1.00  0.00    -0.285 OA
ATOM      5  C   UNL     1     -30.069   7.936   2.322  1.00  0.00     0.111 A 
ATOM      6  C   UNL     1     -28.723   8.399   2.204  1.00  0.00     0.134 A 
ATOM      7  C   UNL     1     -28.036   8.221   0.996  1.00  0.00     0.093 A 
ATOM      8  C   UNL     1     -28.665   7.655  -0.115  1.00  0.00     0.123 A 
ATOM      9  C   UNL     1     -29.993   7.250  -0.026  1.00  0.00     0.094 A 
ATOM     10  C   UNL     1     -30.695   7.379   1.176  1.00  0.00     0.146 A 
ATOM     11  O   UNL     1     -31.953   6.959   1.223  1.00  0.00    -0.452 OA
ENDROOT
BRANCH   1  12
ATOM     12  C   UNL     1     -34.093   6.508   2.235  1.00  0.00     0.025 A 
ATOM     13  C   UNL     1     -35.176   7.388   2.063  1.00  0.00     0.016 A 
ATOM     14  C   UNL     1     -36.483   6.897   2.012  1.00  0.00     0.051 A 
ATOM     15  C   UNL     1     -36.729   5.524   2.144  1.00  0.00     0.157 A 
ATOM     16  C   UNL     1     -34.346   5.135   2.389  1.00  0.00     0.062 A 
ATOM     17  C   UNL     1     -35.654   4.639   2.337  1.00  0.00     0.158 A 
BRANCH  15  18
ATOM     18  O   UNL     1     -38.034   5.038   2.090  1.00  0.00    -0.504 OA
ATOM     19  H   UNL     1     -38.445   4.531   2.867  1.00  0.00     0.293 HD
ENDBRANCH  15  18
BRANCH  17  20
ATOM     20  O   UNL     1     -35.866   3.269   2.480  1.00  0.00    -0.504 OA
ATOM     21  H   UNL     1     -36.298   2.712   1.754  1.00  0.00     0.293 HD
ENDBRANCH  17  20
ENDBRANCH   1  12
BRANCH   2  22
ATOM     22  O   UNL     1     -32.953   7.617   4.657  1.00  0.00    -0.502 OA
ATOM     23  H   UNL     1     -33.916   7.304   4.680  1.00  0.00     0.293 HD
ENDBRANCH   2  22
BRANCH   6  24
ATOM     24  O   UNL     1     -28.030   9.059   3.222  1.00  0.00    -0.507 OA
ATOM     25  H   UNL     1     -27.047   9.284   3.200  1.00  0.00     0.293 HD
ENDBRANCH   6  24
BRANCH   8  26
ATOM     26  O   UNL     1     -27.978   7.498  -1.317  1.00  0.00    -0.508 OA
ATOM     27  H   UNL     1     -28.149   8.107  -2.109  1.00  0.00     0.293 HD
ENDBRANCH   8  26
TORSDOF 6
ENDMDL
MODEL 5
REMARK VINA RESULT:    -7.929      1.189      1.638
REMARK INTER + INTRA:          -9.590
REMARK INTER:                 -10.014
REMARK INTRA:                   0.425
REMARK UNBOUND:                -0.038
REMARK SMILES O=c1c(O)c(-c2ccc(O)c(O)c2)oc2cc(O)cc(O)c12
REMARK SMILES IDX 5 1 3 2 2 3 1 4 22 5 20 6 19 7 17 8 16 9 15 10 14 11 6 12
REMARK SMILES IDX 7 13 8 14 9 15 13 16 11 17 10 18 12 20 4 22 21 24 18 26
REMARK H PARENT 10 19 12 21 4 23 21 25 18 27
REMARK Flexibility Score: inf
ROOT
ATOM      1  C   UNL     1     -32.097   6.198   1.373  1.00  0.00     0.180 A 
ATOM      2  C   UNL     1     -31.403   5.030   1.012  1.00  0.00     0.208 A 
ATOM      3  C   UNL     1     -30.012   5.092   0.834  1.00  0.00     0.238 A 
ATOM      4  O   UNL     1     -29.408   4.061   0.440  1.00  0.00    -0.285 OA
ATOM      5  C   UNL     1     -29.323   6.306   1.075  1.00  0.00     0.111 A 
ATOM      6  C   UNL     1     -27.909   6.472   0.970  1.00  0.00     0.134 A 
ATOM      7  C   UNL     1     -27.350   7.747   1.128  1.00  0.00     0.093 A 
ATOM      8  C   UNL     1     -28.147   8.849   1.450  1.00  0.00     0.123 A 
ATOM      9  C   UNL     1     -29.520   8.686   1.609  1.00  0.00     0.094 A 
ATOM     10  C   UNL     1     -30.113   7.435   1.420  1.00  0.00     0.146 A 
ATOM     11  O   UNL     1     -31.428   7.330   1.559  1.00  0.00    -0.452 OA
ENDROOT
BRANCH   1  12
ATOM     12  C   UNL     1     -33.565   6.216   1.564  1.00  0.00     0.025 A 
ATOM     13  C   UNL     1     -34.370   5.140   1.151  1.00  0.00     0.016 A 
ATOM     14  C   UNL     1     -35.756   5.190   1.319  1.00  0.00     0.051 A 
ATOM     15  C   UNL     1     -36.360   6.318   1.889  1.00  0.00     0.157 A 
ATOM     16  C   UNL     1     -34.176   7.354   2.115  1.00  0.00     0.062 A 
ATOM     17  C   UNL     1     -35.564   7.408   2.286  1.00  0.00     0.158 A 
BRANCH  15  18
ATOM     18  O   UNL     1     -37.742   6.364   2.058  1.00  0.00    -0.504 OA
ATOM     19  H   UNL     1     -38.213   7.210   2.362  1.00  0.00     0.293 HD
ENDBRANCH  15  18
BRANCH  17  20
ATOM     20  O   UNL     1     -36.135   8.548   2.849  1.00  0.00    -0.504 OA
ATOM     21  H   UNL     1     -36.954   8.504   3.441  1.00  0.00     0.293 HD
ENDBRANCH  17  20
ENDBRANCH   1  12
BRANCH   2  22
ATOM     22  O   UNL     1     -32.091   3.824   0.854  1.00  0.00    -0.502 OA
ATOM     23  H   UNL     1     -31.616   2.932   0.789  1.00  0.00     0.293 HD
ENDBRANCH   2  22
BRANCH   6  24
ATOM     24  O   UNL     1     -27.012   5.425   0.740  1.00  0.00    -0.507 OA
ATOM     25  H   UNL     1     -27.239   4.445   0.808  1.00  0.00     0.293 HD
ENDBRANCH   6  24
BRANCH   8  26
ATOM     26  O   UNL     1     -27.580  10.110   1.623  1.00  0.00    -0.508 OA
ATOM     27  H   UNL     1     -26.902  10.291   2.355  1.00  0.00     0.293 HD
ENDBRANCH   8  26
TORSDOF 6
ENDMDL
MODEL 6
REMARK VINA RESULT:    -7.824      2.205      7.328
REMARK INTER + INTRA:          -9.463
REMARK INTER:                  -9.632
REMARK INTRA:                   0.169
REMARK UNBOUND:                -0.038
REMARK SMILES O=c1c(O)c(-c2ccc(O)c(O)c2)oc2cc(O)cc(O)c12
REMARK SMILES IDX 5 1 3 2 2 3 1 4 22 5 20 6 19 7 17 8 16 9 15 10 14 11 6 12
REMARK SMILES IDX 7 13 8 14 9 15 13 16 11 17 10 18 12 20 4 22 21 24 18 26
REMARK H PARENT 10 19 12 21 4 23 21 25 18 27
REMARK Flexibility Score: inf
ROOT
ATOM      1  C   UNL     1     -30.182   7.309   1.336  1.00  0.00     0.180 A 
ATOM      2  C   UNL     1     -30.321   7.800   2.645  1.00  0.00     0.208 A 
ATOM      3  C   UNL     1     -31.596   7.821   3.234  1.00  0.00     0.238 A 
ATOM      4  O   UNL     1     -31.724   8.330   4.377  1.00  0.00    -0.285 OA
ATOM      5  C   UNL     1     -32.706   7.297   2.529  1.00  0.00     0.111 A 
ATOM      6  C   UNL     1     -34.036   7.226   3.045  1.00  0.00     0.134 A 
ATOM      7  C   UNL     1     -35.075   6.785   2.216  1.00  0.00     0.093 A 
ATOM      8  C   UNL     1     -34.824   6.354   0.911  1.00  0.00     0.123 A 
ATOM      9  C   UNL     1     -33.523   6.368   0.417  1.00  0.00     0.094 A 
ATOM     10  C   UNL     1     -32.469   6.838   1.206  1.00  0.00     0.146 A 
ATOM     11  O   UNL     1     -31.248   6.855   0.687  1.00  0.00    -0.452 OA
ENDROOT
BRANCH   1  12
ATOM     12  C   UNL     1     -28.875   7.268   0.643  1.00  0.00     0.025 A 
ATOM     13  C   UNL     1     -28.761   7.574  -0.725  1.00  0.00     0.016 A 
ATOM     14  C   UNL     1     -27.520   7.504  -1.363  1.00  0.00     0.051 A 
ATOM     15  C   UNL     1     -26.379   7.117  -0.650  1.00  0.00     0.157 A 
ATOM     16  C   UNL     1     -27.731   6.859   1.349  1.00  0.00     0.062 A 
ATOM     17  C   UNL     1     -26.486   6.790   0.713  1.00  0.00     0.158 A 
BRANCH  15  18
ATOM     18  O   UNL     1     -25.142   7.051  -1.289  1.00  0.00    -0.504 OA
ATOM     19  H   UNL     1     -24.453   7.790  -1.192  1.00  0.00     0.293 HD
ENDBRANCH  15  18
BRANCH  17  20
ATOM     20  O   UNL     1     -25.370   6.393   1.448  1.00  0.00    -0.504 OA
ATOM     21  H   UNL     1     -25.162   6.778   2.361  1.00  0.00     0.293 HD
ENDBRANCH  17  20
ENDBRANCH   1  12
BRANCH   2  22
ATOM     22  O   UNL     1     -29.200   8.241   3.353  1.00  0.00    -0.502 OA
ATOM     23  H   UNL     1     -28.258   7.957   3.111  1.00  0.00     0.293 HD
ENDBRANCH   2  22
BRANCH   6  24
ATOM     24  O   UNL     1     -34.384   7.547   4.360  1.00  0.00    -0.507 OA
ATOM     25  H   UNL     1     -34.952   8.334   4.631  1.00  0.00     0.293 HD
ENDBRANCH   6  24
BRANCH   8  26
ATOM     26  O   UNL     1     -35.862   5.901   0.099  1.00  0.00    -0.508 OA
ATOM     27  H   UNL     1     -36.825   5.913   0.415  1.00  0.00     0.293 HD
ENDBRANCH   8  26
TORSDOF 6
ENDMDL
MODEL 7
REMARK VINA RESULT:    -7.684      2.010      6.967
REMARK INTER + INTRA:          -9.295
REMARK INTER:                  -9.379
REMARK INTRA:                   0.085
REMARK UNBOUND:                -0.038
REMARK SMILES O=c1c(O)c(-c2ccc(O)c(O)c2)oc2cc(O)cc(O)c12
REMARK SMILES IDX 5 1 3 2 2 3 1 4 22 5 20 6 19 7 17 8 16 9 15 10 14 11 6 12
REMARK SMILES IDX 7 13 8 14 9 15 13 16 11 17 10 18 12 20 4 22 21 24 18 26
REMARK H PARENT 10 19 12 21 4 23 21 25 18 27
REMARK Flexibility Score: inf
ROOT
ATOM      1  C   UNL     1     -30.117   7.053   0.784  1.00  0.00     0.180 A 
ATOM      2  C   UNL     1     -30.246   6.097  -0.237  1.00  0.00     0.208 A 
ATOM      3  C   UNL     1     -31.511   5.546  -0.498  1.00  0.00     0.238 A 
ATOM      4  O   UNL     1     -31.606   4.637  -1.362  1.00  0.00    -0.285 OA
ATOM      5  C   UNL     1     -32.640   5.999   0.226  1.00  0.00     0.111 A 
ATOM      6  C   UNL     1     -33.978   5.544   0.014  1.00  0.00     0.134 A 
ATOM      7  C   UNL     1     -35.000   5.987   0.863  1.00  0.00     0.093 A 
ATOM      8  C   UNL     1     -34.745   6.916   1.875  1.00  0.00     0.123 A 
ATOM      9  C   UNL     1     -33.456   7.407   2.054  1.00  0.00     0.094 A 
ATOM     10  C   UNL     1     -32.407   6.957   1.248  1.00  0.00     0.146 A 
ATOM     11  O   UNL     1     -31.189   7.435   1.468  1.00  0.00    -0.452 OA
ENDROOT
BRANCH   1  12
ATOM     12  C   UNL     1     -28.814   7.669   1.128  1.00  0.00     0.025 A 
ATOM     13  C   UNL     1     -28.676   9.062   1.263  1.00  0.00     0.016 A 
ATOM     14  C   UNL     1     -27.431   9.621   1.563  1.00  0.00     0.051 A 
ATOM     15  C   UNL     1     -26.306   8.802   1.720  1.00  0.00     0.157 A 
ATOM     16  C   UNL     1     -27.679   6.853   1.265  1.00  0.00     0.062 A 
ATOM     17  C   UNL     1     -26.431   7.410   1.567  1.00  0.00     0.158 A 
BRANCH  15  18
ATOM     18  O   UNL     1     -25.067   9.363   2.022  1.00  0.00    -0.504 OA
ATOM     19  H   UNL     1     -24.965  10.068   2.743  1.00  0.00     0.293 HD
ENDBRANCH  15  18
BRANCH  17  20
ATOM     20  O   UNL     1     -25.330   6.568   1.709  1.00  0.00    -0.504 OA
ATOM     21  H   UNL     1     -24.803   6.231   0.913  1.00  0.00     0.293 HD
ENDBRANCH  17  20
ENDBRANCH   1  12
BRANCH   2  22
ATOM     22  O   UNL     1     -29.132   5.719  -0.991  1.00  0.00    -0.502 OA
ATOM     23  H   UNL     1     -28.463   5.031  -0.666  1.00  0.00     0.293 HD
ENDBRANCH   2  22
BRANCH   6  24
ATOM     24  O   UNL     1     -34.358   4.686  -1.021  1.00  0.00    -0.507 OA
ATOM     25  H   UNL     1     -35.110   4.861  -1.670  1.00  0.00     0.293 HD
ENDBRANCH   6  24
BRANCH   8  26
ATOM     26  O   UNL     1     -35.772   7.364   2.703  1.00  0.00    -0.508 OA
ATOM     27  H   UNL     1     -36.716   7.002   2.620  1.00  0.00     0.293 HD
ENDBRANCH   8  26
TORSDOF 6
ENDMDL
MODEL 8
REMARK VINA RESULT:    -7.494      1.821      6.608
REMARK INTER + INTRA:          -9.066
REMARK INTER:                  -8.742
REMARK INTRA:                  -0.324
REMARK UNBOUND:                -0.038
REMARK SMILES O=c1c(O)c(-c2ccc(O)c(O)c2)oc2cc(O)cc(O)c12
REMARK SMILES IDX 5 1 3 2 2 3 1 4 22 5 20 6 19 7 17 8 16 9 15 10 14 11 6 12
REMARK SMILES IDX 7 13 8 14 9 15 13 16 11 17 10 18 12 20 4 22 21 24 18 26
REMARK H PARENT 10 19 12 21 4 23 21 25 18 27
REMARK Flexibility Score: inf
ROOT
ATOM      1  C   UNL     1     -31.708   5.319   0.514  1.00  0.00     0.180 A 
ATOM      2  C   UNL     1     -32.290   4.042   0.591  1.00  0.00     0.208 A 
ATOM      3  C   UNL     1     -33.582   3.913   1.124  1.00  0.00     0.238 A 
ATOM      4  O   UNL     1     -34.067   2.760   1.257  1.00  0.00    -0.285 OA
ATOM      5  C   UNL     1     -34.299   5.067   1.521  1.00  0.00     0.111 A 
ATOM      6  C   UNL     1     -35.633   5.060   2.032  1.00  0.00     0.134 A 
ATOM      7  C   UNL     1     -36.203   6.253   2.492  1.00  0.00     0.093 A 
ATOM      8  C   UNL     1     -35.512   7.464   2.401  1.00  0.00     0.123 A 
ATOM      9  C   UNL     1     -34.233   7.491   1.853  1.00  0.00     0.094 A 
ATOM     10  C   UNL     1     -33.622   6.311   1.420  1.00  0.00     0.146 A 
ATOM     11  O   UNL     1     -32.392   6.380   0.925  1.00  0.00    -0.452 OA
ENDROOT
BRANCH   1  12
ATOM     12  C   UNL     1     -30.344   5.534  -0.022  1.00  0.00     0.025 A 
ATOM     13  C   UNL     1     -30.124   5.761  -1.392  1.00  0.00     0.016 A 
ATOM     14  C   UNL     1     -28.826   5.936  -1.878  1.00  0.00     0.051 A 
ATOM     15  C   UNL     1     -27.730   5.874  -1.008  1.00  0.00     0.157 A 
ATOM     16  C   UNL     1     -29.241   5.450   0.843  1.00  0.00     0.062 A 
ATOM     17  C   UNL     1     -27.939   5.626   0.360  1.00  0.00     0.158 A 
BRANCH  15  18
ATOM     18  O   UNL     1     -26.436   6.051  -1.496  1.00  0.00    -0.504 OA
ATOM     19  H   UNL     1     -25.621   5.839  -0.931  1.00  0.00     0.293 HD
ENDBRANCH  15  18
BRANCH  17  20
ATOM     20  O   UNL     1     -26.869   5.551   1.250  1.00  0.00    -0.504 OA
ATOM     21  H   UNL     1     -26.920   5.930   2.187  1.00  0.00     0.293 HD
ENDBRANCH  17  20
ENDBRANCH   1  12
BRANCH   2  22
ATOM     22  O   UNL     1     -31.595   2.924   0.122  1.00  0.00    -0.502 OA
ATOM     23  H   UNL     1     -32.065   2.083  -0.191  1.00  0.00     0.293 HD
ENDBRANCH   2  22
BRANCH   6  24
ATOM     24  O   UNL     1     -36.444   3.923   2.086  1.00  0.00    -0.507 OA
ATOM     25  H   UNL     1     -36.278   3.122   2.676  1.00  0.00     0.293 HD
ENDBRANCH   6  24
BRANCH   8  26
ATOM     26  O   UNL     1     -36.094   8.650   2.845  1.00  0.00    -0.508 OA
ATOM     27  H   UNL     1     -35.788   9.553   2.499  1.00  0.00     0.293 HD
ENDBRANCH   8  26
TORSDOF 6
ENDMDL
MODEL 9
REMARK VINA RESULT:    -7.277      1.900      7.250
REMARK INTER + INTRA:          -8.804
REMARK INTER:                  -8.993
REMARK INTRA:                   0.189
REMARK UNBOUND:                -0.038
REMARK SMILES O=c1c(O)c(-c2ccc(O)c(O)c2)oc2cc(O)cc(O)c12
REMARK SMILES IDX 5 1 3 2 2 3 1 4 22 5 20 6 19 7 17 8 16 9 15 10 14 11 6 12
REMARK SMILES IDX 7 13 8 14 9 15 13 16 11 17 10 18 12 20 4 22 21 24 18 26
REMARK H PARENT 10 19 12 21 4 23 21 25 18 27
REMARK Flexibility Score: inf
ROOT
ATOM      1  C   UNL     1     -30.872   7.027   1.614  1.00  0.00     0.180 A 
ATOM      2  C   UNL     1     -31.789   7.603   2.510  1.00  0.00     0.208 A 
ATOM      3  C   UNL     1     -33.002   6.942   2.763  1.00  0.00     0.238 A 
ATOM      4  O   UNL     1     -33.849   7.499   3.508  1.00  0.00    -0.285 OA
ATOM      5  C   UNL     1     -33.259   5.686   2.161  1.00  0.00     0.111 A 
ATOM      6  C   UNL     1     -34.434   4.905   2.381  1.00  0.00     0.134 A 
ATOM      7  C   UNL     1     -34.627   3.727   1.649  1.00  0.00     0.093 A 
ATOM      8  C   UNL     1     -33.659   3.268   0.752  1.00  0.00     0.123 A 
ATOM      9  C   UNL     1     -32.485   3.994   0.572  1.00  0.00     0.094 A 
ATOM     10  C   UNL     1     -32.279   5.193   1.259  1.00  0.00     0.146 A 
ATOM     11  O   UNL     1     -31.155   5.864   1.040  1.00  0.00    -0.452 OA
ENDROOT
BRANCH   1  12
ATOM     12  C   UNL     1     -29.580   7.670   1.286  1.00  0.00     0.025 A 
ATOM     13  C   UNL     1     -29.051   7.628  -0.016  1.00  0.00     0.016 A 
ATOM     14  C   UNL     1     -27.817   8.221  -0.296  1.00  0.00     0.051 A 
ATOM     15  C   UNL     1     -27.088   8.852   0.720  1.00  0.00     0.157 A 
ATOM     16  C   UNL     1     -28.835   8.285   2.306  1.00  0.00     0.062 A 
ATOM     17  C   UNL     1     -27.600   8.881   2.029  1.00  0.00     0.158 A 
BRANCH  15  18
ATOM     18  O   UNL     1     -25.859   9.445   0.436  1.00  0.00    -0.504 OA
ATOM     19  H   UNL     1     -25.749  10.453   0.407  1.00  0.00     0.293 HD
ENDBRANCH  15  18
BRANCH  17  20
ATOM     20  O   UNL     1     -26.895   9.494   3.063  1.00  0.00    -0.504 OA
ATOM     21  H   UNL     1     -25.976   9.181   3.350  1.00  0.00     0.293 HD
ENDBRANCH  17  20
ENDBRANCH   1  12
BRANCH   2  22
ATOM     22  O   UNL     1     -31.483   8.806   3.152  1.00  0.00    -0.502 OA
ATOM     23  H   UNL     1     -31.762   8.998   4.107  1.00  0.00     0.293 HD
ENDBRANCH   2  22
BRANCH   6  24
ATOM     24  O   UNL     1     -35.422   5.224   3.316  1.00  0.00    -0.507 OA
ATOM     25  H   UNL     1     -36.310   4.753   3.403  1.00  0.00     0.293 HD
ENDBRANCH   6  24
BRANCH   8  26
ATOM     26  O   UNL     1     -33.852   2.086   0.041  1.00  0.00    -0.508 OA
ATOM     27  H   UNL     1     -33.569   1.998  -0.929  1.00  0.00     0.293 HD
ENDBRANCH   8  26
TORSDOF 6
ENDMDL
