MODEL 1
REMARK VINA RESULT:    -4.700      0.000      0.000
REMARK INTER + INTRA:          -7.898
REMARK INTER:                  -7.447
REMARK INTRA:                  -0.451
REMARK UNBOUND:                -0.451
REMARK SMILES CCCCCCCCCCCC(=O)[O-]
REMARK SMILES IDX 7 1 8 2 9 3 10 4 11 5 12 6 13 7 14 8 6 9 5 10 4 11 3 12 2 13
REMARK SMILES IDX 1 14
REMARK H PARENT
REMARK Flexibility Score: inf
ROOT
ATOM      1  C   UNL     1       2.513 -37.436  19.820  1.00  0.00     0.000 C 
ENDROOT
BRANCH   1   2
ATOM      2  C   UNL     1       4.000 -37.047  19.905  1.00  0.00     0.000 C 
BRANCH   2   3
ATOM      3  C   UNL     1       4.303 -35.817  20.784  1.00  0.00     0.000 C 
BRANCH   3   4
ATOM      4  C   UNL     1       5.748 -35.728  21.306  1.00  0.00     0.006 C 
BRANCH   4   5
ATOM      5  C   UNL     1       5.964 -36.526  22.598  1.00  0.00     0.053 C 
BRANCH   5   6
ATOM      6  C   UNL     1       5.709 -35.664  23.793  1.00  0.00     0.041 C 
ATOM      7  O   UNL     1       5.461 -36.188  24.911  1.00  0.00    -0.550 OA
ATOM      8  O   UNL     1       5.792 -34.282  23.684  1.00  0.00    -0.550 OA
ENDBRANCH   5   6
ENDBRANCH   4   5
ENDBRANCH   3   4
ENDBRANCH   2   3
ENDBRANCH   1   2
BRANCH   1   9
ATOM      9  C   UNL     1       2.035 -37.659  18.378  1.00  0.00     0.000 C 
BRANCH   9  10
ATOM     10  C   UNL     1       3.188 -37.460  17.382  1.00  0.00    -0.000 C 
BRANCH  10  11
ATOM     11  C   UNL     1       2.920 -36.326  16.380  1.00  0.00    -0.000 C 
BRANCH  11  12
ATOM     12  C   UNL     1       2.351 -36.838  15.045  1.00  0.00    -0.000 C 
BRANCH  12  13
ATOM     13  C   UNL     1       3.442 -37.054  13.985  1.00  0.00    -0.003 C 
ATOM     14  C   UNL     1       4.153 -38.400  14.131  1.00  0.00     0.004 C 
ENDBRANCH  12  13
ENDBRANCH  11  12
ENDBRANCH  10  11
ENDBRANCH   9  10
ENDBRANCH   1   9
TORSDOF 10
ENDMDL
MODEL 2
REMARK VINA RESULT:    -4.575      0.722      1.195
REMARK INTER + INTRA:          -7.700
REMARK INTER:                  -7.143
REMARK INTRA:                  -0.557
REMARK UNBOUND:                -0.451
REMARK SMILES CCCCCCCCCCCC(=O)[O-]
REMARK SMILES IDX 7 1 8 2 9 3 10 4 11 5 12 6 13 7 14 8 6 9 5 10 4 11 3 12 2 13
REMARK SMILES IDX 1 14
REMARK H PARENT
REMARK Flexibility Score: inf
ROOT
ATOM      1  C   UNL     1       3.192 -37.238  19.518  1.00  0.00     0.000 C 
ENDROOT
BRANCH   1   2
ATOM      2  C   UNL     1       4.647 -37.288  20.020  1.00  0.00     0.000 C 
BRANCH   2   3
ATOM      3  C   UNL     1       5.400 -35.944  19.975  1.00  0.00     0.000 C 
BRANCH   3   4
ATOM      4  C   UNL     1       6.124 -35.556  21.277  1.00  0.00     0.006 C 
BRANCH   4   5
ATOM      5  C   UNL     1       5.732 -36.446  22.463  1.00  0.00     0.053 C 
BRANCH   5   6
ATOM      6  C   UNL     1       5.610 -35.628  23.710  1.00  0.00     0.041 C 
ATOM      7  O   UNL     1       5.568 -34.372  23.643  1.00  0.00    -0.550 OA
ATOM      8  O   UNL     1       5.493 -36.256  24.944  1.00  0.00    -0.550 OA
ENDBRANCH   5   6
ENDBRANCH   4   5
ENDBRANCH   3   4
ENDBRANCH   2   3
ENDBRANCH   1   2
BRANCH   1   9
ATOM      9  C   UNL     1       3.053 -37.653  18.046  1.00  0.00     0.000 C 
BRANCH   9  10
ATOM     10  C   UNL     1       1.658 -37.301  17.507  1.00  0.00    -0.000 C 
BRANCH  10  11
ATOM     11  C   UNL     1       1.711 -36.382  16.276  1.00  0.00    -0.000 C 
BRANCH  11  12
ATOM     12  C   UNL     1       3.074 -36.426  15.563  1.00  0.00    -0.000 C 
BRANCH  12  13
ATOM     13  C   UNL     1       3.030 -37.240  14.261  1.00  0.00    -0.003 C 
ATOM     14  C   UNL     1       4.189 -38.230  14.141  1.00  0.00     0.004 C 
ENDBRANCH  12  13
ENDBRANCH  11  12
ENDBRANCH  10  11
ENDBRANCH   9  10
ENDBRANCH   1   9
TORSDOF 10
ENDMDL
MODEL 3
REMARK VINA RESULT:    -4.366      4.082      7.628
REMARK INTER + INTRA:          -7.369
REMARK INTER:                  -6.852
REMARK INTRA:                  -0.517
REMARK UNBOUND:                -0.451
REMARK SMILES CCCCCCCCCCCC(=O)[O-]
REMARK SMILES IDX 7 1 8 2 9 3 10 4 11 5 12 6 13 7 14 8 6 9 5 10 4 11 3 12 2 13
REMARK SMILES IDX 1 14
REMARK H PARENT
REMARK Flexibility Score: inf
ROOT
ATOM      1  C   UNL     1       3.545 -36.429  20.077  1.00  0.00     0.000 C 
ENDROOT
BRANCH   1   2
ATOM      2  C   UNL     1       3.165 -37.775  19.433  1.00  0.00     0.000 C 
BRANCH   2   3
ATOM      3  C   UNL     1       1.914 -37.738  18.533  1.00  0.00     0.000 C 
BRANCH   3   4
ATOM      4  C   UNL     1       2.095 -37.003  17.193  1.00  0.00     0.006 C 
BRANCH   4   5
ATOM      5  C   UNL     1       3.449 -37.292  16.533  1.00  0.00     0.053 C 
BRANCH   5   6
ATOM      6  C   UNL     1       3.284 -37.463  15.056  1.00  0.00     0.041 C 
ATOM      7  O   UNL     1       2.473 -36.740  14.421  1.00  0.00    -0.550 OA
ATOM      8  O   UNL     1       4.062 -38.390  14.374  1.00  0.00    -0.550 OA
ENDBRANCH   5   6
ENDBRANCH   4   5
ENDBRANCH   3   4
ENDBRANCH   2   3
ENDBRANCH   1   2
BRANCH   1   9
ATOM      9  C   UNL     1       5.018 -36.057  19.858  1.00  0.00     0.000 C 
BRANCH   9  10
ATOM     10  C   UNL     1       5.772 -35.992  21.195  1.00  0.00    -0.000 C 
BRANCH  10  11
ATOM     11  C   UNL     1       4.983 -35.250  22.287  1.00  0.00    -0.000 C 
BRANCH  11  12
ATOM     12  C   UNL     1       5.757 -35.153  23.613  1.00  0.00    -0.000 C 
BRANCH  12  13
ATOM     13  C   UNL     1       6.125 -36.533  24.182  1.00  0.00    -0.003 C 
ATOM     14  C   UNL     1       5.396 -36.848  25.489  1.00  0.00     0.004 C 
ENDBRANCH  12  13
ENDBRANCH  11  12
ENDBRANCH  10  11
ENDBRANCH   9  10
ENDBRANCH   1   9
TORSDOF 10
ENDMDL
MODEL 4
REMARK VINA RESULT:    -4.258      3.831      7.483
REMARK INTER + INTRA:          -7.198
REMARK INTER:                  -6.694
REMARK INTRA:                  -0.504
REMARK UNBOUND:                -0.451
REMARK SMILES CCCCCCCCCCCC(=O)[O-]
REMARK SMILES IDX 7 1 8 2 9 3 10 4 11 5 12 6 13 7 14 8 6 9 5 10 4 11 3 12 2 13
REMARK SMILES IDX 1 14
REMARK H PARENT
REMARK Flexibility Score: inf
ROOT
ATOM      1  C   UNL     1       3.973 -36.320  20.007  1.00  0.00     0.000 C 
ENDROOT
BRANCH   1   2
ATOM      2  C   UNL     1       3.616 -37.576  19.192  1.00  0.00     0.000 C 
BRANCH   2   3
ATOM      3  C   UNL     1       2.109 -37.792  18.953  1.00  0.00     0.000 C 
BRANCH   3   4
ATOM      4  C   UNL     1       1.607 -37.398  17.552  1.00  0.00     0.006 C 
BRANCH   4   5
ATOM      5  C   UNL     1       2.590 -36.493  16.800  1.00  0.00     0.053 C 
BRANCH   5   6
ATOM      6  C   UNL     1       2.883 -37.053  15.444  1.00  0.00     0.041 C 
ATOM      7  O   UNL     1       3.649 -38.044  15.321  1.00  0.00    -0.550 OA
ATOM      8  O   UNL     1       2.271 -36.511  14.321  1.00  0.00    -0.550 OA
ENDBRANCH   5   6
ENDBRANCH   4   5
ENDBRANCH   3   4
ENDBRANCH   2   3
ENDBRANCH   1   2
BRANCH   1   9
ATOM      9  C   UNL     1       5.325 -35.711  19.606  1.00  0.00     0.000 C 
BRANCH   9  10
ATOM     10  C   UNL     1       6.124 -35.286  20.847  1.00  0.00    -0.000 C 
BRANCH  10  11
ATOM     11  C   UNL     1       5.581 -35.905  22.146  1.00  0.00    -0.000 C 
BRANCH  11  12
ATOM     12  C   UNL     1       5.534 -34.897  23.307  1.00  0.00    -0.000 C 
BRANCH  12  13
ATOM     13  C   UNL     1       6.064 -35.489  24.622  1.00  0.00    -0.003 C 
ATOM     14  C   UNL     1       5.673 -36.955  24.812  1.00  0.00     0.004 C 
ENDBRANCH  12  13
ENDBRANCH  11  12
ENDBRANCH  10  11
ENDBRANCH   9  10
ENDBRANCH   1   9
TORSDOF 10
ENDMDL
MODEL 5
REMARK VINA RESULT:    -3.609      3.725      7.872
REMARK INTER + INTRA:          -6.170
REMARK INTER:                  -5.707
REMARK INTRA:                  -0.462
REMARK UNBOUND:                -0.451
REMARK SMILES CCCCCCCCCCCC(=O)[O-]
REMARK SMILES IDX 7 1 8 2 9 3 10 4 11 5 12 6 13 7 14 8 6 9 5 10 4 11 3 12 2 13
REMARK SMILES IDX 1 14
REMARK H PARENT
REMARK Flexibility Score: inf
ROOT
ATOM      1  C   UNL     1       4.891 -35.653  21.446  1.00  0.00     0.000 C 
ENDROOT
BRANCH   1   2
ATOM      2  C   UNL     1       5.287 -36.270  20.092  1.00  0.00     0.000 C 
BRANCH   2   3
ATOM      3  C   UNL     1       4.604 -37.612  19.762  1.00  0.00     0.000 C 
BRANCH   3   4
ATOM      4  C   UNL     1       3.469 -37.531  18.726  1.00  0.00     0.006 C 
BRANCH   4   5
ATOM      5  C   UNL     1       3.730 -36.483  17.637  1.00  0.00     0.053 C 
BRANCH   5   6
ATOM      6  C   UNL     1       2.951 -36.807  16.402  1.00  0.00     0.041 C 
ATOM      7  O   UNL     1       1.930 -36.135  16.102  1.00  0.00    -0.550 OA
ATOM      8  O   UNL     1       3.381 -37.822  15.556  1.00  0.00    -0.550 OA
ENDBRANCH   5   6
ENDBRANCH   4   5
ENDBRANCH   3   4
ENDBRANCH   2   3
ENDBRANCH   1   2
BRANCH   1   9
ATOM      9  C   UNL     1       6.070 -35.548  22.423  1.00  0.00     0.000 C 
BRANCH   9  10
ATOM     10  C   UNL     1       5.851 -34.406  23.427  1.00  0.00    -0.000 C 
BRANCH  10  11
ATOM     11  C   UNL     1       6.125 -34.830  24.879  1.00  0.00    -0.000 C 
BRANCH  11  12
ATOM     12  C   UNL     1       6.125 -36.358  25.060  1.00  0.00    -0.000 C 
BRANCH  12  13
ATOM     13  C   UNL     1       4.820 -36.875  25.687  1.00  0.00    -0.003 C 
ATOM     14  C   UNL     1       4.813 -38.393  25.873  1.00  0.00     0.004 C 
ENDBRANCH  12  13
ENDBRANCH  11  12
ENDBRANCH  10  11
ENDBRANCH   9  10
ENDBRANCH   1   9
TORSDOF 10
ENDMDL
MODEL 6
REMARK VINA RESULT:    -3.238      1.487      2.850
REMARK INTER + INTRA:          -5.581
REMARK INTER:                  -5.047
REMARK INTRA:                  -0.534
REMARK UNBOUND:                -0.451
REMARK SMILES CCCCCCCCCCCC(=O)[O-]
REMARK SMILES IDX 7 1 8 2 9 3 10 4 11 5 12 6 13 7 14 8 6 9 5 10 4 11 3 12 2 13
REMARK SMILES IDX 1 14
REMARK H PARENT
REMARK Flexibility Score: inf
ROOT
ATOM      1  C   UNL     1       5.732 -34.813  18.871  1.00  0.00     0.000 C 
ENDROOT
BRANCH   1   2
ATOM      2  C   UNL     1       5.742 -35.983  19.872  1.00  0.00     0.000 C 
BRANCH   2   3
ATOM      3  C   UNL     1       4.459 -36.132  20.715  1.00  0.00     0.000 C 
BRANCH   3   4
ATOM      4  C   UNL     1       4.689 -36.403  22.212  1.00  0.00     0.006 C 
BRANCH   4   5
ATOM      5  C   UNL     1       6.101 -36.025  22.676  1.00  0.00     0.053 C 
BRANCH   5   6
ATOM      6  C   UNL     1       6.056 -35.407  24.037  1.00  0.00     0.041 C 
ATOM      7  O   UNL     1       6.125 -34.157  24.169  1.00  0.00    -0.550 OA
ATOM      8  O   UNL     1       5.887 -36.210  25.159  1.00  0.00    -0.550 OA
ENDBRANCH   5   6
ENDBRANCH   4   5
ENDBRANCH   3   4
ENDBRANCH   2   3
ENDBRANCH   1   2
BRANCH   1   9
ATOM      9  C   UNL     1       4.480 -34.799  17.981  1.00  0.00     0.000 C 
BRANCH   9  10
ATOM     10  C   UNL     1       4.158 -36.211  17.467  1.00  0.00    -0.000 C 
BRANCH  10  11
ATOM     11  C   UNL     1       3.019 -36.222  16.434  1.00  0.00    -0.000 C 
BRANCH  11  12
ATOM     12  C   UNL     1       1.829 -37.092  16.875  1.00  0.00    -0.000 C 
BRANCH  12  13
ATOM     13  C   UNL     1       2.070 -37.772  18.232  1.00  0.00    -0.003 C 
ATOM     14  C   UNL     1       0.823 -37.787  19.117  1.00  0.00     0.004 C 
ENDBRANCH  12  13
ENDBRANCH  11  12
ENDBRANCH  10  11
ENDBRANCH   9  10
ENDBRANCH   1   9
TORSDOF 10
ENDMDL
MODEL 7
REMARK VINA RESULT:    -3.118      2.958      6.670
REMARK INTER + INTRA:          -5.392
REMARK INTER:                  -4.655
REMARK INTRA:                  -0.737
REMARK UNBOUND:                -0.451
REMARK SMILES CCCCCCCCCCCC(=O)[O-]
REMARK SMILES IDX 7 1 8 2 9 3 10 4 11 5 12 6 13 7 14 8 6 9 5 10 4 11 3 12 2 13
REMARK SMILES IDX 1 14
REMARK H PARENT
REMARK Flexibility Score: inf
ROOT
ATOM      1  C   UNL     1       4.647 -34.810  18.133  1.00  0.00     0.000 C 
ENDROOT
BRANCH   1   2
ATOM      2  C   UNL     1       4.256 -35.978  17.208  1.00  0.00     0.000 C 
BRANCH   2   3
ATOM      3  C   UNL     1       2.902 -35.817  16.489  1.00  0.00     0.000 C 
BRANCH   3   4
ATOM      4  C   UNL     1       1.903 -36.965  16.714  1.00  0.00     0.006 C 
BRANCH   4   5
ATOM      5  C   UNL     1       2.334 -37.919  17.835  1.00  0.00     0.053 C 
BRANCH   5   6
ATOM      6  C   UNL     1       1.454 -37.749  19.033  1.00  0.00     0.041 C 
ATOM      7  O   UNL     1       0.205 -37.860  18.922  1.00  0.00    -0.550 OA
ATOM      8  O   UNL     1       2.017 -37.516  20.281  1.00  0.00    -0.550 OA
ENDBRANCH   5   6
ENDBRANCH   4   5
ENDBRANCH   3   4
ENDBRANCH   2   3
ENDBRANCH   1   2
BRANCH   1   9
ATOM      9  C   UNL     1       4.405 -35.117  19.617  1.00  0.00     0.000 C 
BRANCH   9  10
ATOM     10  C   UNL     1       5.292 -36.280  20.088  1.00  0.00    -0.000 C 
BRANCH  10  11
ATOM     11  C   UNL     1       6.079 -35.949  21.366  1.00  0.00    -0.000 C 
BRANCH  11  12
ATOM     12  C   UNL     1       5.171 -35.478  22.515  1.00  0.00    -0.000 C 
BRANCH  12  13
ATOM     13  C   UNL     1       5.969 -34.973  23.727  1.00  0.00    -0.003 C 
ATOM     14  C   UNL     1       6.125 -36.033  24.818  1.00  0.00     0.004 C 
ENDBRANCH  12  13
ENDBRANCH  11  12
ENDBRANCH  10  11
ENDBRANCH   9  10
ENDBRANCH   1   9
TORSDOF 10
ENDMDL
MODEL 8
REMARK VINA RESULT:    -3.087      3.058      3.899
REMARK INTER + INTRA:          -5.342
REMARK INTER:                  -4.638
REMARK INTRA:                  -0.704
REMARK UNBOUND:                -0.451
REMARK SMILES CCCCCCCCCCCC(=O)[O-]
REMARK SMILES IDX 7 1 8 2 9 3 10 4 11 5 12 6 13 7 14 8 6 9 5 10 4 11 3 12 2 13
REMARK SMILES IDX 1 14
REMARK H PARENT
REMARK Flexibility Score: inf
ROOT
ATOM      1  C   UNL     1       5.657 -35.021  18.804  1.00  0.00     0.000 C 
ENDROOT
BRANCH   1   2
ATOM      2  C   UNL     1       5.405 -36.113  19.859  1.00  0.00     0.000 C 
BRANCH   2   3
ATOM      3  C   UNL     1       4.453 -35.710  21.002  1.00  0.00     0.000 C 
BRANCH   3   4
ATOM      4  C   UNL     1       3.030 -36.287  20.902  1.00  0.00     0.006 C 
BRANCH   4   5
ATOM      5  C   UNL     1       2.933 -37.468  19.928  1.00  0.00     0.053 C 
BRANCH   5   6
ATOM      6  C   UNL     1       1.504 -37.748  19.587  1.00  0.00     0.041 C 
ATOM      7  O   UNL     1       1.220 -38.509  18.626  1.00  0.00    -0.550 OA
ATOM      8  O   UNL     1       0.486 -37.206  20.361  1.00  0.00    -0.550 OA
ENDBRANCH   5   6
ENDBRANCH   4   5
ENDBRANCH   3   4
ENDBRANCH   2   3
ENDBRANCH   1   2
BRANCH   1   9
ATOM      9  C   UNL     1       4.436 -34.760  17.910  1.00  0.00     0.000 C 
BRANCH   9  10
ATOM     10  C   UNL     1       3.950 -36.060  17.253  1.00  0.00    -0.000 C 
BRANCH  10  11
ATOM     11  C   UNL     1       2.660 -35.869  16.438  1.00  0.00    -0.000 C 
BRANCH  11  12
ATOM     12  C   UNL     1       2.346 -37.076  15.536  1.00  0.00    -0.000 C 
BRANCH  12  13
ATOM     13  C   UNL     1       3.179 -37.076  14.244  1.00  0.00    -0.003 C 
ATOM     14  C   UNL     1       4.144 -38.259  14.161  1.00  0.00     0.004 C 
ENDBRANCH  12  13
ENDBRANCH  11  12
ENDBRANCH  10  11
ENDBRANCH   9  10
ENDBRANCH   1   9
TORSDOF 10
ENDMDL
MODEL 9
REMARK VINA RESULT:    -2.536      1.891      3.071
REMARK INTER + INTRA:          -4.468
REMARK INTER:                  -3.913
REMARK INTRA:                  -0.556
REMARK UNBOUND:                -0.451
REMARK SMILES CCCCCCCCCCCC(=O)[O-]
REMARK SMILES IDX 7 1 8 2 9 3 10 4 11 5 12 6 13 7 14 8 6 9 5 10 4 11 3 12 2 13
REMARK SMILES IDX 1 14
REMARK H PARENT
REMARK Flexibility Score: inf
ROOT
ATOM      1  C   UNL     1       4.059 -35.653  21.035  1.00  0.00     0.000 C 
ENDROOT
BRANCH   1   2
ATOM      2  C   UNL     1       4.221 -34.830  22.326  1.00  0.00     0.000 C 
BRANCH   2   3
ATOM      3  C   UNL     1       5.587 -34.976  23.026  1.00  0.00     0.000 C 
BRANCH   3   4
ATOM      4  C   UNL     1       5.533 -35.569  24.445  1.00  0.00     0.006 C 
BRANCH   4   5
ATOM      5  C   UNL     1       6.123 -36.983  24.523  1.00  0.00     0.053 C 
BRANCH   5   6
ATOM      6  C   UNL     1       5.161 -37.914  25.190  1.00  0.00     0.041 C 
ATOM      7  O   UNL     1       5.054 -39.104  24.795  1.00  0.00    -0.550 OA
ATOM      8  O   UNL     1       4.416 -37.480  26.280  1.00  0.00    -0.550 OA
ENDBRANCH   5   6
ENDBRANCH   4   5
ENDBRANCH   3   4
ENDBRANCH   2   3
ENDBRANCH   1   2
BRANCH   1   9
ATOM      9  C   UNL     1       5.136 -36.737  20.878  1.00  0.00     0.000 C 
BRANCH   9  10
ATOM     10  C   UNL     1       4.894 -37.570  19.610  1.00  0.00    -0.000 C 
BRANCH  10  11
ATOM     11  C   UNL     1       4.174 -36.779  18.506  1.00  0.00    -0.000 C 
BRANCH  11  12
ATOM     12  C   UNL     1       2.926 -37.506  17.975  1.00  0.00    -0.000 C 
BRANCH  12  13
ATOM     13  C   UNL     1       2.892 -37.571  16.440  1.00  0.00    -0.003 C 
ATOM     14  C   UNL     1       1.973 -36.517  15.823  1.00  0.00     0.004 C 
ENDBRANCH  12  13
ENDBRANCH  11  12
ENDBRANCH  10  11
ENDBRANCH   9  10
ENDBRANCH   1   9
TORSDOF 10
ENDMDL
