MODEL 1
REMARK VINA RESULT:     2.074      0.000      0.000
REMARK INTER + INTRA:           4.482
REMARK INTER:                   5.226
REMARK INTRA:                  -0.744
REMARK UNBOUND:                -0.744
REMARK SMILES CCCCCCCCCCCCCCCCCCCCCCCCCCCC(=O)[O-]
REMARK SMILES IDX 15 1 16 2 17 3 18 4 19 5 20 6 21 7 22 8 23 9 24 10 25 11
REMARK SMILES IDX 26 12 27 13 28 14 29 15 30 16 14 17 13 18 12 19 11 20 10 21
REMARK SMILES IDX 9 22 8 23 7 24 6 25 5 26 4 27 3 28 2 29 1 30
REMARK H PARENT
REMARK Flexibility Score: inf
ROOT
ATOM      1  C   UNL     1       2.103   3.010  15.882  1.00  0.00     0.000 C 
ENDROOT
BRANCH   1   2
ATOM      2  C   UNL     1       2.692   3.638  14.607  1.00  0.00     0.000 C 
BRANCH   2   3
ATOM      3  C   UNL     1       3.962   4.478  14.860  1.00  0.00     0.000 C 
BRANCH   3   4
ATOM      4  C   UNL     1       5.204   3.866  14.191  1.00  0.00     0.000 C 
BRANCH   4   5
ATOM      5  C   UNL     1       4.865   2.686  13.265  1.00  0.00     0.000 C 
BRANCH   5   6
ATOM      6  C   UNL     1       6.090   1.833  12.876  1.00  0.00     0.000 C 
BRANCH   6   7
ATOM      7  C   UNL     1       6.554   0.921  14.025  1.00  0.00     0.000 C 
BRANCH   7   8
ATOM      8  C   UNL     1       7.280  -0.339  13.528  1.00  0.00     0.000 C 
BRANCH   8   9
ATOM      9  C   UNL     1       6.346  -1.554  13.418  1.00  0.00     0.000 C 
BRANCH   9  10
ATOM     10  C   UNL     1       4.966  -1.138  12.886  1.00  0.00     0.000 C 
BRANCH  10  11
ATOM     11  C   UNL     1       3.830  -2.026  13.418  1.00  0.00     0.000 C 
BRANCH  11  12
ATOM     12  C   UNL     1       3.089  -1.393  14.609  1.00  0.00     0.006 C 
BRANCH  12  13
ATOM     13  C   UNL     1       2.026  -0.382  14.156  1.00  0.00     0.053 C 
BRANCH  13  14
ATOM     14  C   UNL     1       0.764  -0.507  14.955  1.00  0.00     0.041 C 
ATOM     15  O   UNL     1       0.014  -1.506  14.800  1.00  0.00    -0.550 OA
ATOM     16  O   UNL     1       0.404   0.493  15.849  1.00  0.00    -0.550 OA
ENDBRANCH  13  14
ENDBRANCH  12  13
ENDBRANCH  11  12
ENDBRANCH  10  11
ENDBRANCH   9  10
ENDBRANCH   8   9
ENDBRANCH   7   8
ENDBRANCH   6   7
ENDBRANCH   5   6
ENDBRANCH   4   5
ENDBRANCH   3   4
ENDBRANCH   2   3
ENDBRANCH   1   2
BRANCH   1  17
ATOM     17  C   UNL     1       3.164   2.754  16.965  1.00  0.00     0.000 C 
BRANCH  17  18
ATOM     18  C   UNL     1       3.828   1.374  16.829  1.00  0.00     0.000 C 
BRANCH  18  19
ATOM     19  C   UNL     1       5.362   1.453  16.819  1.00  0.00     0.000 C 
BRANCH  19  20
ATOM     20  C   UNL     1       5.983   0.068  16.586  1.00  0.00     0.000 C 
BRANCH  20  21
ATOM     21  C   UNL     1       4.993  -1.086  16.825  1.00  0.00     0.000 C 
BRANCH  21  22
ATOM     22  C   UNL     1       5.043  -1.715  18.231  1.00  0.00    -0.000 C 
BRANCH  22  23
ATOM     23  C   UNL     1       6.470  -1.815  18.795  1.00  0.00    -0.000 C 
BRANCH  23  24
ATOM     24  C   UNL     1       6.820  -0.648  19.737  1.00  0.00    -0.000 C 
BRANCH  24  25
ATOM     25  C   UNL     1       5.648  -0.120  20.589  1.00  0.00    -0.000 C 
BRANCH  25  26
ATOM     26  C   UNL     1       4.314   0.053  19.835  1.00  0.00    -0.000 C 
BRANCH  26  27
ATOM     27  C   UNL     1       3.552   1.351  20.158  1.00  0.00    -0.000 C 
BRANCH  27  28
ATOM     28  C   UNL     1       2.074   1.104  20.504  1.00  0.00    -0.000 C 
BRANCH  28  29
ATOM     29  C   UNL     1       1.130   2.073  19.775  1.00  0.00    -0.003 C 
ATOM     30  C   UNL     1       0.536   3.128  20.707  1.00  0.00     0.004 C 
ENDBRANCH  28  29
ENDBRANCH  27  28
ENDBRANCH  26  27
ENDBRANCH  25  26
ENDBRANCH  24  25
ENDBRANCH  23  24
ENDBRANCH  22  23
ENDBRANCH  21  22
ENDBRANCH  20  21
ENDBRANCH  19  20
ENDBRANCH  18  19
ENDBRANCH  17  18
ENDBRANCH   1  17
TORSDOF 26
ENDMDL
MODEL 2
REMARK VINA RESULT:     2.485      1.923      5.209
REMARK INTER + INTRA:           5.518
REMARK INTER:                   3.312
REMARK INTRA:                   2.206
REMARK UNBOUND:                -0.744
REMARK SMILES CCCCCCCCCCCCCCCCCCCCCCCCCCCC(=O)[O-]
REMARK SMILES IDX 15 1 16 2 17 3 18 4 19 5 20 6 21 7 22 8 23 9 24 10 25 11
REMARK SMILES IDX 26 12 27 13 28 14 29 15 30 16 14 17 13 18 12 19 11 20 10 21
REMARK SMILES IDX 9 22 8 23 7 24 6 25 5 26 4 27 3 28 2 29 1 30
REMARK H PARENT
REMARK Flexibility Score: inf
ROOT
ATOM      1  C   UNL     1       6.148   1.496  13.331  1.00  0.00     0.000 C 
ENDROOT
BRANCH   1   2
ATOM      2  C   UNL     1       7.144   0.369  13.658  1.00  0.00     0.000 C 
BRANCH   2   3
ATOM      3  C   UNL     1       6.881  -0.936  12.875  1.00  0.00     0.000 C 
BRANCH   3   4
ATOM      4  C   UNL     1       6.603  -2.125  13.810  1.00  0.00     0.000 C 
BRANCH   4   5
ATOM      5  C   UNL     1       6.486  -1.711  15.287  1.00  0.00     0.000 C 
BRANCH   5   6
ATOM      6  C   UNL     1       5.134  -2.084  15.929  1.00  0.00     0.000 C 
BRANCH   6   7
ATOM      7  C   UNL     1       3.985  -2.091  14.905  1.00  0.00     0.000 C 
BRANCH   7   8
ATOM      8  C   UNL     1       2.602  -1.979  15.564  1.00  0.00     0.000 C 
BRANCH   8   9
ATOM      9  C   UNL     1       1.621  -1.131  14.739  1.00  0.00     0.000 C 
BRANCH   9  10
ATOM     10  C   UNL     1       2.129   0.312  14.599  1.00  0.00     0.000 C 
BRANCH  10  11
ATOM     11  C   UNL     1       1.442   1.282  15.574  1.00  0.00     0.000 C 
BRANCH  11  12
ATOM     12  C   UNL     1       2.264   1.522  16.852  1.00  0.00     0.006 C 
BRANCH  12  13
ATOM     13  C   UNL     1       1.384   1.954  18.033  1.00  0.00     0.053 C 
BRANCH  13  14
ATOM     14  C   UNL     1       2.012   1.613  19.350  1.00  0.00     0.041 C 
ATOM     15  O   UNL     1       3.255   1.427  19.429  1.00  0.00    -0.550 OA
ATOM     16  O   UNL     1       1.221   1.474  20.484  1.00  0.00    -0.550 OA
ENDBRANCH  13  14
ENDBRANCH  12  13
ENDBRANCH  11  12
ENDBRANCH  10  11
ENDBRANCH   9  10
ENDBRANCH   8   9
ENDBRANCH   7   8
ENDBRANCH   6   7
ENDBRANCH   5   6
ENDBRANCH   4   5
ENDBRANCH   3   4
ENDBRANCH   2   3
ENDBRANCH   1   2
BRANCH   1  17
ATOM     17  C   UNL     1       4.773   0.967  12.892  1.00  0.00     0.000 C 
BRANCH  17  18
ATOM     18  C   UNL     1       3.695   2.062  12.875  1.00  0.00     0.000 C 
BRANCH  18  19
ATOM     19  C   UNL     1       4.280   3.472  13.053  1.00  0.00     0.000 C 
BRANCH  19  20
ATOM     20  C   UNL     1       3.168   4.503  13.290  1.00  0.00     0.000 C 
BRANCH  20  21
ATOM     21  C   UNL     1       2.528   4.391  14.686  1.00  0.00     0.000 C 
BRANCH  21  22
ATOM     22  C   UNL     1       3.437   4.798  15.861  1.00  0.00    -0.000 C 
BRANCH  22  23
ATOM     23  C   UNL     1       4.778   4.047  15.872  1.00  0.00    -0.000 C 
BRANCH  23  24
ATOM     24  C   UNL     1       4.745   2.782  16.748  1.00  0.00    -0.000 C 
BRANCH  24  25
ATOM     25  C   UNL     1       5.495   1.565  16.171  1.00  0.00    -0.000 C 
BRANCH  25  26
ATOM     26  C   UNL     1       5.613   0.355  17.120  1.00  0.00    -0.000 C 
BRANCH  26  27
ATOM     27  C   UNL     1       6.247   0.665  18.487  1.00  0.00    -0.000 C 
BRANCH  27  28
ATOM     28  C   UNL     1       6.591  -0.604  19.286  1.00  0.00    -0.000 C 
BRANCH  28  29
ATOM     29  C   UNL     1       5.495  -1.677  19.186  1.00  0.00    -0.003 C 
ATOM     30  C   UNL     1       4.333  -1.249  18.290  1.00  0.00     0.004 C 
ENDBRANCH  28  29
ENDBRANCH  27  28
ENDBRANCH  26  27
ENDBRANCH  25  26
ENDBRANCH  24  25
ENDBRANCH  23  24
ENDBRANCH  22  23
ENDBRANCH  21  22
ENDBRANCH  20  21
ENDBRANCH  19  20
ENDBRANCH  18  19
ENDBRANCH  17  18
ENDBRANCH   1  17
TORSDOF 26
ENDMDL
MODEL 3
REMARK VINA RESULT:     2.951      1.921      4.384
REMARK INTER + INTRA:           6.693
REMARK INTER:                   5.910
REMARK INTRA:                   0.782
REMARK UNBOUND:                -0.744
REMARK SMILES CCCCCCCCCCCCCCCCCCCCCCCCCCCC(=O)[O-]
REMARK SMILES IDX 15 1 16 2 17 3 18 4 19 5 20 6 21 7 22 8 23 9 24 10 25 11
REMARK SMILES IDX 26 12 27 13 28 14 29 15 30 16 14 17 13 18 12 19 11 20 10 21
REMARK SMILES IDX 9 22 8 23 7 24 6 25 5 26 4 27 3 28 2 29 1 30
REMARK H PARENT
REMARK Flexibility Score: inf
ROOT
ATOM      1  C   UNL     1       5.261   2.176  16.292  1.00  0.00     0.000 C 
ENDROOT
BRANCH   1   2
ATOM      2  C   UNL     1       5.187   3.386  15.345  1.00  0.00     0.000 C 
BRANCH   2   3
ATOM      3  C   UNL     1       3.761   3.954  15.175  1.00  0.00     0.000 C 
BRANCH   3   4
ATOM      4  C   UNL     1       3.251   3.814  13.731  1.00  0.00     0.000 C 
BRANCH   4   5
ATOM      5  C   UNL     1       4.092   2.837  12.891  1.00  0.00     0.000 C 
BRANCH   5   6
ATOM      6  C   UNL     1       3.932   1.361  13.313  1.00  0.00     0.000 C 
BRANCH   6   7
ATOM      7  C   UNL     1       2.552   0.794  12.938  1.00  0.00     0.000 C 
BRANCH   7   8
ATOM      8  C   UNL     1       2.060  -0.274  13.927  1.00  0.00     0.000 C 
BRANCH   8   9
ATOM      9  C   UNL     1       0.977   0.256  14.879  1.00  0.00     0.000 C 
BRANCH   9  10
ATOM     10  C   UNL     1       1.390   1.609  15.478  1.00  0.00     0.000 C 
BRANCH  10  11
ATOM     11  C   UNL     1       2.110   1.467  16.829  1.00  0.00     0.000 C 
BRANCH  11  12
ATOM     12  C   UNL     1       1.310   2.073  17.995  1.00  0.00     0.006 C 
BRANCH  12  13
ATOM     13  C   UNL     1       1.828   1.597  19.360  1.00  0.00     0.053 C 
BRANCH  13  14
ATOM     14  C   UNL     1       0.928   2.027  20.478  1.00  0.00     0.041 C 
ATOM     15  O   UNL     1       0.425   1.169  21.250  1.00  0.00    -0.550 OA
ATOM     16  O   UNL     1       0.626   3.372  20.651  1.00  0.00    -0.550 OA
ENDBRANCH  13  14
ENDBRANCH  12  13
ENDBRANCH  11  12
ENDBRANCH  10  11
ENDBRANCH   9  10
ENDBRANCH   8   9
ENDBRANCH   7   8
ENDBRANCH   6   7
ENDBRANCH   5   6
ENDBRANCH   4   5
ENDBRANCH   3   4
ENDBRANCH   2   3
ENDBRANCH   1   2
BRANCH   1  17
ATOM     17  C   UNL     1       6.307   1.138  15.852  1.00  0.00     0.000 C 
BRANCH  17  18
ATOM     18  C   UNL     1       6.178   0.760  14.368  1.00  0.00     0.000 C 
BRANCH  18  19
ATOM     19  C   UNL     1       7.423   0.038  13.831  1.00  0.00     0.000 C 
BRANCH  19  20
ATOM     20  C   UNL     1       7.102  -1.419  13.467  1.00  0.00     0.000 C 
BRANCH  20  21
ATOM     21  C   UNL     1       6.091  -2.072  14.427  1.00  0.00     0.000 C 
BRANCH  21  22
ATOM     22  C   UNL     1       4.638  -2.125  13.917  1.00  0.00    -0.000 C 
BRANCH  22  23
ATOM     23  C   UNL     1       3.600  -2.049  15.049  1.00  0.00    -0.000 C 
BRANCH  23  24
ATOM     24  C   UNL     1       4.076  -1.189  16.235  1.00  0.00    -0.000 C 
BRANCH  24  25
ATOM     25  C   UNL     1       4.535  -1.980  17.476  1.00  0.00    -0.000 C 
BRANCH  25  26
ATOM     26  C   UNL     1       6.063  -2.108  17.645  1.00  0.00    -0.000 C 
BRANCH  26  27
ATOM     27  C   UNL     1       6.580  -1.846  19.071  1.00  0.00    -0.000 C 
BRANCH  27  28
ATOM     28  C   UNL     1       6.696  -0.347  19.397  1.00  0.00    -0.000 C 
BRANCH  28  29
ATOM     29  C   UNL     1       5.568   0.144  20.318  1.00  0.00    -0.003 C 
ATOM     30  C   UNL     1       4.400   0.754  19.543  1.00  0.00     0.004 C 
ENDBRANCH  28  29
ENDBRANCH  27  28
ENDBRANCH  26  27
ENDBRANCH  25  26
ENDBRANCH  24  25
ENDBRANCH  23  24
ENDBRANCH  22  23
ENDBRANCH  21  22
ENDBRANCH  20  21
ENDBRANCH  19  20
ENDBRANCH  18  19
ENDBRANCH  17  18
ENDBRANCH   1  17
TORSDOF 26
ENDMDL
MODEL 4
REMARK VINA RESULT:     3.080      1.685      5.581
REMARK INTER + INTRA:           7.018
REMARK INTER:                   7.653
REMARK INTRA:                  -0.635
REMARK UNBOUND:                -0.744
REMARK SMILES CCCCCCCCCCCCCCCCCCCCCCCCCCCC(=O)[O-]
REMARK SMILES IDX 15 1 16 2 17 3 18 4 19 5 20 6 21 7 22 8 23 9 24 10 25 11
REMARK SMILES IDX 26 12 27 13 28 14 29 15 30 16 14 17 13 18 12 19 11 20 10 21
REMARK SMILES IDX 9 22 8 23 7 24 6 25 5 26 4 27 3 28 2 29 1 30
REMARK H PARENT
REMARK Flexibility Score: inf
ROOT
ATOM      1  C   UNL     1       6.626  -1.171  16.690  1.00  0.00     0.000 C 
ENDROOT
BRANCH   1   2
ATOM      2  C   UNL     1       6.529  -2.125  15.487  1.00  0.00     0.000 C 
BRANCH   2   3
ATOM      3  C   UNL     1       7.664  -1.939  14.456  1.00  0.00     0.000 C 
BRANCH   3   4
ATOM      4  C   UNL     1       7.124  -1.591  13.059  1.00  0.00     0.000 C 
BRANCH   4   5
ATOM      5  C   UNL     1       5.596  -1.418  13.032  1.00  0.00     0.000 C 
BRANCH   5   6
ATOM      6  C   UNL     1       5.142   0.049  12.875  1.00  0.00     0.000 C 
BRANCH   6   7
ATOM      7  C   UNL     1       4.830   0.710  14.229  1.00  0.00     0.000 C 
BRANCH   7   8
ATOM      8  C   UNL     1       5.966   1.621  14.720  1.00  0.00     0.000 C 
BRANCH   8   9
ATOM      9  C   UNL     1       5.980   1.775  16.249  1.00  0.00     0.000 C 
BRANCH   9  10
ATOM     10  C   UNL     1       4.652   1.302  16.859  1.00  0.00     0.000 C 
BRANCH  10  11
ATOM     11  C   UNL     1       4.002   2.362  17.763  1.00  0.00     0.000 C 
BRANCH  11  12
ATOM     12  C   UNL     1       4.072   1.993  19.255  1.00  0.00     0.006 C 
BRANCH  12  13
ATOM     13  C   UNL     1       2.839   1.202  19.713  1.00  0.00     0.053 C 
BRANCH  13  14
ATOM     14  C   UNL     1       1.641   2.085  19.881  1.00  0.00     0.041 C 
ATOM     15  O   UNL     1       1.428   2.661  20.981  1.00  0.00    -0.550 OA
ATOM     16  O   UNL     1       0.746   2.253  18.832  1.00  0.00    -0.550 OA
ENDBRANCH  13  14
ENDBRANCH  12  13
ENDBRANCH  11  12
ENDBRANCH  10  11
ENDBRANCH   9  10
ENDBRANCH   8   9
ENDBRANCH   7   8
ENDBRANCH   6   7
ENDBRANCH   5   6
ENDBRANCH   4   5
ENDBRANCH   3   4
ENDBRANCH   2   3
ENDBRANCH   1   2
BRANCH   1  17
ATOM     17  C   UNL     1       7.222  -1.843  17.937  1.00  0.00     0.000 C 
BRANCH  17  18
ATOM     18  C   UNL     1       6.224  -1.919  19.103  1.00  0.00     0.000 C 
BRANCH  18  19
ATOM     19  C   UNL     1       4.941  -1.116  18.839  1.00  0.00     0.000 C 
BRANCH  19  20
ATOM     20  C   UNL     1       3.895  -1.973  18.113  1.00  0.00     0.000 C 
BRANCH  20  21
ATOM     21  C   UNL     1       3.812  -1.676  16.604  1.00  0.00     0.000 C 
BRANCH  21  22
ATOM     22  C   UNL     1       2.424  -1.880  15.968  1.00  0.00    -0.000 C 
BRANCH  22  23
ATOM     23  C   UNL     1       2.367  -1.442  14.495  1.00  0.00    -0.000 C 
BRANCH  23  24
ATOM     24  C   UNL     1       1.007  -0.832  14.108  1.00  0.00    -0.000 C 
BRANCH  24  25
ATOM     25  C   UNL     1       0.611   0.434  14.894  1.00  0.00    -0.000 C 
BRANCH  25  26
ATOM     26  C   UNL     1       1.785   1.213  15.521  1.00  0.00    -0.000 C 
BRANCH  26  27
ATOM     27  C   UNL     1       1.827   2.711  15.172  1.00  0.00    -0.000 C 
BRANCH  27  28
ATOM     28  C   UNL     1       2.640   3.004  13.900  1.00  0.00    -0.000 C 
BRANCH  28  29
ATOM     29  C   UNL     1       3.529   4.249  14.044  1.00  0.00    -0.003 C 
ATOM     30  C   UNL     1       4.816   4.151  13.226  1.00  0.00     0.004 C 
ENDBRANCH  28  29
ENDBRANCH  27  28
ENDBRANCH  26  27
ENDBRANCH  25  26
ENDBRANCH  24  25
ENDBRANCH  23  24
ENDBRANCH  22  23
ENDBRANCH  21  22
ENDBRANCH  20  21
ENDBRANCH  19  20
ENDBRANCH  18  19
ENDBRANCH  17  18
ENDBRANCH   1  17
TORSDOF 26
ENDMDL
MODEL 5
REMARK VINA RESULT:     3.282      1.846      5.613
REMARK INTER + INTRA:           7.526
REMARK INTER:                   7.679
REMARK INTRA:                  -0.153
REMARK UNBOUND:                -0.744
REMARK SMILES CCCCCCCCCCCCCCCCCCCCCCCCCCCC(=O)[O-]
REMARK SMILES IDX 15 1 16 2 17 3 18 4 19 5 20 6 21 7 22 8 23 9 24 10 25 11
REMARK SMILES IDX 26 12 27 13 28 14 29 15 30 16 14 17 13 18 12 19 11 20 10 21
REMARK SMILES IDX 9 22 8 23 7 24 6 25 5 26 4 27 3 28 2 29 1 30
REMARK H PARENT
REMARK Flexibility Score: inf
ROOT
ATOM      1  C   UNL     1       4.940   2.253  15.585  1.00  0.00     0.000 C 
ENDROOT
BRANCH   1   2
ATOM      2  C   UNL     1       4.883   1.159  14.505  1.00  0.00     0.000 C 
BRANCH   2   3
ATOM      3  C   UNL     1       5.926   1.343  13.382  1.00  0.00     0.000 C 
BRANCH   3   4
ATOM      4  C   UNL     1       7.065   0.315  13.476  1.00  0.00     0.000 C 
BRANCH   4   5
ATOM      5  C   UNL     1       6.633  -1.099  13.051  1.00  0.00     0.000 C 
BRANCH   5   6
ATOM      6  C   UNL     1       6.654  -2.125  14.204  1.00  0.00     0.000 C 
BRANCH   6   7
ATOM      7  C   UNL     1       7.127  -1.502  15.529  1.00  0.00     0.000 C 
BRANCH   7   8
ATOM      8  C   UNL     1       6.045  -1.535  16.619  1.00  0.00     0.000 C 
BRANCH   8   9
ATOM      9  C   UNL     1       6.613  -1.880  18.005  1.00  0.00     0.000 C 
BRANCH   9  10
ATOM     10  C   UNL     1       6.138  -0.868  19.059  1.00  0.00     0.000 C 
BRANCH  10  11
ATOM     11  C   UNL     1       5.098   0.121  18.508  1.00  0.00     0.000 C 
BRANCH  11  12
ATOM     12  C   UNL     1       4.239   0.758  19.614  1.00  0.00     0.006 C 
BRANCH  12  13
ATOM     13  C   UNL     1       3.154   1.682  19.043  1.00  0.00     0.053 C 
BRANCH  13  14
ATOM     14  C   UNL     1       1.942   1.726  19.922  1.00  0.00     0.041 C 
ATOM     15  O   UNL     1       1.911   1.062  20.991  1.00  0.00    -0.550 OA
ATOM     16  O   UNL     1       0.836   2.480  19.548  1.00  0.00    -0.550 OA
ENDBRANCH  13  14
ENDBRANCH  12  13
ENDBRANCH  11  12
ENDBRANCH  10  11
ENDBRANCH   9  10
ENDBRANCH   8   9
ENDBRANCH   7   8
ENDBRANCH   6   7
ENDBRANCH   5   6
ENDBRANCH   4   5
ENDBRANCH   3   4
ENDBRANCH   2   3
ENDBRANCH   1   2
BRANCH   1  17
ATOM     17  C   UNL     1       5.644   3.531  15.102  1.00  0.00     0.000 C 
BRANCH  17  18
ATOM     18  C   UNL     1       5.742   3.611  13.570  1.00  0.00     0.000 C 
BRANCH  18  19
ATOM     19  C   UNL     1       4.824   4.687  12.972  1.00  0.00     0.000 C 
BRANCH  19  20
ATOM     20  C   UNL     1       3.351   4.260  13.048  1.00  0.00     0.000 C 
BRANCH  20  21
ATOM     21  C   UNL     1       2.771   4.343  14.472  1.00  0.00     0.000 C 
BRANCH  21  22
ATOM     22  C   UNL     1       1.534   3.462  14.732  1.00  0.00    -0.000 C 
BRANCH  22  23
ATOM     23  C   UNL     1       1.896   2.035  15.177  1.00  0.00    -0.000 C 
BRANCH  23  24
ATOM     24  C   UNL     1       0.994   1.521  16.315  1.00  0.00    -0.000 C 
BRANCH  24  25
ATOM     25  C   UNL     1       0.288   0.179  16.036  1.00  0.00    -0.000 C 
BRANCH  25  26
ATOM     26  C   UNL     1       0.359  -0.309  14.575  1.00  0.00    -0.000 C 
BRANCH  26  27
ATOM     27  C   UNL     1       1.108  -1.638  14.372  1.00  0.00    -0.000 C 
BRANCH  27  28
ATOM     28  C   UNL     1       2.470  -1.457  13.681  1.00  0.00    -0.000 C 
BRANCH  28  29
ATOM     29  C   UNL     1       3.624  -2.078  14.483  1.00  0.00    -0.003 C 
ATOM     30  C   UNL     1       3.355  -2.091  15.988  1.00  0.00     0.004 C 
ENDBRANCH  28  29
ENDBRANCH  27  28
ENDBRANCH  26  27
ENDBRANCH  25  26
ENDBRANCH  24  25
ENDBRANCH  23  24
ENDBRANCH  22  23
ENDBRANCH  21  22
ENDBRANCH  20  21
ENDBRANCH  19  20
ENDBRANCH  18  19
ENDBRANCH  17  18
ENDBRANCH   1  17
TORSDOF 26
ENDMDL
MODEL 6
REMARK VINA RESULT:     3.338      1.604      5.294
REMARK INTER + INTRA:           7.668
REMARK INTER:                   5.822
REMARK INTRA:                   1.846
REMARK UNBOUND:                -0.744
REMARK SMILES CCCCCCCCCCCCCCCCCCCCCCCCCCCC(=O)[O-]
REMARK SMILES IDX 15 1 16 2 17 3 18 4 19 5 20 6 21 7 22 8 23 9 24 10 25 11
REMARK SMILES IDX 26 12 27 13 28 14 29 15 30 16 14 17 13 18 12 19 11 20 10 21
REMARK SMILES IDX 9 22 8 23 7 24 6 25 5 26 4 27 3 28 2 29 1 30
REMARK H PARENT
REMARK Flexibility Score: inf
ROOT
ATOM      1  C   UNL     1       5.663   2.208  15.657  1.00  0.00     0.000 C 
ENDROOT
BRANCH   1   2
ATOM      2  C   UNL     1       5.784   3.380  14.669  1.00  0.00     0.000 C 
BRANCH   2   3
ATOM      3  C   UNL     1       5.259   3.054  13.253  1.00  0.00     0.000 C 
BRANCH   3   4
ATOM      4  C   UNL     1       4.041   3.913  12.875  1.00  0.00     0.000 C 
BRANCH   4   5
ATOM      5  C   UNL     1       3.375   4.576  14.093  1.00  0.00     0.000 C 
BRANCH   5   6
ATOM      6  C   UNL     1       1.925   4.110  14.336  1.00  0.00     0.000 C 
BRANCH   6   7
ATOM      7  C   UNL     1       1.848   2.947  15.340  1.00  0.00     0.000 C 
BRANCH   7   8
ATOM      8  C   UNL     1       2.979   2.985  16.380  1.00  0.00     0.000 C 
BRANCH   8   9
ATOM      9  C   UNL     1       3.218   1.620  17.044  1.00  0.00     0.000 C 
BRANCH   9  10
ATOM     10  C   UNL     1       4.184   1.751  18.232  1.00  0.00     0.000 C 
BRANCH  10  11
ATOM     11  C   UNL     1       4.089   0.569  19.209  1.00  0.00     0.000 C 
BRANCH  11  12
ATOM     12  C   UNL     1       3.523   0.977  20.581  1.00  0.00     0.006 C 
BRANCH  12  13
ATOM     13  C   UNL     1       2.028   0.652  20.709  1.00  0.00     0.053 C 
BRANCH  13  14
ATOM     14  C   UNL     1       1.173   1.855  20.453  1.00  0.00     0.041 C 
ATOM     15  O   UNL     1       0.695   2.508  21.418  1.00  0.00    -0.550 OA
ATOM     16  O   UNL     1       0.883   2.240  19.150  1.00  0.00    -0.550 OA
ENDBRANCH  13  14
ENDBRANCH  12  13
ENDBRANCH  11  12
ENDBRANCH  10  11
ENDBRANCH   9  10
ENDBRANCH   8   9
ENDBRANCH   7   8
ENDBRANCH   6   7
ENDBRANCH   5   6
ENDBRANCH   4   5
ENDBRANCH   3   4
ENDBRANCH   2   3
ENDBRANCH   1   2
BRANCH   1  17
ATOM     17  C   UNL     1       5.630   0.839  14.957  1.00  0.00     0.000 C 
BRANCH  17  18
ATOM     18  C   UNL     1       6.628   0.746  13.792  1.00  0.00     0.000 C 
BRANCH  18  19
ATOM     19  C   UNL     1       6.457  -0.539  12.967  1.00  0.00     0.000 C 
BRANCH  19  20
ATOM     20  C   UNL     1       4.980  -0.945  12.877  1.00  0.00     0.000 C 
BRANCH  20  21
ATOM     21  C   UNL     1       4.016   0.195  13.256  1.00  0.00     0.000 C 
BRANCH  21  22
ATOM     22  C   UNL     1       2.520  -0.171  13.227  1.00  0.00    -0.000 C 
BRANCH  22  23
ATOM     23  C   UNL     1       1.934  -0.422  14.626  1.00  0.00    -0.000 C 
BRANCH  23  24
ATOM     24  C   UNL     1       2.119  -1.877  15.095  1.00  0.00    -0.000 C 
BRANCH  24  25
ATOM     25  C   UNL     1       3.222  -2.090  16.151  1.00  0.00    -0.000 C 
BRANCH  25  26
ATOM     26  C   UNL     1       4.666  -2.006  15.618  1.00  0.00    -0.000 C 
BRANCH  26  27
ATOM     27  C   UNL     1       5.737  -1.736  16.689  1.00  0.00    -0.000 C 
BRANCH  27  28
ATOM     28  C   UNL     1       5.264  -2.097  18.108  1.00  0.00    -0.000 C 
BRANCH  28  29
ATOM     29  C   UNL     1       6.390  -1.989  19.149  1.00  0.00    -0.003 C 
ATOM     30  C   UNL     1       6.836  -0.546  19.385  1.00  0.00     0.004 C 
ENDBRANCH  28  29
ENDBRANCH  27  28
ENDBRANCH  26  27
ENDBRANCH  25  26
ENDBRANCH  24  25
ENDBRANCH  23  24
ENDBRANCH  22  23
ENDBRANCH  21  22
ENDBRANCH  20  21
ENDBRANCH  19  20
ENDBRANCH  18  19
ENDBRANCH  17  18
ENDBRANCH   1  17
TORSDOF 26
ENDMDL
MODEL 7
REMARK VINA RESULT:     3.501      1.703      4.115
REMARK INTER + INTRA:           8.078
REMARK INTER:                   8.356
REMARK INTRA:                  -0.278
REMARK UNBOUND:                -0.744
REMARK SMILES CCCCCCCCCCCCCCCCCCCCCCCCCCCC(=O)[O-]
REMARK SMILES IDX 15 1 16 2 17 3 18 4 19 5 20 6 21 7 22 8 23 9 24 10 25 11
REMARK SMILES IDX 26 12 27 13 28 14 29 15 30 16 14 17 13 18 12 19 11 20 10 21
REMARK SMILES IDX 9 22 8 23 7 24 6 25 5 26 4 27 3 28 2 29 1 30
REMARK H PARENT
REMARK Flexibility Score: inf
ROOT
ATOM      1  C   UNL     1       3.333  -1.257  16.293  1.00  0.00     0.000 C 
ENDROOT
BRANCH   1   2
ATOM      2  C   UNL     1       2.212  -2.117  15.686  1.00  0.00     0.000 C 
BRANCH   2   3
ATOM      3  C   UNL     1       1.991  -1.874  14.177  1.00  0.00     0.000 C 
BRANCH   3   4
ATOM      4  C   UNL     1       1.344  -0.507  13.901  1.00  0.00     0.000 C 
BRANCH   4   5
ATOM      5  C   UNL     1       2.373   0.631  13.783  1.00  0.00     0.000 C 
BRANCH   5   6
ATOM      6  C   UNL     1       3.583   0.281  12.890  1.00  0.00     0.000 C 
BRANCH   6   7
ATOM      7  C   UNL     1       3.939  -1.214  12.952  1.00  0.00     0.000 C 
BRANCH   7   8
ATOM      8  C   UNL     1       5.444  -1.458  13.145  1.00  0.00     0.000 C 
BRANCH   8   9
ATOM      9  C   UNL     1       6.141  -0.302  13.880  1.00  0.00     0.000 C 
BRANCH   9  10
ATOM     10  C   UNL     1       7.039   0.495  12.920  1.00  0.00     0.000 C 
BRANCH  10  11
ATOM     11  C   UNL     1       6.683   1.989  12.875  1.00  0.00     0.000 C 
BRANCH  11  12
ATOM     12  C   UNL     1       5.641   2.384  13.936  1.00  0.00     0.006 C 
BRANCH  12  13
ATOM     13  C   UNL     1       5.168   3.835  13.770  1.00  0.00     0.053 C 
BRANCH  13  14
ATOM     14  C   UNL     1       3.883   4.088  14.496  1.00  0.00     0.041 C 
ATOM     15  O   UNL     1       3.898   4.450  15.702  1.00  0.00    -0.550 OA
ATOM     16  O   UNL     1       2.668   3.899  13.849  1.00  0.00    -0.550 OA
ENDBRANCH  13  14
ENDBRANCH  12  13
ENDBRANCH  11  12
ENDBRANCH  10  11
ENDBRANCH   9  10
ENDBRANCH   8   9
ENDBRANCH   7   8
ENDBRANCH   6   7
ENDBRANCH   5   6
ENDBRANCH   4   5
ENDBRANCH   3   4
ENDBRANCH   2   3
ENDBRANCH   1   2
BRANCH   1  17
ATOM     17  C   UNL     1       4.549  -2.088  16.734  1.00  0.00     0.000 C 
BRANCH  17  18
ATOM     18  C   UNL     1       5.885  -1.432  16.351  1.00  0.00     0.000 C 
BRANCH  18  19
ATOM     19  C   UNL     1       6.600  -0.796  17.553  1.00  0.00     0.000 C 
BRANCH  19  20
ATOM     20  C   UNL     1       6.128  -1.426  18.871  1.00  0.00     0.000 C 
BRANCH  20  21
ATOM     21  C   UNL     1       6.498  -0.586  20.107  1.00  0.00     0.000 C 
BRANCH  21  22
ATOM     22  C   UNL     1       5.619   0.658  20.344  1.00  0.00    -0.000 C 
BRANCH  22  23
ATOM     23  C   UNL     1       4.383   0.704  19.431  1.00  0.00    -0.000 C 
BRANCH  23  24
ATOM     24  C   UNL     1       4.359   1.949  18.525  1.00  0.00    -0.000 C 
BRANCH  24  25
ATOM     25  C   UNL     1       3.859   1.703  17.088  1.00  0.00    -0.000 C 
BRANCH  25  26
ATOM     26  C   UNL     1       2.353   1.946  16.865  1.00  0.00    -0.000 C 
BRANCH  26  27
ATOM     27  C   UNL     1       1.428   1.259  17.886  1.00  0.00    -0.000 C 
BRANCH  27  28
ATOM     28  C   UNL     1       0.812   2.246  18.891  1.00  0.00    -0.000 C 
BRANCH  28  29
ATOM     29  C   UNL     1       1.000   1.796  20.349  1.00  0.00    -0.003 C 
ATOM     30  C   UNL     1       0.765   2.927  21.349  1.00  0.00     0.004 C 
ENDBRANCH  28  29
ENDBRANCH  27  28
ENDBRANCH  26  27
ENDBRANCH  25  26
ENDBRANCH  24  25
ENDBRANCH  23  24
ENDBRANCH  22  23
ENDBRANCH  21  22
ENDBRANCH  20  21
ENDBRANCH  19  20
ENDBRANCH  18  19
ENDBRANCH  17  18
ENDBRANCH   1  17
TORSDOF 26
ENDMDL
