MODEL 1
REMARK VINA RESULT:    -2.821      0.000      0.000
REMARK INTER + INTRA:          -8.102
REMARK INTER:                  -5.296
REMARK INTRA:                  -2.806
REMARK UNBOUND:                -2.806
REMARK SMILES CCCCCCCCC=CCCCCCCCC(=O)[O-]
REMARK SMILES IDX 10 1 9 2 11 3 12 4 13 5 14 6 15 7 16 8 17 9 18 10 19 11
REMARK SMILES IDX 20 12 8 13 7 14 6 15 5 16 4 17 3 18 2 19 1 20
REMARK H PARENT
REMARK Flexibility Score: inf
ROOT
ATOM      1  C   UNL     1      98.257  68.249 226.174  1.00  0.00    -0.031 C 
ATOM      2  C   UNL     1      99.204  67.742 225.369  1.00  0.00    -0.031 C 
ENDROOT
BRANCH   1   3
ATOM      3  C   UNL     1      96.848  68.460 225.696  1.00  0.00     0.027 C 
BRANCH   3   4
ATOM      4  C   UNL     1      96.563  67.633 224.434  1.00  0.00     0.004 C 
BRANCH   4   5
ATOM      5  C   UNL     1      95.899  66.280 224.743  1.00  0.00     0.000 C 
BRANCH   5   6
ATOM      6  C   UNL     1      96.850  65.074 224.586  1.00  0.00     0.000 C 
BRANCH   6   7
ATOM      7  C   UNL     1      97.179  64.413 225.937  1.00  0.00     0.000 C 
BRANCH   7   8
ATOM      8  C   UNL     1      96.313  64.951 227.091  1.00  0.00     0.006 C 
BRANCH   8   9
ATOM      9  C   UNL     1      97.118  65.436 228.308  1.00  0.00     0.053 C 
BRANCH   9  10
ATOM     10  C   UNL     1      96.290  66.273 229.235  1.00  0.00     0.041 C 
ATOM     11  O   UNL     1      96.268  67.527 229.109  1.00  0.00    -0.550 OA
ATOM     12  O   UNL     1      95.553  65.671 230.246  1.00  0.00    -0.550 OA
ENDBRANCH   9  10
ENDBRANCH   8   9
ENDBRANCH   7   8
ENDBRANCH   6   7
ENDBRANCH   5   6
ENDBRANCH   4   5
ENDBRANCH   3   4
ENDBRANCH   1   3
BRANCH   2  13
ATOM     13  C   UNL     1     100.608  67.512 225.854  1.00  0.00     0.027 C 
BRANCH  13  14
ATOM     14  C   UNL     1     101.345  66.512 224.952  1.00  0.00     0.004 C 
BRANCH  14  15
ATOM     15  C   UNL     1     100.629  65.153 224.851  1.00  0.00     0.000 C 
BRANCH  15  16
ATOM     16  C   UNL     1     101.554  63.925 224.934  1.00  0.00     0.000 C 
BRANCH  16  17
ATOM     17  C   UNL     1     101.194  62.980 226.091  1.00  0.00    -0.000 C 
BRANCH  17  18
ATOM     18  C   UNL     1     100.503  63.746 227.230  1.00  0.00    -0.000 C 
BRANCH  18  19
ATOM     19  C   UNL     1     100.020  62.820 228.357  1.00  0.00    -0.003 C 
ATOM     20  C   UNL     1      98.902  61.879 227.911  1.00  0.00     0.004 C 
ENDBRANCH  18  19
ENDBRANCH  17  18
ENDBRANCH  16  17
ENDBRANCH  15  16
ENDBRANCH  14  15
ENDBRANCH  13  14
ENDBRANCH   2  13
TORSDOF 15
ENDMDL
MODEL 2
REMARK VINA RESULT:    -2.816      2.821      5.995
REMARK INTER + INTRA:          -8.090
REMARK INTER:                  -5.099
REMARK INTRA:                  -2.991
REMARK UNBOUND:                -2.806
REMARK SMILES CCCCCCCCC=CCCCCCCCC(=O)[O-]
REMARK SMILES IDX 10 1 9 2 11 3 12 4 13 5 14 6 15 7 16 8 17 9 18 10 19 11
REMARK SMILES IDX 20 12 8 13 7 14 6 15 5 16 4 17 3 18 2 19 1 20
REMARK H PARENT
REMARK Flexibility Score: inf
ROOT
ATOM      1  C   UNL     1      97.119  64.423 226.888  1.00  0.00    -0.031 C 
ATOM      2  C   UNL     1      96.003  65.159 227.007  1.00  0.00    -0.031 C 
ENDROOT
BRANCH   1   3
ATOM      3  C   UNL     1      97.778  63.794 228.085  1.00  0.00     0.027 C 
BRANCH   3   4
ATOM      4  C   UNL     1      99.286  64.078 228.098  1.00  0.00     0.004 C 
BRANCH   4   5
ATOM      5  C   UNL     1      99.654  65.318 228.931  1.00  0.00     0.000 C 
BRANCH   5   6
ATOM      6  C   UNL     1     100.470  66.370 228.150  1.00  0.00     0.000 C 
BRANCH   6   7
ATOM      7  C   UNL     1      99.569  67.387 227.427  1.00  0.00     0.000 C 
BRANCH   7   8
ATOM      8  C   UNL     1      99.467  67.123 225.913  1.00  0.00     0.006 C 
BRANCH   8   9
ATOM      9  C   UNL     1     100.809  66.793 225.239  1.00  0.00     0.053 C 
BRANCH   9  10
ATOM     10  C   UNL     1     100.845  65.394 224.706  1.00  0.00     0.041 C 
ATOM     11  O   UNL     1      99.782  64.725 224.607  1.00  0.00    -0.550 OA
ATOM     12  O   UNL     1     102.054  64.823 224.330  1.00  0.00    -0.550 OA
ENDBRANCH   9  10
ENDBRANCH   8   9
ENDBRANCH   7   8
ENDBRANCH   6   7
ENDBRANCH   5   6
ENDBRANCH   4   5
ENDBRANCH   3   4
ENDBRANCH   1   3
BRANCH   2  13
ATOM     13  C   UNL     1      95.333  65.770 225.809  1.00  0.00     0.027 C 
BRANCH  13  14
ATOM     14  C   UNL     1      94.884  67.209 226.102  1.00  0.00     0.004 C 
BRANCH  14  15
ATOM     15  C   UNL     1      95.937  68.019 226.881  1.00  0.00     0.000 C 
BRANCH  15  16
ATOM     16  C   UNL     1      95.504  68.453 228.294  1.00  0.00     0.000 C 
BRANCH  16  17
ATOM     17  C   UNL     1      96.678  68.940 229.157  1.00  0.00    -0.000 C 
BRANCH  17  18
ATOM     18  C   UNL     1      97.158  67.832 230.107  1.00  0.00    -0.000 C 
BRANCH  18  19
ATOM     19  C   UNL     1      96.094  66.748 230.337  1.00  0.00    -0.003 C 
ATOM     20  C   UNL     1      96.622  65.563 231.143  1.00  0.00     0.004 C 
ENDBRANCH  18  19
ENDBRANCH  17  18
ENDBRANCH  16  17
ENDBRANCH  15  16
ENDBRANCH  14  15
ENDBRANCH  13  14
ENDBRANCH   2  13
TORSDOF 15
ENDMDL
MODEL 3
REMARK VINA RESULT:    -2.797      1.474      3.736
REMARK INTER + INTRA:          -8.056
REMARK INTER:                  -5.173
REMARK INTRA:                  -2.882
REMARK UNBOUND:                -2.806
REMARK SMILES CCCCCCCCC=CCCCCCCCC(=O)[O-]
REMARK SMILES IDX 10 1 9 2 11 3 12 4 13 5 14 6 15 7 16 8 17 9 18 10 19 11
REMARK SMILES IDX 20 12 8 13 7 14 6 15 5 16 4 17 3 18 2 19 1 20
REMARK H PARENT
REMARK Flexibility Score: inf
ROOT
ATOM      1  C   UNL     1      99.852  62.961 227.852  1.00  0.00    -0.031 C 
ATOM      2  C   UNL     1     100.624  62.693 226.788  1.00  0.00    -0.031 C 
ENDROOT
BRANCH   1   3
ATOM      3  C   UNL     1      98.404  62.556 227.895  1.00  0.00     0.027 C 
BRANCH   3   4
ATOM      4  C   UNL     1      97.493  63.780 228.059  1.00  0.00     0.004 C 
BRANCH   4   5
ATOM      5  C   UNL     1      96.997  64.342 226.715  1.00  0.00     0.000 C 
BRANCH   5   6
ATOM      6  C   UNL     1      95.769  65.267 226.846  1.00  0.00     0.000 C 
BRANCH   6   7
ATOM      7  C   UNL     1      96.119  66.742 226.579  1.00  0.00     0.000 C 
BRANCH   7   8
ATOM      8  C   UNL     1      95.914  67.636 227.816  1.00  0.00     0.006 C 
BRANCH   8   9
ATOM      9  C   UNL     1      96.816  67.279 229.009  1.00  0.00     0.053 C 
BRANCH   9  10
ATOM     10  C   UNL     1      96.024  66.928 230.231  1.00  0.00     0.041 C 
ATOM     11  O   UNL     1      95.865  67.776 231.149  1.00  0.00    -0.550 OA
ATOM     12  O   UNL     1      95.473  65.661 230.363  1.00  0.00    -0.550 OA
ENDBRANCH   9  10
ENDBRANCH   8   9
ENDBRANCH   7   8
ENDBRANCH   6   7
ENDBRANCH   5   6
ENDBRANCH   4   5
ENDBRANCH   3   4
ENDBRANCH   1   3
BRANCH   2  13
ATOM     13  C   UNL     1     102.076  63.079 226.754  1.00  0.00     0.027 C 
BRANCH  13  14
ATOM     14  C   UNL     1     102.460  63.660 225.385  1.00  0.00     0.004 C 
BRANCH  14  15
ATOM     15  C   UNL     1     101.279  64.342 224.670  1.00  0.00     0.000 C 
BRANCH  15  16
ATOM     16  C   UNL     1     101.174  65.861 224.898  1.00  0.00     0.000 C 
BRANCH  16  17
ATOM     17  C   UNL     1      99.787  66.300 225.390  1.00  0.00    -0.000 C 
BRANCH  17  18
ATOM     18  C   UNL     1      99.822  66.655 226.884  1.00  0.00    -0.000 C 
BRANCH  18  19
ATOM     19  C   UNL     1     101.244  66.933 227.393  1.00  0.00    -0.003 C 
ATOM     20  C   UNL     1     101.563  66.193 228.692  1.00  0.00     0.004 C 
ENDBRANCH  18  19
ENDBRANCH  17  18
ENDBRANCH  16  17
ENDBRANCH  15  16
ENDBRANCH  14  15
ENDBRANCH  13  14
ENDBRANCH   2  13
TORSDOF 15
ENDMDL
MODEL 4
REMARK VINA RESULT:    -2.783      2.825      4.421
REMARK INTER + INTRA:          -8.029
REMARK INTER:                  -5.740
REMARK INTRA:                  -2.289
REMARK UNBOUND:                -2.806
REMARK SMILES CCCCCCCCC=CCCCCCCCC(=O)[O-]
REMARK SMILES IDX 10 1 9 2 11 3 12 4 13 5 14 6 15 7 16 8 17 9 18 10 19 11
REMARK SMILES IDX 20 12 8 13 7 14 6 15 5 16 4 17 3 18 2 19 1 20
REMARK H PARENT
REMARK Flexibility Score: inf
ROOT
ATOM      1  C   UNL     1      96.619  66.895 228.096  1.00  0.00    -0.031 C 
ATOM      2  C   UNL     1      96.468  65.639 228.545  1.00  0.00    -0.031 C 
ENDROOT
BRANCH   1   3
ATOM      3  C   UNL     1      95.676  67.487 227.086  1.00  0.00     0.027 C 
BRANCH   3   4
ATOM      4  C   UNL     1      95.170  66.418 226.109  1.00  0.00     0.004 C 
BRANCH   4   5
ATOM      5  C   UNL     1      95.718  66.603 224.683  1.00  0.00     0.000 C 
BRANCH   5   6
ATOM      6  C   UNL     1      96.416  65.347 224.119  1.00  0.00     0.000 C 
BRANCH   6   7
ATOM      7  C   UNL     1      97.466  64.778 225.091  1.00  0.00     0.000 C 
BRANCH   7   8
ATOM      8  C   UNL     1      98.619  65.761 225.365  1.00  0.00     0.006 C 
BRANCH   8   9
ATOM      9  C   UNL     1      99.940  65.085 225.769  1.00  0.00     0.053 C 
BRANCH   9  10
ATOM     10  C   UNL     1     101.008  65.268 224.735  1.00  0.00     0.041 C 
ATOM     11  O   UNL     1     101.318  64.319 223.967  1.00  0.00    -0.550 OA
ATOM     12  O   UNL     1     101.672  66.484 224.628  1.00  0.00    -0.550 OA
ENDBRANCH   9  10
ENDBRANCH   8   9
ENDBRANCH   7   8
ENDBRANCH   6   7
ENDBRANCH   5   6
ENDBRANCH   4   5
ENDBRANCH   3   4
ENDBRANCH   1   3
BRANCH   2  13
ATOM     13  C   UNL     1      97.399  65.053 229.570  1.00  0.00     0.027 C 
BRANCH  13  14
ATOM     14  C   UNL     1      98.436  64.133 228.911  1.00  0.00     0.004 C 
BRANCH  14  15
ATOM     15  C   UNL     1      97.803  62.902 228.236  1.00  0.00     0.000 C 
BRANCH  15  16
ATOM     16  C   UNL     1      98.752  61.704 228.054  1.00  0.00     0.000 C 
BRANCH  16  17
ATOM     17  C   UNL     1     100.230  62.116 227.966  1.00  0.00    -0.000 C 
BRANCH  17  18
ATOM     18  C   UNL     1     101.056  61.044 227.239  1.00  0.00    -0.000 C 
BRANCH  18  19
ATOM     19  C   UNL     1     101.743  61.583 225.975  1.00  0.00    -0.003 C 
ATOM     20  C   UNL     1     103.005  62.388 226.285  1.00  0.00     0.004 C 
ENDBRANCH  18  19
ENDBRANCH  17  18
ENDBRANCH  16  17
ENDBRANCH  15  16
ENDBRANCH  14  15
ENDBRANCH  13  14
ENDBRANCH   2  13
TORSDOF 15
ENDMDL
MODEL 5
REMARK VINA RESULT:    -2.767      1.309      4.188
REMARK INTER + INTRA:          -7.999
REMARK INTER:                  -5.334
REMARK INTRA:                  -2.665
REMARK UNBOUND:                -2.806
REMARK SMILES CCCCCCCCC=CCCCCCCCC(=O)[O-]
REMARK SMILES IDX 10 1 9 2 11 3 12 4 13 5 14 6 15 7 16 8 17 9 18 10 19 11
REMARK SMILES IDX 20 12 8 13 7 14 6 15 5 16 4 17 3 18 2 19 1 20
REMARK H PARENT
REMARK Flexibility Score: inf
ROOT
ATOM      1  C   UNL     1     101.307  64.332 224.684  1.00  0.00    -0.031 C 
ATOM      2  C   UNL     1     101.569  63.688 225.832  1.00  0.00    -0.031 C 
ENDROOT
BRANCH   1   3
ATOM      3  C   UNL     1     101.033  65.810 224.656  1.00  0.00     0.027 C 
BRANCH   3   4
ATOM      4  C   UNL     1     100.886  66.372 226.077  1.00  0.00     0.004 C 
BRANCH   4   5
ATOM      5  C   UNL     1      99.733  67.382 226.204  1.00  0.00     0.000 C 
BRANCH   5   6
ATOM      6  C   UNL     1      98.995  67.312 227.558  1.00  0.00     0.000 C 
BRANCH   6   7
ATOM      7  C   UNL     1      97.825  68.309 227.636  1.00  0.00     0.000 C 
BRANCH   7   8
ATOM      8  C   UNL     1      96.490  67.634 228.003  1.00  0.00     0.006 C 
BRANCH   8   9
ATOM      9  C   UNL     1      96.056  67.848 229.463  1.00  0.00     0.053 C 
BRANCH   9  10
ATOM     10  C   UNL     1      96.278  66.628 230.303  1.00  0.00     0.041 C 
ATOM     11  O   UNL     1      95.407  65.720 230.347  1.00  0.00    -0.550 OA
ATOM     12  O   UNL     1      97.443  66.500 231.050  1.00  0.00    -0.550 OA
ENDBRANCH   9  10
ENDBRANCH   8   9
ENDBRANCH   7   8
ENDBRANCH   6   7
ENDBRANCH   5   6
ENDBRANCH   4   5
ENDBRANCH   3   4
ENDBRANCH   1   3
BRANCH   2  13
ATOM     13  C   UNL     1     101.863  62.214 225.857  1.00  0.00     0.027 C 
BRANCH  13  14
ATOM     14  C   UNL     1     101.026  61.503 226.930  1.00  0.00     0.004 C 
BRANCH  14  15
ATOM     15  C   UNL     1     100.197  62.477 227.787  1.00  0.00     0.000 C 
BRANCH  15  16
ATOM     16  C   UNL     1      98.675  62.396 227.568  1.00  0.00     0.000 C 
BRANCH  16  17
ATOM     17  C   UNL     1      98.027  63.772 227.348  1.00  0.00    -0.000 C 
BRANCH  17  18
ATOM     18  C   UNL     1      97.851  64.062 225.850  1.00  0.00    -0.000 C 
BRANCH  18  19
ATOM     19  C   UNL     1      96.711  65.053 225.569  1.00  0.00    -0.003 C 
ATOM     20  C   UNL     1      96.909  65.829 224.267  1.00  0.00     0.004 C 
ENDBRANCH  18  19
ENDBRANCH  17  18
ENDBRANCH  16  17
ENDBRANCH  15  16
ENDBRANCH  14  15
ENDBRANCH  13  14
ENDBRANCH   2  13
TORSDOF 15
ENDMDL
MODEL 6
REMARK VINA RESULT:    -2.759      2.992      5.701
REMARK INTER + INTRA:          -7.984
REMARK INTER:                  -4.899
REMARK INTRA:                  -3.086
REMARK UNBOUND:                -2.806
REMARK SMILES CCCCCCCCC=CCCCCCCCC(=O)[O-]
REMARK SMILES IDX 10 1 9 2 11 3 12 4 13 5 14 6 15 7 16 8 17 9 18 10 19 11
REMARK SMILES IDX 20 12 8 13 7 14 6 15 5 16 4 17 3 18 2 19 1 20
REMARK H PARENT
REMARK Flexibility Score: inf
ROOT
ATOM      1  C   UNL     1      96.837  65.373 229.208  1.00  0.00    -0.031 C 
ATOM      2  C   UNL     1      96.542  66.637 228.863  1.00  0.00    -0.031 C 
ENDROOT
BRANCH   1   3
ATOM      3  C   UNL     1      97.355  65.032 230.578  1.00  0.00     0.027 C 
BRANCH   3   4
ATOM      4  C   UNL     1      98.344  63.860 230.518  1.00  0.00     0.004 C 
BRANCH   4   5
ATOM      5  C   UNL     1      98.516  63.295 229.098  1.00  0.00     0.000 C 
BRANCH   5   6
ATOM      6  C   UNL     1      99.980  62.966 228.735  1.00  0.00     0.000 C 
BRANCH   6   7
ATOM      7  C   UNL     1     100.081  61.951 227.582  1.00  0.00     0.000 C 
BRANCH   7   8
ATOM      8  C   UNL     1     101.223  62.276 226.601  1.00  0.00     0.006 C 
BRANCH   8   9
ATOM      9  C   UNL     1     102.316  63.186 227.186  1.00  0.00     0.053 C 
BRANCH   9  10
ATOM     10  C   UNL     1     102.784  64.212 226.201  1.00  0.00     0.041 C 
ATOM     11  O   UNL     1     102.577  64.050 224.969  1.00  0.00    -0.550 OA
ATOM     12  O   UNL     1     103.460  65.342 226.641  1.00  0.00    -0.550 OA
ENDBRANCH   9  10
ENDBRANCH   8   9
ENDBRANCH   7   8
ENDBRANCH   6   7
ENDBRANCH   5   6
ENDBRANCH   4   5
ENDBRANCH   3   4
ENDBRANCH   1   3
BRANCH   2  13
ATOM     13  C   UNL     1      96.005  66.975 227.501  1.00  0.00     0.027 C 
BRANCH  13  14
ATOM     14  C   UNL     1      95.587  65.707 226.743  1.00  0.00     0.004 C 
BRANCH  14  15
ATOM     15  C   UNL     1      95.674  65.865 225.214  1.00  0.00     0.000 C 
BRANCH  15  16
ATOM     16  C   UNL     1      96.757  65.007 224.535  1.00  0.00     0.000 C 
BRANCH  16  17
ATOM     17  C   UNL     1      97.714  64.344 225.537  1.00  0.00    -0.000 C 
BRANCH  17  18
ATOM     18  C   UNL     1      99.147  64.868 225.356  1.00  0.00    -0.000 C 
BRANCH  18  19
ATOM     19  C   UNL     1      99.330  66.293 225.902  1.00  0.00    -0.003 C 
ATOM     20  C   UNL     1      99.924  66.314 227.310  1.00  0.00     0.004 C 
ENDBRANCH  18  19
ENDBRANCH  17  18
ENDBRANCH  16  17
ENDBRANCH  15  16
ENDBRANCH  14  15
ENDBRANCH  13  14
ENDBRANCH   2  13
TORSDOF 15
ENDMDL
MODEL 7
REMARK VINA RESULT:    -2.752      3.022      6.134
REMARK INTER + INTRA:          -7.972
REMARK INTER:                  -5.628
REMARK INTRA:                  -2.343
REMARK UNBOUND:                -2.806
REMARK SMILES CCCCCCCCC=CCCCCCCCC(=O)[O-]
REMARK SMILES IDX 10 1 9 2 11 3 12 4 13 5 14 6 15 7 16 8 17 9 18 10 19 11
REMARK SMILES IDX 20 12 8 13 7 14 6 15 5 16 4 17 3 18 2 19 1 20
REMARK H PARENT
REMARK Flexibility Score: inf
ROOT
ATOM      1  C   UNL     1      97.398  64.315 226.054  1.00  0.00    -0.031 C 
ATOM      2  C   UNL     1      97.328  65.092 224.962  1.00  0.00    -0.031 C 
ENDROOT
BRANCH   1   3
ATOM      3  C   UNL     1      98.703  63.729 226.520  1.00  0.00     0.027 C 
BRANCH   3   4
ATOM      4  C   UNL     1      98.487  62.765 227.694  1.00  0.00     0.004 C 
BRANCH   4   5
ATOM      5  C   UNL     1      99.805  62.209 228.260  1.00  0.00     0.000 C 
BRANCH   5   6
ATOM      6  C   UNL     1     100.453  61.126 227.371  1.00  0.00     0.000 C 
BRANCH   6   7
ATOM      7  C   UNL     1     101.985  61.095 227.514  1.00  0.00     0.000 C 
BRANCH   7   8
ATOM      8  C   UNL     1     102.678  62.243 226.757  1.00  0.00     0.006 C 
BRANCH   8   9
ATOM      9  C   UNL     1     102.089  62.525 225.365  1.00  0.00     0.053 C 
BRANCH   9  10
ATOM     10  C   UNL     1     102.000  63.993 225.076  1.00  0.00     0.041 C 
ATOM     11  O   UNL     1     102.737  64.806 225.694  1.00  0.00    -0.550 OA
ATOM     12  O   UNL     1     101.095  64.463 224.134  1.00  0.00    -0.550 OA
ENDBRANCH   9  10
ENDBRANCH   8   9
ENDBRANCH   7   8
ENDBRANCH   6   7
ENDBRANCH   5   6
ENDBRANCH   4   5
ENDBRANCH   3   4
ENDBRANCH   1   3
BRANCH   2  13
ATOM     13  C   UNL     1      96.027  65.694 224.508  1.00  0.00     0.027 C 
BRANCH  13  14
ATOM     14  C   UNL     1      95.124  66.022 225.705  1.00  0.00     0.004 C 
BRANCH  14  15
ATOM     15  C   UNL     1      94.875  67.532 225.873  1.00  0.00     0.000 C 
BRANCH  15  16
ATOM     16  C   UNL     1      96.039  68.314 226.510  1.00  0.00     0.000 C 
BRANCH  16  17
ATOM     17  C   UNL     1      96.329  67.884 227.957  1.00  0.00    -0.000 C 
BRANCH  17  18
ATOM     18  C   UNL     1      97.765  67.356 228.094  1.00  0.00    -0.000 C 
BRANCH  18  19
ATOM     19  C   UNL     1      97.890  66.251 229.154  1.00  0.00    -0.003 C 
ATOM     20  C   UNL     1      96.557  65.570 229.459  1.00  0.00     0.004 C 
ENDBRANCH  18  19
ENDBRANCH  17  18
ENDBRANCH  16  17
ENDBRANCH  15  16
ENDBRANCH  14  15
ENDBRANCH  13  14
ENDBRANCH   2  13
TORSDOF 15
ENDMDL
MODEL 8
REMARK VINA RESULT:    -2.730      1.230      3.362
REMARK INTER + INTRA:          -7.930
REMARK INTER:                  -5.081
REMARK INTRA:                  -2.849
REMARK UNBOUND:                -2.806
REMARK SMILES CCCCCCCCC=CCCCCCCCC(=O)[O-]
REMARK SMILES IDX 10 1 9 2 11 3 12 4 13 5 14 6 15 7 16 8 17 9 18 10 19 11
REMARK SMILES IDX 20 12 8 13 7 14 6 15 5 16 4 17 3 18 2 19 1 20
REMARK H PARENT
REMARK Flexibility Score: inf
ROOT
ATOM      1  C   UNL     1      97.894  64.451 225.837  1.00  0.00    -0.031 C 
ATOM      2  C   UNL     1      97.727  64.104 227.122  1.00  0.00    -0.031 C 
ENDROOT
BRANCH   1   3
ATOM      3  C   UNL     1      96.745  64.937 224.998  1.00  0.00     0.027 C 
BRANCH   3   4
ATOM      4  C   UNL     1      95.561  65.364 225.876  1.00  0.00     0.004 C 
BRANCH   4   5
ATOM      5  C   UNL     1      95.345  66.887 225.889  1.00  0.00     0.000 C 
BRANCH   5   6
ATOM      6  C   UNL     1      96.544  67.688 225.340  1.00  0.00     0.000 C 
BRANCH   6   7
ATOM      7  C   UNL     1      97.506  68.134 226.456  1.00  0.00     0.000 C 
BRANCH   7   8
ATOM      8  C   UNL     1      96.876  68.042 227.858  1.00  0.00     0.006 C 
BRANCH   8   9
ATOM      9  C   UNL     1      97.769  67.355 228.906  1.00  0.00     0.053 C 
BRANCH   9  10
ATOM     10  C   UNL     1      96.982  66.473 229.827  1.00  0.00     0.041 C 
ATOM     11  O   UNL     1      97.450  66.152 230.951  1.00  0.00    -0.550 OA
ATOM     12  O   UNL     1      95.737  65.995 229.439  1.00  0.00    -0.550 OA
ENDBRANCH   9  10
ENDBRANCH   8   9
ENDBRANCH   7   8
ENDBRANCH   6   7
ENDBRANCH   5   6
ENDBRANCH   4   5
ENDBRANCH   3   4
ENDBRANCH   1   3
BRANCH   2  13
ATOM     13  C   UNL     1      98.880  63.637 227.967  1.00  0.00     0.027 C 
BRANCH  13  14
ATOM     14  C   UNL     1      99.551  62.402 227.349  1.00  0.00     0.004 C 
BRANCH  14  15
ATOM     15  C   UNL     1     101.078  62.549 227.221  1.00  0.00     0.000 C 
BRANCH  15  16
ATOM     16  C   UNL     1     101.605  62.597 225.775  1.00  0.00     0.000 C 
BRANCH  16  17
ATOM     17  C   UNL     1     102.184  63.967 225.392  1.00  0.00    -0.000 C 
BRANCH  17  18
ATOM     18  C   UNL     1     101.139  64.819 224.656  1.00  0.00    -0.000 C 
BRANCH  18  19
ATOM     19  C   UNL     1     101.163  66.292 225.090  1.00  0.00    -0.003 C 
ATOM     20  C   UNL     1     100.867  66.475 226.578  1.00  0.00     0.004 C 
ENDBRANCH  18  19
ENDBRANCH  17  18
ENDBRANCH  16  17
ENDBRANCH  15  16
ENDBRANCH  14  15
ENDBRANCH  13  14
ENDBRANCH   2  13
TORSDOF 15
ENDMDL
MODEL 9
REMARK VINA RESULT:    -2.730      1.264      2.039
REMARK INTER + INTRA:          -7.930
REMARK INTER:                  -5.364
REMARK INTRA:                  -2.565
REMARK UNBOUND:                -2.806
REMARK SMILES CCCCCCCCC=CCCCCCCCC(=O)[O-]
REMARK SMILES IDX 10 1 9 2 11 3 12 4 13 5 14 6 15 7 16 8 17 9 18 10 19 11
REMARK SMILES IDX 20 12 8 13 7 14 6 15 5 16 4 17 3 18 2 19 1 20
REMARK H PARENT
REMARK Flexibility Score: inf
ROOT
ATOM      1  C   UNL     1      96.908  68.608 225.563  1.00  0.00    -0.031 C 
ATOM      2  C   UNL     1      97.774  68.550 226.586  1.00  0.00    -0.031 C 
ENDROOT
BRANCH   1   3
ATOM      3  C   UNL     1      95.449  68.292 225.749  1.00  0.00     0.027 C 
BRANCH   3   4
ATOM      4  C   UNL     1      94.901  67.496 224.557  1.00  0.00     0.004 C 
BRANCH   4   5
ATOM      5  C   UNL     1      96.011  66.905 223.671  1.00  0.00     0.000 C 
BRANCH   5   6
ATOM      6  C   UNL     1      96.269  65.404 223.922  1.00  0.00     0.000 C 
BRANCH   6   7
ATOM      7  C   UNL     1      97.608  65.155 224.639  1.00  0.00     0.000 C 
BRANCH   7   8
ATOM      8  C   UNL     1      97.460  64.264 225.886  1.00  0.00     0.006 C 
BRANCH   8   9
ATOM      9  C   UNL     1      97.442  65.039 227.215  1.00  0.00     0.053 C 
BRANCH   9  10
ATOM     10  C   UNL     1      96.049  65.292 227.703  1.00  0.00     0.041 C 
ATOM     11  O   UNL     1      95.061  64.850 227.058  1.00  0.00    -0.550 OA
ATOM     12  O   UNL     1      95.840  66.027 228.862  1.00  0.00    -0.550 OA
ENDBRANCH   9  10
ENDBRANCH   8   9
ENDBRANCH   7   8
ENDBRANCH   6   7
ENDBRANCH   5   6
ENDBRANCH   4   5
ENDBRANCH   3   4
ENDBRANCH   1   3
BRANCH   2  13
ATOM     13  C   UNL     1      99.228  68.885 226.405  1.00  0.00     0.027 C 
BRANCH  13  14
ATOM     14  C   UNL     1      99.869  67.997 225.329  1.00  0.00     0.004 C 
BRANCH  14  15
ATOM     15  C   UNL     1     100.848  66.961 225.911  1.00  0.00     0.000 C 
BRANCH  15  16
ATOM     16  C   UNL     1     101.166  65.776 224.981  1.00  0.00     0.000 C 
BRANCH  16  17
ATOM     17  C   UNL     1     101.109  64.418 225.697  1.00  0.00    -0.000 C 
BRANCH  17  18
ATOM     18  C   UNL     1     102.141  63.444 225.108  1.00  0.00    -0.000 C 
BRANCH  18  19
ATOM     19  C   UNL     1     101.930  61.999 225.586  1.00  0.00    -0.003 C 
ATOM     20  C   UNL     1     101.081  61.913 226.854  1.00  0.00     0.004 C 
ENDBRANCH  18  19
ENDBRANCH  17  18
ENDBRANCH  16  17
ENDBRANCH  15  16
ENDBRANCH  14  15
ENDBRANCH  13  14
ENDBRANCH   2  13
TORSDOF 15
ENDMDL
