MODEL 1
REMARK VINA RESULT:    -5.781      0.000      0.000
REMARK INTER + INTRA:          -6.929
REMARK INTER:                  -6.795
REMARK INTRA:                  -0.134
REMARK UNBOUND:                -0.134
REMARK SMILES O=C([O-])C=Cc1ccc(O)c(O)c1
REMARK SMILES IDX 6 1 13 2 7 3 11 4 8 5 9 6 5 7 4 8 2 9 1 10 3 11 12 12 10 14
REMARK H PARENT 12 13 10 15
REMARK Flexibility Score: inf
ROOT
ATOM      1  C   UNL     1     -22.140 -14.976 -14.156  1.00  0.00    -0.022 A 
ATOM      2  C   UNL     1     -22.307 -16.364 -14.284  1.00  0.00     0.058 A 
ATOM      3  C   UNL     1     -23.210 -14.129 -14.498  1.00  0.00     0.012 A 
ATOM      4  C   UNL     1     -23.503 -16.907 -14.769  1.00  0.00     0.157 A 
ATOM      5  C   UNL     1     -24.405 -14.663 -14.983  1.00  0.00     0.051 A 
ATOM      6  C   UNL     1     -24.565 -16.044 -15.127  1.00  0.00     0.157 A 
ENDROOT
BRANCH   1   7
ATOM      7  C   UNL     1     -20.853 -14.461 -13.625  1.00  0.00     0.010 C 
ATOM      8  C   UNL     1     -19.733 -15.193 -13.546  1.00  0.00     0.025 C 
BRANCH   8   9
ATOM      9  C   UNL     1     -18.481 -14.645 -13.001  1.00  0.00     0.064 C 
ATOM     10  O   UNL     1     -18.521 -13.875 -12.006  1.00  0.00    -0.545 OA
ATOM     11  O   UNL     1     -17.252 -14.964 -13.566  1.00  0.00    -0.545 OA
ENDBRANCH   8   9
ENDBRANCH   1   7
BRANCH   4  12
ATOM     12  O   UNL     1     -23.590 -18.297 -14.879  1.00  0.00    -0.504 OA
ATOM     13  H   UNL     1     -24.446 -18.819 -14.766  1.00  0.00     0.293 HD
ENDBRANCH   4  12
BRANCH   6  14
ATOM     14  O   UNL     1     -25.785 -16.513 -15.621  1.00  0.00    -0.504 OA
ATOM     15  H   UNL     1     -26.679 -16.099 -15.403  1.00  0.00     0.293 HD
ENDBRANCH   6  14
TORSDOF 4
ENDMDL
MODEL 2
REMARK VINA RESULT:    -5.398      1.543      2.322
REMARK INTER + INTRA:          -6.479
REMARK INTER:                  -6.342
REMARK INTRA:                  -0.137
REMARK UNBOUND:                -0.134
REMARK SMILES O=C([O-])C=Cc1ccc(O)c(O)c1
REMARK SMILES IDX 6 1 13 2 7 3 11 4 8 5 9 6 5 7 4 8 2 9 1 10 3 11 12 12 10 14
REMARK H PARENT 12 13 10 15
REMARK Flexibility Score: inf
ROOT
ATOM      1  C   UNL     1     -22.913 -16.372 -13.809  1.00  0.00    -0.022 A 
ATOM      2  C   UNL     1     -23.870 -16.108 -14.802  1.00  0.00     0.058 A 
ATOM      3  C   UNL     1     -23.123 -17.456 -12.936  1.00  0.00     0.012 A 
ATOM      4  C   UNL     1     -25.030 -16.884 -14.915  1.00  0.00     0.157 A 
ATOM      5  C   UNL     1     -24.278 -18.234 -13.042  1.00  0.00     0.051 A 
ATOM      6  C   UNL     1     -25.238 -17.960 -14.020  1.00  0.00     0.157 A 
ENDROOT
BRANCH   1   7
ATOM      7  C   UNL     1     -21.699 -15.521 -13.747  1.00  0.00     0.010 C 
ATOM      8  C   UNL     1     -20.450 -16.005 -13.722  1.00  0.00     0.025 C 
BRANCH   8   9
ATOM      9  C   UNL     1     -19.275 -15.124 -13.649  1.00  0.00     0.064 C 
ATOM     10  O   UNL     1     -19.419 -13.881 -13.786  1.00  0.00    -0.545 OA
ATOM     11  O   UNL     1     -18.002 -15.641 -13.430  1.00  0.00    -0.545 OA
ENDBRANCH   8   9
ENDBRANCH   1   7
BRANCH   4  12
ATOM     12  O   UNL     1     -25.941 -16.553 -15.921  1.00  0.00    -0.504 OA
ATOM     13  H   UNL     1     -26.893 -16.887 -15.953  1.00  0.00     0.293 HD
ENDBRANCH   4  12
BRANCH   6  14
ATOM     14  O   UNL     1     -26.371 -18.775 -14.070  1.00  0.00    -0.504 OA
ATOM     15  H   UNL     1     -26.345 -19.770 -14.237  1.00  0.00     0.293 HD
ENDBRANCH   6  14
TORSDOF 4
ENDMDL
MODEL 3
REMARK VINA RESULT:    -5.358      1.647      2.125
REMARK INTER + INTRA:          -6.433
REMARK INTER:                  -6.297
REMARK INTRA:                  -0.136
REMARK UNBOUND:                -0.134
REMARK SMILES O=C([O-])C=Cc1ccc(O)c(O)c1
REMARK SMILES IDX 6 1 13 2 7 3 11 4 8 5 9 6 5 7 4 8 2 9 1 10 3 11 12 12 10 14
REMARK H PARENT 12 13 10 15
REMARK Flexibility Score: inf
ROOT
ATOM      1  C   UNL     1     -23.287 -16.005 -14.417  1.00  0.00    -0.022 A 
ATOM      2  C   UNL     1     -23.451 -16.983 -13.423  1.00  0.00     0.058 A 
ATOM      3  C   UNL     1     -24.301 -15.837 -15.378  1.00  0.00     0.012 A 
ATOM      4  C   UNL     1     -24.586 -17.802 -13.394  1.00  0.00     0.157 A 
ATOM      5  C   UNL     1     -25.436 -16.651 -15.355  1.00  0.00     0.051 A 
ATOM      6  C   UNL     1     -25.590 -17.636 -14.375  1.00  0.00     0.157 A 
ENDROOT
BRANCH   1   7
ATOM      7  C   UNL     1     -22.067 -15.160 -14.389  1.00  0.00     0.010 C 
ATOM      8  C   UNL     1     -21.202 -15.134 -13.365  1.00  0.00     0.025 C 
BRANCH   8   9
ATOM      9  C   UNL     1     -20.011 -14.271 -13.375  1.00  0.00     0.064 C 
ATOM     10  O   UNL     1     -19.538 -13.875 -14.472  1.00  0.00    -0.545 OA
ATOM     11  O   UNL     1     -19.395 -13.884 -12.189  1.00  0.00    -0.545 OA
ENDBRANCH   8   9
ENDBRANCH   1   7
BRANCH   4  12
ATOM     12  O   UNL     1     -24.673 -18.759 -12.380  1.00  0.00    -0.504 OA
ATOM     13  H   UNL     1     -24.111 -19.596 -12.344  1.00  0.00     0.293 HD
ENDBRANCH   4  12
BRANCH   6  14
ATOM     14  O   UNL     1     -26.748 -18.417 -14.411  1.00  0.00    -0.504 OA
ATOM     15  H   UNL     1     -27.678 -18.056 -14.262  1.00  0.00     0.293 HD
ENDBRANCH   6  14
TORSDOF 4
ENDMDL
MODEL 4
REMARK VINA RESULT:    -4.778      1.773      5.596
REMARK INTER + INTRA:          -5.750
REMARK INTER:                  -5.622
REMARK INTRA:                  -0.128
REMARK UNBOUND:                -0.134
REMARK SMILES O=C([O-])C=Cc1ccc(O)c(O)c1
REMARK SMILES IDX 6 1 13 2 7 3 11 4 8 5 9 6 5 7 4 8 2 9 1 10 3 11 12 12 10 14
REMARK H PARENT 12 13 10 15
REMARK Flexibility Score: inf
ROOT
ATOM      1  C   UNL     1     -22.372 -15.922 -13.930  1.00  0.00    -0.022 A 
ATOM      2  C   UNL     1     -21.177 -16.651 -14.050  1.00  0.00     0.058 A 
ATOM      3  C   UNL     1     -22.302 -14.522 -13.810  1.00  0.00     0.012 A 
ATOM      4  C   UNL     1     -19.933 -16.011 -14.025  1.00  0.00     0.157 A 
ATOM      5  C   UNL     1     -21.065 -13.876 -13.785  1.00  0.00     0.051 A 
ATOM      6  C   UNL     1     -19.876 -14.604 -13.886  1.00  0.00     0.157 A 
ENDROOT
BRANCH   1   7
ATOM      7  C   UNL     1     -23.660 -16.657 -13.976  1.00  0.00     0.010 C 
ATOM      8  C   UNL     1     -23.942 -17.716 -13.204  1.00  0.00     0.025 C 
BRANCH   8   9
ATOM      9  C   UNL     1     -25.230 -18.422 -13.290  1.00  0.00     0.064 C 
ATOM     10  O   UNL     1     -25.625 -19.116 -12.318  1.00  0.00    -0.545 OA
ATOM     11  O   UNL     1     -26.020 -18.336 -14.432  1.00  0.00    -0.545 OA
ENDBRANCH   8   9
ENDBRANCH   1   7
BRANCH   4  12
ATOM     12  O   UNL     1     -18.789 -16.804 -14.139  1.00  0.00    -0.504 OA
ATOM     13  H   UNL     1     -18.229 -17.105 -13.355  1.00  0.00     0.293 HD
ENDBRANCH   4  12
BRANCH   6  14
ATOM     14  O   UNL     1     -18.672 -13.897 -13.850  1.00  0.00    -0.504 OA
ATOM     15  H   UNL     1     -18.347 -13.375 -13.049  1.00  0.00     0.293 HD
ENDBRANCH   6  14
TORSDOF 4
ENDMDL
MODEL 5
REMARK VINA RESULT:    -4.663      1.256      5.727
REMARK INTER + INTRA:          -5.615
REMARK INTER:                  -5.487
REMARK INTRA:                  -0.128
REMARK UNBOUND:                -0.134
REMARK SMILES O=C([O-])C=Cc1ccc(O)c(O)c1
REMARK SMILES IDX 6 1 13 2 7 3 11 4 8 5 9 6 5 7 4 8 2 9 1 10 3 11 12 12 10 14
REMARK H PARENT 12 13 10 15
REMARK Flexibility Score: inf
ROOT
ATOM      1  C   UNL     1     -21.105 -15.367 -14.057  1.00  0.00    -0.022 A 
ATOM      2  C   UNL     1     -20.095 -16.319 -14.269  1.00  0.00     0.058 A 
ATOM      3  C   UNL     1     -20.762 -14.134 -13.471  1.00  0.00     0.012 A 
ATOM      4  C   UNL     1     -18.772 -16.071 -13.885  1.00  0.00     0.157 A 
ATOM      5  C   UNL     1     -19.444 -13.878 -13.086  1.00  0.00     0.051 A 
ATOM      6  C   UNL     1     -18.443 -14.834 -13.281  1.00  0.00     0.157 A 
ENDROOT
BRANCH   1   7
ATOM      7  C   UNL     1     -22.486 -15.685 -14.496  1.00  0.00     0.010 C 
ATOM      8  C   UNL     1     -23.215 -16.691 -13.993  1.00  0.00     0.025 C 
BRANCH   8   9
ATOM      9  C   UNL     1     -24.577 -16.978 -14.468  1.00  0.00     0.064 C 
ATOM     10  O   UNL     1     -25.273 -16.052 -14.959  1.00  0.00    -0.545 OA
ATOM     11  O   UNL     1     -25.112 -18.259 -14.382  1.00  0.00    -0.545 OA
ENDBRANCH   8   9
ENDBRANCH   1   7
BRANCH   4  12
ATOM     12  O   UNL     1     -17.826 -17.071 -14.119  1.00  0.00    -0.504 OA
ATOM     13  H   UNL     1     -17.372 -17.223 -15.007  1.00  0.00     0.293 HD
ENDBRANCH   4  12
BRANCH   6  14
ATOM     14  O   UNL     1     -17.147 -14.516 -12.869  1.00  0.00    -0.504 OA
ATOM     15  H   UNL     1     -16.324 -15.033 -13.144  1.00  0.00     0.293 HD
ENDBRANCH   6  14
TORSDOF 4
ENDMDL
MODEL 6
REMARK VINA RESULT:    -3.747     16.392     17.651
REMARK INTER + INTRA:          -4.538
REMARK INTER:                  -4.410
REMARK INTRA:                  -0.129
REMARK UNBOUND:                -0.134
REMARK SMILES O=C([O-])C=Cc1ccc(O)c(O)c1
REMARK SMILES IDX 6 1 13 2 7 3 11 4 8 5 9 6 5 7 4 8 2 9 1 10 3 11 12 12 10 14
REMARK H PARENT 12 13 10 15
REMARK Flexibility Score: inf
ROOT
ATOM      1  C   UNL     1     -28.949 -30.729 -14.910  1.00  0.00    -0.022 A 
ATOM      2  C   UNL     1     -28.848 -31.967 -14.255  1.00  0.00     0.058 A 
ATOM      3  C   UNL     1     -29.075 -29.560 -14.136  1.00  0.00     0.012 A 
ATOM      4  C   UNL     1     -28.897 -32.053 -12.859  1.00  0.00     0.157 A 
ATOM      5  C   UNL     1     -29.125 -29.639 -12.743  1.00  0.00     0.051 A 
ATOM      6  C   UNL     1     -29.042 -30.873 -12.092  1.00  0.00     0.157 A 
ENDROOT
BRANCH   1   7
ATOM      7  C   UNL     1     -28.879 -30.701 -16.392  1.00  0.00     0.010 C 
ATOM      8  C   UNL     1     -27.978 -31.388 -17.109  1.00  0.00     0.025 C 
BRANCH   8   9
ATOM      9  C   UNL     1     -27.937 -31.322 -18.577  1.00  0.00     0.064 C 
ATOM     10  O   UNL     1     -28.860 -31.851 -19.250  1.00  0.00    -0.545 OA
ATOM     11  O   UNL     1     -26.894 -30.682 -19.238  1.00  0.00    -0.545 OA
ENDBRANCH   8   9
ENDBRANCH   1   7
BRANCH   4  12
ATOM     12  O   UNL     1     -28.800 -33.321 -12.280  1.00  0.00    -0.504 OA
ATOM     13  H   UNL     1     -27.962 -33.883 -12.288  1.00  0.00     0.293 HD
ENDBRANCH   4  12
BRANCH   6  14
ATOM     14  O   UNL     1     -29.102 -30.882 -10.697  1.00  0.00    -0.504 OA
ATOM     15  H   UNL     1     -28.321 -31.112 -10.099  1.00  0.00     0.293 HD
ENDBRANCH   6  14
TORSDOF 4
ENDMDL
MODEL 7
REMARK VINA RESULT:    -3.505      3.228      4.654
REMARK INTER + INTRA:          -4.254
REMARK INTER:                  -4.114
REMARK INTRA:                  -0.140
REMARK UNBOUND:                -0.134
REMARK SMILES O=C([O-])C=Cc1ccc(O)c(O)c1
REMARK SMILES IDX 6 1 13 2 7 3 11 4 8 5 9 6 5 7 4 8 2 9 1 10 3 11 12 12 10 14
REMARK H PARENT 12 13 10 15
REMARK Flexibility Score: inf
ROOT
ATOM      1  C   UNL     1     -22.727 -18.268 -14.026  1.00  0.00    -0.022 A 
ATOM      2  C   UNL     1     -24.009 -18.095 -14.571  1.00  0.00     0.058 A 
ATOM      3  C   UNL     1     -22.011 -17.133 -13.603  1.00  0.00     0.012 A 
ATOM      4  C   UNL     1     -24.565 -16.819 -14.723  1.00  0.00     0.157 A 
ATOM      5  C   UNL     1     -22.559 -15.857 -13.750  1.00  0.00     0.051 A 
ATOM      6  C   UNL     1     -23.828 -15.685 -14.310  1.00  0.00     0.157 A 
ENDROOT
BRANCH   1   7
ATOM      7  C   UNL     1     -22.196 -19.647 -13.881  1.00  0.00     0.010 C 
ATOM      8  C   UNL     1     -20.891 -19.936 -13.784  1.00  0.00     0.025 C 
BRANCH   8   9
ATOM      9  C   UNL     1     -20.409 -21.320 -13.654  1.00  0.00     0.064 C 
ATOM     10  O   UNL     1     -21.232 -22.248 -13.443  1.00  0.00    -0.545 OA
ATOM     11  O   UNL     1     -19.055 -21.621 -13.760  1.00  0.00    -0.545 OA
ENDBRANCH   8   9
ENDBRANCH   1   7
BRANCH   4  12
ATOM     12  O   UNL     1     -25.841 -16.726 -15.284  1.00  0.00    -0.504 OA
ATOM     13  H   UNL     1     -26.520 -17.473 -15.269  1.00  0.00     0.293 HD
ENDBRANCH   4  12
BRANCH   6  14
ATOM     14  O   UNL     1     -24.316 -14.382 -14.432  1.00  0.00    -0.504 OA
ATOM     15  H   UNL     1     -24.050 -13.619 -13.826  1.00  0.00     0.293 HD
ENDBRANCH   6  14
TORSDOF 4
ENDMDL
MODEL 8
REMARK VINA RESULT:    -3.329     12.882     15.258
REMARK INTER + INTRA:          -4.047
REMARK INTER:                  -3.917
REMARK INTRA:                  -0.130
REMARK UNBOUND:                -0.134
REMARK SMILES O=C([O-])C=Cc1ccc(O)c(O)c1
REMARK SMILES IDX 6 1 13 2 7 3 11 4 8 5 9 6 5 7 4 8 2 9 1 10 3 11 12 12 10 14
REMARK H PARENT 12 13 10 15
REMARK Flexibility Score: inf
ROOT
ATOM      1  C   UNL     1     -28.385 -28.997 -15.184  1.00  0.00    -0.022 A 
ATOM      2  C   UNL     1     -27.880 -30.074 -15.930  1.00  0.00     0.058 A 
ATOM      3  C   UNL     1     -28.999 -29.259 -13.945  1.00  0.00     0.012 A 
ATOM      4  C   UNL     1     -28.002 -31.391 -15.474  1.00  0.00     0.157 A 
ATOM      5  C   UNL     1     -29.125 -30.571 -13.484  1.00  0.00     0.051 A 
ATOM      6  C   UNL     1     -28.637 -31.644 -14.235  1.00  0.00     0.157 A 
ENDROOT
BRANCH   1   7
ATOM      7  C   UNL     1     -28.215 -27.622 -15.715  1.00  0.00     0.010 C 
ATOM      8  C   UNL     1     -27.082 -26.914 -15.602  1.00  0.00     0.025 C 
BRANCH   8   9
ATOM      9  C   UNL     1     -26.962 -25.548 -16.134  1.00  0.00     0.064 C 
ATOM     10  O   UNL     1     -28.001 -24.878 -16.370  1.00  0.00    -0.545 OA
ATOM     11  O   UNL     1     -25.716 -24.981 -16.381  1.00  0.00    -0.545 OA
ENDBRANCH   8   9
ENDBRANCH   1   7
BRANCH   4  12
ATOM     12  O   UNL     1     -27.483 -32.410 -16.277  1.00  0.00    -0.504 OA
ATOM     13  H   UNL     1     -27.575 -32.440 -17.281  1.00  0.00     0.293 HD
ENDBRANCH   4  12
BRANCH   6  14
ATOM     14  O   UNL     1     -28.798 -32.931 -13.718  1.00  0.00    -0.504 OA
ATOM     15  H   UNL     1     -29.329 -33.660 -14.172  1.00  0.00     0.293 HD
ENDBRANCH   6  14
TORSDOF 4
ENDMDL
