MODEL 1
REMARK VINA RESULT:    -6.340      0.000      0.000
REMARK INTER + INTRA:          -7.750
REMARK INTER:                  -7.452
REMARK INTRA:                  -0.299
REMARK UNBOUND:                -0.299
REMARK SMILES O=c1cc(-c2ccc(O)c(O)c2)oc2cc(O)cc(O)c12
REMARK SMILES IDX 4 1 3 2 2 3 1 4 21 5 19 6 18 7 16 8 15 9 14 10 13 11 5 12
REMARK SMILES IDX 6 13 7 14 8 15 12 16 10 17 9 18 11 20 20 22 17 24
REMARK H PARENT 9 19 11 21 20 23 17 25
REMARK Flexibility Score: inf
ROOT
ATOM      1  C   UNL     1       7.255  15.398  21.727  1.00  0.00     0.138 A 
ATOM      2  C   UNL     1       8.455  15.314  21.008  1.00  0.00     0.100 A 
ATOM      3  C   UNL     1       8.973  16.456  20.393  1.00  0.00     0.197 A 
ATOM      4  O   UNL     1      10.082  16.363  19.807  1.00  0.00    -0.289 OA
ATOM      5  C   UNL     1       8.267  17.680  20.475  1.00  0.00     0.107 A 
ATOM      6  C   UNL     1       8.678  18.897  19.855  1.00  0.00     0.134 A 
ATOM      7  C   UNL     1       7.960  20.075  20.103  1.00  0.00     0.093 A 
ATOM      8  C   UNL     1       6.814  20.066  20.897  1.00  0.00     0.123 A 
ATOM      9  C   UNL     1       6.373  18.871  21.465  1.00  0.00     0.094 A 
ATOM     10  C   UNL     1       7.087  17.686  21.265  1.00  0.00     0.146 A 
ATOM     11  O   UNL     1       6.641  16.572  21.834  1.00  0.00    -0.456 OA
ENDROOT
BRANCH   1  12
ATOM     12  C   UNL     1       6.659  14.215  22.399  1.00  0.00     0.021 A 
ATOM     13  C   UNL     1       6.656  12.945  21.792  1.00  0.00     0.016 A 
ATOM     14  C   UNL     1       6.079  11.851  22.442  1.00  0.00     0.051 A 
ATOM     15  C   UNL     1       5.490  12.007  23.703  1.00  0.00     0.157 A 
ATOM     16  C   UNL     1       6.054  14.366  23.660  1.00  0.00     0.062 A 
ATOM     17  C   UNL     1       5.477  13.268  24.312  1.00  0.00     0.158 A 
BRANCH  15  18
ATOM     18  O   UNL     1       4.916  10.918  24.355  1.00  0.00    -0.504 OA
ATOM     19  H   UNL     1       5.432  10.060  24.509  1.00  0.00     0.293 HD
ENDBRANCH  15  18
BRANCH  17  20
ATOM     20  O   UNL     1       4.887  13.422  25.565  1.00  0.00    -0.504 OA
ATOM     21  H   UNL     1       4.153  12.800  25.886  1.00  0.00     0.293 HD
ENDBRANCH  17  20
ENDBRANCH   1  12
BRANCH   6  22
ATOM     22  O   UNL     1       9.760  19.000  18.975  1.00  0.00    -0.507 OA
ATOM     23  H   UNL     1      10.454  19.732  18.998  1.00  0.00     0.293 HD
ENDBRANCH   6  22
BRANCH   8  24
ATOM     24  O   UNL     1       6.117  21.253  21.109  1.00  0.00    -0.508 OA
ATOM     25  H   UNL     1       5.147  21.253  21.406  1.00  0.00     0.293 HD
ENDBRANCH   8  24
TORSDOF 5
ENDMDL
MODEL 2
REMARK VINA RESULT:    -5.608      1.586      2.283
REMARK INTER + INTRA:          -6.890
REMARK INTER:                  -6.621
REMARK INTRA:                  -0.270
REMARK UNBOUND:                -0.299
REMARK SMILES O=c1cc(-c2ccc(O)c(O)c2)oc2cc(O)cc(O)c12
REMARK SMILES IDX 4 1 3 2 2 3 1 4 21 5 19 6 18 7 16 8 15 9 14 10 13 11 5 12
REMARK SMILES IDX 6 13 7 14 8 15 12 16 10 17 9 18 11 20 20 22 17 24
REMARK H PARENT 9 19 11 21 20 23 17 25
REMARK Flexibility Score: inf
ROOT
ATOM      1  C   UNL     1       6.650  16.186  21.403  1.00  0.00     0.138 A 
ATOM      2  C   UNL     1       5.821  16.703  20.398  1.00  0.00     0.100 A 
ATOM      3  C   UNL     1       6.127  17.936  19.817  1.00  0.00     0.197 A 
ATOM      4  O   UNL     1       5.400  18.345  18.875  1.00  0.00    -0.289 OA
ATOM      5  C   UNL     1       7.252  18.666  20.269  1.00  0.00     0.107 A 
ATOM      6  C   UNL     1       7.637  19.949  19.779  1.00  0.00     0.134 A 
ATOM      7  C   UNL     1       8.837  20.524  20.218  1.00  0.00     0.093 A 
ATOM      8  C   UNL     1       9.632  19.891  21.173  1.00  0.00     0.123 A 
ATOM      9  C   UNL     1       9.238  18.660  21.699  1.00  0.00     0.094 A 
ATOM     10  C   UNL     1       8.064  18.044  21.255  1.00  0.00     0.146 A 
ATOM     11  O   UNL     1       7.731  16.866  21.770  1.00  0.00    -0.456 OA
ENDROOT
BRANCH   1  12
ATOM     12  C   UNL     1       6.371  14.881  22.055  1.00  0.00     0.021 A 
ATOM     13  C   UNL     1       6.560  13.661  21.378  1.00  0.00     0.016 A 
ATOM     14  C   UNL     1       6.280  12.448  22.012  1.00  0.00     0.051 A 
ATOM     15  C   UNL     1       5.799  12.432  23.327  1.00  0.00     0.157 A 
ATOM     16  C   UNL     1       5.875  14.857  23.371  1.00  0.00     0.062 A 
ATOM     17  C   UNL     1       5.594  13.639  24.007  1.00  0.00     0.158 A 
BRANCH  15  18
ATOM     18  O   UNL     1       5.519  11.224  23.963  1.00  0.00    -0.504 OA
ATOM     19  H   UNL     1       4.570  10.886  24.064  1.00  0.00     0.293 HD
ENDBRANCH  15  18
BRANCH  17  20
ATOM     20  O   UNL     1       5.112  13.620  25.314  1.00  0.00    -0.504 OA
ATOM     21  H   UNL     1       4.121  13.695  25.515  1.00  0.00     0.293 HD
ENDBRANCH  17  20
ENDBRANCH   1  12
BRANCH   6  22
ATOM     22  O   UNL     1       6.873  20.707  18.887  1.00  0.00    -0.507 OA
ATOM     23  H   UNL     1       6.169  20.333  18.269  1.00  0.00     0.293 HD
ENDBRANCH   6  22
BRANCH   8  24
ATOM     24  O   UNL     1      10.811  20.500  21.598  1.00  0.00    -0.508 OA
ATOM     25  H   UNL     1      10.931  20.810  22.556  1.00  0.00     0.293 HD
ENDBRANCH   8  24
TORSDOF 5
ENDMDL
MODEL 3
REMARK VINA RESULT:    -5.464      2.071      7.091
REMARK INTER + INTRA:          -6.721
REMARK INTER:                  -6.403
REMARK INTRA:                  -0.318
REMARK UNBOUND:                -0.299
REMARK SMILES O=c1cc(-c2ccc(O)c(O)c2)oc2cc(O)cc(O)c12
REMARK SMILES IDX 4 1 3 2 2 3 1 4 21 5 19 6 18 7 16 8 15 9 14 10 13 11 5 12
REMARK SMILES IDX 6 13 7 14 8 15 12 16 10 17 9 18 11 20 20 22 17 24
REMARK H PARENT 9 19 11 21 20 23 17 25
REMARK Flexibility Score: inf
ROOT
ATOM      1  C   UNL     1       7.556  17.244  20.636  1.00  0.00     0.138 A 
ATOM      2  C   UNL     1       6.636  16.736  19.709  1.00  0.00     0.100 A 
ATOM      3  C   UNL     1       5.984  15.530  19.972  1.00  0.00     0.197 A 
ATOM      4  O   UNL     1       5.118  15.132  19.151  1.00  0.00    -0.289 OA
ATOM      5  C   UNL     1       6.281  14.815  21.157  1.00  0.00     0.107 A 
ATOM      6  C   UNL     1       5.708  13.557  21.511  1.00  0.00     0.134 A 
ATOM      7  C   UNL     1       5.989  12.999  22.765  1.00  0.00     0.093 A 
ATOM      8  C   UNL     1       6.868  13.623  23.651  1.00  0.00     0.123 A 
ATOM      9  C   UNL     1       7.475  14.827  23.293  1.00  0.00     0.094 A 
ATOM     10  C   UNL     1       7.188  15.427  22.063  1.00  0.00     0.146 A 
ATOM     11  O   UNL     1       7.776  16.580  21.765  1.00  0.00    -0.456 OA
ENDROOT
BRANCH   1  12
ATOM     12  C   UNL     1       8.279  18.521  20.405  1.00  0.00     0.021 A 
ATOM     13  C   UNL     1       7.989  19.344  19.300  1.00  0.00     0.016 A 
ATOM     14  C   UNL     1       8.691  20.536  19.101  1.00  0.00     0.051 A 
ATOM     15  C   UNL     1       9.698  20.921  19.995  1.00  0.00     0.157 A 
ATOM     16  C   UNL     1       9.300  18.909  21.291  1.00  0.00     0.062 A 
ATOM     17  C   UNL     1      10.004  20.105  21.091  1.00  0.00     0.158 A 
BRANCH  15  18
ATOM     18  O   UNL     1      10.399  22.109  19.801  1.00  0.00    -0.504 OA
ATOM     19  H   UNL     1       9.920  22.985  19.623  1.00  0.00     0.293 HD
ENDBRANCH  15  18
BRANCH  17  20
ATOM     20  O   UNL     1      11.009  20.489  21.977  1.00  0.00    -0.504 OA
ATOM     21  H   UNL     1      11.960  20.154  21.878  1.00  0.00     0.293 HD
ENDBRANCH  17  20
ENDBRANCH   1  12
BRANCH   6  22
ATOM     22  O   UNL     1       4.884  12.807  20.666  1.00  0.00    -0.507 OA
ATOM     23  H   UNL     1       5.174  11.985  20.160  1.00  0.00     0.293 HD
ENDBRANCH   6  22
BRANCH   8  24
ATOM     24  O   UNL     1       7.136  13.031  24.883  1.00  0.00    -0.508 OA
ATOM     25  H   UNL     1       6.699  12.158  25.158  1.00  0.00     0.293 HD
ENDBRANCH   8  24
TORSDOF 5
ENDMDL
MODEL 4
REMARK VINA RESULT:    -5.395      5.521      7.910
REMARK INTER + INTRA:          -6.640
REMARK INTER:                  -6.322
REMARK INTRA:                  -0.318
REMARK UNBOUND:                -0.299
REMARK SMILES O=c1cc(-c2ccc(O)c(O)c2)oc2cc(O)cc(O)c12
REMARK SMILES IDX 4 1 3 2 2 3 1 4 21 5 19 6 18 7 16 8 15 9 14 10 13 11 5 12
REMARK SMILES IDX 6 13 7 14 8 15 12 16 10 17 9 18 11 20 20 22 17 24
REMARK H PARENT 9 19 11 21 20 23 17 25
REMARK Flexibility Score: inf
ROOT
ATOM      1  C   UNL     1       8.161  22.312  25.145  1.00  0.00     0.138 A 
ATOM      2  C   UNL     1       9.092  23.295  24.782  1.00  0.00     0.100 A 
ATOM      3  C   UNL     1       9.874  23.116  23.639  1.00  0.00     0.197 A 
ATOM      4  O   UNL     1      10.657  24.042  23.304  1.00  0.00    -0.289 OA
ATOM      5  C   UNL     1       9.743  21.931  22.876  1.00  0.00     0.107 A 
ATOM      6  C   UNL     1      10.515  21.622  21.716  1.00  0.00     0.134 A 
ATOM      7  C   UNL     1      10.216  20.472  20.974  1.00  0.00     0.093 A 
ATOM      8  C   UNL     1       9.215  19.590  21.383  1.00  0.00     0.123 A 
ATOM      9  C   UNL     1       8.490  19.855  22.545  1.00  0.00     0.094 A 
ATOM     10  C   UNL     1       8.741  21.012  23.288  1.00  0.00     0.146 A 
ATOM     11  O   UNL     1       8.019  21.235  24.381  1.00  0.00    -0.456 OA
ENDROOT
BRANCH   1  12
ATOM     12  C   UNL     1       7.305  22.451  26.351  1.00  0.00     0.021 A 
ATOM     13  C   UNL     1       7.305  23.627  27.125  1.00  0.00     0.016 A 
ATOM     14  C   UNL     1       6.497  23.728  28.261  1.00  0.00     0.051 A 
ATOM     15  C   UNL     1       5.683  22.655  28.647  1.00  0.00     0.157 A 
ATOM     16  C   UNL     1       6.495  21.374  26.753  1.00  0.00     0.062 A 
ATOM     17  C   UNL     1       5.684  21.476  27.892  1.00  0.00     0.158 A 
BRANCH  15  18
ATOM     18  O   UNL     1       4.876  22.753  29.778  1.00  0.00    -0.504 OA
ATOM     19  H   UNL     1       4.721  23.639  30.245  1.00  0.00     0.293 HD
ENDBRANCH  15  18
BRANCH  17  20
ATOM     20  O   UNL     1       4.875  20.409  28.281  1.00  0.00    -0.504 OA
ATOM     21  H   UNL     1       4.116  20.079  27.696  1.00  0.00     0.293 HD
ENDBRANCH  17  20
ENDBRANCH   1  12
BRANCH   6  22
ATOM     22  O   UNL     1      11.594  22.390  21.268  1.00  0.00    -0.507 OA
ATOM     23  H   UNL     1      11.735  22.683  20.313  1.00  0.00     0.293 HD
ENDBRANCH   6  22
BRANCH   8  24
ATOM     24  O   UNL     1       8.956  18.448  20.629  1.00  0.00    -0.508 OA
ATOM     25  H   UNL     1       8.013  18.100  20.501  1.00  0.00     0.293 HD
ENDBRANCH   8  24
TORSDOF 5
ENDMDL
MODEL 5
REMARK VINA RESULT:    -5.265      2.058      7.102
REMARK INTER + INTRA:          -6.487
REMARK INTER:                  -6.197
REMARK INTRA:                  -0.290
REMARK UNBOUND:                -0.299
REMARK SMILES O=c1cc(-c2ccc(O)c(O)c2)oc2cc(O)cc(O)c12
REMARK SMILES IDX 4 1 3 2 2 3 1 4 21 5 19 6 18 7 16 8 15 9 14 10 13 11 5 12
REMARK SMILES IDX 6 13 7 14 8 15 12 16 10 17 9 18 11 20 20 22 17 24
REMARK H PARENT 9 19 11 21 20 23 17 25
REMARK Flexibility Score: inf
ROOT
ATOM      1  C   UNL     1       8.420  17.860  20.921  1.00  0.00     0.138 A 
ATOM      2  C   UNL     1       8.965  17.059  19.909  1.00  0.00     0.100 A 
ATOM      3  C   UNL     1       8.611  15.710  19.830  1.00  0.00     0.197 A 
ATOM      4  O   UNL     1       9.068  15.031  18.875  1.00  0.00    -0.289 OA
ATOM      5  C   UNL     1       7.730  15.158  20.791  1.00  0.00     0.107 A 
ATOM      6  C   UNL     1       7.330  13.789  20.833  1.00  0.00     0.134 A 
ATOM      7  C   UNL     1       6.362  13.381  21.760  1.00  0.00     0.093 A 
ATOM      8  C   UNL     1       5.825  14.279  22.683  1.00  0.00     0.123 A 
ATOM      9  C   UNL     1       6.248  15.608  22.685  1.00  0.00     0.094 A 
ATOM     10  C   UNL     1       7.187  16.053  21.751  1.00  0.00     0.146 A 
ATOM     11  O   UNL     1       7.554  17.330  21.776  1.00  0.00    -0.456 OA
ENDROOT
BRANCH   1  12
ATOM     12  C   UNL     1       8.764  19.300  21.051  1.00  0.00     0.021 A 
ATOM     13  C   UNL     1       8.554  20.004  22.252  1.00  0.00     0.016 A 
ATOM     14  C   UNL     1       8.877  21.360  22.344  1.00  0.00     0.051 A 
ATOM     15  C   UNL     1       9.406  22.037  21.239  1.00  0.00     0.157 A 
ATOM     16  C   UNL     1       9.283  19.991  19.942  1.00  0.00     0.062 A 
ATOM     17  C   UNL     1       9.608  21.352  20.035  1.00  0.00     0.158 A 
BRANCH  15  18
ATOM     18  O   UNL     1       9.730  23.390  21.328  1.00  0.00    -0.504 OA
ATOM     19  H   UNL     1       9.155  24.040  21.850  1.00  0.00     0.293 HD
ENDBRANCH  15  18
BRANCH  17  20
ATOM     20  O   UNL     1      10.131  22.030  18.935  1.00  0.00    -0.504 OA
ATOM     21  H   UNL     1      10.646  22.896  19.042  1.00  0.00     0.293 HD
ENDBRANCH  17  20
ENDBRANCH   1  12
BRANCH   6  22
ATOM     22  O   UNL     1       7.867  12.792  20.013  1.00  0.00    -0.507 OA
ATOM     23  H   UNL     1       7.332  12.062  19.568  1.00  0.00     0.293 HD
ENDBRANCH   6  22
BRANCH   8  24
ATOM     24  O   UNL     1       4.875  13.834  23.600  1.00  0.00    -0.508 OA
ATOM     25  H   UNL     1       4.869  14.165  24.558  1.00  0.00     0.293 HD
ENDBRANCH   8  24
TORSDOF 5
ENDMDL
MODEL 6
REMARK VINA RESULT:    -5.166      5.949      7.823
REMARK INTER + INTRA:          -6.371
REMARK INTER:                  -6.086
REMARK INTRA:                  -0.285
REMARK UNBOUND:                -0.299
REMARK SMILES O=c1cc(-c2ccc(O)c(O)c2)oc2cc(O)cc(O)c12
REMARK SMILES IDX 4 1 3 2 2 3 1 4 21 5 19 6 18 7 16 8 15 9 14 10 13 11 5 12
REMARK SMILES IDX 6 13 7 14 8 15 12 16 10 17 9 18 11 20 20 22 17 24
REMARK H PARENT 9 19 11 21 20 23 17 25
REMARK Flexibility Score: inf
ROOT
ATOM      1  C   UNL     1       7.662  22.009  24.742  1.00  0.00     0.138 A 
ATOM      2  C   UNL     1       7.079  21.163  23.789  1.00  0.00     0.100 A 
ATOM      3  C   UNL     1       7.713  20.965  22.561  1.00  0.00     0.197 A 
ATOM      4  O   UNL     1       7.197  20.153  21.751  1.00  0.00    -0.289 OA
ATOM      5  C   UNL     1       8.923  21.642  22.277  1.00  0.00     0.107 A 
ATOM      6  C   UNL     1       9.637  21.547  21.046  1.00  0.00     0.134 A 
ATOM      7  C   UNL     1      10.885  22.172  20.921  1.00  0.00     0.093 A 
ATOM      8  C   UNL     1      11.415  22.936  21.961  1.00  0.00     0.123 A 
ATOM      9  C   UNL     1      10.701  23.079  23.151  1.00  0.00     0.094 A 
ATOM     10  C   UNL     1       9.469  22.440  23.318  1.00  0.00     0.146 A 
ATOM     11  O   UNL     1       8.826  22.590  24.471  1.00  0.00    -0.456 OA
ENDROOT
BRANCH   1  12
ATOM     12  C   UNL     1       7.030  22.257  26.063  1.00  0.00     0.021 A 
ATOM     13  C   UNL     1       7.212  23.470  26.753  1.00  0.00     0.016 A 
ATOM     14  C   UNL     1       6.614  23.673  27.999  1.00  0.00     0.051 A 
ATOM     15  C   UNL     1       5.831  22.667  28.580  1.00  0.00     0.157 A 
ATOM     16  C   UNL     1       6.253  21.247  26.659  1.00  0.00     0.062 A 
ATOM     17  C   UNL     1       5.652  21.452  27.909  1.00  0.00     0.158 A 
BRANCH  15  18
ATOM     18  O   UNL     1       5.231  22.867  29.822  1.00  0.00    -0.504 OA
ATOM     19  H   UNL     1       5.571  23.570  30.467  1.00  0.00     0.293 HD
ENDBRANCH  15  18
BRANCH  17  20
ATOM     20  O   UNL     1       4.875  20.451  28.490  1.00  0.00    -0.504 OA
ATOM     21  H   UNL     1       4.754  20.391  29.495  1.00  0.00     0.293 HD
ENDBRANCH  17  20
ENDBRANCH   1  12
BRANCH   6  22
ATOM     22  O   UNL     1       9.159  20.880  19.914  1.00  0.00    -0.507 OA
ATOM     23  H   UNL     1       8.892  19.908  19.888  1.00  0.00     0.293 HD
ENDBRANCH   6  22
BRANCH   8  24
ATOM     24  O   UNL     1      12.652  23.556  21.796  1.00  0.00    -0.508 OA
ATOM     25  H   UNL     1      12.845  24.147  20.996  1.00  0.00     0.293 HD
ENDBRANCH   8  24
TORSDOF 5
ENDMDL
MODEL 7
REMARK VINA RESULT:    -5.136      3.516      5.613
REMARK INTER + INTRA:          -6.335
REMARK INTER:                  -6.022
REMARK INTRA:                  -0.314
REMARK UNBOUND:                -0.299
REMARK SMILES O=c1cc(-c2ccc(O)c(O)c2)oc2cc(O)cc(O)c12
REMARK SMILES IDX 4 1 3 2 2 3 1 4 21 5 19 6 18 7 16 8 15 9 14 10 13 11 5 12
REMARK SMILES IDX 6 13 7 14 8 15 12 16 10 17 9 18 11 20 20 22 17 24
REMARK H PARENT 9 19 11 21 20 23 17 25
REMARK Flexibility Score: inf
ROOT
ATOM      1  C   UNL     1       9.208  19.548  21.862  1.00  0.00     0.138 A 
ATOM      2  C   UNL     1      10.302  20.408  21.693  1.00  0.00     0.100 A 
ATOM      3  C   UNL     1      10.389  21.573  22.459  1.00  0.00     0.197 A 
ATOM      4  O   UNL     1      11.413  22.292  22.330  1.00  0.00    -0.289 OA
ATOM      5  C   UNL     1       9.358  21.891  23.374  1.00  0.00     0.107 A 
ATOM      6  C   UNL     1       9.321  23.069  24.177  1.00  0.00     0.134 A 
ATOM      7  C   UNL     1       8.308  23.221  25.134  1.00  0.00     0.093 A 
ATOM      8  C   UNL     1       7.300  22.267  25.273  1.00  0.00     0.123 A 
ATOM      9  C   UNL     1       7.297  21.137  24.456  1.00  0.00     0.094 A 
ATOM     10  C   UNL     1       8.313  20.939  23.517  1.00  0.00     0.146 A 
ATOM     11  O   UNL     1       8.282  19.843  22.767  1.00  0.00    -0.456 OA
ENDROOT
BRANCH   1  12
ATOM     12  C   UNL     1       9.065  18.297  21.074  1.00  0.00     0.021 A 
ATOM     13  C   UNL     1       9.769  18.098  19.870  1.00  0.00     0.016 A 
ATOM     14  C   UNL     1       9.608  16.916  19.143  1.00  0.00     0.051 A 
ATOM     15  C   UNL     1       8.738  15.918  19.599  1.00  0.00     0.157 A 
ATOM     16  C   UNL     1       8.184  17.296  21.518  1.00  0.00     0.062 A 
ATOM     17  C   UNL     1       8.023  16.109  20.788  1.00  0.00     0.158 A 
BRANCH  15  18
ATOM     18  O   UNL     1       8.576  14.737  18.877  1.00  0.00    -0.504 OA
ATOM     19  H   UNL     1       8.244  13.888  19.318  1.00  0.00     0.293 HD
ENDBRANCH  15  18
BRANCH  17  20
ATOM     20  O   UNL     1       7.155  15.116  21.238  1.00  0.00    -0.504 OA
ATOM     21  H   UNL     1       7.469  14.379  21.858  1.00  0.00     0.293 HD
ENDBRANCH  17  20
ENDBRANCH   1  12
BRANCH   6  22
ATOM     22  O   UNL     1      10.230  24.125  24.060  1.00  0.00    -0.507 OA
ATOM     23  H   UNL     1       9.979  25.084  23.873  1.00  0.00     0.293 HD
ENDBRANCH   6  22
BRANCH   8  24
ATOM     24  O   UNL     1       6.300  22.459  26.224  1.00  0.00    -0.508 OA
ATOM     25  H   UNL     1       6.487  22.362  27.216  1.00  0.00     0.293 HD
ENDBRANCH   8  24
TORSDOF 5
ENDMDL
MODEL 8
REMARK VINA RESULT:    -5.000      2.661      4.537
REMARK INTER + INTRA:          -6.176
REMARK INTER:                  -5.893
REMARK INTRA:                  -0.283
REMARK UNBOUND:                -0.299
REMARK SMILES O=c1cc(-c2ccc(O)c(O)c2)oc2cc(O)cc(O)c12
REMARK SMILES IDX 4 1 3 2 2 3 1 4 21 5 19 6 18 7 16 8 15 9 14 10 13 11 5 12
REMARK SMILES IDX 6 13 7 14 8 15 12 16 10 17 9 18 11 20 20 22 17 24
REMARK H PARENT 9 19 11 21 20 23 17 25
REMARK Flexibility Score: inf
ROOT
ATOM      1  C   UNL     1       8.241  18.634  20.304  1.00  0.00     0.138 A 
ATOM      2  C   UNL     1       7.318  19.425  19.606  1.00  0.00     0.100 A 
ATOM      3  C   UNL     1       7.464  20.814  19.600  1.00  0.00     0.197 A 
ATOM      4  O   UNL     1       6.656  21.492  18.914  1.00  0.00    -0.289 OA
ATOM      5  C   UNL     1       8.523  21.412  20.323  1.00  0.00     0.107 A 
ATOM      6  C   UNL     1       8.747  22.818  20.420  1.00  0.00     0.134 A 
ATOM      7  C   UNL     1       9.896  23.291  21.067  1.00  0.00     0.093 A 
ATOM      8  C   UNL     1      10.796  22.412  21.671  1.00  0.00     0.123 A 
ATOM      9  C   UNL     1      10.559  21.038  21.627  1.00  0.00     0.094 A 
ATOM     10  C   UNL     1       9.440  20.534  20.960  1.00  0.00     0.146 A 
ATOM     11  O   UNL     1       9.257  19.218  20.929  1.00  0.00    -0.456 OA
ENDROOT
BRANCH   1  12
ATOM     12  C   UNL     1       8.132  17.153  20.345  1.00  0.00     0.021 A 
ATOM     13  C   UNL     1       8.028  16.387  19.168  1.00  0.00     0.016 A 
ATOM     14  C   UNL     1       7.917  14.996  19.235  1.00  0.00     0.051 A 
ATOM     15  C   UNL     1       7.898  14.348  20.476  1.00  0.00     0.157 A 
ATOM     16  C   UNL     1       8.099  16.495  21.587  1.00  0.00     0.062 A 
ATOM     17  C   UNL     1       7.988  15.099  21.654  1.00  0.00     0.158 A 
BRANCH  15  18
ATOM     18  O   UNL     1       7.788  12.961  20.547  1.00  0.00    -0.504 OA
ATOM     19  H   UNL     1       6.954  12.478  20.235  1.00  0.00     0.293 HD
ENDBRANCH  15  18
BRANCH  17  20
ATOM     20  O   UNL     1       7.966  14.451  22.888  1.00  0.00    -0.504 OA
ATOM     21  H   UNL     1       7.094  14.231  23.356  1.00  0.00     0.293 HD
ENDBRANCH  17  20
ENDBRANCH   1  12
BRANCH   6  22
ATOM     22  O   UNL     1       7.867  23.786  19.927  1.00  0.00    -0.507 OA
ATOM     23  H   UNL     1       6.883  23.638  19.758  1.00  0.00     0.293 HD
ENDBRANCH   6  22
BRANCH   8  24
ATOM     24  O   UNL     1      11.920  22.919  22.319  1.00  0.00    -0.508 OA
ATOM     25  H   UNL     1      12.846  22.842  21.913  1.00  0.00     0.293 HD
ENDBRANCH   8  24
TORSDOF 5
ENDMDL
MODEL 9
REMARK VINA RESULT:    -4.988      2.234      3.321
REMARK INTER + INTRA:          -6.161
REMARK INTER:                  -5.899
REMARK INTRA:                  -0.262
REMARK UNBOUND:                -0.299
REMARK SMILES O=c1cc(-c2ccc(O)c(O)c2)oc2cc(O)cc(O)c12
REMARK SMILES IDX 4 1 3 2 2 3 1 4 21 5 19 6 18 7 16 8 15 9 14 10 13 11 5 12
REMARK SMILES IDX 6 13 7 14 8 15 12 16 10 17 9 18 11 20 20 22 17 24
REMARK H PARENT 9 19 11 21 20 23 17 25
REMARK Flexibility Score: inf
ROOT
ATOM      1  C   UNL     1       7.658  17.625  21.044  1.00  0.00     0.138 A 
ATOM      2  C   UNL     1       6.941  18.353  20.084  1.00  0.00     0.100 A 
ATOM      3  C   UNL     1       7.271  19.688  19.843  1.00  0.00     0.197 A 
ATOM      4  O   UNL     1       6.651  20.297  18.933  1.00  0.00    -0.289 OA
ATOM      5  C   UNL     1       8.303  20.303  20.589  1.00  0.00     0.107 A 
ATOM      6  C   UNL     1       8.699  21.668  20.457  1.00  0.00     0.134 A 
ATOM      7  C   UNL     1       9.813  22.136  21.167  1.00  0.00     0.093 A 
ATOM      8  C   UNL     1      10.507  21.306  22.047  1.00  0.00     0.123 A 
ATOM      9  C   UNL     1      10.096  19.985  22.225  1.00  0.00     0.094 A 
ATOM     10  C   UNL     1       9.010  19.478  21.505  1.00  0.00     0.146 A 
ATOM     11  O   UNL     1       8.659  18.211  21.692  1.00  0.00    -0.456 OA
ENDROOT
BRANCH   1  12
ATOM     12  C   UNL     1       7.348  16.203  21.342  1.00  0.00     0.021 A 
ATOM     13  C   UNL     1       8.080  15.150  20.759  1.00  0.00     0.016 A 
ATOM     14  C   UNL     1       7.761  13.821  21.049  1.00  0.00     0.051 A 
ATOM     15  C   UNL     1       6.703  13.521  21.916  1.00  0.00     0.157 A 
ATOM     16  C   UNL     1       6.280  15.892  22.201  1.00  0.00     0.062 A 
ATOM     17  C   UNL     1       5.960  14.558  22.492  1.00  0.00     0.158 A 
BRANCH  15  18
ATOM     18  O   UNL     1       6.383  12.196  22.208  1.00  0.00    -0.504 OA
ATOM     19  H   UNL     1       6.677  11.435  21.608  1.00  0.00     0.293 HD
ENDBRANCH  15  18
BRANCH  17  20
ATOM     20  O   UNL     1       4.906  14.256  23.353  1.00  0.00    -0.504 OA
ATOM     21  H   UNL     1       5.014  14.303  24.359  1.00  0.00     0.293 HD
ENDBRANCH  17  20
ENDBRANCH   1  12
BRANCH   6  22
ATOM     22  O   UNL     1       8.023  22.605  19.670  1.00  0.00    -0.507 OA
ATOM     23  H   UNL     1       8.370  23.524  19.443  1.00  0.00     0.293 HD
ENDBRANCH   6  22
BRANCH   8  24
ATOM     24  O   UNL     1      11.600  21.810  22.748  1.00  0.00    -0.508 OA
ATOM     25  H   UNL     1      12.147  21.225  23.370  1.00  0.00     0.293 HD
ENDBRANCH   8  24
TORSDOF 5
ENDMDL
