MODEL 1
REMARK VINA RESULT:    -7.634      0.000      0.000
REMARK INTER + INTRA:          -9.126
REMARK INTER:                  -8.973
REMARK INTRA:                  -0.154
REMARK UNBOUND:                -0.154
REMARK SMILES O=c1c(O)c(-c2ccc(O)cc2)oc2cc(O)cc(O)c12
REMARK SMILES IDX 5 1 3 2 2 3 1 4 21 5 19 6 18 7 16 8 15 9 14 10 13 11 6 12
REMARK SMILES IDX 7 13 8 14 9 15 12 16 11 17 10 18 4 20 20 22 17 24
REMARK H PARENT 10 19 4 21 20 23 17 25
REMARK Flexibility Score: inf
ROOT
ATOM      1  C   UNL     1       1.963  45.707   2.637  1.00  0.00     0.180 A 
ATOM      2  C   UNL     1       1.497  45.202   1.408  1.00  0.00     0.208 A 
ATOM      3  C   UNL     1       0.131  44.913   1.268  1.00  0.00     0.238 A 
ATOM      4  O   UNL     1      -0.301  44.470   0.168  1.00  0.00    -0.285 OA
ATOM      5  C   UNL     1      -0.741  45.114   2.359  1.00  0.00     0.111 A 
ATOM      6  C   UNL     1      -2.129  44.845   2.302  1.00  0.00     0.134 A 
ATOM      7  C   UNL     1      -2.927  45.062   3.435  1.00  0.00     0.093 A 
ATOM      8  C   UNL     1      -2.363  45.543   4.623  1.00  0.00     0.123 A 
ATOM      9  C   UNL     1      -0.994  45.811   4.683  1.00  0.00     0.094 A 
ATOM     10  C   UNL     1      -0.182  45.602   3.564  1.00  0.00     0.146 A 
ATOM     11  O   UNL     1       1.115  45.870   3.649  1.00  0.00    -0.452 OA
ENDROOT
BRANCH   1  12
ATOM     12  C   UNL     1       3.386  46.054   2.856  1.00  0.00     0.021 A 
ATOM     13  C   UNL     1       4.011  47.083   2.129  1.00  0.00     0.016 A 
ATOM     14  C   UNL     1       5.350  47.407   2.371  1.00  0.00     0.047 A 
ATOM     15  C   UNL     1       6.075  46.721   3.349  1.00  0.00     0.115 A 
ATOM     16  C   UNL     1       4.116  45.382   3.852  1.00  0.00     0.016 A 
ATOM     17  C   UNL     1       5.454  45.708   4.091  1.00  0.00     0.047 A 
BRANCH  15  18
ATOM     18  O   UNL     1       7.408  47.054   3.578  1.00  0.00    -0.508 OA
ATOM     19  H   UNL     1       7.866  47.793   3.058  1.00  0.00     0.293 HD
ENDBRANCH  15  18
ENDBRANCH   1  12
BRANCH   2  20
ATOM     20  O   UNL     1       2.387  44.965   0.359  1.00  0.00    -0.502 OA
ATOM     21  H   UNL     1       2.658  45.688  -0.298  1.00  0.00     0.293 HD
ENDBRANCH   2  20
BRANCH   6  22
ATOM     22  O   UNL     1      -2.720  44.364   1.133  1.00  0.00    -0.507 OA
ATOM     23  H   UNL     1      -2.882  43.375   0.986  1.00  0.00     0.293 HD
ENDBRANCH   6  22
BRANCH   8  24
ATOM     24  O   UNL     1      -3.156  45.759   5.748  1.00  0.00    -0.508 OA
ATOM     25  H   UNL     1      -3.054  46.592   6.315  1.00  0.00     0.293 HD
ENDBRANCH   8  24
TORSDOF 5
ENDMDL
MODEL 2
REMARK VINA RESULT:    -7.287      1.713      3.776
REMARK INTER + INTRA:          -8.719
REMARK INTER:                  -8.562
REMARK INTRA:                  -0.157
REMARK UNBOUND:                -0.154
REMARK SMILES O=c1c(O)c(-c2ccc(O)cc2)oc2cc(O)cc(O)c12
REMARK SMILES IDX 5 1 3 2 2 3 1 4 21 5 19 6 18 7 16 8 15 9 14 10 13 11 6 12
REMARK SMILES IDX 7 13 8 14 9 15 12 16 11 17 10 18 4 20 20 22 17 24
REMARK H PARENT 10 19 4 21 20 23 17 25
REMARK Flexibility Score: inf
ROOT
ATOM      1  C   UNL     1       1.991  45.415   2.487  1.00  0.00     0.180 A 
ATOM      2  C   UNL     1       0.764  45.680   3.126  1.00  0.00     0.208 A 
ATOM      3  C   UNL     1      -0.420  45.613   2.376  1.00  0.00     0.238 A 
ATOM      4  O   UNL     1      -1.526  45.838   2.940  1.00  0.00    -0.285 OA
ATOM      5  C   UNL     1      -0.359  45.303   1.001  1.00  0.00     0.111 A 
ATOM      6  C   UNL     1      -1.504  45.219   0.174  1.00  0.00     0.134 A 
ATOM      7  C   UNL     1      -1.358  44.915  -1.187  1.00  0.00     0.093 A 
ATOM      8  C   UNL     1      -0.090  44.692  -1.737  1.00  0.00     0.123 A 
ATOM      9  C   UNL     1       1.042  44.773  -0.924  1.00  0.00     0.094 A 
ATOM     10  C   UNL     1       0.918  45.074   0.436  1.00  0.00     0.146 A 
ATOM     11  O   UNL     1       2.012  45.140   1.186  1.00  0.00    -0.452 OA
ENDROOT
BRANCH   1  12
ATOM     12  C   UNL     1       3.280  45.447   3.214  1.00  0.00     0.021 A 
ATOM     13  C   UNL     1       3.564  44.533   4.245  1.00  0.00     0.016 A 
ATOM     14  C   UNL     1       4.798  44.569   4.901  1.00  0.00     0.047 A 
ATOM     15  C   UNL     1       5.767  45.503   4.528  1.00  0.00     0.115 A 
ATOM     16  C   UNL     1       4.268  46.371   2.830  1.00  0.00     0.016 A 
ATOM     17  C   UNL     1       5.500  46.403   3.489  1.00  0.00     0.047 A 
BRANCH  15  18
ATOM     18  O   UNL     1       6.992  45.528   5.191  1.00  0.00    -0.508 OA
ATOM     19  H   UNL     1       7.660  46.274   5.043  1.00  0.00     0.293 HD
ENDBRANCH  15  18
ENDBRANCH   1  12
BRANCH   2  20
ATOM     20  O   UNL     1       0.734  46.033   4.477  1.00  0.00    -0.502 OA
ATOM     21  H   UNL     1       1.078  46.926   4.813  1.00  0.00     0.293 HD
ENDBRANCH   2  20
BRANCH   6  22
ATOM     22  O   UNL     1      -2.781  45.436   0.692  1.00  0.00    -0.507 OA
ATOM     23  H   UNL     1      -2.932  45.997   1.522  1.00  0.00     0.293 HD
ENDBRANCH   6  22
BRANCH   8  24
ATOM     24  O   UNL     1       0.055  44.390  -3.089  1.00  0.00    -0.508 OA
ATOM     25  H   UNL     1       0.069  45.117  -3.795  1.00  0.00     0.293 HD
ENDBRANCH   8  24
TORSDOF 5
ENDMDL
MODEL 3
REMARK VINA RESULT:    -7.260      5.975      8.154
REMARK INTER + INTRA:          -8.687
REMARK INTER:                  -8.684
REMARK INTRA:                  -0.003
REMARK UNBOUND:                -0.154
REMARK SMILES O=c1c(O)c(-c2ccc(O)cc2)oc2cc(O)cc(O)c12
REMARK SMILES IDX 5 1 3 2 2 3 1 4 21 5 19 6 18 7 16 8 15 9 14 10 13 11 6 12
REMARK SMILES IDX 7 13 8 14 9 15 12 16 11 17 10 18 4 20 20 22 17 24
REMARK H PARENT 10 19 4 21 20 23 17 25
REMARK Flexibility Score: inf
ROOT
ATOM      1  C   UNL     1       7.432  46.508   3.597  1.00  0.00     0.180 A 
ATOM      2  C   UNL     1       8.769  46.450   3.158  1.00  0.00     0.208 A 
ATOM      3  C   UNL     1       9.089  46.962   1.890  1.00  0.00     0.238 A 
ATOM      4  O   UNL     1      10.285  46.925   1.490  1.00  0.00    -0.285 OA
ATOM      5  C   UNL     1       8.070  47.503   1.079  1.00  0.00     0.111 A 
ATOM      6  C   UNL     1       8.309  48.036  -0.211  1.00  0.00     0.134 A 
ATOM      7  C   UNL     1       7.239  48.548  -0.960  1.00  0.00     0.093 A 
ATOM      8  C   UNL     1       5.938  48.537  -0.445  1.00  0.00     0.123 A 
ATOM      9  C   UNL     1       5.699  48.013   0.827  1.00  0.00     0.094 A 
ATOM     10  C   UNL     1       6.751  47.500   1.590  1.00  0.00     0.146 A 
ATOM     11  O   UNL     1       6.495  47.012   2.798  1.00  0.00    -0.452 OA
ENDROOT
BRANCH   1  12
ATOM     12  C   UNL     1       7.019  46.006   4.927  1.00  0.00     0.021 A 
ATOM     13  C   UNL     1       7.685  46.404   6.101  1.00  0.00     0.016 A 
ATOM     14  C   UNL     1       7.260  45.935   7.348  1.00  0.00     0.047 A 
ATOM     15  C   UNL     1       6.161  45.078   7.441  1.00  0.00     0.115 A 
ATOM     16  C   UNL     1       5.900  45.161   5.030  1.00  0.00     0.016 A 
ATOM     17  C   UNL     1       5.480  44.693   6.279  1.00  0.00     0.047 A 
BRANCH  15  18
ATOM     18  O   UNL     1       5.750  44.618   8.690  1.00  0.00    -0.508 OA
ATOM     19  H   UNL     1       6.414  44.442   9.435  1.00  0.00     0.293 HD
ENDBRANCH  15  18
ENDBRANCH   1  12
BRANCH   2  20
ATOM     20  O   UNL     1       9.750  45.864   3.959  1.00  0.00    -0.502 OA
ATOM     21  H   UNL     1      10.612  46.340   4.199  1.00  0.00     0.293 HD
ENDBRANCH   2  20
BRANCH   6  22
ATOM     22  O   UNL     1       9.594  48.060  -0.752  1.00  0.00    -0.507 OA
ATOM     23  H   UNL     1      10.014  48.917  -1.092  1.00  0.00     0.293 HD
ENDBRANCH   6  22
BRANCH   8  24
ATOM     24  O   UNL     1       4.875  49.045  -1.190  1.00  0.00    -0.508 OA
ATOM     25  H   UNL     1       4.187  49.663  -0.776  1.00  0.00     0.293 HD
ENDBRANCH   8  24
TORSDOF 5
ENDMDL
MODEL 4
REMARK VINA RESULT:    -7.225      5.658      7.379
REMARK INTER + INTRA:          -8.646
REMARK INTER:                  -8.653
REMARK INTRA:                   0.007
REMARK UNBOUND:                -0.154
REMARK SMILES O=c1c(O)c(-c2ccc(O)cc2)oc2cc(O)cc(O)c12
REMARK SMILES IDX 5 1 3 2 2 3 1 4 21 5 19 6 18 7 16 8 15 9 14 10 13 11 6 12
REMARK SMILES IDX 7 13 8 14 9 15 12 16 11 17 10 18 4 20 20 22 17 24
REMARK H PARENT 10 19 4 21 20 23 17 25
REMARK Flexibility Score: inf
ROOT
ATOM      1  C   UNL     1       7.033  45.996   5.187  1.00  0.00     0.180 A 
ATOM      2  C   UNL     1       7.756  46.324   6.349  1.00  0.00     0.208 A 
ATOM      3  C   UNL     1       7.327  45.810   7.583  1.00  0.00     0.238 A 
ATOM      4  O   UNL     1       7.973  46.088   8.631  1.00  0.00    -0.285 OA
ATOM      5  C   UNL     1       6.176  44.996   7.638  1.00  0.00     0.111 A 
ATOM      6  C   UNL     1       5.676  44.441   8.840  1.00  0.00     0.134 A 
ATOM      7  C   UNL     1       4.519  43.649   8.811  1.00  0.00     0.093 A 
ATOM      8  C   UNL     1       3.853  43.401   7.605  1.00  0.00     0.123 A 
ATOM      9  C   UNL     1       4.344  43.946   6.417  1.00  0.00     0.094 A 
ATOM     10  C   UNL     1       5.497  44.737   6.424  1.00  0.00     0.146 A 
ATOM     11  O   UNL     1       5.943  45.238   5.279  1.00  0.00    -0.452 OA
ENDROOT
BRANCH   1  12
ATOM     12  C   UNL     1       7.433  46.483   3.847  1.00  0.00     0.021 A 
ATOM     13  C   UNL     1       8.752  46.343   3.380  1.00  0.00     0.016 A 
ATOM     14  C   UNL     1       9.100  46.791   2.101  1.00  0.00     0.047 A 
ATOM     15  C   UNL     1       8.136  47.368   1.271  1.00  0.00     0.115 A 
ATOM     16  C   UNL     1       6.464  47.046   2.998  1.00  0.00     0.016 A 
ATOM     17  C   UNL     1       6.815  47.492   1.721  1.00  0.00     0.047 A 
BRANCH  15  18
ATOM     18  O   UNL     1       8.497  47.810   0.000  1.00  0.00    -0.508 OA
ATOM     19  H   UNL     1       8.741  48.778  -0.175  1.00  0.00     0.293 HD
ENDBRANCH  15  18
ENDBRANCH   1  12
BRANCH   2  20
ATOM     20  O   UNL     1       8.863  47.172   6.276  1.00  0.00    -0.502 OA
ATOM     21  H   UNL     1       9.044  47.890   6.968  1.00  0.00     0.293 HD
ENDBRANCH   2  20
BRANCH   6  22
ATOM     22  O   UNL     1       6.316  44.671  10.058  1.00  0.00    -0.507 OA
ATOM     23  H   UNL     1       7.218  45.131  10.109  1.00  0.00     0.293 HD
ENDBRANCH   6  22
BRANCH   8  24
ATOM     24  O   UNL     1       2.704  42.614   7.577  1.00  0.00    -0.508 OA
ATOM     25  H   UNL     1       1.972  42.722   8.269  1.00  0.00     0.293 HD
ENDBRANCH   8  24
TORSDOF 5
ENDMDL
MODEL 5
REMARK VINA RESULT:    -7.078      2.075      6.680
REMARK INTER + INTRA:          -8.473
REMARK INTER:                  -8.281
REMARK INTRA:                  -0.192
REMARK UNBOUND:                -0.154
REMARK SMILES O=c1c(O)c(-c2ccc(O)cc2)oc2cc(O)cc(O)c12
REMARK SMILES IDX 5 1 3 2 2 3 1 4 21 5 19 6 18 7 16 8 15 9 14 10 13 11 6 12
REMARK SMILES IDX 7 13 8 14 9 15 12 16 11 17 10 18 4 20 20 22 17 24
REMARK H PARENT 10 19 4 21 20 23 17 25
REMARK Flexibility Score: inf
ROOT
ATOM      1  C   UNL     1       3.025  45.478   2.717  1.00  0.00     0.180 A 
ATOM      2  C   UNL     1       4.010  46.368   2.246  1.00  0.00     0.208 A 
ATOM      3  C   UNL     1       5.191  46.528   2.988  1.00  0.00     0.238 A 
ATOM      4  O   UNL     1       6.085  47.314   2.571  1.00  0.00    -0.285 OA
ATOM      5  C   UNL     1       5.358  45.815   4.194  1.00  0.00     0.111 A 
ATOM      6  C   UNL     1       6.515  45.923   5.003  1.00  0.00     0.134 A 
ATOM      7  C   UNL     1       6.602  45.188   6.194  1.00  0.00     0.093 A 
ATOM      8  C   UNL     1       5.555  44.348   6.592  1.00  0.00     0.123 A 
ATOM      9  C   UNL     1       4.413  44.239   5.796  1.00  0.00     0.094 A 
ATOM     10  C   UNL     1       4.307  44.962   4.605  1.00  0.00     0.146 A 
ATOM     11  O   UNL     1       3.212  44.835   3.866  1.00  0.00    -0.452 OA
ENDROOT
BRANCH   1  12
ATOM     12  C   UNL     1       1.762  45.241   1.981  1.00  0.00     0.021 A 
ATOM     13  C   UNL     1       1.750  44.580   0.740  1.00  0.00     0.016 A 
ATOM     14  C   UNL     1       0.542  44.347   0.075  1.00  0.00     0.047 A 
ATOM     15  C   UNL     1      -0.666  44.755   0.646  1.00  0.00     0.115 A 
ATOM     16  C   UNL     1       0.542  45.630   2.559  1.00  0.00     0.016 A 
ATOM     17  C   UNL     1      -0.664  45.396   1.892  1.00  0.00     0.047 A 
BRANCH  15  18
ATOM     18  O   UNL     1      -1.861  44.517  -0.028  1.00  0.00    -0.508 OA
ATOM     19  H   UNL     1      -2.495  45.271  -0.266  1.00  0.00     0.293 HD
ENDBRANCH  15  18
ENDBRANCH   1  12
BRANCH   2  20
ATOM     20  O   UNL     1       3.799  47.099   1.075  1.00  0.00    -0.502 OA
ATOM     21  H   UNL     1       2.878  47.224   0.671  1.00  0.00     0.293 HD
ENDBRANCH   2  20
BRANCH   6  22
ATOM     22  O   UNL     1       7.575  46.752   4.634  1.00  0.00    -0.507 OA
ATOM     23  H   UNL     1       8.361  46.921   5.252  1.00  0.00     0.293 HD
ENDBRANCH   6  22
BRANCH   8  24
ATOM     24  O   UNL     1       5.641  43.618   7.775  1.00  0.00    -0.508 OA
ATOM     25  H   UNL     1       6.519  43.510   8.268  1.00  0.00     0.293 HD
ENDBRANCH   8  24
TORSDOF 5
ENDMDL
MODEL 6
REMARK VINA RESULT:    -6.980      5.163      6.842
REMARK INTER + INTRA:          -8.357
REMARK INTER:                  -8.395
REMARK INTRA:                   0.038
REMARK UNBOUND:                -0.154
REMARK SMILES O=c1c(O)c(-c2ccc(O)cc2)oc2cc(O)cc(O)c12
REMARK SMILES IDX 5 1 3 2 2 3 1 4 21 5 19 6 18 7 16 8 15 9 14 10 13 11 6 12
REMARK SMILES IDX 7 13 8 14 9 15 12 16 11 17 10 18 4 20 20 22 17 24
REMARK H PARENT 10 19 4 21 20 23 17 25
REMARK Flexibility Score: inf
ROOT
ATOM      1  C   UNL     1       5.942  45.283   5.609  1.00  0.00     0.180 A 
ATOM      2  C   UNL     1       4.816  44.458   5.430  1.00  0.00     0.208 A 
ATOM      3  C   UNL     1       4.204  43.891   6.559  1.00  0.00     0.238 A 
ATOM      4  O   UNL     1       3.187  43.158   6.412  1.00  0.00    -0.285 OA
ATOM      5  C   UNL     1       4.737  44.141   7.841  1.00  0.00     0.111 A 
ATOM      6  C   UNL     1       4.182  43.606   9.028  1.00  0.00     0.134 A 
ATOM      7  C   UNL     1       4.778  43.894  10.265  1.00  0.00     0.093 A 
ATOM      8  C   UNL     1       5.916  44.706  10.337  1.00  0.00     0.123 A 
ATOM      9  C   UNL     1       6.465  45.237   9.168  1.00  0.00     0.094 A 
ATOM     10  C   UNL     1       5.886  44.963   7.926  1.00  0.00     0.146 A 
ATOM     11  O   UNL     1       6.426  45.484   6.832  1.00  0.00    -0.452 OA
ENDROOT
BRANCH   1  12
ATOM     12  C   UNL     1       6.631  45.932   4.470  1.00  0.00     0.021 A 
ATOM     13  C   UNL     1       5.914  46.623   3.477  1.00  0.00     0.016 A 
ATOM     14  C   UNL     1       6.589  47.247   2.423  1.00  0.00     0.047 A 
ATOM     15  C   UNL     1       7.984  47.204   2.357  1.00  0.00     0.115 A 
ATOM     16  C   UNL     1       8.035  45.910   4.408  1.00  0.00     0.016 A 
ATOM     17  C   UNL     1       8.706  46.536   3.354  1.00  0.00     0.047 A 
BRANCH  15  18
ATOM     18  O   UNL     1       8.643  47.830   1.301  1.00  0.00    -0.508 OA
ATOM     19  H   UNL     1       8.388  48.762   0.996  1.00  0.00     0.293 HD
ENDBRANCH  15  18
ENDBRANCH   1  12
BRANCH   2  20
ATOM     20  O   UNL     1       4.337  44.185   4.147  1.00  0.00    -0.502 OA
ATOM     21  H   UNL     1       4.865  43.643   3.473  1.00  0.00     0.293 HD
ENDBRANCH   2  20
BRANCH   6  22
ATOM     22  O   UNL     1       3.050  42.792   8.989  1.00  0.00    -0.507 OA
ATOM     23  H   UNL     1       2.119  43.178   8.884  1.00  0.00     0.293 HD
ENDBRANCH   6  22
BRANCH   8  24
ATOM     24  O   UNL     1       6.507  44.992  11.566  1.00  0.00    -0.508 OA
ATOM     25  H   UNL     1       5.964  45.340  12.346  1.00  0.00     0.293 HD
ENDBRANCH   8  24
TORSDOF 5
ENDMDL
MODEL 7
REMARK VINA RESULT:    -6.827      8.891     10.646
REMARK INTER + INTRA:          -8.178
REMARK INTER:                  -7.881
REMARK INTRA:                  -0.298
REMARK UNBOUND:                -0.154
REMARK SMILES O=c1c(O)c(-c2ccc(O)cc2)oc2cc(O)cc(O)c12
REMARK SMILES IDX 5 1 3 2 2 3 1 4 21 5 19 6 18 7 16 8 15 9 14 10 13 11 6 12
REMARK SMILES IDX 7 13 8 14 9 15 12 16 11 17 10 18 4 20 20 22 17 24
REMARK H PARENT 10 19 4 21 20 23 17 25
REMARK Flexibility Score: inf
ROOT
ATOM      1  C   UNL     1       5.088  40.909   9.403  1.00  0.00     0.180 A 
ATOM      2  C   UNL     1       5.469  40.456   8.125  1.00  0.00     0.208 A 
ATOM      3  C   UNL     1       5.852  39.115   7.966  1.00  0.00     0.238 A 
ATOM      4  O   UNL     1       6.185  38.695   6.825  1.00  0.00    -0.285 OA
ATOM      5  C   UNL     1       5.865  38.256   9.086  1.00  0.00     0.111 A 
ATOM      6  C   UNL     1       6.240  36.894   9.012  1.00  0.00     0.134 A 
ATOM      7  C   UNL     1       6.237  36.108  10.174  1.00  0.00     0.093 A 
ATOM      8  C   UNL     1       5.865  36.658  11.406  1.00  0.00     0.123 A 
ATOM      9  C   UNL     1       5.494  38.002  11.483  1.00  0.00     0.094 A 
ATOM     10  C   UNL     1       5.489  38.802  10.336  1.00  0.00     0.146 A 
ATOM     11  O   UNL     1       5.127  40.075  10.438  1.00  0.00    -0.452 OA
ENDROOT
BRANCH   1  12
ATOM     12  C   UNL     1       4.654  42.304   9.646  1.00  0.00     0.021 A 
ATOM     13  C   UNL     1       3.306  42.685   9.520  1.00  0.00     0.016 A 
ATOM     14  C   UNL     1       2.918  44.004   9.779  1.00  0.00     0.047 A 
ATOM     15  C   UNL     1       3.864  44.951  10.179  1.00  0.00     0.115 A 
ATOM     16  C   UNL     1       5.597  43.256  10.069  1.00  0.00     0.016 A 
ATOM     17  C   UNL     1       5.205  44.573  10.326  1.00  0.00     0.047 A 
BRANCH  15  18
ATOM     18  O   UNL     1       3.463  46.261  10.432  1.00  0.00    -0.508 OA
ATOM     19  H   UNL     1       2.555  46.603  10.139  1.00  0.00     0.293 HD
ENDBRANCH  15  18
ENDBRANCH   1  12
BRANCH   2  20
ATOM     20  O   UNL     1       5.495  41.338   7.042  1.00  0.00    -0.502 OA
ATOM     21  H   UNL     1       4.657  41.607   6.540  1.00  0.00     0.293 HD
ENDBRANCH   2  20
BRANCH   6  22
ATOM     22  O   UNL     1       6.616  36.316   7.799  1.00  0.00    -0.507 OA
ATOM     23  H   UNL     1       6.247  35.422   7.496  1.00  0.00     0.293 HD
ENDBRANCH   6  22
BRANCH   8  24
ATOM     24  O   UNL     1       5.862  35.877  12.560  1.00  0.00    -0.508 OA
ATOM     25  H   UNL     1       5.628  36.270  13.464  1.00  0.00     0.293 HD
ENDBRANCH   8  24
TORSDOF 5
ENDMDL
MODEL 8
REMARK VINA RESULT:    -6.754      5.398      8.462
REMARK INTER + INTRA:          -8.092
REMARK INTER:                  -8.084
REMARK INTRA:                  -0.008
REMARK UNBOUND:                -0.154
REMARK SMILES O=c1c(O)c(-c2ccc(O)cc2)oc2cc(O)cc(O)c12
REMARK SMILES IDX 5 1 3 2 2 3 1 4 21 5 19 6 18 7 16 8 15 9 14 10 13 11 6 12
REMARK SMILES IDX 7 13 8 14 9 15 12 16 11 17 10 18 4 20 20 22 17 24
REMARK H PARENT 10 19 4 21 20 23 17 25
REMARK Flexibility Score: inf
ROOT
ATOM      1  C   UNL     1       6.849  46.706   3.083  1.00  0.00     0.180 A 
ATOM      2  C   UNL     1       5.894  47.392   2.308  1.00  0.00     0.208 A 
ATOM      3  C   UNL     1       6.287  47.940   1.076  1.00  0.00     0.238 A 
ATOM      4  O   UNL     1       5.438  48.547   0.368  1.00  0.00    -0.285 OA
ATOM      5  C   UNL     1       7.626  47.812   0.651  1.00  0.00     0.111 A 
ATOM      6  C   UNL     1       8.103  48.337  -0.574  1.00  0.00     0.134 A 
ATOM      7  C   UNL     1       9.453  48.177  -0.920  1.00  0.00     0.093 A 
ATOM      8  C   UNL     1      10.332  47.500  -0.067  1.00  0.00     0.123 A 
ATOM      9  C   UNL     1       9.865  46.979   1.141  1.00  0.00     0.094 A 
ATOM     10  C   UNL     1       8.523  47.128   1.505  1.00  0.00     0.146 A 
ATOM     11  O   UNL     1       8.106  46.619   2.657  1.00  0.00    -0.452 OA
ENDROOT
BRANCH   1  12
ATOM     12  C   UNL     1       6.507  46.085   4.383  1.00  0.00     0.021 A 
ATOM     13  C   UNL     1       5.412  45.213   4.513  1.00  0.00     0.016 A 
ATOM     14  C   UNL     1       5.123  44.620   5.747  1.00  0.00     0.047 A 
ATOM     15  C   UNL     1       5.931  44.876   6.857  1.00  0.00     0.115 A 
ATOM     16  C   UNL     1       7.328  46.322   5.499  1.00  0.00     0.016 A 
ATOM     17  C   UNL     1       7.037  45.728   6.730  1.00  0.00     0.047 A 
BRANCH  15  18
ATOM     18  O   UNL     1       5.631  44.279   8.080  1.00  0.00    -0.508 OA
ATOM     19  H   UNL     1       4.676  44.183   8.402  1.00  0.00     0.293 HD
ENDBRANCH  15  18
ENDBRANCH   1  12
BRANCH   2  20
ATOM     20  O   UNL     1       4.587  47.548   2.773  1.00  0.00    -0.502 OA
ATOM     21  H   UNL     1       4.338  47.422   3.748  1.00  0.00     0.293 HD
ENDBRANCH   2  20
BRANCH   6  22
ATOM     22  O   UNL     1       7.251  49.018  -1.444  1.00  0.00    -0.507 OA
ATOM     23  H   UNL     1       6.245  48.895  -1.411  1.00  0.00     0.293 HD
ENDBRANCH   6  22
BRANCH   8  24
ATOM     24  O   UNL     1      11.673  47.341  -0.412  1.00  0.00    -0.508 OA
ATOM     25  H   UNL     1      12.413  47.468   0.268  1.00  0.00     0.293 HD
ENDBRANCH   8  24
TORSDOF 5
ENDMDL
MODEL 9
REMARK VINA RESULT:    -6.700      8.609     10.234
REMARK INTER + INTRA:          -8.029
REMARK INTER:                  -7.829
REMARK INTRA:                  -0.200
REMARK UNBOUND:                -0.154
REMARK SMILES O=c1c(O)c(-c2ccc(O)cc2)oc2cc(O)cc(O)c12
REMARK SMILES IDX 5 1 3 2 2 3 1 4 21 5 19 6 18 7 16 8 15 9 14 10 13 11 6 12
REMARK SMILES IDX 7 13 8 14 9 15 12 16 11 17 10 18 4 20 20 22 17 24
REMARK H PARENT 10 19 4 21 20 23 17 25
REMARK Flexibility Score: inf
ROOT
ATOM      1  C   UNL     1       9.242  47.443  -1.905  1.00  0.00     0.180 A 
ATOM      2  C   UNL     1       7.919  47.916  -1.803  1.00  0.00     0.208 A 
ATOM      3  C   UNL     1       7.002  47.590  -2.815  1.00  0.00     0.238 A 
ATOM      4  O   UNL     1       5.812  47.999  -2.730  1.00  0.00    -0.285 OA
ATOM      5  C   UNL     1       7.425  46.816  -3.916  1.00  0.00     0.111 A 
ATOM      6  C   UNL     1       6.566  46.446  -4.979  1.00  0.00     0.134 A 
ATOM      7  C   UNL     1       7.066  45.683  -6.044  1.00  0.00     0.093 A 
ATOM      8  C   UNL     1       8.406  45.282  -6.066  1.00  0.00     0.123 A 
ATOM      9  C   UNL     1       9.257  45.643  -5.020  1.00  0.00     0.094 A 
ATOM     10  C   UNL     1       8.778  46.403  -3.949  1.00  0.00     0.146 A 
ATOM     11  O   UNL     1       9.608  46.728  -2.965  1.00  0.00    -0.452 OA
ENDROOT
BRANCH   1  12
ATOM     12  C   UNL     1      10.261  47.728  -0.869  1.00  0.00     0.021 A 
ATOM     13  C   UNL     1      11.296  48.654  -1.095  1.00  0.00     0.016 A 
ATOM     14  C   UNL     1      12.233  48.924  -0.092  1.00  0.00     0.047 A 
ATOM     15  C   UNL     1      12.140  48.288   1.148  1.00  0.00     0.115 A 
ATOM     16  C   UNL     1      10.161  47.108   0.388  1.00  0.00     0.016 A 
ATOM     17  C   UNL     1      11.100  47.380   1.387  1.00  0.00     0.047 A 
BRANCH  15  18
ATOM     18  O   UNL     1      13.081  48.566   2.137  1.00  0.00    -0.508 OA
ATOM     19  H   UNL     1      12.921  49.285   2.833  1.00  0.00     0.293 HD
ENDBRANCH  15  18
ENDBRANCH   1  12
BRANCH   2  20
ATOM     20  O   UNL     1       7.538  48.722  -0.729  1.00  0.00    -0.502 OA
ATOM     21  H   UNL     1       7.320  49.706  -0.837  1.00  0.00     0.293 HD
ENDBRANCH   2  20
BRANCH   6  22
ATOM     22  O   UNL     1       5.225  46.832  -4.985  1.00  0.00    -0.507 OA
ATOM     23  H   UNL     1       4.476  46.158  -5.093  1.00  0.00     0.293 HD
ENDBRANCH   6  22
BRANCH   8  24
ATOM     24  O   UNL     1       8.902  44.523  -7.125  1.00  0.00    -0.508 OA
ATOM     25  H   UNL     1       8.312  44.245  -7.899  1.00  0.00     0.293 HD
ENDBRANCH   8  24
TORSDOF 5
ENDMDL
