MODEL 1
REMARK VINA RESULT:    -3.401      0.000      0.000
REMARK INTER + INTRA:          -9.333
REMARK INTER:                  -6.582
REMARK INTRA:                  -2.750
REMARK UNBOUND:                -2.750
REMARK SMILES CCCCCCCCCCCCCCCCCC(=O)[O-]
REMARK SMILES IDX 10 1 11 2 12 3 13 4 14 5 15 6 16 7 17 8 18 9 19 10 20 11
REMARK SMILES IDX 9 12 8 13 7 14 6 15 5 16 4 17 3 18 2 19 1 20
REMARK H PARENT
REMARK Flexibility Score: inf
ROOT
ATOM      1  C   UNL     1      -4.503  36.850  42.546  1.00  0.00     0.000 C 
ENDROOT
BRANCH   1   2
ATOM      2  C   UNL     1      -3.387  36.316  41.630  1.00  0.00     0.000 C 
BRANCH   2   3
ATOM      3  C   UNL     1      -3.533  34.813  41.326  1.00  0.00     0.000 C 
BRANCH   3   4
ATOM      4  C   UNL     1      -4.899  34.212  41.703  1.00  0.00     0.000 C 
BRANCH   4   5
ATOM      5  C   UNL     1      -4.813  33.249  42.898  1.00  0.00     0.000 C 
BRANCH   5   6
ATOM      6  C   UNL     1      -5.661  33.711  44.094  1.00  0.00     0.000 C 
BRANCH   6   7
ATOM      7  C   UNL     1      -6.976  34.382  43.669  1.00  0.00     0.006 C 
BRANCH   7   8
ATOM      8  C   UNL     1      -8.185  33.592  44.181  1.00  0.00     0.053 C 
BRANCH   8   9
ATOM      9  C   UNL     1      -8.896  32.927  43.045  1.00  0.00     0.041 C 
ATOM     10  O   UNL     1      -9.989  32.332  43.244  1.00  0.00    -0.550 OA
ATOM     11  O   UNL     1      -8.382  33.009  41.758  1.00  0.00    -0.550 OA
ENDBRANCH   8   9
ENDBRANCH   7   8
ENDBRANCH   6   7
ENDBRANCH   5   6
ENDBRANCH   4   5
ENDBRANCH   3   4
ENDBRANCH   2   3
ENDBRANCH   1   2
BRANCH   1  12
ATOM     12  C   UNL     1      -3.972  37.261  43.936  1.00  0.00     0.000 C 
BRANCH  12  13
ATOM     13  C   UNL     1      -4.633  38.532  44.498  1.00  0.00    -0.000 C 
BRANCH  13  14
ATOM     14  C   UNL     1      -5.614  39.183  43.508  1.00  0.00    -0.000 C 
BRANCH  14  15
ATOM     15  C   UNL     1      -7.044  39.280  44.061  1.00  0.00    -0.000 C 
BRANCH  15  16
ATOM     16  C   UNL     1      -7.755  37.916  44.114  1.00  0.00    -0.000 C 
BRANCH  16  17
ATOM     17  C   UNL     1      -8.561  37.724  45.411  1.00  0.00    -0.000 C 
BRANCH  17  18
ATOM     18  C   UNL     1      -7.665  37.638  46.656  1.00  0.00    -0.000 C 
BRANCH  18  19
ATOM     19  C   UNL     1      -7.149  36.209  46.861  1.00  0.00    -0.003 C 
ATOM     20  C   UNL     1      -5.681  36.208  47.279  1.00  0.00     0.004 C 
ENDBRANCH  18  19
ENDBRANCH  17  18
ENDBRANCH  16  17
ENDBRANCH  15  16
ENDBRANCH  14  15
ENDBRANCH  13  14
ENDBRANCH  12  13
ENDBRANCH   1  12
TORSDOF 16
ENDMDL
MODEL 2
REMARK VINA RESULT:    -3.290     13.957     16.110
REMARK INTER + INTRA:          -9.118
REMARK INTER:                  -7.515
REMARK INTRA:                  -1.603
REMARK UNBOUND:                -2.750
REMARK SMILES CCCCCCCCCCCCCCCCCC(=O)[O-]
REMARK SMILES IDX 10 1 11 2 12 3 13 4 14 5 15 6 16 7 17 8 18 9 19 10 20 11
REMARK SMILES IDX 9 12 8 13 7 14 6 15 5 16 4 17 3 18 2 19 1 20
REMARK H PARENT
REMARK Flexibility Score: inf
ROOT
ATOM      1  C   UNL     1       5.134  29.890  53.828  1.00  0.00     0.000 C 
ENDROOT
BRANCH   1   2
ATOM      2  C   UNL     1       5.242  29.249  55.224  1.00  0.00     0.000 C 
BRANCH   2   3
ATOM      3  C   UNL     1       4.112  28.241  55.507  1.00  0.00     0.000 C 
BRANCH   3   4
ATOM      4  C   UNL     1       4.257  27.469  56.831  1.00  0.00     0.000 C 
BRANCH   4   5
ATOM      5  C   UNL     1       3.111  27.759  57.814  1.00  0.00     0.000 C 
BRANCH   5   6
ATOM      6  C   UNL     1       2.159  28.855  57.308  1.00  0.00     0.000 C 
BRANCH   6   7
ATOM      7  C   UNL     1       0.725  28.347  57.095  1.00  0.00     0.006 C 
BRANCH   7   8
ATOM      8  C   UNL     1      -0.188  29.474  56.602  1.00  0.00     0.053 C 
BRANCH   8   9
ATOM      9  C   UNL     1      -0.129  29.582  55.111  1.00  0.00     0.041 C 
ATOM     10  O   UNL     1      -0.942  28.939  54.396  1.00  0.00    -0.550 OA
ATOM     11  O   UNL     1       0.789  30.434  54.511  1.00  0.00    -0.550 OA
ENDBRANCH   8   9
ENDBRANCH   7   8
ENDBRANCH   6   7
ENDBRANCH   5   6
ENDBRANCH   4   5
ENDBRANCH   3   4
ENDBRANCH   2   3
ENDBRANCH   1   2
BRANCH   1  12
ATOM     12  C   UNL     1       4.060  29.208  52.954  1.00  0.00     0.000 C 
BRANCH  12  13
ATOM     13  C   UNL     1       4.632  28.170  51.972  1.00  0.00    -0.000 C 
BRANCH  13  14
ATOM     14  C   UNL     1       5.836  28.701  51.176  1.00  0.00    -0.000 C 
BRANCH  14  15
ATOM     15  C   UNL     1       5.516  28.930  49.691  1.00  0.00    -0.000 C 
BRANCH  15  16
ATOM     16  C   UNL     1       5.320  30.418  49.348  1.00  0.00    -0.000 C 
BRANCH  16  17
ATOM     17  C   UNL     1       6.037  31.348  50.342  1.00  0.00    -0.000 C 
BRANCH  17  18
ATOM     18  C   UNL     1       5.134  32.485  50.844  1.00  0.00    -0.000 C 
BRANCH  18  19
ATOM     19  C   UNL     1       5.661  33.061  52.164  1.00  0.00    -0.003 C 
ATOM     20  C   UNL     1       6.033  34.533  52.012  1.00  0.00     0.004 C 
ENDBRANCH  18  19
ENDBRANCH  17  18
ENDBRANCH  16  17
ENDBRANCH  15  16
ENDBRANCH  14  15
ENDBRANCH  13  14
ENDBRANCH  12  13
ENDBRANCH   1  12
TORSDOF 16
ENDMDL
MODEL 3
REMARK VINA RESULT:    -3.262      1.377      2.611
REMARK INTER + INTRA:          -9.065
REMARK INTER:                  -7.244
REMARK INTRA:                  -1.821
REMARK UNBOUND:                -2.750
REMARK SMILES CCCCCCCCCCCCCCCCCC(=O)[O-]
REMARK SMILES IDX 10 1 11 2 12 3 13 4 14 5 15 6 16 7 17 8 18 9 19 10 20 11
REMARK SMILES IDX 9 12 8 13 7 14 6 15 5 16 4 17 3 18 2 19 1 20
REMARK H PARENT
REMARK Flexibility Score: inf
ROOT
ATOM      1  C   UNL     1      -1.939  35.943  40.275  1.00  0.00     0.000 C 
ENDROOT
BRANCH   1   2
ATOM      2  C   UNL     1      -1.686  34.425  40.328  1.00  0.00     0.000 C 
BRANCH   2   3
ATOM      3  C   UNL     1      -1.826  33.847  41.748  1.00  0.00     0.000 C 
BRANCH   3   4
ATOM      4  C   UNL     1      -3.134  33.074  41.999  1.00  0.00     0.000 C 
BRANCH   4   5
ATOM      5  C   UNL     1      -4.156  33.888  42.809  1.00  0.00     0.000 C 
BRANCH   5   6
ATOM      6  C   UNL     1      -5.579  33.793  42.235  1.00  0.00     0.000 C 
BRANCH   6   7
ATOM      7  C   UNL     1      -6.656  34.233  43.237  1.00  0.00     0.006 C 
BRANCH   7   8
ATOM      8  C   UNL     1      -7.515  33.042  43.677  1.00  0.00     0.053 C 
BRANCH   8   9
ATOM      9  C   UNL     1      -8.714  32.906  42.792  1.00  0.00     0.041 C 
ATOM     10  O   UNL     1      -8.608  33.081  41.550  1.00  0.00    -0.550 OA
ATOM     11  O   UNL     1      -9.938  32.533  43.332  1.00  0.00    -0.550 OA
ENDBRANCH   8   9
ENDBRANCH   7   8
ENDBRANCH   6   7
ENDBRANCH   5   6
ENDBRANCH   4   5
ENDBRANCH   3   4
ENDBRANCH   2   3
ENDBRANCH   1   2
BRANCH   1  12
ATOM     12  C   UNL     1      -3.394  36.280  39.885  1.00  0.00     0.000 C 
BRANCH  12  13
ATOM     13  C   UNL     1      -3.997  37.441  40.696  1.00  0.00    -0.000 C 
BRANCH  13  14
ATOM     14  C   UNL     1      -3.565  37.425  42.172  1.00  0.00    -0.000 C 
BRANCH  14  15
ATOM     15  C   UNL     1      -4.756  37.451  43.143  1.00  0.00    -0.000 C 
BRANCH  15  16
ATOM     16  C   UNL     1      -5.695  38.646  42.901  1.00  0.00    -0.000 C 
BRANCH  16  17
ATOM     17  C   UNL     1      -6.642  38.898  44.087  1.00  0.00    -0.000 C 
BRANCH  17  18
ATOM     18  C   UNL     1      -7.750  37.837  44.195  1.00  0.00    -0.000 C 
BRANCH  18  19
ATOM     19  C   UNL     1      -8.481  37.944  45.537  1.00  0.00    -0.003 C 
ATOM     20  C   UNL     1      -7.825  38.984  46.441  1.00  0.00     0.004 C 
ENDBRANCH  18  19
ENDBRANCH  17  18
ENDBRANCH  16  17
ENDBRANCH  15  16
ENDBRANCH  14  15
ENDBRANCH  13  14
ENDBRANCH  12  13
ENDBRANCH   1  12
TORSDOF 16
ENDMDL
MODEL 4
REMARK VINA RESULT:    -3.252     12.426     14.283
REMARK INTER + INTRA:          -9.043
REMARK INTER:                  -7.870
REMARK INTRA:                  -1.174
REMARK UNBOUND:                -2.750
REMARK SMILES CCCCCCCCCCCCCCCCCC(=O)[O-]
REMARK SMILES IDX 10 1 11 2 12 3 13 4 14 5 15 6 16 7 17 8 18 9 19 10 20 11
REMARK SMILES IDX 9 12 8 13 7 14 6 15 5 16 4 17 3 18 2 19 1 20
REMARK H PARENT
REMARK Flexibility Score: inf
ROOT
ATOM      1  C   UNL     1       4.406  28.241  50.563  1.00  0.00     0.000 C 
ENDROOT
BRANCH   1   2
ATOM      2  C   UNL     1       4.641  26.760  50.217  1.00  0.00     0.000 C 
BRANCH   2   3
ATOM      3  C   UNL     1       5.312  26.567  48.844  1.00  0.00     0.000 C 
BRANCH   3   4
ATOM      4  C   UNL     1       5.887  27.853  48.226  1.00  0.00     0.000 C 
BRANCH   4   5
ATOM      5  C   UNL     1       5.198  28.235  46.905  1.00  0.00     0.000 C 
BRANCH   5   6
ATOM      6  C   UNL     1       3.681  27.989  46.935  1.00  0.00     0.000 C 
BRANCH   6   7
ATOM      7  C   UNL     1       2.875  29.270  47.196  1.00  0.00     0.006 C 
BRANCH   7   8
ATOM      8  C   UNL     1       1.465  29.160  46.607  1.00  0.00     0.053 C 
BRANCH   8   9
ATOM      9  C   UNL     1       1.422  29.753  45.234  1.00  0.00     0.041 C 
ATOM     10  O   UNL     1       0.343  29.765  44.583  1.00  0.00    -0.550 OA
ATOM     11  O   UNL     1       2.558  30.340  44.693  1.00  0.00    -0.550 OA
ENDBRANCH   8   9
ENDBRANCH   7   8
ENDBRANCH   6   7
ENDBRANCH   5   6
ENDBRANCH   4   5
ENDBRANCH   3   4
ENDBRANCH   2   3
ENDBRANCH   1   2
BRANCH   1  12
ATOM     12  C   UNL     1       5.107  28.653  51.875  1.00  0.00     0.000 C 
BRANCH  12  13
ATOM     13  C   UNL     1       4.637  30.011  52.427  1.00  0.00    -0.000 C 
BRANCH  13  14
ATOM     14  C   UNL     1       3.538  29.873  53.494  1.00  0.00    -0.000 C 
BRANCH  14  15
ATOM     15  C   UNL     1       3.520  28.485  54.155  1.00  0.00    -0.000 C 
BRANCH  15  16
ATOM     16  C   UNL     1       2.308  28.285  55.084  1.00  0.00    -0.000 C 
BRANCH  16  17
ATOM     17  C   UNL     1       2.678  28.433  56.570  1.00  0.00    -0.000 C 
BRANCH  17  18
ATOM     18  C   UNL     1       1.485  28.865  57.436  1.00  0.00    -0.000 C 
BRANCH  18  19
ATOM     19  C   UNL     1       0.216  29.010  56.588  1.00  0.00    -0.003 C 
ATOM     20  C   UNL     1      -0.849  29.819  57.322  1.00  0.00     0.004 C 
ENDBRANCH  18  19
ENDBRANCH  17  18
ENDBRANCH  16  17
ENDBRANCH  15  16
ENDBRANCH  14  15
ENDBRANCH  13  14
ENDBRANCH  12  13
ENDBRANCH   1  12
TORSDOF 16
ENDMDL
MODEL 5
REMARK VINA RESULT:    -3.247      1.354      4.272
REMARK INTER + INTRA:          -9.034
REMARK INTER:                  -7.099
REMARK INTRA:                  -1.936
REMARK UNBOUND:                -2.750
REMARK SMILES CCCCCCCCCCCCCCCCCC(=O)[O-]
REMARK SMILES IDX 10 1 11 2 12 3 13 4 14 5 15 6 16 7 17 8 18 9 19 10 20 11
REMARK SMILES IDX 9 12 8 13 7 14 6 15 5 16 4 17 3 18 2 19 1 20
REMARK H PARENT
REMARK Flexibility Score: inf
ROOT
ATOM      1  C   UNL     1      -8.280  37.456  46.104  1.00  0.00     0.000 C 
ENDROOT
BRANCH   1   2
ATOM      2  C   UNL     1      -7.922  35.960  46.037  1.00  0.00     0.000 C 
BRANCH   2   3
ATOM      3  C   UNL     1      -6.409  35.714  45.892  1.00  0.00     0.000 C 
BRANCH   3   4
ATOM      4  C   UNL     1      -6.009  34.895  44.652  1.00  0.00     0.000 C 
BRANCH   4   5
ATOM      5  C   UNL     1      -7.151  34.773  43.629  1.00  0.00     0.000 C 
BRANCH   5   6
ATOM      6  C   UNL     1      -7.224  33.380  42.985  1.00  0.00     0.000 C 
BRANCH   6   7
ATOM      7  C   UNL     1      -8.587  33.095  42.335  1.00  0.00     0.006 C 
BRANCH   7   8
ATOM      8  C   UNL     1      -9.554  32.467  43.344  1.00  0.00     0.053 C 
BRANCH   8   9
ATOM      9  C   UNL     1      -9.465  30.974  43.297  1.00  0.00     0.041 C 
ATOM     10  O   UNL     1      -9.273  30.317  44.354  1.00  0.00    -0.550 OA
ATOM     11  O   UNL     1      -9.647  30.304  42.095  1.00  0.00    -0.550 OA
ENDBRANCH   8   9
ENDBRANCH   7   8
ENDBRANCH   6   7
ENDBRANCH   5   6
ENDBRANCH   4   5
ENDBRANCH   3   4
ENDBRANCH   2   3
ENDBRANCH   1   2
BRANCH   1  12
ATOM     12  C   UNL     1      -8.196  38.139  44.723  1.00  0.00     0.000 C 
BRANCH  12  13
ATOM     13  C   UNL     1      -7.218  39.326  44.679  1.00  0.00    -0.000 C 
BRANCH  13  14
ATOM     14  C   UNL     1      -6.474  39.438  43.337  1.00  0.00    -0.000 C 
BRANCH  14  15
ATOM     15  C   UNL     1      -5.032  38.912  43.408  1.00  0.00    -0.000 C 
BRANCH  15  16
ATOM     16  C   UNL     1      -4.837  37.602  42.624  1.00  0.00    -0.000 C 
BRANCH  16  17
ATOM     17  C   UNL     1      -4.191  37.834  41.247  1.00  0.00    -0.000 C 
BRANCH  17  18
ATOM     18  C   UNL     1      -3.760  36.524  40.568  1.00  0.00    -0.000 C 
BRANCH  18  19
ATOM     19  C   UNL     1      -3.316  35.489  41.608  1.00  0.00    -0.003 C 
ATOM     20  C   UNL     1      -4.096  34.185  41.455  1.00  0.00     0.004 C 
ENDBRANCH  18  19
ENDBRANCH  17  18
ENDBRANCH  16  17
ENDBRANCH  15  16
ENDBRANCH  14  15
ENDBRANCH  13  14
ENDBRANCH  12  13
ENDBRANCH   1  12
TORSDOF 16
ENDMDL
MODEL 6
REMARK VINA RESULT:    -3.208      1.174      4.517
REMARK INTER + INTRA:          -8.959
REMARK INTER:                  -6.860
REMARK INTRA:                  -2.098
REMARK UNBOUND:                -2.750
REMARK SMILES CCCCCCCCCCCCCCCCCC(=O)[O-]
REMARK SMILES IDX 10 1 11 2 12 3 13 4 14 5 15 6 16 7 17 8 18 9 19 10 20 11
REMARK SMILES IDX 9 12 8 13 7 14 6 15 5 16 4 17 3 18 2 19 1 20
REMARK H PARENT
REMARK Flexibility Score: inf
ROOT
ATOM      1  C   UNL     1      -7.622  39.218  45.677  1.00  0.00     0.000 C 
ENDROOT
BRANCH   1   2
ATOM      2  C   UNL     1      -8.572  38.081  45.259  1.00  0.00     0.000 C 
BRANCH   2   3
ATOM      3  C   UNL     1      -8.133  36.707  45.800  1.00  0.00     0.000 C 
BRANCH   3   4
ATOM      4  C   UNL     1      -6.610  36.479  45.809  1.00  0.00     0.000 C 
BRANCH   4   5
ATOM      5  C   UNL     1      -6.170  35.384  44.823  1.00  0.00     0.000 C 
BRANCH   5   6
ATOM      6  C   UNL     1      -6.679  33.989  45.221  1.00  0.00     0.000 C 
BRANCH   6   7
ATOM      7  C   UNL     1      -6.847  33.050  44.017  1.00  0.00     0.006 C 
BRANCH   7   8
ATOM      8  C   UNL     1      -7.586  33.754  42.874  1.00  0.00     0.053 C 
BRANCH   8   9
ATOM      9  C   UNL     1      -8.776  32.953  42.448  1.00  0.00     0.041 C 
ATOM     10  O   UNL     1      -8.930  32.641  41.237  1.00  0.00    -0.550 OA
ATOM     11  O   UNL     1      -9.689  32.506  43.394  1.00  0.00    -0.550 OA
ENDBRANCH   8   9
ENDBRANCH   7   8
ENDBRANCH   6   7
ENDBRANCH   5   6
ENDBRANCH   4   5
ENDBRANCH   3   4
ENDBRANCH   2   3
ENDBRANCH   1   2
BRANCH   1  12
ATOM     12  C   UNL     1      -7.121  40.035  44.467  1.00  0.00     0.000 C 
BRANCH  12  13
ATOM     13  C   UNL     1      -5.710  39.639  43.996  1.00  0.00    -0.000 C 
BRANCH  13  14
ATOM     14  C   UNL     1      -5.730  38.610  42.853  1.00  0.00    -0.000 C 
BRANCH  14  15
ATOM     15  C   UNL     1      -4.389  37.880  42.683  1.00  0.00    -0.000 C 
BRANCH  15  16
ATOM     16  C   UNL     1      -4.045  37.602  41.209  1.00  0.00    -0.000 C 
BRANCH  16  17
ATOM     17  C   UNL     1      -3.516  36.174  40.989  1.00  0.00    -0.000 C 
BRANCH  17  18
ATOM     18  C   UNL     1      -4.430  35.104  41.605  1.00  0.00    -0.000 C 
BRANCH  18  19
ATOM     19  C   UNL     1      -3.722  33.746  41.662  1.00  0.00    -0.003 C 
ATOM     20  C   UNL     1      -2.273  33.860  41.197  1.00  0.00     0.004 C 
ENDBRANCH  18  19
ENDBRANCH  17  18
ENDBRANCH  16  17
ENDBRANCH  15  16
ENDBRANCH  14  15
ENDBRANCH  13  14
ENDBRANCH  12  13
ENDBRANCH   1  12
TORSDOF 16
ENDMDL
MODEL 7
REMARK VINA RESULT:    -3.198     13.255     15.521
REMARK INTER + INTRA:          -8.940
REMARK INTER:                  -7.264
REMARK INTRA:                  -1.676
REMARK UNBOUND:                -2.750
REMARK SMILES CCCCCCCCCCCCCCCCCC(=O)[O-]
REMARK SMILES IDX 10 1 11 2 12 3 13 4 14 5 15 6 16 7 17 8 18 9 19 10 20 11
REMARK SMILES IDX 9 12 8 13 7 14 6 15 5 16 4 17 3 18 2 19 1 20
REMARK H PARENT
REMARK Flexibility Score: inf
ROOT
ATOM      1  C   UNL     1       5.296  28.740  51.904  1.00  0.00     0.000 C 
ENDROOT
BRANCH   1   2
ATOM      2  C   UNL     1       4.157  29.743  52.166  1.00  0.00     0.000 C 
BRANCH   2   3
ATOM      3  C   UNL     1       3.713  29.769  53.641  1.00  0.00     0.000 C 
BRANCH   3   4
ATOM      4  C   UNL     1       4.722  29.149  54.625  1.00  0.00     0.000 C 
BRANCH   4   5
ATOM      5  C   UNL     1       4.099  28.041  55.491  1.00  0.00     0.000 C 
BRANCH   5   6
ATOM      6  C   UNL     1       3.672  28.543  56.879  1.00  0.00     0.000 C 
BRANCH   6   7
ATOM      7  C   UNL     1       2.263  28.075  57.275  1.00  0.00     0.006 C 
BRANCH   7   8
ATOM      8  C   UNL     1       1.216  29.141  56.935  1.00  0.00     0.053 C 
BRANCH   8   9
ATOM      9  C   UNL     1       0.659  28.911  55.565  1.00  0.00     0.041 C 
ATOM     10  O   UNL     1       0.691  27.760  55.054  1.00  0.00    -0.550 OA
ATOM     11  O   UNL     1       0.057  29.954  54.875  1.00  0.00    -0.550 OA
ENDBRANCH   8   9
ENDBRANCH   7   8
ENDBRANCH   6   7
ENDBRANCH   5   6
ENDBRANCH   4   5
ENDBRANCH   3   4
ENDBRANCH   2   3
ENDBRANCH   1   2
BRANCH   1  12
ATOM     12  C   UNL     1       5.296  28.224  50.449  1.00  0.00     0.000 C 
BRANCH  12  13
ATOM     13  C   UNL     1       4.709  26.809  50.297  1.00  0.00    -0.000 C 
BRANCH  13  14
ATOM     14  C   UNL     1       3.938  26.622  48.979  1.00  0.00    -0.000 C 
BRANCH  14  15
ATOM     15  C   UNL     1       4.663  27.238  47.771  1.00  0.00    -0.000 C 
BRANCH  15  16
ATOM     16  C   UNL     1       3.812  28.294  47.043  1.00  0.00    -0.000 C 
BRANCH  16  17
ATOM     17  C   UNL     1       4.574  29.613  46.827  1.00  0.00    -0.000 C 
BRANCH  17  18
ATOM     18  C   UNL     1       3.870  30.816  47.474  1.00  0.00    -0.000 C 
BRANCH  18  19
ATOM     19  C   UNL     1       2.972  30.366  48.632  1.00  0.00    -0.003 C 
ATOM     20  C   UNL     1       2.319  31.563  49.319  1.00  0.00     0.004 C 
ENDBRANCH  18  19
ENDBRANCH  17  18
ENDBRANCH  16  17
ENDBRANCH  15  16
ENDBRANCH  14  15
ENDBRANCH  13  14
ENDBRANCH  12  13
ENDBRANCH   1  12
TORSDOF 16
ENDMDL
MODEL 8
REMARK VINA RESULT:    -3.184     13.293     15.250
REMARK INTER + INTRA:          -8.913
REMARK INTER:                  -7.810
REMARK INTRA:                  -1.102
REMARK UNBOUND:                -2.750
REMARK SMILES CCCCCCCCCCCCCCCCCC(=O)[O-]
REMARK SMILES IDX 10 1 11 2 12 3 13 4 14 5 15 6 16 7 17 8 18 9 19 10 20 11
REMARK SMILES IDX 9 12 8 13 7 14 6 15 5 16 4 17 3 18 2 19 1 20
REMARK H PARENT
REMARK Flexibility Score: inf
ROOT
ATOM      1  C   UNL     1       4.299  29.296  52.184  1.00  0.00     0.000 C 
ENDROOT
BRANCH   1   2
ATOM      2  C   UNL     1       5.339  28.470  51.407  1.00  0.00     0.000 C 
BRANCH   2   3
ATOM      3  C   UNL     1       4.740  27.200  50.773  1.00  0.00     0.000 C 
BRANCH   3   4
ATOM      4  C   UNL     1       4.627  27.242  49.239  1.00  0.00     0.000 C 
BRANCH   4   5
ATOM      5  C   UNL     1       5.951  27.626  48.558  1.00  0.00     0.000 C 
BRANCH   5   6
ATOM      6  C   UNL     1       5.841  28.918  47.734  1.00  0.00     0.000 C 
BRANCH   6   7
ATOM      7  C   UNL     1       5.315  28.675  46.312  1.00  0.00     0.006 C 
BRANCH   7   8
ATOM      8  C   UNL     1       4.350  29.788  45.887  1.00  0.00     0.053 C 
BRANCH   8   9
ATOM      9  C   UNL     1       3.086  29.719  46.685  1.00  0.00     0.041 C 
ATOM     10  O   UNL     1       2.591  30.767  47.178  1.00  0.00    -0.550 OA
ATOM     11  O   UNL     1       2.426  28.508  46.840  1.00  0.00    -0.550 OA
ENDBRANCH   8   9
ENDBRANCH   7   8
ENDBRANCH   6   7
ENDBRANCH   5   6
ENDBRANCH   4   5
ENDBRANCH   3   4
ENDBRANCH   2   3
ENDBRANCH   1   2
BRANCH   1  12
ATOM     12  C   UNL     1       4.954  30.239  53.216  1.00  0.00     0.000 C 
BRANCH  12  13
ATOM     13  C   UNL     1       5.287  29.555  54.554  1.00  0.00    -0.000 C 
BRANCH  13  14
ATOM     14  C   UNL     1       4.268  28.468  54.938  1.00  0.00    -0.000 C 
BRANCH  14  15
ATOM     15  C   UNL     1       4.522  27.880  56.335  1.00  0.00    -0.000 C 
BRANCH  15  16
ATOM     16  C   UNL     1       3.342  28.105  57.298  1.00  0.00    -0.000 C 
BRANCH  16  17
ATOM     17  C   UNL     1       2.034  28.432  56.556  1.00  0.00    -0.000 C 
BRANCH  17  18
ATOM     18  C   UNL     1       1.053  29.243  57.417  1.00  0.00    -0.000 C 
BRANCH  18  19
ATOM     19  C   UNL     1      -0.322  29.330  56.745  1.00  0.00    -0.003 C 
ATOM     20  C   UNL     1      -0.190  29.640  55.257  1.00  0.00     0.004 C 
ENDBRANCH  18  19
ENDBRANCH  17  18
ENDBRANCH  16  17
ENDBRANCH  15  16
ENDBRANCH  14  15
ENDBRANCH  13  14
ENDBRANCH  12  13
ENDBRANCH   1  12
TORSDOF 16
ENDMDL
MODEL 9
REMARK VINA RESULT:    -3.157     13.446     15.626
REMARK INTER + INTRA:          -8.859
REMARK INTER:                  -7.351
REMARK INTRA:                  -1.508
REMARK UNBOUND:                -2.750
REMARK SMILES CCCCCCCCCCCCCCCCCC(=O)[O-]
REMARK SMILES IDX 10 1 11 2 12 3 13 4 14 5 15 6 16 7 17 8 18 9 19 10 20 11
REMARK SMILES IDX 9 12 8 13 7 14 6 15 5 16 4 17 3 18 2 19 1 20
REMARK H PARENT
REMARK Flexibility Score: inf
ROOT
ATOM      1  C   UNL     1       4.241  30.413  51.446  1.00  0.00     0.000 C 
ENDROOT
BRANCH   1   2
ATOM      2  C   UNL     1       4.162  30.527  52.980  1.00  0.00     0.000 C 
BRANCH   2   3
ATOM      3  C   UNL     1       3.883  29.175  53.664  1.00  0.00     0.000 C 
BRANCH   3   4
ATOM      4  C   UNL     1       4.706  28.921  54.940  1.00  0.00     0.000 C 
BRANCH   4   5
ATOM      5  C   UNL     1       4.031  27.918  55.890  1.00  0.00     0.000 C 
BRANCH   5   6
ATOM      6  C   UNL     1       3.426  28.593  57.131  1.00  0.00     0.000 C 
BRANCH   6   7
ATOM      7  C   UNL     1       1.991  28.128  57.422  1.00  0.00     0.006 C 
BRANCH   7   8
ATOM      8  C   UNL     1       0.975  29.202  57.016  1.00  0.00     0.053 C 
BRANCH   8   9
ATOM      9  C   UNL     1       0.590  29.043  55.579  1.00  0.00     0.041 C 
ATOM     10  O   UNL     1       0.623  27.907  55.036  1.00  0.00    -0.550 OA
ATOM     11  O   UNL     1       0.144  30.139  54.853  1.00  0.00    -0.550 OA
ENDBRANCH   8   9
ENDBRANCH   7   8
ENDBRANCH   6   7
ENDBRANCH   5   6
ENDBRANCH   4   5
ENDBRANCH   3   4
ENDBRANCH   2   3
ENDBRANCH   1   2
BRANCH   1  12
ATOM     12  C   UNL     1       5.695  30.451  50.931  1.00  0.00     0.000 C 
BRANCH  12  13
ATOM     13  C   UNL     1       5.815  30.842  49.448  1.00  0.00    -0.000 C 
BRANCH  13  14
ATOM     14  C   UNL     1       4.450  31.094  48.785  1.00  0.00    -0.000 C 
BRANCH  14  15
ATOM     15  C   UNL     1       4.371  30.542  47.353  1.00  0.00    -0.000 C 
BRANCH  15  16
ATOM     16  C   UNL     1       5.486  29.527  47.044  1.00  0.00    -0.000 C 
BRANCH  16  17
ATOM     17  C   UNL     1       4.931  28.144  46.663  1.00  0.00    -0.000 C 
BRANCH  17  18
ATOM     18  C   UNL     1       4.103  27.508  47.790  1.00  0.00    -0.000 C 
BRANCH  18  19
ATOM     19  C   UNL     1       5.004  27.064  48.948  1.00  0.00    -0.003 C 
ATOM     20  C   UNL     1       4.414  25.858  49.675  1.00  0.00     0.004 C 
ENDBRANCH  18  19
ENDBRANCH  17  18
ENDBRANCH  16  17
ENDBRANCH  15  16
ENDBRANCH  14  15
ENDBRANCH  13  14
ENDBRANCH  12  13
ENDBRANCH   1  12
TORSDOF 16
ENDMDL
