MODEL 1
REMARK VINA RESULT:    -5.273      0.000      0.000
REMARK INTER + INTRA:          -5.759
REMARK INTER:                  -5.736
REMARK INTRA:                  -0.024
REMARK UNBOUND:                -0.024
REMARK SMILES COc1cc2ccc(=O)oc2cc1O
REMARK SMILES IDX 3 1 13 2 12 3 11 4 5 5 4 6 6 7 7 8 8 9 9 10 10 11 2 12 1 13
REMARK SMILES IDX 14 14
REMARK H PARENT 14 15
REMARK Flexibility Score: inf
ROOT
ATOM      1  C   UNL     1      26.770  11.579 -32.179  1.00  0.00     0.161 A 
ATOM      2  C   UNL     1      26.422  10.232 -32.367  1.00  0.00     0.161 A 
ATOM      3  C   UNL     1      27.293   9.364 -33.040  1.00  0.00     0.098 A 
ATOM      4  C   UNL     1      28.515   9.831 -33.530  1.00  0.00     0.142 A 
ATOM      5  C   UNL     1      28.872  11.182 -33.345  1.00  0.00     0.022 A 
ATOM      6  C   UNL     1      28.003  12.052 -32.673  1.00  0.00     0.062 A 
ATOM      7  C   UNL     1      30.103  11.621 -33.846  1.00  0.00     0.019 A 
ATOM      8  C   UNL     1      30.933  10.717 -34.509  1.00  0.00     0.094 A 
ATOM      9  C   UNL     1      30.512   9.391 -34.654  1.00  0.00     0.336 A 
ATOM     10  O   UNL     1      31.248   8.560 -35.249  1.00  0.00    -0.246 OA
ATOM     11  O   UNL     1      29.337   9.001 -34.168  1.00  0.00    -0.423 OA
ENDROOT
BRANCH   1  12
ATOM     12  O   UNL     1      25.868  12.412 -31.500  1.00  0.00    -0.493 OA
ATOM     13  C   UNL     1      24.803  13.125 -32.122  1.00  0.00     0.278 C 
ENDBRANCH   1  12
BRANCH   2  14
ATOM     14  O   UNL     1      25.203   9.763 -31.879  1.00  0.00    -0.504 OA
ATOM     15  H   UNL     1      24.323  10.043 -32.295  1.00  0.00     0.293 HD
ENDBRANCH   2  14
TORSDOF 2
ENDMDL
MODEL 2
REMARK VINA RESULT:    -5.239      1.664      4.926
REMARK INTER + INTRA:          -5.722
REMARK INTER:                  -5.676
REMARK INTRA:                  -0.047
REMARK UNBOUND:                -0.024
REMARK SMILES COc1cc2ccc(=O)oc2cc1O
REMARK SMILES IDX 3 1 13 2 12 3 11 4 5 5 4 6 6 7 7 8 8 9 9 10 10 11 2 12 1 13
REMARK SMILES IDX 14 14
REMARK H PARENT 14 15
REMARK Flexibility Score: inf
ROOT
ATOM      1  C   UNL     1      28.823  11.044 -32.999  1.00  0.00     0.161 A 
ATOM      2  C   UNL     1      28.025  11.909 -32.232  1.00  0.00     0.161 A 
ATOM      3  C   UNL     1      26.709  11.552 -31.905  1.00  0.00     0.098 A 
ATOM      4  C   UNL     1      26.180  10.334 -32.338  1.00  0.00     0.142 A 
ATOM      5  C   UNL     1      26.976   9.460 -33.108  1.00  0.00     0.022 A 
ATOM      6  C   UNL     1      28.291   9.815 -33.437  1.00  0.00     0.062 A 
ATOM      7  C   UNL     1      26.418   8.247 -33.527  1.00  0.00     0.019 A 
ATOM      8  C   UNL     1      25.105   7.940 -33.175  1.00  0.00     0.094 A 
ATOM      9  C   UNL     1      24.376   8.855 -32.408  1.00  0.00     0.336 A 
ATOM     10  O   UNL     1      23.188   8.596 -32.080  1.00  0.00    -0.246 OA
ATOM     11  O   UNL     1      24.931  10.002 -32.023  1.00  0.00    -0.423 OA
ENDROOT
BRANCH   1  12
ATOM     12  O   UNL     1      30.135  11.442 -33.303  1.00  0.00    -0.493 OA
ATOM     13  C   UNL     1      30.879  10.976 -34.425  1.00  0.00     0.278 C 
ENDBRANCH   1  12
BRANCH   2  14
ATOM     14  O   UNL     1      28.550  13.125 -31.798  1.00  0.00    -0.504 OA
ATOM     15  H   UNL     1      28.023  13.744 -31.194  1.00  0.00     0.293 HD
ENDBRANCH   2  14
TORSDOF 2
ENDMDL
MODEL 3
REMARK VINA RESULT:    -5.198     11.742     12.256
REMARK INTER + INTRA:          -5.677
REMARK INTER:                  -5.615
REMARK INTRA:                  -0.063
REMARK UNBOUND:                -0.024
REMARK SMILES COc1cc2ccc(=O)oc2cc1O
REMARK SMILES IDX 3 1 13 2 12 3 11 4 5 5 4 6 6 7 7 8 8 9 9 10 10 11 2 12 1 13
REMARK SMILES IDX 14 14
REMARK H PARENT 14 15
REMARK Flexibility Score: inf
ROOT
ATOM      1  C   UNL     1      32.328   7.951 -21.414  1.00  0.00     0.161 A 
ATOM      2  C   UNL     1      31.147   7.480 -20.818  1.00  0.00     0.161 A 
ATOM      3  C   UNL     1      30.308   6.596 -21.511  1.00  0.00     0.098 A 
ATOM      4  C   UNL     1      30.638   6.177 -22.802  1.00  0.00     0.142 A 
ATOM      5  C   UNL     1      31.823   6.645 -23.408  1.00  0.00     0.022 A 
ATOM      6  C   UNL     1      32.663   7.528 -22.716  1.00  0.00     0.062 A 
ATOM      7  C   UNL     1      32.127   6.206 -24.701  1.00  0.00     0.019 A 
ATOM      8  C   UNL     1      31.259   5.327 -25.348  1.00  0.00     0.094 A 
ATOM      9  C   UNL     1      30.103   4.905 -24.684  1.00  0.00     0.336 A 
ATOM     10  O   UNL     1      29.306   4.112 -25.251  1.00  0.00    -0.246 OA
ATOM     11  O   UNL     1      29.837   5.338 -23.454  1.00  0.00    -0.423 OA
ENDROOT
BRANCH   1  12
ATOM     12  O   UNL     1      33.138   8.834 -20.683  1.00  0.00    -0.493 OA
ATOM     13  C   UNL     1      34.447   8.525 -20.213  1.00  0.00     0.278 C 
ENDBRANCH   1  12
BRANCH   2  14
ATOM     14  O   UNL     1      30.814   7.897 -19.530  1.00  0.00    -0.504 OA
ATOM     15  H   UNL     1      30.033   7.493 -19.027  1.00  0.00     0.293 HD
ENDBRANCH   2  14
TORSDOF 2
ENDMDL
MODEL 4
REMARK VINA RESULT:    -5.124      1.313      5.376
REMARK INTER + INTRA:          -5.597
REMARK INTER:                  -5.593
REMARK INTRA:                  -0.004
REMARK UNBOUND:                -0.024
REMARK SMILES COc1cc2ccc(=O)oc2cc1O
REMARK SMILES IDX 3 1 13 2 12 3 11 4 5 5 4 6 6 7 7 8 8 9 9 10 10 11 2 12 1 13
REMARK SMILES IDX 14 14
REMARK H PARENT 14 15
REMARK Flexibility Score: inf
ROOT
ATOM      1  C   UNL     1      29.554   9.674 -33.732  1.00  0.00     0.161 A 
ATOM      2  C   UNL     1      29.908  11.025 -33.589  1.00  0.00     0.161 A 
ATOM      3  C   UNL     1      28.965  11.959 -33.135  1.00  0.00     0.098 A 
ATOM      4  C   UNL     1      27.666  11.553 -32.822  1.00  0.00     0.142 A 
ATOM      5  C   UNL     1      27.303  10.198 -32.962  1.00  0.00     0.022 A 
ATOM      6  C   UNL     1      28.243   9.263 -33.416  1.00  0.00     0.062 A 
ATOM      7  C   UNL     1      25.994   9.822 -32.640  1.00  0.00     0.019 A 
ATOM      8  C   UNL     1      25.095  10.789 -32.193  1.00  0.00     0.094 A 
ATOM      9  C   UNL     1      25.526  12.115 -32.077  1.00  0.00     0.336 A 
ATOM     10  O   UNL     1      24.729  13.003 -31.676  1.00  0.00    -0.246 OA
ATOM     11  O   UNL     1      26.777  12.445 -32.391  1.00  0.00    -0.423 OA
ENDROOT
BRANCH   1  12
ATOM     12  O   UNL     1      30.530   8.774 -34.189  1.00  0.00    -0.493 OA
ATOM     13  C   UNL     1      30.838   8.548 -35.562  1.00  0.00     0.278 C 
ENDBRANCH   1  12
BRANCH   2  14
ATOM     14  O   UNL     1      31.204  11.433 -33.901  1.00  0.00    -0.504 OA
ATOM     15  H   UNL     1      31.430  11.838 -34.801  1.00  0.00     0.293 HD
ENDBRANCH   2  14
TORSDOF 2
ENDMDL
MODEL 5
REMARK VINA RESULT:    -5.047     13.398     13.548
REMARK INTER + INTRA:          -5.514
REMARK INTER:                  -5.470
REMARK INTRA:                  -0.044
REMARK UNBOUND:                -0.024
REMARK SMILES COc1cc2ccc(=O)oc2cc1O
REMARK SMILES IDX 3 1 13 2 12 3 11 4 5 5 4 6 6 7 7 8 8 9 9 10 10 11 2 12 1 13
REMARK SMILES IDX 14 14
REMARK H PARENT 14 15
REMARK Flexibility Score: inf
ROOT
ATOM      1  C   UNL     1      32.154   7.835 -21.763  1.00  0.00     0.161 A 
ATOM      2  C   UNL     1      32.691   8.121 -20.497  1.00  0.00     0.161 A 
ATOM      3  C   UNL     1      34.049   7.889 -20.236  1.00  0.00     0.098 A 
ATOM      4  C   UNL     1      34.879   7.371 -21.233  1.00  0.00     0.142 A 
ATOM      5  C   UNL     1      34.348   7.082 -22.506  1.00  0.00     0.022 A 
ATOM      6  C   UNL     1      32.991   7.313 -22.769  1.00  0.00     0.062 A 
ATOM      7  C   UNL     1      35.205   6.564 -23.484  1.00  0.00     0.019 A 
ATOM      8  C   UNL     1      36.548   6.351 -23.173  1.00  0.00     0.094 A 
ATOM      9  C   UNL     1      37.004   6.662 -21.888  1.00  0.00     0.336 A 
ATOM     10  O   UNL     1      38.213   6.477 -21.589  1.00  0.00    -0.246 OA
ATOM     11  O   UNL     1      36.167   7.153 -20.977  1.00  0.00    -0.423 OA
ENDROOT
BRANCH   1  12
ATOM     12  O   UNL     1      30.789   8.083 -21.979  1.00  0.00    -0.493 OA
ATOM     13  C   UNL     1      29.754   7.127 -21.775  1.00  0.00     0.278 C 
ENDBRANCH   1  12
BRANCH   2  14
ATOM     14  O   UNL     1      31.864   8.638 -19.501  1.00  0.00    -0.504 OA
ATOM     15  H   UNL     1      31.929   9.606 -19.208  1.00  0.00     0.293 HD
ENDBRANCH   2  14
TORSDOF 2
ENDMDL
MODEL 6
REMARK VINA RESULT:    -4.945      1.843      2.938
REMARK INTER + INTRA:          -5.402
REMARK INTER:                  -5.354
REMARK INTRA:                  -0.048
REMARK UNBOUND:                -0.024
REMARK SMILES COc1cc2ccc(=O)oc2cc1O
REMARK SMILES IDX 3 1 13 2 12 3 11 4 5 5 4 6 6 7 7 8 8 9 9 10 10 11 2 12 1 13
REMARK SMILES IDX 14 14
REMARK H PARENT 14 15
REMARK Flexibility Score: inf
ROOT
ATOM      1  C   UNL     1      25.028   9.885 -32.267  1.00  0.00     0.161 A 
ATOM      2  C   UNL     1      25.194  11.276 -32.169  1.00  0.00     0.161 A 
ATOM      3  C   UNL     1      26.421  11.867 -32.498  1.00  0.00     0.098 A 
ATOM      4  C   UNL     1      27.492  11.078 -32.926  1.00  0.00     0.142 A 
ATOM      5  C   UNL     1      27.333   9.681 -33.028  1.00  0.00     0.022 A 
ATOM      6  C   UNL     1      26.107   9.088 -32.699  1.00  0.00     0.062 A 
ATOM      7  C   UNL     1      28.423   8.917 -33.460  1.00  0.00     0.019 A 
ATOM      8  C   UNL     1      29.623   9.554 -33.775  1.00  0.00     0.094 A 
ATOM      9  C   UNL     1      29.706  10.944 -33.651  1.00  0.00     0.336 A 
ATOM     10  O   UNL     1      30.781  11.538 -33.930  1.00  0.00    -0.246 OA
ATOM     11  O   UNL     1      28.654  11.647 -33.237  1.00  0.00    -0.423 OA
ENDROOT
BRANCH   1  12
ATOM     12  O   UNL     1      23.782   9.336 -31.928  1.00  0.00    -0.493 OA
ATOM     13  C   UNL     1      23.237   8.153 -32.505  1.00  0.00     0.278 C 
ENDBRANCH   1  12
BRANCH   2  14
ATOM     14  O   UNL     1      24.127  12.066 -31.743  1.00  0.00    -0.504 OA
ATOM     15  H   UNL     1      23.319  11.662 -31.284  1.00  0.00     0.293 HD
ENDBRANCH   2  14
TORSDOF 2
ENDMDL
MODEL 7
REMARK VINA RESULT:    -4.780     13.520     13.640
REMARK INTER + INTRA:          -5.223
REMARK INTER:                  -5.170
REMARK INTRA:                  -0.053
REMARK UNBOUND:                -0.024
REMARK SMILES COc1cc2ccc(=O)oc2cc1O
REMARK SMILES IDX 3 1 13 2 12 3 11 4 5 5 4 6 6 7 7 8 8 9 9 10 10 11 2 12 1 13
REMARK SMILES IDX 14 14
REMARK H PARENT 14 15
REMARK Flexibility Score: inf
ROOT
ATOM      1  C   UNL     1      32.380   7.865 -21.869  1.00  0.00     0.161 A 
ATOM      2  C   UNL     1      32.882   7.479 -23.122  1.00  0.00     0.161 A 
ATOM      3  C   UNL     1      34.216   7.070 -23.254  1.00  0.00     0.098 A 
ATOM      4  C   UNL     1      35.059   7.044 -22.141  1.00  0.00     0.142 A 
ATOM      5  C   UNL     1      34.563   7.430 -20.879  1.00  0.00     0.022 A 
ATOM      6  C   UNL     1      33.230   7.839 -20.745  1.00  0.00     0.062 A 
ATOM      7  C   UNL     1      35.431   7.393 -19.782  1.00  0.00     0.019 A 
ATOM      8  C   UNL     1      36.750   6.979 -19.967  1.00  0.00     0.094 A 
ATOM      9  C   UNL     1      37.171   6.609 -21.248  1.00  0.00     0.336 A 
ATOM     10  O   UNL     1      38.358   6.233 -21.435  1.00  0.00    -0.246 OA
ATOM     11  O   UNL     1      36.325   6.655 -22.274  1.00  0.00    -0.423 OA
ENDROOT
BRANCH   1  12
ATOM     12  O   UNL     1      31.038   8.267 -21.783  1.00  0.00    -0.493 OA
ATOM     13  C   UNL     1      29.959   7.404 -21.438  1.00  0.00     0.278 C 
ENDBRANCH   1  12
BRANCH   2  14
ATOM     14  O   UNL     1      32.043   7.503 -24.235  1.00  0.00    -0.504 OA
ATOM     15  H   UNL     1      31.580   6.666 -24.568  1.00  0.00     0.293 HD
ENDBRANCH   2  14
TORSDOF 2
ENDMDL
MODEL 8
REMARK VINA RESULT:    -4.609      3.329      5.677
REMARK INTER + INTRA:          -5.037
REMARK INTER:                  -4.987
REMARK INTRA:                  -0.049
REMARK UNBOUND:                -0.024
REMARK SMILES COc1cc2ccc(=O)oc2cc1O
REMARK SMILES IDX 3 1 13 2 12 3 11 4 5 5 4 6 6 7 7 8 8 9 9 10 10 11 2 12 1 13
REMARK SMILES IDX 14 14
REMARK H PARENT 14 15
REMARK Flexibility Score: inf
ROOT
ATOM      1  C   UNL     1      26.939   9.412 -32.060  1.00  0.00     0.161 A 
ATOM      2  C   UNL     1      26.611   9.027 -30.750  1.00  0.00     0.161 A 
ATOM      3  C   UNL     1      25.652   8.029 -30.526  1.00  0.00     0.098 A 
ATOM      4  C   UNL     1      25.014   7.410 -31.603  1.00  0.00     0.142 A 
ATOM      5  C   UNL     1      25.338   7.790 -32.921  1.00  0.00     0.022 A 
ATOM      6  C   UNL     1      26.296   8.788 -33.148  1.00  0.00     0.062 A 
ATOM      7  C   UNL     1      24.682   7.151 -33.979  1.00  0.00     0.019 A 
ATOM      8  C   UNL     1      23.736   6.165 -33.702  1.00  0.00     0.094 A 
ATOM      9  C   UNL     1      23.467   5.839 -32.369  1.00  0.00     0.336 A 
ATOM     10  O   UNL     1      22.615   4.952 -32.099  1.00  0.00    -0.246 OA
ATOM     11  O   UNL     1      24.104   6.463 -31.382  1.00  0.00    -0.423 OA
ENDROOT
BRANCH   1  12
ATOM     12  O   UNL     1      27.905  10.415 -32.238  1.00  0.00    -0.493 OA
ATOM     13  C   UNL     1      28.855  10.440 -33.299  1.00  0.00     0.278 C 
ENDBRANCH   1  12
BRANCH   2  14
ATOM     14  O   UNL     1      27.246   9.643 -29.674  1.00  0.00    -0.504 OA
ATOM     15  H   UNL     1      26.720  10.059 -28.914  1.00  0.00     0.293 HD
ENDBRANCH   2  14
TORSDOF 2
ENDMDL
MODEL 9
REMARK VINA RESULT:    -4.585      2.614      3.600
REMARK INTER + INTRA:          -5.011
REMARK INTER:                  -4.974
REMARK INTRA:                  -0.037
REMARK UNBOUND:                -0.024
REMARK SMILES COc1cc2ccc(=O)oc2cc1O
REMARK SMILES IDX 3 1 13 2 12 3 11 4 5 5 4 6 6 7 7 8 8 9 9 10 10 11 2 12 1 13
REMARK SMILES IDX 14 14
REMARK H PARENT 14 15
REMARK Flexibility Score: inf
ROOT
ATOM      1  C   UNL     1      27.166   8.534 -31.725  1.00  0.00     0.161 A 
ATOM      2  C   UNL     1      27.312   9.749 -31.035  1.00  0.00     0.161 A 
ATOM      3  C   UNL     1      27.641  10.921 -31.730  1.00  0.00     0.098 A 
ATOM      4  C   UNL     1      27.829  10.891 -33.114  1.00  0.00     0.142 A 
ATOM      5  C   UNL     1      27.684   9.675 -33.814  1.00  0.00     0.022 A 
ATOM      6  C   UNL     1      27.354   8.503 -33.121  1.00  0.00     0.062 A 
ATOM      7  C   UNL     1      27.877   9.677 -35.200  1.00  0.00     0.019 A 
ATOM      8  C   UNL     1      28.204  10.870 -35.843  1.00  0.00     0.094 A 
ATOM      9  C   UNL     1      28.330  12.038 -35.084  1.00  0.00     0.336 A 
ATOM     10  O   UNL     1      28.625  13.125 -35.647  1.00  0.00    -0.246 OA
ATOM     11  O   UNL     1      28.142  12.008 -33.767  1.00  0.00    -0.423 OA
ENDROOT
BRANCH   1  12
ATOM     12  O   UNL     1      26.835   7.386 -30.988  1.00  0.00    -0.493 OA
ATOM     13  C   UNL     1      25.503   6.955 -30.722  1.00  0.00     0.278 C 
ENDBRANCH   1  12
BRANCH   2  14
ATOM     14  O   UNL     1      27.125   9.782 -29.654  1.00  0.00    -0.504 OA
ATOM     15  H   UNL     1      27.860   9.506 -29.014  1.00  0.00     0.293 HD
ENDBRANCH   2  14
TORSDOF 2
ENDMDL
