MODEL 1
REMARK VINA RESULT:    -6.564      0.000      0.000
REMARK INTER + INTRA:         -10.917
REMARK INTER:                  -9.442
REMARK INTRA:                  -1.474
REMARK UNBOUND:                -1.474
REMARK SMILES O=c1c(O[C@H]2O[C@H](CO)[C@H](O)[C@@H](O)[C@@H]2O)c(-c2ccc(O)cc2)oc2cc(O)cc(O)c12
REMARK SMILES IDX 4 1 3 2 16 3 24 4 2 5 25 6 1 7 32 8 26 9 30 10 27 11 29 12
REMARK SMILES IDX 17 13 18 14 19 15 20 16 23 17 22 18 21 19 31 21 28 23 5 25
REMARK SMILES IDX 14 26 6 27 12 28 7 29 10 30 15 31 13 33 8 35 9 36 11 38
REMARK H PARENT 21 20 31 22 28 24 15 32 13 34 9 37 11 39
REMARK Flexibility Score: inf
ROOT
ATOM      1  O   UNL     1       8.409  86.068  79.865  1.00  0.00    -0.454 OA
ENDROOT
BRANCH   1   2
ATOM      2  C   UNL     1       9.273  87.013  79.271  1.00  0.00     0.214 A 
ATOM      3  C   UNL     1      10.625  86.998  79.661  1.00  0.00     0.180 A 
ATOM      4  O   UNL     1      11.503  87.793  79.065  1.00  0.00    -0.452 OA
ATOM      5  C   UNL     1       8.874  87.946  78.281  1.00  0.00     0.239 A 
ATOM      6  C   UNL     1      11.175  88.673  78.129  1.00  0.00     0.146 A 
ATOM      7  O   UNL     1       7.685  87.962  77.876  1.00  0.00    -0.285 OA
ATOM      8  C   UNL     1       9.827  88.832  77.725  1.00  0.00     0.111 A 
ATOM      9  C   UNL     1      12.189  89.438  77.548  1.00  0.00     0.094 A 
ATOM     10  C   UNL     1       9.525  89.837  76.756  1.00  0.00     0.134 A 
ATOM     11  C   UNL     1      11.890  90.369  76.552  1.00  0.00     0.123 A 
ATOM     12  C   UNL     1      10.566  90.561  76.162  1.00  0.00     0.093 A 
BRANCH   3  13
ATOM     13  C   UNL     1      11.124  86.078  80.708  1.00  0.00     0.021 A 
ATOM     14  C   UNL     1      12.008  85.044  80.363  1.00  0.00     0.016 A 
ATOM     15  C   UNL     1      12.498  84.175  81.343  1.00  0.00     0.047 A 
ATOM     16  C   UNL     1      12.122  84.340  82.682  1.00  0.00     0.115 A 
ATOM     17  C   UNL     1      10.771  86.254  82.057  1.00  0.00     0.016 A 
ATOM     18  C   UNL     1      11.260  85.382  83.036  1.00  0.00     0.047 A 
BRANCH  16  19
ATOM     19  O   UNL     1      12.600  83.479  83.667  1.00  0.00    -0.508 OA
ATOM     20  H   UNL     1      12.070  83.291  84.508  1.00  0.00     0.293 HD
ENDBRANCH  16  19
ENDBRANCH   3  13
BRANCH  10  21
ATOM     21  O   UNL     1       8.225  90.181  76.373  1.00  0.00    -0.507 OA
ATOM     22  H   UNL     1       8.003  90.869  75.669  1.00  0.00     0.293 HD
ENDBRANCH  10  21
BRANCH  11  23
ATOM     23  O   UNL     1      12.900  91.116  75.952  1.00  0.00    -0.508 OA
ATOM     24  H   UNL     1      13.220  90.911  75.014  1.00  0.00     0.293 HD
ENDBRANCH  11  23
ENDBRANCH   1   2
BRANCH   1  25
ATOM     25  C   UNL     1       8.052  84.764  79.392  1.00  0.00     0.339 C 
ATOM     26  C   UNL     1       6.790  84.804  78.492  1.00  0.00     0.214 C 
ATOM     27  O   UNL     1       7.874  83.880  80.487  1.00  0.00    -0.332 OA
ATOM     28  C   UNL     1       5.520  85.093  79.314  1.00  0.00     0.180 C 
ATOM     29  C   UNL     1       6.808  84.293  81.324  1.00  0.00     0.179 C 
ATOM     30  C   UNL     1       5.466  84.207  80.574  1.00  0.00     0.177 C 
BRANCH  26  31
ATOM     31  O   UNL     1       6.640  83.576  77.828  1.00  0.00    -0.384 OA
ATOM     32  H   UNL     1       7.338  82.968  78.183  1.00  0.00     0.211 HD
ENDBRANCH  26  31
BRANCH  28  33
ATOM     33  O   UNL     1       5.497  86.450  79.674  1.00  0.00    -0.387 OA
ATOM     34  H   UNL     1       5.525  86.975  78.832  1.00  0.00     0.211 HD
ENDBRANCH  28  33
BRANCH  29  35
ATOM     35  C   UNL     1       6.793  83.414  82.580  1.00  0.00     0.191 C 
BRANCH  35  36
ATOM     36  O   UNL     1       7.144  82.101  82.238  1.00  0.00    -0.394 OA
ATOM     37  H   UNL     1       7.210  82.082  81.248  1.00  0.00     0.210 HD
ENDBRANCH  35  36
ENDBRANCH  29  35
BRANCH  30  38
ATOM     38  O   UNL     1       5.200  82.875  80.211  1.00  0.00    -0.387 OA
ATOM     39  H   UNL     1       6.057  82.383  80.278  1.00  0.00     0.211 HD
ENDBRANCH  30  38
ENDBRANCH   1  25
TORSDOF 11
ENDMDL
MODEL 2
REMARK VINA RESULT:    -6.497      2.038      6.935
REMARK INTER + INTRA:         -10.821
REMARK INTER:                  -9.219
REMARK INTRA:                  -1.602
REMARK UNBOUND:                -1.474
REMARK SMILES O=c1c(O[C@H]2O[C@H](CO)[C@H](O)[C@@H](O)[C@@H]2O)c(-c2ccc(O)cc2)oc2cc(O)cc(O)c12
REMARK SMILES IDX 4 1 3 2 16 3 24 4 2 5 25 6 1 7 32 8 26 9 30 10 27 11 29 12
REMARK SMILES IDX 17 13 18 14 19 15 20 16 23 17 22 18 21 19 31 21 28 23 5 25
REMARK SMILES IDX 14 26 6 27 12 28 7 29 10 30 15 31 13 33 8 35 9 36 11 38
REMARK H PARENT 21 20 31 22 28 24 15 32 13 34 9 37 11 39
REMARK Flexibility Score: inf
ROOT
ATOM      1  O   UNL     1       9.058  85.479  81.453  1.00  0.00    -0.454 OA
ENDROOT
BRANCH   1   2
ATOM      2  C   UNL     1       8.011  85.081  80.595  1.00  0.00     0.214 A 
ATOM      3  C   UNL     1       8.140  85.380  79.225  1.00  0.00     0.180 A 
ATOM      4  O   UNL     1       7.239  84.943  78.356  1.00  0.00    -0.452 OA
ATOM      5  C   UNL     1       6.861  84.366  81.016  1.00  0.00     0.239 A 
ATOM      6  C   UNL     1       6.155  84.263  78.706  1.00  0.00     0.146 A 
ATOM      7  O   UNL     1       6.731  84.045  82.223  1.00  0.00    -0.285 OA
ATOM      8  C   UNL     1       5.883  83.985  80.068  1.00  0.00     0.111 A 
ATOM      9  C   UNL     1       5.288  83.826  77.702  1.00  0.00     0.094 A 
ATOM     10  C   UNL     1       4.670  83.304  80.390  1.00  0.00     0.134 A 
ATOM     11  C   UNL     1       4.141  83.100  78.024  1.00  0.00     0.123 A 
ATOM     12  C   UNL     1       3.841  82.842  79.361  1.00  0.00     0.093 A 
BRANCH   3  13
ATOM     13  C   UNL     1       9.292  86.147  78.700  1.00  0.00     0.021 A 
ATOM     14  C   UNL     1       9.267  87.551  78.736  1.00  0.00     0.016 A 
ATOM     15  C   UNL     1      10.353  88.291  78.256  1.00  0.00     0.047 A 
ATOM     16  C   UNL     1      11.482  87.635  77.750  1.00  0.00     0.115 A 
ATOM     17  C   UNL     1      10.439  85.496  78.214  1.00  0.00     0.016 A 
ATOM     18  C   UNL     1      11.522  86.237  77.733  1.00  0.00     0.047 A 
BRANCH  16  19
ATOM     19  O   UNL     1      12.568  88.360  77.266  1.00  0.00    -0.508 OA
ATOM     20  H   UNL     1      12.554  88.782  76.346  1.00  0.00     0.293 HD
ENDBRANCH  16  19
ENDBRANCH   3  13
BRANCH  10  21
ATOM     21  O   UNL     1       4.225  83.088  81.698  1.00  0.00    -0.507 OA
ATOM     22  H   UNL     1       3.432  82.511  81.940  1.00  0.00     0.293 HD
ENDBRANCH  10  21
BRANCH  11  23
ATOM     23  O   UNL     1       3.287  82.640  77.025  1.00  0.00    -0.508 OA
ATOM     24  H   UNL     1       2.599  83.249  76.599  1.00  0.00     0.293 HD
ENDBRANCH  11  23
ENDBRANCH   1   2
BRANCH   1  25
ATOM     25  C   UNL     1      10.207  84.731  81.867  1.00  0.00     0.339 C 
ATOM     26  C   UNL     1      10.249  84.546  83.406  1.00  0.00     0.214 C 
ATOM     27  O   UNL     1      11.390  85.353  81.391  1.00  0.00    -0.332 OA
ATOM     28  C   UNL     1      10.580  85.868  84.124  1.00  0.00     0.180 C 
ATOM     29  C   UNL     1      11.556  86.650  81.938  1.00  0.00     0.179 C 
ATOM     30  C   UNL     1      11.780  86.571  83.460  1.00  0.00     0.177 C 
BRANCH  26  31
ATOM     31  O   UNL     1      11.216  83.584  83.742  1.00  0.00    -0.384 OA
ATOM     32  H   UNL     1      11.313  82.985  82.958  1.00  0.00     0.211 HD
ENDBRANCH  26  31
BRANCH  28  33
ATOM     33  O   UNL     1       9.453  86.706  84.100  1.00  0.00    -0.387 OA
ATOM     34  H   UNL     1       9.405  87.102  83.191  1.00  0.00     0.211 HD
ENDBRANCH  28  33
BRANCH  29  35
ATOM     35  C   UNL     1      12.737  87.336  81.244  1.00  0.00     0.191 C 
BRANCH  35  36
ATOM     36  O   UNL     1      13.401  88.166  82.157  1.00  0.00    -0.394 OA
ATOM     37  H   UNL     1      12.738  88.388  82.861  1.00  0.00     0.210 HD
ENDBRANCH  35  36
ENDBRANCH  29  35
BRANCH  30  38
ATOM     38  O   UNL     1      12.962  85.863  83.737  1.00  0.00    -0.387 OA
ATOM     39  H   UNL     1      13.565  86.486  84.216  1.00  0.00     0.211 HD
ENDBRANCH  30  38
ENDBRANCH   1  25
TORSDOF 11
ENDMDL
MODEL 3
REMARK VINA RESULT:    -6.479      2.661      4.611
REMARK INTER + INTRA:         -10.794
REMARK INTER:                  -9.735
REMARK INTRA:                  -1.059
REMARK UNBOUND:                -1.474
REMARK SMILES O=c1c(O[C@H]2O[C@H](CO)[C@H](O)[C@@H](O)[C@@H]2O)c(-c2ccc(O)cc2)oc2cc(O)cc(O)c12
REMARK SMILES IDX 4 1 3 2 16 3 24 4 2 5 25 6 1 7 32 8 26 9 30 10 27 11 29 12
REMARK SMILES IDX 17 13 18 14 19 15 20 16 23 17 22 18 21 19 31 21 28 23 5 25
REMARK SMILES IDX 14 26 6 27 12 28 7 29 10 30 15 31 13 33 8 35 9 36 11 38
REMARK H PARENT 21 20 31 22 28 24 15 32 13 34 9 37 11 39
REMARK Flexibility Score: inf
ROOT
ATOM      1  O   UNL     1       7.652  86.963  80.081  1.00  0.00    -0.454 OA
ENDROOT
BRANCH   1   2
ATOM      2  C   UNL     1       7.188  87.797  79.041  1.00  0.00     0.214 A 
ATOM      3  C   UNL     1       8.122  88.214  78.073  1.00  0.00     0.180 A 
ATOM      4  O   UNL     1       7.726  88.914  77.018  1.00  0.00    -0.452 OA
ATOM      5  C   UNL     1       5.840  88.206  78.887  1.00  0.00     0.239 A 
ATOM      6  C   UNL     1       6.474  89.309  76.830  1.00  0.00     0.146 A 
ATOM      7  O   UNL     1       4.970  87.820  79.706  1.00  0.00    -0.285 OA
ATOM      8  C   UNL     1       5.472  89.018  77.788  1.00  0.00     0.111 A 
ATOM      9  C   UNL     1       6.165  90.015  75.666  1.00  0.00     0.094 A 
ATOM     10  C   UNL     1       4.154  89.522  77.563  1.00  0.00     0.134 A 
ATOM     11  C   UNL     1       4.859  90.442  75.424  1.00  0.00     0.123 A 
ATOM     12  C   UNL     1       3.864  90.191  76.368  1.00  0.00     0.093 A 
BRANCH   3  13
ATOM     13  C   UNL     1       9.555  87.860  78.170  1.00  0.00     0.021 A 
ATOM     14  C   UNL     1      10.459  88.766  78.747  1.00  0.00     0.016 A 
ATOM     15  C   UNL     1      11.815  88.440  78.858  1.00  0.00     0.047 A 
ATOM     16  C   UNL     1      12.279  87.198  78.407  1.00  0.00     0.115 A 
ATOM     17  C   UNL     1      10.024  86.605  77.743  1.00  0.00     0.016 A 
ATOM     18  C   UNL     1      11.380  86.282  77.852  1.00  0.00     0.047 A 
BRANCH  16  19
ATOM     19  O   UNL     1      13.627  86.863  78.508  1.00  0.00    -0.508 OA
ATOM     20  H   UNL     1      14.208  86.754  77.686  1.00  0.00     0.293 HD
ENDBRANCH  16  19
ENDBRANCH   3  13
BRANCH  10  21
ATOM     21  O   UNL     1       3.114  89.417  78.491  1.00  0.00    -0.507 OA
ATOM     22  H   UNL     1       2.780  88.544  78.874  1.00  0.00     0.293 HD
ENDBRANCH  10  21
BRANCH  11  23
ATOM     23  O   UNL     1       4.540  91.125  74.253  1.00  0.00    -0.508 OA
ATOM     24  H   UNL     1       4.838  92.081  74.103  1.00  0.00     0.293 HD
ENDBRANCH  11  23
ENDBRANCH   1   2
BRANCH   1  25
ATOM     25  C   UNL     1       6.917  86.007  80.853  1.00  0.00     0.339 C 
ATOM     26  C   UNL     1       7.732  85.505  82.073  1.00  0.00     0.214 C 
ATOM     27  O   UNL     1       6.508  84.926  80.029  1.00  0.00    -0.332 OA
ATOM     28  C   UNL     1       8.892  84.589  81.639  1.00  0.00     0.180 C 
ATOM     29  C   UNL     1       7.618  84.224  79.498  1.00  0.00     0.179 C 
ATOM     30  C   UNL     1       8.412  83.534  80.624  1.00  0.00     0.177 C 
BRANCH  26  31
ATOM     31  O   UNL     1       6.891  84.799  82.949  1.00  0.00    -0.384 OA
ATOM     32  H   UNL     1       6.892  85.290  83.810  1.00  0.00     0.211 HD
ENDBRANCH  26  31
BRANCH  28  33
ATOM     33  O   UNL     1       9.917  85.370  81.079  1.00  0.00    -0.387 OA
ATOM     34  H   UNL     1      10.742  84.819  81.093  1.00  0.00     0.211 HD
ENDBRANCH  28  33
BRANCH  29  35
ATOM     35  C   UNL     1       7.115  83.201  78.474  1.00  0.00     0.191 C 
BRANCH  35  36
ATOM     36  O   UNL     1       8.009  82.123  78.409  1.00  0.00    -0.394 OA
ATOM     37  H   UNL     1       8.919  82.520  78.390  1.00  0.00     0.210 HD
ENDBRANCH  35  36
ENDBRANCH  29  35
BRANCH  30  38
ATOM     38  O   UNL     1       7.604  82.582  81.270  1.00  0.00    -0.387 OA
ATOM     39  H   UNL     1       6.665  82.867  81.139  1.00  0.00     0.211 HD
ENDBRANCH  30  38
ENDBRANCH   1  25
TORSDOF 11
ENDMDL
MODEL 4
REMARK VINA RESULT:    -6.226      2.248      4.611
REMARK INTER + INTRA:         -10.430
REMARK INTER:                  -8.724
REMARK INTRA:                  -1.706
REMARK UNBOUND:                -1.474
REMARK SMILES O=c1c(O[C@H]2O[C@H](CO)[C@H](O)[C@@H](O)[C@@H]2O)c(-c2ccc(O)cc2)oc2cc(O)cc(O)c12
REMARK SMILES IDX 4 1 3 2 16 3 24 4 2 5 25 6 1 7 32 8 26 9 30 10 27 11 29 12
REMARK SMILES IDX 17 13 18 14 19 15 20 16 23 17 22 18 21 19 31 21 28 23 5 25
REMARK SMILES IDX 14 26 6 27 12 28 7 29 10 30 15 31 13 33 8 35 9 36 11 38
REMARK H PARENT 21 20 31 22 28 24 15 32 13 34 9 37 11 39
REMARK Flexibility Score: inf
ROOT
ATOM      1  O   UNL     1       8.679  85.277  81.270  1.00  0.00    -0.454 OA
ENDROOT
BRANCH   1   2
ATOM      2  C   UNL     1       9.435  85.899  80.254  1.00  0.00     0.214 A 
ATOM      3  C   UNL     1       9.096  85.609  78.918  1.00  0.00     0.180 A 
ATOM      4  O   UNL     1       9.702  86.240  77.921  1.00  0.00    -0.452 OA
ATOM      5  C   UNL     1      10.481  86.826  80.491  1.00  0.00     0.239 A 
ATOM      6  C   UNL     1      10.679  87.119  78.099  1.00  0.00     0.146 A 
ATOM      7  O   UNL     1      10.784  87.142  81.668  1.00  0.00    -0.285 OA
ATOM      8  C   UNL     1      11.157  87.419  79.398  1.00  0.00     0.111 A 
ATOM      9  C   UNL     1      11.224  87.746  76.976  1.00  0.00     0.094 A 
ATOM     10  C   UNL     1      12.251  88.328  79.524  1.00  0.00     0.134 A 
ATOM     11  C   UNL     1      12.247  88.685  77.117  1.00  0.00     0.123 A 
ATOM     12  C   UNL     1      12.751  88.971  78.385  1.00  0.00     0.093 A 
BRANCH   3  13
ATOM     13  C   UNL     1       8.038  84.633  78.577  1.00  0.00     0.021 A 
ATOM     14  C   UNL     1       6.773  85.091  78.175  1.00  0.00     0.016 A 
ATOM     15  C   UNL     1       5.765  84.181  77.837  1.00  0.00     0.047 A 
ATOM     16  C   UNL     1       6.017  82.803  77.882  1.00  0.00     0.115 A 
ATOM     17  C   UNL     1       8.290  83.251  78.596  1.00  0.00     0.016 A 
ATOM     18  C   UNL     1       7.281  82.343  78.260  1.00  0.00     0.047 A 
BRANCH  16  19
ATOM     19  O   UNL     1       5.021  81.888  77.552  1.00  0.00    -0.508 OA
ATOM     20  H   UNL     1       4.198  81.771  78.129  1.00  0.00     0.293 HD
ENDBRANCH  16  19
ENDBRANCH   3  13
BRANCH  10  21
ATOM     21  O   UNL     1      12.897  88.603  80.733  1.00  0.00    -0.507 OA
ATOM     22  H   UNL     1      12.654  88.178  81.616  1.00  0.00     0.293 HD
ENDBRANCH  10  21
BRANCH  11  23
ATOM     23  O   UNL     1      12.777  89.331  76.003  1.00  0.00    -0.508 OA
ATOM     24  H   UNL     1      12.897  90.336  75.985  1.00  0.00     0.293 HD
ENDBRANCH  11  23
ENDBRANCH   1   2
BRANCH   1  25
ATOM     25  C   UNL     1       7.536  85.782  81.970  1.00  0.00     0.339 C 
ATOM     26  C   UNL     1       7.761  85.800  83.504  1.00  0.00     0.214 C 
ATOM     27  O   UNL     1       6.383  85.029  81.628  1.00  0.00    -0.332 OA
ATOM     28  C   UNL     1       7.762  84.375  84.090  1.00  0.00     0.180 C 
ATOM     29  C   UNL     1       6.509  83.673  82.021  1.00  0.00     0.179 C 
ATOM     30  C   UNL     1       6.569  83.558  83.556  1.00  0.00     0.177 C 
BRANCH  26  31
ATOM     31  O   UNL     1       6.751  86.552  84.124  1.00  0.00    -0.384 OA
ATOM     32  H   UNL     1       6.045  86.705  83.445  1.00  0.00     0.211 HD
ENDBRANCH  26  31
BRANCH  28  33
ATOM     33  O   UNL     1       8.971  83.738  83.763  1.00  0.00    -0.387 OA
ATOM     34  H   UNL     1       8.931  82.824  84.147  1.00  0.00     0.211 HD
ENDBRANCH  28  33
BRANCH  29  35
ATOM     35  C   UNL     1       5.326  82.880  81.457  1.00  0.00     0.191 C 
BRANCH  35  36
ATOM     36  O   UNL     1       4.163  83.660  81.524  1.00  0.00    -0.394 OA
ATOM     37  H   UNL     1       4.169  84.088  82.419  1.00  0.00     0.210 HD
ENDBRANCH  35  36
ENDBRANCH  29  35
BRANCH  30  38
ATOM     38  O   UNL     1       5.374  84.033  84.122  1.00  0.00    -0.387 OA
ATOM     39  H   UNL     1       5.568  84.243  85.070  1.00  0.00     0.211 HD
ENDBRANCH  30  38
ENDBRANCH   1  25
TORSDOF 11
ENDMDL
MODEL 5
REMARK VINA RESULT:    -6.213      1.862      6.431
REMARK INTER + INTRA:         -10.412
REMARK INTER:                  -9.247
REMARK INTRA:                  -1.165
REMARK UNBOUND:                -1.474
REMARK SMILES O=c1c(O[C@H]2O[C@H](CO)[C@H](O)[C@@H](O)[C@@H]2O)c(-c2ccc(O)cc2)oc2cc(O)cc(O)c12
REMARK SMILES IDX 4 1 3 2 16 3 24 4 2 5 25 6 1 7 32 8 26 9 30 10 27 11 29 12
REMARK SMILES IDX 17 13 18 14 19 15 20 16 23 17 22 18 21 19 31 21 28 23 5 25
REMARK SMILES IDX 14 26 6 27 12 28 7 29 10 30 15 31 13 33 8 35 9 36 11 38
REMARK H PARENT 21 20 31 22 28 24 15 32 13 34 9 37 11 39
REMARK Flexibility Score: inf
ROOT
ATOM      1  O   UNL     1       8.514  86.952  78.662  1.00  0.00    -0.454 OA
ENDROOT
BRANCH   1   2
ATOM      2  C   UNL     1       9.263  86.371  79.708  1.00  0.00     0.214 A 
ATOM      3  C   UNL     1       8.953  85.047  80.075  1.00  0.00     0.180 A 
ATOM      4  O   UNL     1       9.688  84.415  80.980  1.00  0.00    -0.452 OA
ATOM      5  C   UNL     1      10.329  87.019  80.381  1.00  0.00     0.239 A 
ATOM      6  C   UNL     1      10.698  84.980  81.627  1.00  0.00     0.146 A 
ATOM      7  O   UNL     1      10.662  88.185  80.053  1.00  0.00    -0.285 OA
ATOM      8  C   UNL     1      11.038  86.335  81.397  1.00  0.00     0.111 A 
ATOM      9  C   UNL     1      11.422  84.207  82.538  1.00  0.00     0.094 A 
ATOM     10  C   UNL     1      12.096  86.908  82.167  1.00  0.00     0.134 A 
ATOM     11  C   UNL     1      12.499  84.759  83.233  1.00  0.00     0.123 A 
ATOM     12  C   UNL     1      12.831  86.099  83.043  1.00  0.00     0.093 A 
BRANCH   3  13
ATOM     13  C   UNL     1       7.839  84.305  79.446  1.00  0.00     0.021 A 
ATOM     14  C   UNL     1       8.110  83.158  78.683  1.00  0.00     0.016 A 
ATOM     15  C   UNL     1       7.066  82.438  78.092  1.00  0.00     0.047 A 
ATOM     16  C   UNL     1       5.738  82.847  78.273  1.00  0.00     0.115 A 
ATOM     17  C   UNL     1       6.503  84.694  79.645  1.00  0.00     0.016 A 
ATOM     18  C   UNL     1       5.461  83.974  79.052  1.00  0.00     0.047 A 
BRANCH  16  19
ATOM     19  O   UNL     1       4.691  82.140  77.688  1.00  0.00    -0.508 OA
ATOM     20  H   UNL     1       4.477  81.189  77.960  1.00  0.00     0.293 HD
ENDBRANCH  16  19
ENDBRANCH   3  13
BRANCH  10  21
ATOM     21  O   UNL     1      12.439  88.263  82.128  1.00  0.00    -0.507 OA
ATOM     22  H   UNL     1      13.180  88.677  82.675  1.00  0.00     0.293 HD
ENDBRANCH  10  21
BRANCH  11  23
ATOM     23  O   UNL     1      13.240  83.987  84.125  1.00  0.00    -0.508 OA
ATOM     24  H   UNL     1      12.788  83.369  84.788  1.00  0.00     0.293 HD
ENDBRANCH  11  23
ENDBRANCH   1   2
BRANCH   1  25
ATOM     25  C   UNL     1       7.601  88.054  78.722  1.00  0.00     0.339 C 
ATOM     26  C   UNL     1       6.418  87.875  77.735  1.00  0.00     0.214 C 
ATOM     27  O   UNL     1       8.290  89.271  78.482  1.00  0.00    -0.332 OA
ATOM     28  C   UNL     1       6.871  88.047  76.273  1.00  0.00     0.180 C 
ATOM     29  C   UNL     1       8.853  89.306  77.183  1.00  0.00     0.179 C 
ATOM     30  C   UNL     1       7.746  89.306  76.112  1.00  0.00     0.177 C 
BRANCH  26  31
ATOM     31  O   UNL     1       5.415  88.815  78.021  1.00  0.00    -0.384 OA
ATOM     32  H   UNL     1       4.546  88.342  77.951  1.00  0.00     0.211 HD
ENDBRANCH  26  31
BRANCH  28  33
ATOM     33  O   UNL     1       7.584  86.906  75.869  1.00  0.00    -0.387 OA
ATOM     34  H   UNL     1       8.352  87.221  75.324  1.00  0.00     0.211 HD
ENDBRANCH  28  33
BRANCH  29  35
ATOM     35  C   UNL     1       9.738  90.552  77.058  1.00  0.00     0.191 C 
BRANCH  35  36
ATOM     36  O   UNL     1      10.671  90.572  78.104  1.00  0.00    -0.394 OA
ATOM     37  H   UNL     1      10.266  90.050  78.845  1.00  0.00     0.210 HD
ENDBRANCH  35  36
ENDBRANCH  29  35
BRANCH  30  38
ATOM     38  O   UNL     1       6.953  90.459  76.239  1.00  0.00    -0.387 OA
ATOM     39  H   UNL     1       6.563  90.441  77.149  1.00  0.00     0.211 HD
ENDBRANCH  30  38
ENDBRANCH   1  25
TORSDOF 11
ENDMDL
MODEL 6
REMARK VINA RESULT:    -6.203      2.403      5.377
REMARK INTER + INTRA:         -10.397
REMARK INTER:                  -9.187
REMARK INTRA:                  -1.210
REMARK UNBOUND:                -1.474
REMARK SMILES O=c1c(O[C@H]2O[C@H](CO)[C@H](O)[C@@H](O)[C@@H]2O)c(-c2ccc(O)cc2)oc2cc(O)cc(O)c12
REMARK SMILES IDX 4 1 3 2 16 3 24 4 2 5 25 6 1 7 32 8 26 9 30 10 27 11 29 12
REMARK SMILES IDX 17 13 18 14 19 15 20 16 23 17 22 18 21 19 31 21 28 23 5 25
REMARK SMILES IDX 14 26 6 27 12 28 7 29 10 30 15 31 13 33 8 35 9 36 11 38
REMARK H PARENT 21 20 31 22 28 24 15 32 13 34 9 37 11 39
REMARK Flexibility Score: inf
ROOT
ATOM      1  O   UNL     1       7.557  85.582  78.335  1.00  0.00    -0.454 OA
ENDROOT
BRANCH   1   2
ATOM      2  C   UNL     1       8.703  86.394  78.471  1.00  0.00     0.214 A 
ATOM      3  C   UNL     1       8.545  87.781  78.287  1.00  0.00     0.180 A 
ATOM      4  O   UNL     1       9.562  88.605  78.501  1.00  0.00    -0.452 OA
ATOM      5  C   UNL     1       9.989  85.909  78.818  1.00  0.00     0.239 A 
ATOM      6  C   UNL     1      10.778  88.194  78.836  1.00  0.00     0.146 A 
ATOM      7  O   UNL     1      10.160  84.683  79.031  1.00  0.00    -0.285 OA
ATOM      8  C   UNL     1      11.067  86.813  78.960  1.00  0.00     0.111 A 
ATOM      9  C   UNL     1      11.767  89.154  79.066  1.00  0.00     0.094 A 
ATOM     10  C   UNL     1      12.409  86.427  79.263  1.00  0.00     0.134 A 
ATOM     11  C   UNL     1      13.057  88.766  79.429  1.00  0.00     0.123 A 
ATOM     12  C   UNL     1      13.369  87.411  79.529  1.00  0.00     0.093 A 
BRANCH   3  13
ATOM     13  C   UNL     1       7.247  88.372  77.894  1.00  0.00     0.021 A 
ATOM     14  C   UNL     1       6.394  88.895  78.880  1.00  0.00     0.016 A 
ATOM     15  C   UNL     1       5.169  89.469  78.524  1.00  0.00     0.047 A 
ATOM     16  C   UNL     1       4.791  89.541  77.177  1.00  0.00     0.115 A 
ATOM     17  C   UNL     1       6.872  88.472  76.544  1.00  0.00     0.016 A 
ATOM     18  C   UNL     1       5.646  89.043  76.190  1.00  0.00     0.047 A 
BRANCH  16  19
ATOM     19  O   UNL     1       3.572  90.107  76.810  1.00  0.00    -0.508 OA
ATOM     20  H   UNL     1       2.706  89.831  77.255  1.00  0.00     0.293 HD
ENDBRANCH  16  19
ENDBRANCH   3  13
BRANCH  10  21
ATOM     21  O   UNL     1      12.849  85.100  79.283  1.00  0.00    -0.507 OA
ATOM     22  H   UNL     1      13.093  84.570  78.459  1.00  0.00     0.293 HD
ENDBRANCH  10  21
BRANCH  11  23
ATOM     23  O   UNL     1      14.040  89.719  79.684  1.00  0.00    -0.508 OA
ATOM     24  H   UNL     1      14.108  90.566  79.132  1.00  0.00     0.293 HD
ENDBRANCH  11  23
ENDBRANCH   1   2
BRANCH   1  25
ATOM     25  C   UNL     1       6.357  85.593  79.117  1.00  0.00     0.339 C 
ATOM     26  C   UNL     1       6.592  85.028  80.541  1.00  0.00     0.214 C 
ATOM     27  O   UNL     1       5.330  84.881  78.444  1.00  0.00    -0.332 OA
ATOM     28  C   UNL     1       6.818  83.504  80.513  1.00  0.00     0.180 C 
ATOM     29  C   UNL     1       5.667  83.515  78.273  1.00  0.00     0.179 C 
ATOM     30  C   UNL     1       5.759  82.806  79.637  1.00  0.00     0.177 C 
BRANCH  26  31
ATOM     31  O   UNL     1       5.484  85.314  81.355  1.00  0.00    -0.384 OA
ATOM     32  H   UNL     1       4.735  84.749  81.035  1.00  0.00     0.211 HD
ENDBRANCH  26  31
BRANCH  28  33
ATOM     33  O   UNL     1       8.107  83.234  80.024  1.00  0.00    -0.387 OA
ATOM     34  H   UNL     1       8.523  84.108  79.804  1.00  0.00     0.211 HD
ENDBRANCH  28  33
BRANCH  29  35
ATOM     35  C   UNL     1       4.614  82.852  77.379  1.00  0.00     0.191 C 
BRANCH  35  36
ATOM     36  O   UNL     1       3.333  83.247  77.789  1.00  0.00    -0.394 OA
ATOM     37  H   UNL     1       2.924  82.452  78.220  1.00  0.00     0.210 HD
ENDBRANCH  35  36
ENDBRANCH  29  35
BRANCH  30  38
ATOM     38  O   UNL     1       4.510  82.836  80.281  1.00  0.00    -0.387 OA
ATOM     39  H   UNL     1       3.821  82.861  79.571  1.00  0.00     0.211 HD
ENDBRANCH  30  38
ENDBRANCH   1  25
TORSDOF 11
ENDMDL
MODEL 7
REMARK VINA RESULT:    -6.151      2.571      4.154
REMARK INTER + INTRA:         -10.323
REMARK INTER:                  -9.252
REMARK INTRA:                  -1.071
REMARK UNBOUND:                -1.474
REMARK SMILES O=c1c(O[C@H]2O[C@H](CO)[C@H](O)[C@@H](O)[C@@H]2O)c(-c2ccc(O)cc2)oc2cc(O)cc(O)c12
REMARK SMILES IDX 4 1 3 2 16 3 24 4 2 5 25 6 1 7 32 8 26 9 30 10 27 11 29 12
REMARK SMILES IDX 17 13 18 14 19 15 20 16 23 17 22 18 21 19 31 21 28 23 5 25
REMARK SMILES IDX 14 26 6 27 12 28 7 29 10 30 15 31 13 33 8 35 9 36 11 38
REMARK H PARENT 21 20 31 22 28 24 15 32 13 34 9 37 11 39
REMARK Flexibility Score: inf
ROOT
ATOM      1  O   UNL     1       7.622  86.756  80.051  1.00  0.00    -0.454 OA
ENDROOT
BRANCH   1   2
ATOM      2  C   UNL     1       7.179  87.627  79.033  1.00  0.00     0.214 A 
ATOM      3  C   UNL     1       8.138  88.106  78.120  1.00  0.00     0.180 A 
ATOM      4  O   UNL     1       7.766  88.845  77.084  1.00  0.00    -0.452 OA
ATOM      5  C   UNL     1       5.828  88.016  78.848  1.00  0.00     0.239 A 
ATOM      6  C   UNL     1       6.513  89.224  76.868  1.00  0.00     0.146 A 
ATOM      7  O   UNL     1       4.938  87.576  79.617  1.00  0.00    -0.285 OA
ATOM      8  C   UNL     1       5.483  88.870  77.774  1.00  0.00     0.111 A 
ATOM      9  C   UNL     1       6.231  89.977  75.726  1.00  0.00     0.094 A 
ATOM     10  C   UNL     1       4.164  89.357  77.523  1.00  0.00     0.134 A 
ATOM     11  C   UNL     1       4.926  90.388  75.455  1.00  0.00     0.123 A 
ATOM     12  C   UNL     1       3.903  90.075  76.349  1.00  0.00     0.093 A 
BRANCH   3  13
ATOM     13  C   UNL     1       9.574  87.776  78.254  1.00  0.00     0.021 A 
ATOM     14  C   UNL     1      10.104  86.678  77.556  1.00  0.00     0.016 A 
ATOM     15  C   UNL     1      11.462  86.361  77.662  1.00  0.00     0.047 A 
ATOM     16  C   UNL     1      12.309  87.146  78.455  1.00  0.00     0.115 A 
ATOM     17  C   UNL     1      10.435  88.574  79.027  1.00  0.00     0.016 A 
ATOM     18  C   UNL     1      11.792  88.254  79.134  1.00  0.00     0.047 A 
BRANCH  16  19
ATOM     19  O   UNL     1      13.662  86.838  78.571  1.00  0.00    -0.508 OA
ATOM     20  H   UNL     1      13.977  86.032  79.095  1.00  0.00     0.293 HD
ENDBRANCH  16  19
ENDBRANCH   3  13
BRANCH  10  21
ATOM     21  O   UNL     1       3.093  89.190  78.406  1.00  0.00    -0.507 OA
ATOM     22  H   UNL     1       2.776  88.295  78.751  1.00  0.00     0.293 HD
ENDBRANCH  10  21
BRANCH  11  23
ATOM     23  O   UNL     1       4.635  91.117  74.305  1.00  0.00    -0.508 OA
ATOM     24  H   UNL     1       3.911  90.822  73.663  1.00  0.00     0.293 HD
ENDBRANCH  11  23
ENDBRANCH   1   2
BRANCH   1  25
ATOM     25  C   UNL     1       8.290  85.496  79.920  1.00  0.00     0.339 C 
ATOM     26  C   UNL     1       7.368  84.419  79.293  1.00  0.00     0.214 C 
ATOM     27  O   UNL     1       8.788  85.075  81.181  1.00  0.00    -0.332 OA
ATOM     28  C   UNL     1       6.265  83.979  80.274  1.00  0.00     0.180 C 
ATOM     29  C   UNL     1       7.741  84.863  82.112  1.00  0.00     0.179 C 
ATOM     30  C   UNL     1       6.852  83.686  81.668  1.00  0.00     0.177 C 
BRANCH  26  31
ATOM     31  O   UNL     1       8.130  83.298  78.923  1.00  0.00    -0.384 OA
ATOM     32  H   UNL     1       9.083  83.558  78.999  1.00  0.00     0.211 HD
ENDBRANCH  26  31
BRANCH  28  33
ATOM     33  O   UNL     1       5.289  84.986  80.360  1.00  0.00    -0.387 OA
ATOM     34  H   UNL     1       5.029  85.219  79.430  1.00  0.00     0.211 HD
ENDBRANCH  28  33
BRANCH  29  35
ATOM     35  C   UNL     1       8.351  84.600  83.493  1.00  0.00     0.191 C 
BRANCH  35  36
ATOM     36  O   UNL     1       9.544  83.878  83.350  1.00  0.00    -0.394 OA
ATOM     37  H   UNL     1      10.278  84.514  83.559  1.00  0.00     0.210 HD
ENDBRANCH  35  36
ENDBRANCH  29  35
BRANCH  30  38
ATOM     38  O   UNL     1       7.605  82.500  81.631  1.00  0.00    -0.387 OA
ATOM     39  H   UNL     1       8.037  82.462  80.741  1.00  0.00     0.211 HD
ENDBRANCH  30  38
ENDBRANCH   1  25
TORSDOF 11
ENDMDL
MODEL 8
REMARK VINA RESULT:    -6.135      2.193      5.116
REMARK INTER + INTRA:         -10.299
REMARK INTER:                  -8.867
REMARK INTRA:                  -1.432
REMARK UNBOUND:                -1.474
REMARK SMILES O=c1c(O[C@H]2O[C@H](CO)[C@H](O)[C@@H](O)[C@@H]2O)c(-c2ccc(O)cc2)oc2cc(O)cc(O)c12
REMARK SMILES IDX 4 1 3 2 16 3 24 4 2 5 25 6 1 7 32 8 26 9 30 10 27 11 29 12
REMARK SMILES IDX 17 13 18 14 19 15 20 16 23 17 22 18 21 19 31 21 28 23 5 25
REMARK SMILES IDX 14 26 6 27 12 28 7 29 10 30 15 31 13 33 8 35 9 36 11 38
REMARK H PARENT 21 20 31 22 28 24 15 32 13 34 9 37 11 39
REMARK Flexibility Score: inf
ROOT
ATOM      1  O   UNL     1       7.705  85.619  80.025  1.00  0.00    -0.454 OA
ENDROOT
BRANCH   1   2
ATOM      2  C   UNL     1       8.924  86.315  80.166  1.00  0.00     0.214 A 
ATOM      3  C   UNL     1       9.114  87.466  79.378  1.00  0.00     0.180 A 
ATOM      4  O   UNL     1      10.194  88.218  79.540  1.00  0.00    -0.452 OA
ATOM      5  C   UNL     1       9.949  85.954  81.077  1.00  0.00     0.239 A 
ATOM      6  C   UNL     1      11.171  87.922  80.386  1.00  0.00     0.146 A 
ATOM      7  O   UNL     1       9.798  84.957  81.827  1.00  0.00    -0.285 OA
ATOM      8  C   UNL     1      11.122  86.739  81.163  1.00  0.00     0.111 A 
ATOM      9  C   UNL     1      12.249  88.803  80.495  1.00  0.00     0.094 A 
ATOM     10  C   UNL     1      12.232  86.441  82.012  1.00  0.00     0.134 A 
ATOM     11  C   UNL     1      13.294  88.536  81.380  1.00  0.00     0.123 A 
ATOM     12  C   UNL     1      13.279  87.363  82.132  1.00  0.00     0.093 A 
BRANCH   3  13
ATOM     13  C   UNL     1       8.111  87.901  78.381  1.00  0.00     0.021 A 
ATOM     14  C   UNL     1       7.169  88.885  78.724  1.00  0.00     0.016 A 
ATOM     15  C   UNL     1       6.223  89.316  77.788  1.00  0.00     0.047 A 
ATOM     16  C   UNL     1       6.218  88.780  76.494  1.00  0.00     0.115 A 
ATOM     17  C   UNL     1       8.116  87.387  77.073  1.00  0.00     0.016 A 
ATOM     18  C   UNL     1       7.168  87.817  76.139  1.00  0.00     0.047 A 
BRANCH  16  19
ATOM     19  O   UNL     1       5.279  89.198  75.555  1.00  0.00    -0.508 OA
ATOM     20  H   UNL     1       5.212  88.763  74.644  1.00  0.00     0.293 HD
ENDBRANCH  16  19
ENDBRANCH   3  13
BRANCH  10  21
ATOM     21  O   UNL     1      12.363  85.246  82.727  1.00  0.00    -0.507 OA
ATOM     22  H   UNL     1      13.173  84.644  82.683  1.00  0.00     0.293 HD
ENDBRANCH  10  21
BRANCH  11  23
ATOM     23  O   UNL     1      14.359  89.424  81.511  1.00  0.00    -0.508 OA
ATOM     24  H   UNL     1      14.219  90.425  81.457  1.00  0.00     0.293 HD
ENDBRANCH  11  23
ENDBRANCH   1   2
BRANCH   1  25
ATOM     25  C   UNL     1       7.493  84.259  79.629  1.00  0.00     0.339 C 
ATOM     26  C   UNL     1       6.609  84.160  78.360  1.00  0.00     0.214 C 
ATOM     27  O   UNL     1       6.934  83.519  80.703  1.00  0.00    -0.332 OA
ATOM     28  C   UNL     1       5.144  84.528  78.662  1.00  0.00     0.180 C 
ATOM     29  C   UNL     1       5.660  84.017  81.074  1.00  0.00     0.179 C 
ATOM     30  C   UNL     1       4.646  83.811  79.932  1.00  0.00     0.177 C 
BRANCH  26  31
ATOM     31  O   UNL     1       6.659  82.854  77.846  1.00  0.00    -0.384 OA
ATOM     32  H   UNL     1       7.246  82.328  78.447  1.00  0.00     0.211 HD
ENDBRANCH  26  31
BRANCH  28  33
ATOM     33  O   UNL     1       5.037  85.920  78.818  1.00  0.00    -0.387 OA
ATOM     34  H   UNL     1       5.960  86.283  78.830  1.00  0.00     0.211 HD
ENDBRANCH  28  33
BRANCH  29  35
ATOM     35  C   UNL     1       5.201  83.306  82.351  1.00  0.00     0.191 C 
BRANCH  35  36
ATOM     36  O   UNL     1       3.854  83.604  82.596  1.00  0.00    -0.394 OA
ATOM     37  H   UNL     1       3.408  82.737  82.780  1.00  0.00     0.210 HD
ENDBRANCH  35  36
ENDBRANCH  29  35
BRANCH  30  38
ATOM     38  O   UNL     1       4.484  82.439  79.674  1.00  0.00    -0.387 OA
ATOM     39  H   UNL     1       3.618  82.172  80.073  1.00  0.00     0.211 HD
ENDBRANCH  30  38
ENDBRANCH   1  25
TORSDOF 11
ENDMDL
MODEL 9
REMARK VINA RESULT:    -6.061      1.825      2.748
REMARK INTER + INTRA:         -10.193
REMARK INTER:                  -9.157
REMARK INTRA:                  -1.035
REMARK UNBOUND:                -1.474
REMARK SMILES O=c1c(O[C@H]2O[C@H](CO)[C@H](O)[C@@H](O)[C@@H]2O)c(-c2ccc(O)cc2)oc2cc(O)cc(O)c12
REMARK SMILES IDX 4 1 3 2 16 3 24 4 2 5 25 6 1 7 32 8 26 9 30 10 27 11 29 12
REMARK SMILES IDX 17 13 18 14 19 15 20 16 23 17 22 18 21 19 31 21 28 23 5 25
REMARK SMILES IDX 14 26 6 27 12 28 7 29 10 30 15 31 13 33 8 35 9 36 11 38
REMARK H PARENT 21 20 31 22 28 24 15 32 13 34 9 37 11 39
REMARK Flexibility Score: inf
ROOT
ATOM      1  O   UNL     1       7.268  85.191  81.501  1.00  0.00    -0.454 OA
ENDROOT
BRANCH   1   2
ATOM      2  C   UNL     1       7.689  86.181  80.588  1.00  0.00     0.214 A 
ATOM      3  C   UNL     1       9.074  86.379  80.433  1.00  0.00     0.180 A 
ATOM      4  O   UNL     1       9.532  87.223  79.517  1.00  0.00    -0.452 OA
ATOM      5  C   UNL     1       6.810  86.956  79.790  1.00  0.00     0.239 A 
ATOM      6  C   UNL     1       8.745  87.960  78.744  1.00  0.00     0.146 A 
ATOM      7  O   UNL     1       5.569  86.777  79.870  1.00  0.00    -0.285 OA
ATOM      8  C   UNL     1       7.337  87.902  78.879  1.00  0.00     0.111 A 
ATOM      9  C   UNL     1       9.337  88.793  77.792  1.00  0.00     0.094 A 
ATOM     10  C   UNL     1       6.542  88.763  78.063  1.00  0.00     0.134 A 
ATOM     11  C   UNL     1       8.547  89.578  76.952  1.00  0.00     0.123 A 
ATOM     12  C   UNL     1       7.160  89.557  77.089  1.00  0.00     0.093 A 
BRANCH   3  13
ATOM     13  C   UNL     1      10.064  85.636  81.244  1.00  0.00     0.021 A 
ATOM     14  C   UNL     1      11.169  85.038  80.618  1.00  0.00     0.016 A 
ATOM     15  C   UNL     1      12.120  84.343  81.373  1.00  0.00     0.047 A 
ATOM     16  C   UNL     1      11.984  84.252  82.764  1.00  0.00     0.115 A 
ATOM     17  C   UNL     1       9.948  85.562  82.643  1.00  0.00     0.016 A 
ATOM     18  C   UNL     1      10.898  84.865  83.396  1.00  0.00     0.047 A 
BRANCH  16  19
ATOM     19  O   UNL     1      12.922  83.560  83.527  1.00  0.00    -0.508 OA
ATOM     20  H   UNL     1      12.679  83.151  84.420  1.00  0.00     0.293 HD
ENDBRANCH  16  19
ENDBRANCH   3  13
BRANCH  10  21
ATOM     21  O   UNL     1       5.156  88.896  78.192  1.00  0.00    -0.507 OA
ATOM     22  H   UNL     1       4.513  88.915  77.414  1.00  0.00     0.293 HD
ENDBRANCH  10  21
BRANCH  11  23
ATOM     23  O   UNL     1       9.131  90.391  75.984  1.00  0.00    -0.508 OA
ATOM     24  H   UNL     1       8.643  91.193  75.605  1.00  0.00     0.293 HD
ENDBRANCH  11  23
ENDBRANCH   1   2
BRANCH   1  25
ATOM     25  C   UNL     1       6.679  83.914  81.227  1.00  0.00     0.339 C 
ATOM     26  C   UNL     1       5.172  83.886  81.588  1.00  0.00     0.214 C 
ATOM     27  O   UNL     1       7.390  82.893  81.908  1.00  0.00    -0.332 OA
ATOM     28  C   UNL     1       4.957  83.900  83.113  1.00  0.00     0.180 C 
ATOM     29  C   UNL     1       7.321  83.056  83.314  1.00  0.00     0.179 C 
ATOM     30  C   UNL     1       5.873  82.875  83.809  1.00  0.00     0.177 C 
BRANCH  26  31
ATOM     31  O   UNL     1       4.576  82.734  81.049  1.00  0.00    -0.384 OA
ATOM     32  H   UNL     1       4.014  83.028  80.287  1.00  0.00     0.211 HD
ENDBRANCH  26  31
BRANCH  28  33
ATOM     33  O   UNL     1       5.210  85.191  83.607  1.00  0.00    -0.387 OA
ATOM     34  H   UNL     1       5.309  85.111  84.591  1.00  0.00     0.211 HD
ENDBRANCH  28  33
BRANCH  29  35
ATOM     35  C   UNL     1       8.259  82.043  83.979  1.00  0.00     0.191 C 
BRANCH  35  36
ATOM     36  O   UNL     1       7.983  80.758  83.494  1.00  0.00    -0.394 OA
ATOM     37  H   UNL     1       8.455  80.127  84.098  1.00  0.00     0.210 HD
ENDBRANCH  35  36
ENDBRANCH  29  35
BRANCH  30  38
ATOM     38  O   UNL     1       5.429  81.571  83.532  1.00  0.00    -0.387 OA
ATOM     39  H   UNL     1       6.140  81.132  83.001  1.00  0.00     0.211 HD
ENDBRANCH  30  38
ENDBRANCH   1  25
TORSDOF 11
ENDMDL
