MODEL 1
REMARK VINA RESULT:     2.930      0.000      0.000
REMARK INTER + INTRA:           6.475
REMARK INTER:                   7.726
REMARK INTRA:                  -1.251
REMARK UNBOUND:                -1.251
REMARK SMILES CCCCCCCCCCCCCCCCCCCCCCCCCCCCCC(=O)[O-]
REMARK SMILES IDX 16 1 17 2 18 3 19 4 20 5 21 6 22 7 23 8 24 9 25 10 26 11
REMARK SMILES IDX 27 12 28 13 29 14 30 15 31 16 32 17 15 18 14 19 13 20 12 21
REMARK SMILES IDX 11 22 10 23 9 24 8 25 7 26 6 27 5 28 4 29 3 30 2 31 1 32
REMARK H PARENT
REMARK Flexibility Score: inf
ROOT
ATOM      1  C   UNL     1      19.357  20.389  15.234  1.00  0.00     0.000 C 
ENDROOT
BRANCH   1   2
ATOM      2  C   UNL     1      18.274  20.980  16.156  1.00  0.00     0.000 C 
BRANCH   2   3
ATOM      3  C   UNL     1      17.135  19.984  16.432  1.00  0.00     0.000 C 
BRANCH   3   4
ATOM      4  C   UNL     1      15.876  20.277  15.590  1.00  0.00     0.000 C 
BRANCH   4   5
ATOM      5  C   UNL     1      14.548  19.875  16.260  1.00  0.00     0.000 C 
BRANCH   5   6
ATOM      6  C   UNL     1      13.696  21.091  16.665  1.00  0.00     0.000 C 
BRANCH   6   7
ATOM      7  C   UNL     1      12.233  20.965  16.211  1.00  0.00     0.000 C 
BRANCH   7   8
ATOM      8  C   UNL     1      11.491  22.313  16.240  1.00  0.00     0.000 C 
BRANCH   8   9
ATOM      9  C   UNL     1      10.379  22.349  17.300  1.00  0.00     0.000 C 
BRANCH   9  10
ATOM     10  C   UNL     1      10.073  20.957  17.884  1.00  0.00     0.000 C 
BRANCH  10  11
ATOM     11  C   UNL     1      10.596  20.797  19.327  1.00  0.00     0.000 C 
BRANCH  11  12
ATOM     12  C   UNL     1      11.908  19.995  19.441  1.00  0.00     0.000 C 
BRANCH  12  13
ATOM     13  C   UNL     1      12.703  20.269  20.734  1.00  0.00     0.006 C 
BRANCH  13  14
ATOM     14  C   UNL     1      11.915  19.877  21.994  1.00  0.00     0.053 C 
BRANCH  14  15
ATOM     15  C   UNL     1      11.508  21.089  22.773  1.00  0.00     0.041 C 
ATOM     16  O   UNL     1      11.698  22.240  22.296  1.00  0.00    -0.550 OA
ATOM     17  O   UNL     1      10.885  20.953  24.010  1.00  0.00    -0.550 OA
ENDBRANCH  14  15
ENDBRANCH  13  14
ENDBRANCH  12  13
ENDBRANCH  11  12
ENDBRANCH  10  11
ENDBRANCH   9  10
ENDBRANCH   8   9
ENDBRANCH   7   8
ENDBRANCH   6   7
ENDBRANCH   5   6
ENDBRANCH   4   5
ENDBRANCH   3   4
ENDBRANCH   2   3
ENDBRANCH   1   2
BRANCH   1  18
ATOM     18  C   UNL     1      20.791  20.838  15.595  1.00  0.00     0.000 C 
BRANCH  18  19
ATOM     19  C   UNL     1      21.732  20.942  14.381  1.00  0.00     0.000 C 
BRANCH  19  20
ATOM     20  C   UNL     1      22.921  19.966  14.399  1.00  0.00     0.000 C 
BRANCH  20  21
ATOM     21  C   UNL     1      23.665  19.960  15.745  1.00  0.00     0.000 C 
BRANCH  21  22
ATOM     22  C   UNL     1      24.945  20.814  15.728  1.00  0.00     0.000 C 
BRANCH  22  23
ATOM     23  C   UNL     1      26.264  20.026  15.849  1.00  0.00     0.000 C 
BRANCH  23  24
ATOM     24  C   UNL     1      27.488  20.934  16.055  1.00  0.00    -0.000 C 
BRANCH  24  25
ATOM     25  C   UNL     1      28.097  21.413  14.727  1.00  0.00    -0.000 C 
BRANCH  25  26
ATOM     26  C   UNL     1      29.622  21.211  14.671  1.00  0.00    -0.000 C 
BRANCH  26  27
ATOM     27  C   UNL     1      30.018  19.877  14.017  1.00  0.00    -0.000 C 
BRANCH  27  28
ATOM     28  C   UNL     1      29.962  19.932  12.480  1.00  0.00    -0.000 C 
BRANCH  28  29
ATOM     29  C   UNL     1      29.804  21.364  11.944  1.00  0.00    -0.000 C 
BRANCH  29  30
ATOM     30  C   UNL     1      29.117  21.409  10.567  1.00  0.00    -0.000 C 
BRANCH  30  31
ATOM     31  C   UNL     1      28.888  20.006   9.981  1.00  0.00    -0.003 C 
ATOM     32  C   UNL     1      28.600  20.032   8.482  1.00  0.00     0.004 C 
ENDBRANCH  30  31
ENDBRANCH  29  30
ENDBRANCH  28  29
ENDBRANCH  27  28
ENDBRANCH  26  27
ENDBRANCH  25  26
ENDBRANCH  24  25
ENDBRANCH  23  24
ENDBRANCH  22  23
ENDBRANCH  21  22
ENDBRANCH  20  21
ENDBRANCH  19  20
ENDBRANCH  18  19
ENDBRANCH   1  18
TORSDOF 28
ENDMDL
