MODEL 1
REMARK VINA RESULT:    -5.328      0.000      0.000
REMARK INTER + INTRA:         -12.926
REMARK INTER:                 -10.311
REMARK INTRA:                  -2.615
REMARK UNBOUND:                -2.615
REMARK SMILES CCCCCCCCCCCCCCCCCC(=O)[O-]
REMARK SMILES IDX 10 1 11 2 12 3 13 4 14 5 15 6 16 7 17 8 18 9 19 10 20 11
REMARK SMILES IDX 9 12 8 13 7 14 6 15 5 16 4 17 3 18 2 19 1 20
REMARK H PARENT
REMARK Flexibility Score: inf
ROOT
ATOM      1  C   UNL     1      71.563   5.028  21.145  1.00  0.00     0.000 C 
ENDROOT
BRANCH   1   2
ATOM      2  C   UNL     1      71.617   3.814  22.089  1.00  0.00     0.000 C 
BRANCH   2   3
ATOM      3  C   UNL     1      72.964   3.078  22.027  1.00  0.00     0.000 C 
BRANCH   3   4
ATOM      4  C   UNL     1      73.328   2.636  20.598  1.00  0.00     0.000 C 
BRANCH   4   5
ATOM      5  C   UNL     1      74.794   2.187  20.472  1.00  0.00     0.000 C 
BRANCH   5   6
ATOM      6  C   UNL     1      75.683   2.762  21.588  1.00  0.00     0.000 C 
BRANCH   6   7
ATOM      7  C   UNL     1      77.175   2.753  21.218  1.00  0.00     0.006 C 
BRANCH   7   8
ATOM      8  C   UNL     1      78.078   3.169  22.387  1.00  0.00     0.053 C 
BRANCH   8   9
ATOM      9  C   UNL     1      78.827   4.420  22.049  1.00  0.00     0.041 C 
ATOM     10  O   UNL     1      78.796   4.879  20.878  1.00  0.00    -0.550 OA
ATOM     11  O   UNL     1      79.596   5.052  23.017  1.00  0.00    -0.550 OA
ENDBRANCH   8   9
ENDBRANCH   7   8
ENDBRANCH   6   7
ENDBRANCH   5   6
ENDBRANCH   4   5
ENDBRANCH   3   4
ENDBRANCH   2   3
ENDBRANCH   1   2
BRANCH   1  12
ATOM     12  C   UNL     1      72.673   6.058  21.449  1.00  0.00     0.000 C 
BRANCH  12  13
ATOM     13  C   UNL     1      73.576   6.369  20.240  1.00  0.00    -0.000 C 
BRANCH  13  14
ATOM     14  C   UNL     1      75.084   6.174  20.487  1.00  0.00    -0.000 C 
BRANCH  14  15
ATOM     15  C   UNL     1      75.551   6.475  21.922  1.00  0.00    -0.000 C 
BRANCH  15  16
ATOM     16  C   UNL     1      76.672   7.525  21.978  1.00  0.00    -0.000 C 
BRANCH  16  17
ATOM     17  C   UNL     1      76.232   8.756  22.778  1.00  0.00    -0.000 C 
BRANCH  17  18
ATOM     18  C   UNL     1      74.715   8.758  22.997  1.00  0.00    -0.000 C 
BRANCH  18  19
ATOM     19  C   UNL     1      74.084  10.051  22.468  1.00  0.00    -0.003 C 
ATOM     20  C   UNL     1      72.891   9.753  21.564  1.00  0.00     0.004 C 
ENDBRANCH  18  19
ENDBRANCH  17  18
ENDBRANCH  16  17
ENDBRANCH  15  16
ENDBRANCH  14  15
ENDBRANCH  13  14
ENDBRANCH  12  13
ENDBRANCH   1  12
TORSDOF 16
ENDMDL
MODEL 2
REMARK VINA RESULT:    -5.319      8.987     12.285
REMARK INTER + INTRA:         -12.909
REMARK INTER:                 -10.796
REMARK INTRA:                  -2.112
REMARK UNBOUND:                -2.615
REMARK SMILES CCCCCCCCCCCCCCCCCC(=O)[O-]
REMARK SMILES IDX 10 1 11 2 12 3 13 4 14 5 15 6 16 7 17 8 18 9 19 10 20 11
REMARK SMILES IDX 9 12 8 13 7 14 6 15 5 16 4 17 3 18 2 19 1 20
REMARK H PARENT
REMARK Flexibility Score: inf
ROOT
ATOM      1  C   UNL     1      63.835   4.752  22.333  1.00  0.00     0.000 C 
ENDROOT
BRANCH   1   2
ATOM      2  C   UNL     1      64.999   4.272  23.218  1.00  0.00     0.000 C 
BRANCH   2   3
ATOM      3  C   UNL     1      66.373   4.629  22.629  1.00  0.00     0.000 C 
BRANCH   3   4
ATOM      4  C   UNL     1      66.283   5.711  21.538  1.00  0.00     0.000 C 
BRANCH   4   5
ATOM      5  C   UNL     1      67.574   6.536  21.414  1.00  0.00     0.000 C 
BRANCH   5   6
ATOM      6  C   UNL     1      67.337   7.902  20.747  1.00  0.00     0.000 C 
BRANCH   6   7
ATOM      7  C   UNL     1      65.902   8.059  20.218  1.00  0.00     0.006 C 
BRANCH   7   8
ATOM      8  C   UNL     1      65.788   9.126  19.121  1.00  0.00     0.053 C 
BRANCH   8   9
ATOM      9  C   UNL     1      64.892  10.239  19.566  1.00  0.00     0.041 C 
ATOM     10  O   UNL     1      63.641  10.102  19.518  1.00  0.00    -0.550 OA
ATOM     11  O   UNL     1      65.437  11.444  19.989  1.00  0.00    -0.550 OA
ENDBRANCH   8   9
ENDBRANCH   7   8
ENDBRANCH   6   7
ENDBRANCH   5   6
ENDBRANCH   4   5
ENDBRANCH   3   4
ENDBRANCH   2   3
ENDBRANCH   1   2
BRANCH   1  12
ATOM     12  C   UNL     1      62.522   3.995  22.628  1.00  0.00     0.000 C 
BRANCH  12  13
ATOM     13  C   UNL     1      61.374   4.345  21.661  1.00  0.00    -0.000 C 
BRANCH  13  14
ATOM     14  C   UNL     1      60.875   3.175  20.793  1.00  0.00    -0.000 C 
BRANCH  14  15
ATOM     15  C   UNL     1      61.775   2.827  19.594  1.00  0.00    -0.000 C 
BRANCH  15  16
ATOM     16  C   UNL     1      62.365   1.411  19.680  1.00  0.00    -0.000 C 
BRANCH  16  17
ATOM     17  C   UNL     1      63.805   1.382  19.154  1.00  0.00    -0.000 C 
BRANCH  17  18
ATOM     18  C   UNL     1      64.642   2.505  19.777  1.00  0.00    -0.000 C 
BRANCH  18  19
ATOM     19  C   UNL     1      65.478   3.225  18.712  1.00  0.00    -0.003 C 
ATOM     20  C   UNL     1      64.847   4.559  18.323  1.00  0.00     0.004 C 
ENDBRANCH  18  19
ENDBRANCH  17  18
ENDBRANCH  16  17
ENDBRANCH  15  16
ENDBRANCH  14  15
ENDBRANCH  13  14
ENDBRANCH  12  13
ENDBRANCH   1  12
TORSDOF 16
ENDMDL
MODEL 3
REMARK VINA RESULT:    -5.239      8.176     11.294
REMARK INTER + INTRA:         -12.755
REMARK INTER:                 -10.351
REMARK INTRA:                  -2.405
REMARK UNBOUND:                -2.615
REMARK SMILES CCCCCCCCCCCCCCCCCC(=O)[O-]
REMARK SMILES IDX 10 1 11 2 12 3 13 4 14 5 15 6 16 7 17 8 18 9 19 10 20 11
REMARK SMILES IDX 9 12 8 13 7 14 6 15 5 16 4 17 3 18 2 19 1 20
REMARK H PARENT
REMARK Flexibility Score: inf
ROOT
ATOM      1  C   UNL     1      62.497   4.267  22.518  1.00  0.00     0.000 C 
ENDROOT
BRANCH   1   2
ATOM      2  C   UNL     1      62.429   2.839  23.088  1.00  0.00     0.000 C 
BRANCH   2   3
ATOM      3  C   UNL     1      63.653   2.487  23.947  1.00  0.00     0.000 C 
BRANCH   3   4
ATOM      4  C   UNL     1      64.854   2.030  23.100  1.00  0.00     0.000 C 
BRANCH   4   5
ATOM      5  C   UNL     1      66.149   2.780  23.454  1.00  0.00     0.000 C 
BRANCH   5   6
ATOM      6  C   UNL     1      65.990   4.307  23.354  1.00  0.00     0.000 C 
BRANCH   6   7
ATOM      7  C   UNL     1      66.405   5.030  24.646  1.00  0.00     0.006 C 
BRANCH   7   8
ATOM      8  C   UNL     1      67.841   4.703  25.073  1.00  0.00     0.053 C 
BRANCH   8   9
ATOM      9  C   UNL     1      68.803   5.045  23.978  1.00  0.00     0.041 C 
ATOM     10  O   UNL     1      68.867   6.223  23.538  1.00  0.00    -0.550 OA
ATOM     11  O   UNL     1      69.594   4.054  23.413  1.00  0.00    -0.550 OA
ENDBRANCH   8   9
ENDBRANCH   7   8
ENDBRANCH   6   7
ENDBRANCH   5   6
ENDBRANCH   4   5
ENDBRANCH   3   4
ENDBRANCH   2   3
ENDBRANCH   1   2
BRANCH   1  12
ATOM     12  C   UNL     1      61.457   4.505  21.401  1.00  0.00     0.000 C 
BRANCH  12  13
ATOM     13  C   UNL     1      60.875   3.206  20.811  1.00  0.00    -0.000 C 
BRANCH  13  14
ATOM     14  C   UNL     1      61.606   2.674  19.564  1.00  0.00    -0.000 C 
BRANCH  14  15
ATOM     15  C   UNL     1      62.212   1.267  19.718  1.00  0.00    -0.000 C 
BRANCH  15  16
ATOM     16  C   UNL     1      63.665   1.184  19.228  1.00  0.00    -0.000 C 
BRANCH  16  17
ATOM     17  C   UNL     1      64.481   2.385  19.721  1.00  0.00    -0.000 C 
BRANCH  17  18
ATOM     18  C   UNL     1      65.237   3.049  18.564  1.00  0.00    -0.000 C 
BRANCH  18  19
ATOM     19  C   UNL     1      64.916   4.546  18.485  1.00  0.00    -0.003 C 
ATOM     20  C   UNL     1      65.045   5.213  19.851  1.00  0.00     0.004 C 
ENDBRANCH  18  19
ENDBRANCH  17  18
ENDBRANCH  16  17
ENDBRANCH  15  16
ENDBRANCH  14  15
ENDBRANCH  13  14
ENDBRANCH  12  13
ENDBRANCH   1  12
TORSDOF 16
ENDMDL
MODEL 4
REMARK VINA RESULT:    -5.178      2.634      6.310
REMARK INTER + INTRA:         -12.637
REMARK INTER:                 -10.512
REMARK INTRA:                  -2.125
REMARK UNBOUND:                -2.615
REMARK SMILES CCCCCCCCCCCCCCCCCC(=O)[O-]
REMARK SMILES IDX 10 1 11 2 12 3 13 4 14 5 15 6 16 7 17 8 18 9 19 10 20 11
REMARK SMILES IDX 9 12 8 13 7 14 6 15 5 16 4 17 3 18 2 19 1 20
REMARK H PARENT
REMARK Flexibility Score: inf
ROOT
ATOM      1  C   UNL     1      75.422   7.857  23.763  1.00  0.00     0.000 C 
ENDROOT
BRANCH   1   2
ATOM      2  C   UNL     1      76.553   6.915  24.213  1.00  0.00     0.000 C 
BRANCH   2   3
ATOM      3  C   UNL     1      77.015   7.194  25.651  1.00  0.00     0.000 C 
BRANCH   3   4
ATOM      4  C   UNL     1      76.350   8.446  26.251  1.00  0.00     0.000 C 
BRANCH   4   5
ATOM      5  C   UNL     1      77.369   9.532  26.635  1.00  0.00     0.000 C 
BRANCH   5   6
ATOM      6  C   UNL     1      77.273  10.774  25.732  1.00  0.00     0.000 C 
BRANCH   6   7
ATOM      7  C   UNL     1      77.887  10.541  24.342  1.00  0.00     0.006 C 
BRANCH   7   8
ATOM      8  C   UNL     1      79.416  10.423  24.381  1.00  0.00     0.053 C 
BRANCH   8   9
ATOM      9  C   UNL     1      79.836   9.002  24.175  1.00  0.00     0.041 C 
ATOM     10  O   UNL     1      79.607   8.426  23.079  1.00  0.00    -0.550 OA
ATOM     11  O   UNL     1      80.437   8.298  25.210  1.00  0.00    -0.550 OA
ENDBRANCH   8   9
ENDBRANCH   7   8
ENDBRANCH   6   7
ENDBRANCH   5   6
ENDBRANCH   4   5
ENDBRANCH   3   4
ENDBRANCH   2   3
ENDBRANCH   1   2
BRANCH   1  12
ATOM     12  C   UNL     1      75.528   8.230  22.268  1.00  0.00     0.000 C 
BRANCH  12  13
ATOM     13  C   UNL     1      74.191   8.135  21.509  1.00  0.00    -0.000 C 
BRANCH  13  14
ATOM     14  C   UNL     1      74.078   6.946  20.536  1.00  0.00    -0.000 C 
BRANCH  14  15
ATOM     15  C   UNL     1      75.214   5.913  20.639  1.00  0.00    -0.000 C 
BRANCH  15  16
ATOM     16  C   UNL     1      74.718   4.518  21.049  1.00  0.00    -0.000 C 
BRANCH  16  17
ATOM     17  C   UNL     1      75.490   3.995  22.266  1.00  0.00    -0.000 C 
BRANCH  17  18
ATOM     18  C   UNL     1      76.248   2.707  21.926  1.00  0.00    -0.000 C 
BRANCH  18  19
ATOM     19  C   UNL     1      77.652   3.019  21.394  1.00  0.00    -0.003 C 
ATOM     20  C   UNL     1      78.554   3.560  22.500  1.00  0.00     0.004 C 
ENDBRANCH  18  19
ENDBRANCH  17  18
ENDBRANCH  16  17
ENDBRANCH  15  16
ENDBRANCH  14  15
ENDBRANCH  13  14
ENDBRANCH  12  13
ENDBRANCH   1  12
TORSDOF 16
ENDMDL
MODEL 5
REMARK VINA RESULT:    -5.146      2.522      5.986
REMARK INTER + INTRA:         -12.575
REMARK INTER:                 -10.179
REMARK INTRA:                  -2.396
REMARK UNBOUND:                -2.615
REMARK SMILES CCCCCCCCCCCCCCCCCC(=O)[O-]
REMARK SMILES IDX 10 1 11 2 12 3 13 4 14 5 15 6 16 7 17 8 18 9 19 10 20 11
REMARK SMILES IDX 9 12 8 13 7 14 6 15 5 16 4 17 3 18 2 19 1 20
REMARK H PARENT
REMARK Flexibility Score: inf
ROOT
ATOM      1  C   UNL     1      74.907   7.747  21.662  1.00  0.00     0.000 C 
ENDROOT
BRANCH   1   2
ATOM      2  C   UNL     1      75.849   8.509  22.612  1.00  0.00     0.000 C 
BRANCH   2   3
ATOM      3  C   UNL     1      75.165   9.711  23.281  1.00  0.00     0.000 C 
BRANCH   3   4
ATOM      4  C   UNL     1      75.465   9.795  24.788  1.00  0.00     0.000 C 
BRANCH   4   5
ATOM      5  C   UNL     1      75.444   8.419  25.475  1.00  0.00     0.000 C 
BRANCH   5   6
ATOM      6  C   UNL     1      76.675   8.188  26.367  1.00  0.00     0.000 C 
BRANCH   6   7
ATOM      7  C   UNL     1      77.473   9.479  26.618  1.00  0.00     0.006 C 
BRANCH   7   8
ATOM      8  C   UNL     1      78.979   9.297  26.393  1.00  0.00     0.053 C 
BRANCH   8   9
ATOM      9  C   UNL     1      79.249   8.869  24.984  1.00  0.00     0.041 C 
ATOM     10  O   UNL     1      78.931   9.617  24.023  1.00  0.00    -0.550 OA
ATOM     11  O   UNL     1      79.810   7.624  24.732  1.00  0.00    -0.550 OA
ENDBRANCH   8   9
ENDBRANCH   7   8
ENDBRANCH   6   7
ENDBRANCH   5   6
ENDBRANCH   4   5
ENDBRANCH   3   4
ENDBRANCH   2   3
ENDBRANCH   1   2
BRANCH   1  12
ATOM     12  C   UNL     1      75.637   6.634  20.879  1.00  0.00     0.000 C 
BRANCH  12  13
ATOM     13  C   UNL     1      74.754   5.408  20.578  1.00  0.00    -0.000 C 
BRANCH  13  14
ATOM     14  C   UNL     1      74.128   4.737  21.815  1.00  0.00    -0.000 C 
BRANCH  14  15
ATOM     15  C   UNL     1      74.445   3.239  21.971  1.00  0.00    -0.000 C 
BRANCH  15  16
ATOM     16  C   UNL     1      75.751   2.828  21.274  1.00  0.00    -0.000 C 
BRANCH  16  17
ATOM     17  C   UNL     1      76.944   2.940  22.231  1.00  0.00    -0.000 C 
BRANCH  17  18
ATOM     18  C   UNL     1      78.056   3.804  21.626  1.00  0.00    -0.000 C 
BRANCH  18  19
ATOM     19  C   UNL     1      78.562   4.839  22.638  1.00  0.00    -0.003 C 
ATOM     20  C   UNL     1      77.463   5.231  23.622  1.00  0.00     0.004 C 
ENDBRANCH  18  19
ENDBRANCH  17  18
ENDBRANCH  16  17
ENDBRANCH  15  16
ENDBRANCH  14  15
ENDBRANCH  13  14
ENDBRANCH  12  13
ENDBRANCH   1  12
TORSDOF 16
ENDMDL
MODEL 6
REMARK VINA RESULT:    -5.063      7.562     10.889
REMARK INTER + INTRA:         -12.415
REMARK INTER:                  -9.765
REMARK INTRA:                  -2.650
REMARK UNBOUND:                -2.615
REMARK SMILES CCCCCCCCCCCCCCCCCC(=O)[O-]
REMARK SMILES IDX 10 1 11 2 12 3 13 4 14 5 15 6 16 7 17 8 18 9 19 10 20 11
REMARK SMILES IDX 9 12 8 13 7 14 6 15 5 16 4 17 3 18 2 19 1 20
REMARK H PARENT
REMARK Flexibility Score: inf
ROOT
ATOM      1  C   UNL     1      64.409   2.061  19.499  1.00  0.00     0.000 C 
ENDROOT
BRANCH   1   2
ATOM      2  C   UNL     1      64.725   3.450  18.915  1.00  0.00     0.000 C 
BRANCH   2   3
ATOM      3  C   UNL     1      65.765   4.216  19.746  1.00  0.00     0.000 C 
BRANCH   3   4
ATOM      4  C   UNL     1      65.390   5.696  19.939  1.00  0.00     0.000 C 
BRANCH   4   5
ATOM      5  C   UNL     1      66.433   6.469  20.763  1.00  0.00     0.000 C 
BRANCH   5   6
ATOM      6  C   UNL     1      66.661   5.849  22.153  1.00  0.00     0.000 C 
BRANCH   6   7
ATOM      7  C   UNL     1      67.863   6.468  22.885  1.00  0.00     0.006 C 
BRANCH   7   8
ATOM      8  C   UNL     1      68.658   5.436  23.696  1.00  0.00     0.053 C 
BRANCH   8   9
ATOM      9  C   UNL     1      69.642   4.728  22.818  1.00  0.00     0.041 C 
ATOM     10  O   UNL     1      70.240   5.354  21.904  1.00  0.00    -0.550 OA
ATOM     11  O   UNL     1      69.864   3.367  22.980  1.00  0.00    -0.550 OA
ENDBRANCH   8   9
ENDBRANCH   7   8
ENDBRANCH   6   7
ENDBRANCH   5   6
ENDBRANCH   4   5
ENDBRANCH   3   4
ENDBRANCH   2   3
ENDBRANCH   1   2
BRANCH   1  12
ATOM     12  C   UNL     1      62.894   1.759  19.510  1.00  0.00     0.000 C 
BRANCH  12  13
ATOM     13  C   UNL     1      62.013   3.016  19.648  1.00  0.00    -0.000 C 
BRANCH  13  14
ATOM     14  C   UNL     1      60.954   2.949  20.764  1.00  0.00    -0.000 C 
BRANCH  14  15
ATOM     15  C   UNL     1      61.434   3.432  22.145  1.00  0.00    -0.000 C 
BRANCH  15  16
ATOM     16  C   UNL     1      62.639   4.381  22.060  1.00  0.00    -0.000 C 
BRANCH  16  17
ATOM     17  C   UNL     1      63.822   3.842  22.874  1.00  0.00    -0.000 C 
BRANCH  17  18
ATOM     18  C   UNL     1      63.633   2.357  23.203  1.00  0.00    -0.000 C 
BRANCH  18  19
ATOM     19  C   UNL     1      64.956   1.718  23.641  1.00  0.00    -0.003 C 
ATOM     20  C   UNL     1      66.131   2.663  23.404  1.00  0.00     0.004 C 
ENDBRANCH  18  19
ENDBRANCH  17  18
ENDBRANCH  16  17
ENDBRANCH  15  16
ENDBRANCH  14  15
ENDBRANCH  13  14
ENDBRANCH  12  13
ENDBRANCH   1  12
TORSDOF 16
ENDMDL
MODEL 7
REMARK VINA RESULT:    -5.049      2.908      5.994
REMARK INTER + INTRA:         -12.387
REMARK INTER:                  -9.971
REMARK INTRA:                  -2.416
REMARK UNBOUND:                -2.615
REMARK SMILES CCCCCCCCCCCCCCCCCC(=O)[O-]
REMARK SMILES IDX 10 1 11 2 12 3 13 4 14 5 15 6 16 7 17 8 18 9 19 10 20 11
REMARK SMILES IDX 9 12 8 13 7 14 6 15 5 16 4 17 3 18 2 19 1 20
REMARK H PARENT
REMARK Flexibility Score: inf
ROOT
ATOM      1  C   UNL     1      79.179   9.543  24.061  1.00  0.00     0.000 C 
ENDROOT
BRANCH   1   2
ATOM      2  C   UNL     1      79.616   8.310  23.250  1.00  0.00     0.000 C 
BRANCH   2   3
ATOM      3  C   UNL     1      80.624   7.433  24.008  1.00  0.00     0.000 C 
BRANCH   3   4
ATOM      4  C   UNL     1      80.590   5.965  23.546  1.00  0.00     0.000 C 
BRANCH   4   5
ATOM      5  C   UNL     1      79.180   5.504  23.141  1.00  0.00     0.000 C 
BRANCH   5   6
ATOM      6  C   UNL     1      79.166   4.778  21.785  1.00  0.00     0.000 C 
BRANCH   6   7
ATOM      7  C   UNL     1      78.485   3.402  21.858  1.00  0.00     0.006 C 
BRANCH   7   8
ATOM      8  C   UNL     1      77.300   3.378  22.831  1.00  0.00     0.053 C 
BRANCH   8   9
ATOM      9  C   UNL     1      76.027   3.095  22.096  1.00  0.00     0.041 C 
ATOM     10  O   UNL     1      76.052   2.472  21.002  1.00  0.00    -0.550 OA
ATOM     11  O   UNL     1      74.817   3.559  22.596  1.00  0.00    -0.550 OA
ENDBRANCH   8   9
ENDBRANCH   7   8
ENDBRANCH   6   7
ENDBRANCH   5   6
ENDBRANCH   4   5
ENDBRANCH   3   4
ENDBRANCH   2   3
ENDBRANCH   1   2
BRANCH   1  12
ATOM     12  C   UNL     1      79.849   9.599  25.451  1.00  0.00     0.000 C 
BRANCH  12  13
ATOM     13  C   UNL     1      78.856   9.811  26.610  1.00  0.00    -0.000 C 
BRANCH  13  14
ATOM     14  C   UNL     1      77.370   9.792  26.205  1.00  0.00    -0.000 C 
BRANCH  14  15
ATOM     15  C   UNL     1      76.626   8.484  26.529  1.00  0.00    -0.000 C 
BRANCH  15  16
ATOM     16  C   UNL     1      75.545   8.139  25.494  1.00  0.00    -0.000 C 
BRANCH  16  17
ATOM     17  C   UNL     1      76.145   7.386  24.302  1.00  0.00    -0.000 C 
BRANCH  17  18
ATOM     18  C   UNL     1      75.789   8.073  22.980  1.00  0.00    -0.000 C 
BRANCH  18  19
ATOM     19  C   UNL     1      76.399   7.326  21.788  1.00  0.00    -0.003 C 
ATOM     20  C   UNL     1      75.318   6.659  20.943  1.00  0.00     0.004 C 
ENDBRANCH  18  19
ENDBRANCH  17  18
ENDBRANCH  16  17
ENDBRANCH  15  16
ENDBRANCH  14  15
ENDBRANCH  13  14
ENDBRANCH  12  13
ENDBRANCH   1  12
TORSDOF 16
ENDMDL
MODEL 8
REMARK VINA RESULT:    -5.041      6.848     10.019
REMARK INTER + INTRA:         -12.371
REMARK INTER:                 -10.784
REMARK INTRA:                  -1.587
REMARK UNBOUND:                -2.615
REMARK SMILES CCCCCCCCCCCCCCCCCC(=O)[O-]
REMARK SMILES IDX 10 1 11 2 12 3 13 4 14 5 15 6 16 7 17 8 18 9 19 10 20 11
REMARK SMILES IDX 9 12 8 13 7 14 6 15 5 16 4 17 3 18 2 19 1 20
REMARK H PARENT
REMARK Flexibility Score: inf
ROOT
ATOM      1  C   UNL     1      64.372   4.345  22.806  1.00  0.00     0.000 C 
ENDROOT
BRANCH   1   2
ATOM      2  C   UNL     1      65.732   4.599  23.481  1.00  0.00     0.000 C 
BRANCH   2   3
ATOM      3  C   UNL     1      66.447   3.297  23.874  1.00  0.00     0.000 C 
BRANCH   3   4
ATOM      4  C   UNL     1      67.863   3.200  23.278  1.00  0.00     0.000 C 
BRANCH   4   5
ATOM      5  C   UNL     1      68.640   4.524  23.378  1.00  0.00     0.000 C 
BRANCH   5   6
ATOM      6  C   UNL     1      70.149   4.305  23.586  1.00  0.00     0.000 C 
BRANCH   6   7
ATOM      7  C   UNL     1      70.862   3.853  22.301  1.00  0.00     0.006 C 
BRANCH   7   8
ATOM      8  C   UNL     1      72.064   2.942  22.579  1.00  0.00     0.053 C 
BRANCH   8   9
ATOM      9  C   UNL     1      73.303   3.507  21.961  1.00  0.00     0.041 C 
ATOM     10  O   UNL     1      74.255   2.747  21.642  1.00  0.00    -0.550 OA
ATOM     11  O   UNL     1      73.427   4.878  21.779  1.00  0.00    -0.550 OA
ENDBRANCH   8   9
ENDBRANCH   7   8
ENDBRANCH   6   7
ENDBRANCH   5   6
ENDBRANCH   4   5
ENDBRANCH   3   4
ENDBRANCH   2   3
ENDBRANCH   1   2
BRANCH   1  12
ATOM     12  C   UNL     1      63.762   2.985  23.208  1.00  0.00     0.000 C 
BRANCH  12  13
ATOM     13  C   UNL     1      62.222   2.961  23.166  1.00  0.00    -0.000 C 
BRANCH  13  14
ATOM     14  C   UNL     1      61.590   3.746  22.001  1.00  0.00    -0.000 C 
BRANCH  14  15
ATOM     15  C   UNL     1      60.978   2.875  20.889  1.00  0.00    -0.000 C 
BRANCH  15  16
ATOM     16  C   UNL     1      61.814   2.874  19.601  1.00  0.00    -0.000 C 
BRANCH  16  17
ATOM     17  C   UNL     1      62.700   1.626  19.521  1.00  0.00    -0.000 C 
BRANCH  17  18
ATOM     18  C   UNL     1      64.170   1.976  19.781  1.00  0.00    -0.000 C 
BRANCH  18  19
ATOM     19  C   UNL     1      64.510   3.367  19.235  1.00  0.00    -0.003 C 
ATOM     20  C   UNL     1      65.718   3.315  18.304  1.00  0.00     0.004 C 
ENDBRANCH  18  19
ENDBRANCH  17  18
ENDBRANCH  16  17
ENDBRANCH  15  16
ENDBRANCH  14  15
ENDBRANCH  13  14
ENDBRANCH  12  13
ENDBRANCH   1  12
TORSDOF 16
ENDMDL
MODEL 9
REMARK VINA RESULT:    -5.005      2.889      5.127
REMARK INTER + INTRA:         -12.301
REMARK INTER:                  -9.535
REMARK INTRA:                  -2.767
REMARK UNBOUND:                -2.615
REMARK SMILES CCCCCCCCCCCCCCCCCC(=O)[O-]
REMARK SMILES IDX 10 1 11 2 12 3 13 4 14 5 15 6 16 7 17 8 18 9 19 10 20 11
REMARK SMILES IDX 9 12 8 13 7 14 6 15 5 16 4 17 3 18 2 19 1 20
REMARK H PARENT
REMARK Flexibility Score: inf
ROOT
ATOM      1  C   UNL     1      78.075   6.893  22.071  1.00  0.00     0.000 C 
ENDROOT
BRANCH   1   2
ATOM      2  C   UNL     1      78.514   5.821  21.058  1.00  0.00     0.000 C 
BRANCH   2   3
ATOM      3  C   UNL     1      78.958   4.516  21.736  1.00  0.00     0.000 C 
BRANCH   3   4
ATOM      4  C   UNL     1      78.019   3.338  21.416  1.00  0.00     0.000 C 
BRANCH   4   5
ATOM      5  C   UNL     1      77.089   2.986  22.589  1.00  0.00     0.000 C 
BRANCH   5   6
ATOM      6  C   UNL     1      75.770   3.778  22.551  1.00  0.00     0.000 C 
BRANCH   6   7
ATOM      7  C   UNL     1      75.292   4.060  21.117  1.00  0.00     0.006 C 
BRANCH   7   8
ATOM      8  C   UNL     1      74.498   5.367  21.004  1.00  0.00     0.053 C 
BRANCH   8   9
ATOM      9  C   UNL     1      73.101   5.175  21.506  1.00  0.00     0.041 C 
ATOM     10  O   UNL     1      72.581   6.028  22.273  1.00  0.00    -0.550 OA
ATOM     11  O   UNL     1      72.391   4.031  21.166  1.00  0.00    -0.550 OA
ENDBRANCH   8   9
ENDBRANCH   7   8
ENDBRANCH   6   7
ENDBRANCH   5   6
ENDBRANCH   4   5
ENDBRANCH   3   4
ENDBRANCH   2   3
ENDBRANCH   1   2
BRANCH   1  12
ATOM     12  C   UNL     1      78.451   6.520  23.522  1.00  0.00     0.000 C 
BRANCH  12  13
ATOM     13  C   UNL     1      77.275   6.622  24.512  1.00  0.00    -0.000 C 
BRANCH  13  14
ATOM     14  C   UNL     1      75.941   7.081  23.894  1.00  0.00    -0.000 C 
BRANCH  14  15
ATOM     15  C   UNL     1      75.354   8.369  24.500  1.00  0.00    -0.000 C 
BRANCH  15  16
ATOM     16  C   UNL     1      75.507   9.587  23.577  1.00  0.00    -0.000 C 
BRANCH  16  17
ATOM     17  C   UNL     1      76.142  10.766  24.324  1.00  0.00    -0.000 C 
BRANCH  17  18
ATOM     18  C   UNL     1      76.885  10.289  25.577  1.00  0.00    -0.000 C 
BRANCH  18  19
ATOM     19  C   UNL     1      78.332  10.796  25.586  1.00  0.00    -0.003 C 
ATOM     20  C   UNL     1      79.060  10.413  24.300  1.00  0.00     0.004 C 
ENDBRANCH  18  19
ENDBRANCH  17  18
ENDBRANCH  16  17
ENDBRANCH  15  16
ENDBRANCH  14  15
ENDBRANCH  13  14
ENDBRANCH  12  13
ENDBRANCH   1  12
TORSDOF 16
ENDMDL
