MODEL 1
REMARK VINA RESULT:    -5.542      0.000      0.000
REMARK INTER + INTRA:          -9.607
REMARK INTER:                  -8.781
REMARK INTRA:                  -0.826
REMARK UNBOUND:                -0.826
REMARK SMILES CCCCCCCCCCCC(=O)[O-]
REMARK SMILES IDX 7 1 8 2 9 3 10 4 11 5 12 6 13 7 14 8 6 9 5 10 4 11 3 12 2 13
REMARK SMILES IDX 1 14
REMARK H PARENT
REMARK Flexibility Score: inf
ROOT
ATOM      1  C   UNL     1      64.481 152.159   4.208  1.00  0.00     0.000 C 
ENDROOT
BRANCH   1   2
ATOM      2  C   UNL     1      63.577 151.334   3.285  1.00  0.00     0.000 C 
BRANCH   2   3
ATOM      3  C   UNL     1      62.121 151.805   3.375  1.00  0.00     0.000 C 
BRANCH   3   4
ATOM      4  C   UNL     1      61.541 152.071   1.981  1.00  0.00     0.006 C 
BRANCH   4   5
ATOM      5  C   UNL     1      60.197 152.800   2.075  1.00  0.00     0.053 C 
BRANCH   5   6
ATOM      6  C   UNL     1      60.049 153.774   0.949  1.00  0.00     0.041 C 
ATOM      7  O   UNL     1      58.989 154.443   0.824  1.00  0.00    -0.550 OA
ATOM      8  O   UNL     1      61.061 153.906   0.008  1.00  0.00    -0.550 OA
ENDBRANCH   5   6
ENDBRANCH   4   5
ENDBRANCH   3   4
ENDBRANCH   2   3
ENDBRANCH   1   2
BRANCH   1   9
ATOM      9  C   UNL     1      65.024 151.298   5.360  1.00  0.00     0.000 C 
BRANCH   9  10
ATOM     10  C   UNL     1      65.180 149.820   4.967  1.00  0.00    -0.000 C 
BRANCH  10  11
ATOM     11  C   UNL     1      64.410 148.875   5.908  1.00  0.00    -0.000 C 
BRANCH  11  12
ATOM     12  C   UNL     1      63.047 149.460   6.330  1.00  0.00    -0.000 C 
BRANCH  12  13
ATOM     13  C   UNL     1      61.845 148.624   5.858  1.00  0.00    -0.003 C 
ATOM     14  C   UNL     1      62.249 147.267   5.285  1.00  0.00     0.004 C 
ENDBRANCH  12  13
ENDBRANCH  11  12
ENDBRANCH  10  11
ENDBRANCH   9  10
ENDBRANCH   1   9
TORSDOF 10
ENDMDL
MODEL 2
REMARK VINA RESULT:    -5.417      3.114      6.192
REMARK INTER + INTRA:          -9.410
REMARK INTER:                  -8.722
REMARK INTRA:                  -0.688
REMARK UNBOUND:                -0.826
REMARK SMILES CCCCCCCCCCCC(=O)[O-]
REMARK SMILES IDX 7 1 8 2 9 3 10 4 11 5 12 6 13 7 14 8 6 9 5 10 4 11 3 12 2 13
REMARK SMILES IDX 1 14
REMARK H PARENT
REMARK Flexibility Score: inf
ROOT
ATOM      1  C   UNL     1      64.181 152.119   3.808  1.00  0.00     0.000 C 
ENDROOT
BRANCH   1   2
ATOM      2  C   UNL     1      64.956 151.280   4.830  1.00  0.00     0.000 C 
BRANCH   2   3
ATOM      3  C   UNL     1      65.027 149.810   4.397  1.00  0.00     0.000 C 
BRANCH   3   4
ATOM      4  C   UNL     1      64.787 148.874   5.586  1.00  0.00     0.006 C 
BRANCH   4   5
ATOM      5  C   UNL     1      63.461 149.198   6.282  1.00  0.00     0.053 C 
BRANCH   5   6
ATOM      6  C   UNL     1      62.341 148.422   5.664  1.00  0.00     0.041 C 
ATOM      7  O   UNL     1      62.533 147.244   5.261  1.00  0.00    -0.550 OA
ATOM      8  O   UNL     1      61.099 149.016   5.486  1.00  0.00    -0.550 OA
ENDBRANCH   5   6
ENDBRANCH   4   5
ENDBRANCH   3   4
ENDBRANCH   2   3
ENDBRANCH   1   2
BRANCH   1   9
ATOM      9  C   UNL     1      62.677 151.813   3.873  1.00  0.00     0.000 C 
BRANCH   9  10
ATOM     10  C   UNL     1      62.051 151.637   2.480  1.00  0.00    -0.000 C 
BRANCH  10  11
ATOM     11  C   UNL     1      60.811 152.526   2.273  1.00  0.00    -0.000 C 
BRANCH  11  12
ATOM     12  C   UNL     1      60.912 153.370   0.985  1.00  0.00    -0.000 C 
BRANCH  12  13
ATOM     13  C   UNL     1      59.604 154.090   0.617  1.00  0.00    -0.003 C 
ATOM     14  C   UNL     1      58.556 154.031   1.726  1.00  0.00     0.004 C 
ENDBRANCH  12  13
ENDBRANCH  11  12
ENDBRANCH  10  11
ENDBRANCH   9  10
ENDBRANCH   1   9
TORSDOF 10
ENDMDL
MODEL 3
REMARK VINA RESULT:    -5.344      3.382      6.631
REMARK INTER + INTRA:          -9.294
REMARK INTER:                  -8.773
REMARK INTRA:                  -0.521
REMARK UNBOUND:                -0.826
REMARK SMILES CCCCCCCCCCCC(=O)[O-]
REMARK SMILES IDX 7 1 8 2 9 3 10 4 11 5 12 6 13 7 14 8 6 9 5 10 4 11 3 12 2 13
REMARK SMILES IDX 1 14
REMARK H PARENT
REMARK Flexibility Score: inf
ROOT
ATOM      1  C   UNL     1      62.129 151.854   3.979  1.00  0.00     0.000 C 
ENDROOT
BRANCH   1   2
ATOM      2  C   UNL     1      63.481 151.480   3.360  1.00  0.00     0.000 C 
BRANCH   2   3
ATOM      3  C   UNL     1      64.642 152.002   4.216  1.00  0.00     0.000 C 
BRANCH   3   4
ATOM      4  C   UNL     1      64.914 151.069   5.402  1.00  0.00     0.006 C 
BRANCH   4   5
ATOM      5  C   UNL     1      64.753 149.601   4.994  1.00  0.00     0.053 C 
BRANCH   5   6
ATOM      6  C   UNL     1      63.624 148.970   5.746  1.00  0.00     0.041 C 
ATOM      7  O   UNL     1      63.185 149.505   6.798  1.00  0.00    -0.550 OA
ATOM      8  O   UNL     1      63.088 147.765   5.312  1.00  0.00    -0.550 OA
ENDBRANCH   5   6
ENDBRANCH   4   5
ENDBRANCH   3   4
ENDBRANCH   2   3
ENDBRANCH   1   2
BRANCH   1   9
ATOM      9  C   UNL     1      61.015 151.828   2.921  1.00  0.00     0.000 C 
BRANCH   9  10
ATOM     10  C   UNL     1      61.371 152.646   1.670  1.00  0.00    -0.000 C 
BRANCH  10  11
ATOM     11  C   UNL     1      60.207 153.534   1.193  1.00  0.00    -0.000 C 
BRANCH  11  12
ATOM     12  C   UNL     1      58.966 153.399   2.100  1.00  0.00    -0.000 C 
BRANCH  12  13
ATOM     13  C   UNL     1      58.324 154.747   2.469  1.00  0.00    -0.003 C 
ATOM     14  C   UNL     1      57.946 155.584   1.249  1.00  0.00     0.004 C 
ENDBRANCH  12  13
ENDBRANCH  11  12
ENDBRANCH  10  11
ENDBRANCH   9  10
ENDBRANCH   1   9
TORSDOF 10
ENDMDL
MODEL 4
REMARK VINA RESULT:    -5.322      3.551      6.929
REMARK INTER + INTRA:          -9.260
REMARK INTER:                  -8.509
REMARK INTRA:                  -0.751
REMARK UNBOUND:                -0.826
REMARK SMILES CCCCCCCCCCCC(=O)[O-]
REMARK SMILES IDX 7 1 8 2 9 3 10 4 11 5 12 6 13 7 14 8 6 9 5 10 4 11 3 12 2 13
REMARK SMILES IDX 1 14
REMARK H PARENT
REMARK Flexibility Score: inf
ROOT
ATOM      1  C   UNL     1      60.570 152.057   2.322  1.00  0.00     0.000 C 
ENDROOT
BRANCH   1   2
ATOM      2  C   UNL     1      61.556 151.880   3.482  1.00  0.00     0.000 C 
BRANCH   2   3
ATOM      3  C   UNL     1      62.985 151.673   2.964  1.00  0.00     0.000 C 
BRANCH   3   4
ATOM      4  C   UNL     1      64.012 151.880   4.084  1.00  0.00     0.006 C 
BRANCH   4   5
ATOM      5  C   UNL     1      64.988 150.703   4.158  1.00  0.00     0.053 C 
BRANCH   5   6
ATOM      6  C   UNL     1      64.715 149.872   5.372  1.00  0.00     0.041 C 
ATOM      7  O   UNL     1      63.637 150.013   6.008  1.00  0.00    -0.550 OA
ATOM      8  O   UNL     1      65.672 148.976   5.831  1.00  0.00    -0.550 OA
ENDBRANCH   5   6
ENDBRANCH   4   5
ENDBRANCH   3   4
ENDBRANCH   2   3
ENDBRANCH   1   2
BRANCH   1   9
ATOM      9  C   UNL     1      61.063 153.131   1.340  1.00  0.00     0.000 C 
BRANCH   9  10
ATOM     10  C   UNL     1      59.908 153.927   0.709  1.00  0.00    -0.000 C 
BRANCH  10  11
ATOM     11  C   UNL     1      58.626 153.883   1.561  1.00  0.00    -0.000 C 
BRANCH  11  12
ATOM     12  C   UNL     1      57.984 155.278   1.713  1.00  0.00    -0.000 C 
BRANCH  12  13
ATOM     13  C   UNL     1      57.943 155.782   3.166  1.00  0.00    -0.003 C 
ATOM     14  C   UNL     1      58.555 154.796   4.158  1.00  0.00     0.004 C 
ENDBRANCH  12  13
ENDBRANCH  11  12
ENDBRANCH  10  11
ENDBRANCH   9  10
ENDBRANCH   1   9
TORSDOF 10
ENDMDL
MODEL 5
REMARK VINA RESULT:    -5.241      1.536      2.154
REMARK INTER + INTRA:          -9.131
REMARK INTER:                  -8.152
REMARK INTRA:                  -0.980
REMARK UNBOUND:                -0.826
REMARK SMILES CCCCCCCCCCCC(=O)[O-]
REMARK SMILES IDX 7 1 8 2 9 3 10 4 11 5 12 6 13 7 14 8 6 9 5 10 4 11 3 12 2 13
REMARK SMILES IDX 1 14
REMARK H PARENT
REMARK Flexibility Score: inf
ROOT
ATOM      1  C   UNL     1      63.590 151.542   3.229  1.00  0.00     0.000 C 
ENDROOT
BRANCH   1   2
ATOM      2  C   UNL     1      62.115 151.867   3.492  1.00  0.00     0.000 C 
BRANCH   2   3
ATOM      3  C   UNL     1      61.282 151.726   2.212  1.00  0.00     0.000 C 
BRANCH   3   4
ATOM      4  C   UNL     1      60.467 152.996   1.943  1.00  0.00     0.006 C 
BRANCH   4   5
ATOM      5  C   UNL     1      59.091 152.916   2.610  1.00  0.00     0.053 C 
BRANCH   5   6
ATOM      6  C   UNL     1      58.941 153.997   3.633  1.00  0.00     0.041 C 
ATOM      7  O   UNL     1      58.271 155.031   3.369  1.00  0.00    -0.550 OA
ATOM      8  O   UNL     1      59.582 153.887   4.859  1.00  0.00    -0.550 OA
ENDBRANCH   5   6
ENDBRANCH   4   5
ENDBRANCH   3   4
ENDBRANCH   2   3
ENDBRANCH   1   2
BRANCH   1   9
ATOM      9  C   UNL     1      64.494 152.200   4.284  1.00  0.00     0.000 C 
BRANCH   9  10
ATOM     10  C   UNL     1      64.994 151.199   5.338  1.00  0.00    -0.000 C 
BRANCH  10  11
ATOM     11  C   UNL     1      64.976 149.747   4.828  1.00  0.00    -0.000 C 
BRANCH  11  12
ATOM     12  C   UNL     1      64.199 148.809   5.776  1.00  0.00    -0.000 C 
BRANCH  12  13
ATOM     13  C   UNL     1      62.863 149.396   6.263  1.00  0.00    -0.003 C 
ATOM     14  C   UNL     1      61.651 148.798   5.552  1.00  0.00     0.004 C 
ENDBRANCH  12  13
ENDBRANCH  11  12
ENDBRANCH  10  11
ENDBRANCH   9  10
ENDBRANCH   1   9
TORSDOF 10
ENDMDL
MODEL 6
REMARK VINA RESULT:    -5.192      1.141      2.707
REMARK INTER + INTRA:          -9.053
REMARK INTER:                  -8.011
REMARK INTRA:                  -1.042
REMARK UNBOUND:                -0.826
REMARK SMILES CCCCCCCCCCCC(=O)[O-]
REMARK SMILES IDX 7 1 8 2 9 3 10 4 11 5 12 6 13 7 14 8 6 9 5 10 4 11 3 12 2 13
REMARK SMILES IDX 1 14
REMARK H PARENT
REMARK Flexibility Score: inf
ROOT
ATOM      1  C   UNL     1      61.610 151.493   5.648  1.00  0.00     0.000 C 
ENDROOT
BRANCH   1   2
ATOM      2  C   UNL     1      60.824 152.032   4.447  1.00  0.00     0.000 C 
BRANCH   2   3
ATOM      3  C   UNL     1      61.528 151.687   3.128  1.00  0.00     0.000 C 
BRANCH   3   4
ATOM      4  C   UNL     1      60.905 152.453   1.955  1.00  0.00     0.006 C 
BRANCH   4   5
ATOM      5  C   UNL     1      59.625 153.173   2.388  1.00  0.00     0.053 C 
BRANCH   5   6
ATOM      6  C   UNL     1      59.125 154.058   1.290  1.00  0.00     0.041 C 
ATOM      7  O   UNL     1      58.109 154.781   1.471  1.00  0.00    -0.550 OA
ATOM      8  O   UNL     1      59.749 154.048   0.051  1.00  0.00    -0.550 OA
ENDBRANCH   5   6
ENDBRANCH   4   5
ENDBRANCH   3   4
ENDBRANCH   2   3
ENDBRANCH   1   2
BRANCH   1   9
ATOM      9  C   UNL     1      61.579 149.957   5.681  1.00  0.00     0.000 C 
BRANCH   9  10
ATOM     10  C   UNL     1      62.780 149.360   6.433  1.00  0.00    -0.000 C 
BRANCH  10  11
ATOM     11  C   UNL     1      63.848 148.791   5.482  1.00  0.00    -0.000 C 
BRANCH  11  12
ATOM     12  C   UNL     1      65.042 149.753   5.309  1.00  0.00    -0.000 C 
BRANCH  12  13
ATOM     13  C   UNL     1      64.910 150.686   4.093  1.00  0.00    -0.003 C 
ATOM     14  C   UNL     1      65.054 152.163   4.455  1.00  0.00     0.004 C 
ENDBRANCH  12  13
ENDBRANCH  11  12
ENDBRANCH  10  11
ENDBRANCH   9  10
ENDBRANCH   1   9
TORSDOF 10
ENDMDL
MODEL 7
REMARK VINA RESULT:    -5.055      2.218      3.429
REMARK INTER + INTRA:          -8.836
REMARK INTER:                  -8.080
REMARK INTRA:                  -0.756
REMARK UNBOUND:                -0.826
REMARK SMILES CCCCCCCCCCCC(=O)[O-]
REMARK SMILES IDX 7 1 8 2 9 3 10 4 11 5 12 6 13 7 14 8 6 9 5 10 4 11 3 12 2 13
REMARK SMILES IDX 1 14
REMARK H PARENT
REMARK Flexibility Score: inf
ROOT
ATOM      1  C   UNL     1      61.203 151.569   3.331  1.00  0.00     0.000 C 
ENDROOT
BRANCH   1   2
ATOM      2  C   UNL     1      61.432 152.228   1.966  1.00  0.00     0.000 C 
BRANCH   2   3
ATOM      3  C   UNL     1      60.301 153.209   1.631  1.00  0.00     0.000 C 
BRANCH   3   4
ATOM      4  C   UNL     1      59.086 152.979   2.537  1.00  0.00     0.006 C 
BRANCH   4   5
ATOM      5  C   UNL     1      58.719 154.257   3.299  1.00  0.00     0.053 C 
BRANCH   5   6
ATOM      6  C   UNL     1      58.837 154.039   4.774  1.00  0.00     0.041 C 
ATOM      7  O   UNL     1      59.485 154.851   5.486  1.00  0.00    -0.550 OA
ATOM      8  O   UNL     1      58.273 152.912   5.357  1.00  0.00    -0.550 OA
ENDBRANCH   5   6
ENDBRANCH   4   5
ENDBRANCH   3   4
ENDBRANCH   2   3
ENDBRANCH   1   2
BRANCH   1   9
ATOM      9  C   UNL     1      62.439 151.725   4.231  1.00  0.00     0.000 C 
BRANCH   9  10
ATOM     10  C   UNL     1      63.756 151.633   3.443  1.00  0.00    -0.000 C 
BRANCH  10  11
ATOM     11  C   UNL     1      64.994 151.817   4.340  1.00  0.00    -0.000 C 
BRANCH  11  12
ATOM     12  C   UNL     1      65.007 150.825   5.521  1.00  0.00    -0.000 C 
BRANCH  12  13
ATOM     13  C   UNL     1      64.979 149.350   5.087  1.00  0.00    -0.003 C 
ATOM     14  C   UNL     1      63.741 148.604   5.580  1.00  0.00     0.004 C 
ENDBRANCH  12  13
ENDBRANCH  11  12
ENDBRANCH  10  11
ENDBRANCH   9  10
ENDBRANCH   1   9
TORSDOF 10
ENDMDL
MODEL 8
REMARK VINA RESULT:    -4.966      3.813      5.845
REMARK INTER + INTRA:          -8.694
REMARK INTER:                  -7.757
REMARK INTRA:                  -0.937
REMARK UNBOUND:                -0.826
REMARK SMILES CCCCCCCCCCCC(=O)[O-]
REMARK SMILES IDX 7 1 8 2 9 3 10 4 11 5 12 6 13 7 14 8 6 9 5 10 4 11 3 12 2 13
REMARK SMILES IDX 1 14
REMARK H PARENT
REMARK Flexibility Score: inf
ROOT
ATOM      1  C   UNL     1      65.047 149.793   4.787  1.00  0.00     0.000 C 
ENDROOT
BRANCH   1   2
ATOM      2  C   UNL     1      64.358 148.851   5.781  1.00  0.00     0.000 C 
BRANCH   2   3
ATOM      3  C   UNL     1      63.093 149.493   6.364  1.00  0.00     0.000 C 
BRANCH   3   4
ATOM      4  C   UNL     1      61.831 148.897   5.729  1.00  0.00     0.006 C 
BRANCH   4   5
ATOM      5  C   UNL     1      60.592 149.212   6.571  1.00  0.00     0.053 C 
BRANCH   5   6
ATOM      6  C   UNL     1      60.152 148.000   7.331  1.00  0.00     0.041 C 
ATOM      7  O   UNL     1      60.478 146.850   6.933  1.00  0.00    -0.550 OA
ATOM      8  O   UNL     1      59.340 148.137   8.448  1.00  0.00    -0.550 OA
ENDBRANCH   5   6
ENDBRANCH   4   5
ENDBRANCH   3   4
ENDBRANCH   2   3
ENDBRANCH   1   2
BRANCH   1   9
ATOM      9  C   UNL     1      65.006 151.245   5.287  1.00  0.00     0.000 C 
BRANCH   9  10
ATOM     10  C   UNL     1      64.400 152.208   4.253  1.00  0.00    -0.000 C 
BRANCH  10  11
ATOM     11  C   UNL     1      63.525 151.483   3.213  1.00  0.00    -0.000 C 
BRANCH  11  12
ATOM     12  C   UNL     1      62.024 151.778   3.412  1.00  0.00    -0.000 C 
BRANCH  12  13
ATOM     13  C   UNL     1      61.302 152.192   2.118  1.00  0.00    -0.003 C 
ATOM     14  C   UNL     1      59.901 152.746   2.365  1.00  0.00     0.004 C 
ENDBRANCH  12  13
ENDBRANCH  11  12
ENDBRANCH  10  11
ENDBRANCH   9  10
ENDBRANCH   1   9
TORSDOF 10
ENDMDL
MODEL 9
REMARK VINA RESULT:    -4.927      2.967      4.757
REMARK INTER + INTRA:          -8.633
REMARK INTER:                  -7.808
REMARK INTRA:                  -0.826
REMARK UNBOUND:                -0.826
REMARK SMILES CCCCCCCCCCCC(=O)[O-]
REMARK SMILES IDX 7 1 8 2 9 3 10 4 11 5 12 6 13 7 14 8 6 9 5 10 4 11 3 12 2 13
REMARK SMILES IDX 1 14
REMARK H PARENT
REMARK Flexibility Score: inf
ROOT
ATOM      1  C   UNL     1      60.580 153.103   1.512  1.00  0.00     0.000 C 
ENDROOT
BRANCH   1   2
ATOM      2  C   UNL     1      59.262 153.113   2.294  1.00  0.00     0.000 C 
BRANCH   2   3
ATOM      3  C   UNL     1      58.531 154.451   2.127  1.00  0.00     0.000 C 
BRANCH   3   4
ATOM      4  C   UNL     1      58.309 155.130   3.484  1.00  0.00     0.006 C 
BRANCH   4   5
ATOM      5  C   UNL     1      58.667 154.186   4.635  1.00  0.00     0.053 C 
BRANCH   5   6
ATOM      6  C   UNL     1      59.571 154.870   5.612  1.00  0.00     0.041 C 
ATOM      7  O   UNL     1      59.478 156.112   5.799  1.00  0.00    -0.550 OA
ATOM      8  O   UNL     1      60.548 154.145   6.279  1.00  0.00    -0.550 OA
ENDBRANCH   5   6
ENDBRANCH   4   5
ENDBRANCH   3   4
ENDBRANCH   2   3
ENDBRANCH   1   2
BRANCH   1   9
ATOM      9  C   UNL     1      61.520 152.006   2.032  1.00  0.00     0.000 C 
BRANCH   9  10
ATOM     10  C   UNL     1      61.218 151.613   3.488  1.00  0.00    -0.000 C 
BRANCH  10  11
ATOM     11  C   UNL     1      62.473 151.635   4.379  1.00  0.00    -0.000 C 
BRANCH  11  12
ATOM     12  C   UNL     1      63.772 151.522   3.554  1.00  0.00    -0.000 C 
BRANCH  12  13
ATOM     13  C   UNL     1      65.022 151.249   4.408  1.00  0.00    -0.003 C 
ATOM     14  C   UNL     1      65.324 152.369   5.401  1.00  0.00     0.004 C 
ENDBRANCH  12  13
ENDBRANCH  11  12
ENDBRANCH  10  11
ENDBRANCH   9  10
ENDBRANCH   1   9
TORSDOF 10
ENDMDL
