MODEL 1
REMARK VINA RESULT:    -3.341      0.000      0.000
REMARK INTER + INTRA:          -6.683
REMARK INTER:                  -5.685
REMARK INTRA:                  -0.998
REMARK UNBOUND:                -0.998
REMARK SMILES CCCCCCCCCCCCCC(=O)[O-]
REMARK SMILES IDX 8 1 9 2 10 3 11 4 12 5 13 6 14 7 15 8 16 9 7 10 6 11 5 12
REMARK SMILES IDX 4 13 3 14 2 15 1 16
REMARK H PARENT
REMARK Flexibility Score: inf
ROOT
ATOM      1  C   UNL     1       8.135  -3.391  -2.260  1.00  0.00     0.000 C 
ENDROOT
BRANCH   1   2
ATOM      2  C   UNL     1       8.934  -4.695  -2.401  1.00  0.00     0.000 C 
BRANCH   2   3
ATOM      3  C   UNL     1       9.690  -5.072  -1.117  1.00  0.00     0.000 C 
BRANCH   3   4
ATOM      4  C   UNL     1      10.921  -5.952  -1.393  1.00  0.00     0.000 C 
BRANCH   4   5
ATOM      5  C   UNL     1      11.413  -5.839  -2.845  1.00  0.00     0.006 C 
BRANCH   5   6
ATOM      6  C   UNL     1      12.870  -5.367  -2.942  1.00  0.00     0.053 C 
BRANCH   6   7
ATOM      7  C   UNL     1      12.934  -3.872  -2.926  1.00  0.00     0.041 C 
ATOM      8  O   UNL     1      12.945  -3.226  -4.006  1.00  0.00    -0.550 OA
ATOM      9  O   UNL     1      12.930  -3.190  -1.716  1.00  0.00    -0.550 OA
ENDBRANCH   6   7
ENDBRANCH   5   6
ENDBRANCH   4   5
ENDBRANCH   3   4
ENDBRANCH   2   3
ENDBRANCH   1   2
BRANCH   1  10
ATOM     10  C   UNL     1       6.640  -3.633  -2.518  1.00  0.00     0.000 C 
BRANCH  10  11
ATOM     11  C   UNL     1       6.041  -4.697  -1.585  1.00  0.00    -0.000 C 
BRANCH  11  12
ATOM     12  C   UNL     1       5.851  -4.185  -0.149  1.00  0.00    -0.000 C 
BRANCH  12  13
ATOM     13  C   UNL     1       6.561  -5.099   0.858  1.00  0.00    -0.000 C 
BRANCH  13  14
ATOM     14  C   UNL     1       6.252  -4.673   2.301  1.00  0.00    -0.000 C 
BRANCH  14  15
ATOM     15  C   UNL     1       5.707  -3.239   2.389  1.00  0.00    -0.003 C 
ATOM     16  C   UNL     1       6.333  -2.439   3.531  1.00  0.00     0.004 C 
ENDBRANCH  14  15
ENDBRANCH  13  14
ENDBRANCH  12  13
ENDBRANCH  11  12
ENDBRANCH  10  11
ENDBRANCH   1  10
TORSDOF 12
ENDMDL
MODEL 2
REMARK VINA RESULT:    -3.248      1.505      2.087
REMARK INTER + INTRA:          -6.526
REMARK INTER:                  -4.989
REMARK INTRA:                  -1.537
REMARK UNBOUND:                -0.998
REMARK SMILES CCCCCCCCCCCCCC(=O)[O-]
REMARK SMILES IDX 8 1 9 2 10 3 11 4 12 5 13 6 14 7 15 8 16 9 7 10 6 11 5 12
REMARK SMILES IDX 4 13 3 14 2 15 1 16
REMARK H PARENT
REMARK Flexibility Score: inf
ROOT
ATOM      1  C   UNL     1       8.314  -3.743  -3.628  1.00  0.00     0.000 C 
ENDROOT
BRANCH   1   2
ATOM      2  C   UNL     1       9.431  -4.782  -3.448  1.00  0.00     0.000 C 
BRANCH   2   3
ATOM      3  C   UNL     1       9.344  -5.522  -2.104  1.00  0.00     0.000 C 
BRANCH   3   4
ATOM      4  C   UNL     1      10.626  -5.374  -1.265  1.00  0.00     0.000 C 
BRANCH   4   5
ATOM      5  C   UNL     1      11.162  -3.933  -1.255  1.00  0.00     0.006 C 
BRANCH   5   6
ATOM      6  C   UNL     1      12.684  -3.866  -1.435  1.00  0.00     0.053 C 
BRANCH   6   7
ATOM      7  C   UNL     1      13.055  -4.168  -2.852  1.00  0.00     0.041 C 
ATOM      8  O   UNL     1      12.918  -3.290  -3.744  1.00  0.00    -0.550 OA
ATOM      9  O   UNL     1      13.601  -5.403  -3.179  1.00  0.00    -0.550 OA
ENDBRANCH   6   7
ENDBRANCH   5   6
ENDBRANCH   4   5
ENDBRANCH   3   4
ENDBRANCH   2   3
ENDBRANCH   1   2
BRANCH   1  10
ATOM     10  C   UNL     1       7.524  -3.556  -2.324  1.00  0.00     0.000 C 
BRANCH  10  11
ATOM     11  C   UNL     1       6.004  -3.547  -2.546  1.00  0.00    -0.000 C 
BRANCH  11  12
ATOM     12  C   UNL     1       5.398  -4.959  -2.550  1.00  0.00    -0.000 C 
BRANCH  12  13
ATOM     13  C   UNL     1       5.803  -5.734  -1.290  1.00  0.00    -0.000 C 
BRANCH  13  14
ATOM     14  C   UNL     1       5.092  -5.176  -0.048  1.00  0.00    -0.000 C 
BRANCH  14  15
ATOM     15  C   UNL     1       5.957  -5.267   1.218  1.00  0.00    -0.003 C 
ATOM     16  C   UNL     1       7.408  -5.642   0.916  1.00  0.00     0.004 C 
ENDBRANCH  14  15
ENDBRANCH  13  14
ENDBRANCH  12  13
ENDBRANCH  11  12
ENDBRANCH  10  11
ENDBRANCH   1  10
TORSDOF 12
ENDMDL
MODEL 3
REMARK VINA RESULT:    -3.206     11.812     13.923
REMARK INTER + INTRA:          -6.453
REMARK INTER:                  -4.599
REMARK INTRA:                  -1.854
REMARK UNBOUND:                -0.998
REMARK SMILES CCCCCCCCCCCCCC(=O)[O-]
REMARK SMILES IDX 8 1 9 2 10 3 11 4 12 5 13 6 14 7 15 8 16 9 7 10 6 11 5 12
REMARK SMILES IDX 4 13 3 14 2 15 1 16
REMARK H PARENT
REMARK Flexibility Score: inf
ROOT
ATOM      1  C   UNL     1      16.477   2.693   7.770  1.00  0.00     0.000 C 
ENDROOT
BRANCH   1   2
ATOM      2  C   UNL     1      16.637   1.601   8.838  1.00  0.00     0.000 C 
BRANCH   2   3
ATOM      3  C   UNL     1      16.177   0.219   8.349  1.00  0.00     0.000 C 
BRANCH   3   4
ATOM      4  C   UNL     1      15.894   0.190   6.837  1.00  0.00     0.000 C 
BRANCH   4   5
ATOM      5  C   UNL     1      16.239  -1.165   6.198  1.00  0.00     0.006 C 
BRANCH   5   6
ATOM      6  C   UNL     1      16.044  -2.342   7.163  1.00  0.00     0.053 C 
BRANCH   6   7
ATOM      7  C   UNL     1      14.658  -2.892   7.038  1.00  0.00     0.041 C 
ATOM      8  O   UNL     1      14.201  -3.209   5.909  1.00  0.00    -0.550 OA
ATOM      9  O   UNL     1      13.890  -3.104   8.176  1.00  0.00    -0.550 OA
ENDBRANCH   6   7
ENDBRANCH   5   6
ENDBRANCH   4   5
ENDBRANCH   3   4
ENDBRANCH   2   3
ENDBRANCH   1   2
BRANCH   1  10
ATOM     10  C   UNL     1      17.765   3.520   7.633  1.00  0.00     0.000 C 
BRANCH  10  11
ATOM     11  C   UNL     1      19.030   2.703   7.939  1.00  0.00    -0.000 C 
BRANCH  11  12
ATOM     12  C   UNL     1      20.128   2.893   6.882  1.00  0.00    -0.000 C 
BRANCH  12  13
ATOM     13  C   UNL     1      20.601   1.542   6.331  1.00  0.00    -0.000 C 
BRANCH  13  14
ATOM     14  C   UNL     1      19.584   0.434   6.643  1.00  0.00    -0.000 C 
BRANCH  14  15
ATOM     15  C   UNL     1      20.240  -0.817   7.247  1.00  0.00    -0.003 C 
ATOM     16  C   UNL     1      19.495  -1.341   8.474  1.00  0.00     0.004 C 
ENDBRANCH  14  15
ENDBRANCH  13  14
ENDBRANCH  12  13
ENDBRANCH  11  12
ENDBRANCH  10  11
ENDBRANCH   1  10
TORSDOF 12
ENDMDL
MODEL 4
REMARK VINA RESULT:    -3.186     10.967     13.205
REMARK INTER + INTRA:          -6.420
REMARK INTER:                  -4.852
REMARK INTRA:                  -1.568
REMARK UNBOUND:                -0.998
REMARK SMILES CCCCCCCCCCCCCC(=O)[O-]
REMARK SMILES IDX 8 1 9 2 10 3 11 4 12 5 13 6 14 7 15 8 16 9 7 10 6 11 5 12
REMARK SMILES IDX 4 13 3 14 2 15 1 16
REMARK H PARENT
REMARK Flexibility Score: inf
ROOT
ATOM      1  C   UNL     1       7.676   2.578  -8.468  1.00  0.00     0.000 C 
ENDROOT
BRANCH   1   2
ATOM      2  C   UNL     1       6.692   3.221  -7.479  1.00  0.00     0.000 C 
BRANCH   2   3
ATOM      3  C   UNL     1       5.892   4.376  -8.101  1.00  0.00     0.000 C 
BRANCH   3   4
ATOM      4  C   UNL     1       5.257   5.293  -7.041  1.00  0.00     0.000 C 
BRANCH   4   5
ATOM      5  C   UNL     1       6.225   5.628  -5.895  1.00  0.00     0.006 C 
BRANCH   5   6
ATOM      6  C   UNL     1       6.073   7.070  -5.392  1.00  0.00     0.053 C 
BRANCH   6   7
ATOM      7  C   UNL     1       5.581   7.080  -3.979  1.00  0.00     0.041 C 
ATOM      8  O   UNL     1       6.214   7.710  -3.092  1.00  0.00    -0.550 OA
ATOM      9  O   UNL     1       4.395   6.435  -3.652  1.00  0.00    -0.550 OA
ENDBRANCH   6   7
ENDBRANCH   5   6
ENDBRANCH   4   5
ENDBRANCH   3   4
ENDBRANCH   2   3
ENDBRANCH   1   2
BRANCH   1  10
ATOM     10  C   UNL     1       9.127   2.766  -7.998  1.00  0.00     0.000 C 
BRANCH  10  11
ATOM     11  C   UNL     1       9.591   4.228  -8.074  1.00  0.00    -0.000 C 
BRANCH  11  12
ATOM     12  C   UNL     1       9.542   4.791  -9.503  1.00  0.00    -0.000 C 
BRANCH  12  13
ATOM     13  C   UNL     1       9.481   6.324  -9.487  1.00  0.00    -0.000 C 
BRANCH  13  14
ATOM     14  C   UNL     1       8.707   6.832  -8.263  1.00  0.00    -0.000 C 
BRANCH  14  15
ATOM     15  C   UNL     1       9.493   7.881  -7.460  1.00  0.00    -0.003 C 
ATOM     16  C   UNL     1      10.820   8.255  -8.119  1.00  0.00     0.004 C 
ENDBRANCH  14  15
ENDBRANCH  13  14
ENDBRANCH  12  13
ENDBRANCH  11  12
ENDBRANCH  10  11
ENDBRANCH   1  10
TORSDOF 12
ENDMDL
MODEL 5
REMARK VINA RESULT:    -3.162      1.804      4.321
REMARK INTER + INTRA:          -6.379
REMARK INTER:                  -5.026
REMARK INTRA:                  -1.354
REMARK UNBOUND:                -0.998
REMARK SMILES CCCCCCCCCCCCCC(=O)[O-]
REMARK SMILES IDX 8 1 9 2 10 3 11 4 12 5 13 6 14 7 15 8 16 9 7 10 6 11 5 12
REMARK SMILES IDX 4 13 3 14 2 15 1 16
REMARK H PARENT
REMARK Flexibility Score: inf
ROOT
ATOM      1  C   UNL     1       7.485  -5.703  -1.014  1.00  0.00     0.000 C 
ENDROOT
BRANCH   1   2
ATOM      2  C   UNL     1       8.834  -5.642  -0.283  1.00  0.00     0.000 C 
BRANCH   2   3
ATOM      3  C   UNL     1      10.031  -5.871  -1.219  1.00  0.00     0.000 C 
BRANCH   3   4
ATOM      4  C   UNL     1       9.991  -4.965  -2.462  1.00  0.00     0.000 C 
BRANCH   4   5
ATOM      5  C   UNL     1      10.939  -5.444  -3.573  1.00  0.00     0.006 C 
BRANCH   5   6
ATOM      6  C   UNL     1      12.418  -5.316  -3.185  1.00  0.00     0.053 C 
BRANCH   6   7
ATOM      7  C   UNL     1      12.794  -3.876  -3.038  1.00  0.00     0.041 C 
ATOM      8  O   UNL     1      12.960  -3.156  -4.057  1.00  0.00    -0.550 OA
ATOM      9  O   UNL     1      12.912  -3.315  -1.772  1.00  0.00    -0.550 OA
ENDBRANCH   6   7
ENDBRANCH   5   6
ENDBRANCH   4   5
ENDBRANCH   3   4
ENDBRANCH   2   3
ENDBRANCH   1   2
BRANCH   1  10
ATOM     10  C   UNL     1       6.494  -4.689  -0.423  1.00  0.00     0.000 C 
BRANCH  10  11
ATOM     11  C   UNL     1       6.221  -3.507  -1.365  1.00  0.00    -0.000 C 
BRANCH  11  12
ATOM     12  C   UNL     1       5.753  -3.955  -2.758  1.00  0.00    -0.000 C 
BRANCH  12  13
ATOM     13  C   UNL     1       6.825  -3.667  -3.817  1.00  0.00    -0.000 C 
BRANCH  13  14
ATOM     14  C   UNL     1       7.076  -4.901  -4.696  1.00  0.00    -0.000 C 
BRANCH  14  15
ATOM     15  C   UNL     1       7.886  -4.571  -5.959  1.00  0.00    -0.003 C 
ATOM     16  C   UNL     1       8.649  -5.778  -6.503  1.00  0.00     0.004 C 
ENDBRANCH  14  15
ENDBRANCH  13  14
ENDBRANCH  12  13
ENDBRANCH  11  12
ENDBRANCH  10  11
ENDBRANCH   1  10
TORSDOF 12
ENDMDL
MODEL 6
REMARK VINA RESULT:    -3.134      1.408      2.675
REMARK INTER + INTRA:          -6.332
REMARK INTER:                  -5.837
REMARK INTRA:                  -0.494
REMARK UNBOUND:                -0.998
REMARK SMILES CCCCCCCCCCCCCC(=O)[O-]
REMARK SMILES IDX 8 1 9 2 10 3 11 4 12 5 13 6 14 7 15 8 16 9 7 10 6 11 5 12
REMARK SMILES IDX 4 13 3 14 2 15 1 16
REMARK H PARENT
REMARK Flexibility Score: inf
ROOT
ATOM      1  C   UNL     1       7.141  -6.099  -0.475  1.00  0.00     0.000 C 
ENDROOT
BRANCH   1   2
ATOM      2  C   UNL     1       8.562  -5.700  -0.050  1.00  0.00     0.000 C 
BRANCH   2   3
ATOM      3  C   UNL     1       9.529  -5.588  -1.239  1.00  0.00     0.000 C 
BRANCH   3   4
ATOM      4  C   UNL     1       9.304  -4.311  -2.066  1.00  0.00     0.000 C 
BRANCH   4   5
ATOM      5  C   UNL     1      10.499  -3.977  -2.973  1.00  0.00     0.006 C 
BRANCH   5   6
ATOM      6  C   UNL     1      11.718  -4.868  -2.699  1.00  0.00     0.053 C 
BRANCH   6   7
ATOM      7  C   UNL     1      12.979  -4.151  -3.063  1.00  0.00     0.041 C 
ATOM      8  O   UNL     1      14.073  -4.487  -2.539  1.00  0.00    -0.550 OA
ATOM      9  O   UNL     1      12.954  -3.145  -4.021  1.00  0.00    -0.550 OA
ENDBRANCH   6   7
ENDBRANCH   5   6
ENDBRANCH   4   5
ENDBRANCH   3   4
ENDBRANCH   2   3
ENDBRANCH   1   2
BRANCH   1  10
ATOM     10  C   UNL     1       6.141  -5.864   0.668  1.00  0.00     0.000 C 
BRANCH  10  11
ATOM     11  C   UNL     1       6.764  -5.122   1.860  1.00  0.00    -0.000 C 
BRANCH  11  12
ATOM     12  C   UNL     1       5.905  -3.942   2.338  1.00  0.00    -0.000 C 
BRANCH  12  13
ATOM     13  C   UNL     1       6.255  -3.556   3.780  1.00  0.00    -0.000 C 
BRANCH  13  14
ATOM     14  C   UNL     1       6.400  -2.034   3.923  1.00  0.00    -0.000 C 
BRANCH  14  15
ATOM     15  C   UNL     1       5.328  -1.422   4.839  1.00  0.00    -0.003 C 
ATOM     16  C   UNL     1       5.847  -0.226   5.637  1.00  0.00     0.004 C 
ENDBRANCH  14  15
ENDBRANCH  13  14
ENDBRANCH  12  13
ENDBRANCH  11  12
ENDBRANCH  10  11
ENDBRANCH   1  10
TORSDOF 12
ENDMDL
MODEL 7
REMARK VINA RESULT:    -3.018     12.025     13.957
REMARK INTER + INTRA:          -6.134
REMARK INTER:                  -4.660
REMARK INTRA:                  -1.474
REMARK UNBOUND:                -0.998
REMARK SMILES CCCCCCCCCCCCCC(=O)[O-]
REMARK SMILES IDX 8 1 9 2 10 3 11 4 12 5 13 6 14 7 15 8 16 9 7 10 6 11 5 12
REMARK SMILES IDX 4 13 3 14 2 15 1 16
REMARK H PARENT
REMARK Flexibility Score: inf
ROOT
ATOM      1  C   UNL     1       9.962   8.466  -8.810  1.00  0.00     0.000 C 
ENDROOT
BRANCH   1   2
ATOM      2  C   UNL     1       9.745   7.971  -7.373  1.00  0.00     0.000 C 
BRANCH   2   3
ATOM      3  C   UNL     1       8.752   8.841  -6.587  1.00  0.00     0.000 C 
BRANCH   3   4
ATOM      4  C   UNL     1       7.290   8.583  -6.993  1.00  0.00     0.000 C 
BRANCH   4   5
ATOM      5  C   UNL     1       6.327   8.641  -5.796  1.00  0.00     0.006 C 
BRANCH   5   6
ATOM      6  C   UNL     1       7.030   9.029  -4.488  1.00  0.00     0.053 C 
BRANCH   6   7
ATOM      7  C   UNL     1       6.220   8.586  -3.311  1.00  0.00     0.041 C 
ATOM      8  O   UNL     1       5.882   7.379  -3.192  1.00  0.00    -0.550 OA
ATOM      9  O   UNL     1       5.882   9.496  -2.317  1.00  0.00    -0.550 OA
ENDBRANCH   6   7
ENDBRANCH   5   6
ENDBRANCH   4   5
ENDBRANCH   3   4
ENDBRANCH   2   3
ENDBRANCH   1   2
BRANCH   1  10
ATOM     10  C   UNL     1       9.500   7.413  -9.829  1.00  0.00     0.000 C 
BRANCH  10  11
ATOM     11  C   UNL     1      10.159   6.043  -9.608  1.00  0.00    -0.000 C 
BRANCH  11  12
ATOM     12  C   UNL     1       9.148   4.955  -9.217  1.00  0.00    -0.000 C 
BRANCH  12  13
ATOM     13  C   UNL     1       9.644   4.153  -8.007  1.00  0.00    -0.000 C 
BRANCH  13  14
ATOM     14  C   UNL     1       8.509   3.919  -6.999  1.00  0.00    -0.000 C 
BRANCH  14  15
ATOM     15  C   UNL     1       7.355   4.920  -7.167  1.00  0.00    -0.003 C 
ATOM     16  C   UNL     1       6.463   5.004  -5.929  1.00  0.00     0.004 C 
ENDBRANCH  14  15
ENDBRANCH  13  14
ENDBRANCH  12  13
ENDBRANCH  11  12
ENDBRANCH  10  11
ENDBRANCH   1  10
TORSDOF 12
ENDMDL
MODEL 8
REMARK VINA RESULT:    -3.010     11.745     13.522
REMARK INTER + INTRA:          -6.121
REMARK INTER:                  -4.146
REMARK INTRA:                  -1.975
REMARK UNBOUND:                -0.998
REMARK SMILES CCCCCCCCCCCCCC(=O)[O-]
REMARK SMILES IDX 8 1 9 2 10 3 11 4 12 5 13 6 14 7 15 8 16 9 7 10 6 11 5 12
REMARK SMILES IDX 4 13 3 14 2 15 1 16
REMARK H PARENT
REMARK Flexibility Score: inf
ROOT
ATOM      1  C   UNL     1       9.159   5.068 -10.235  1.00  0.00     0.000 C 
ENDROOT
BRANCH   1   2
ATOM      2  C   UNL     1      10.238   5.973  -9.622  1.00  0.00     0.000 C 
BRANCH   2   3
ATOM      3  C   UNL     1       9.719   7.382  -9.296  1.00  0.00     0.000 C 
BRANCH   3   4
ATOM      4  C   UNL     1       9.671   7.658  -7.783  1.00  0.00     0.000 C 
BRANCH   4   5
ATOM      5  C   UNL     1       8.777   8.858  -7.431  1.00  0.00     0.006 C 
BRANCH   5   6
ATOM      6  C   UNL     1       9.287   9.640  -6.213  1.00  0.00     0.053 C 
BRANCH   6   7
ATOM      7  C   UNL     1       8.386   9.421  -5.039  1.00  0.00     0.041 C 
ATOM      8  O   UNL     1       8.752   9.767  -3.886  1.00  0.00    -0.550 OA
ATOM      9  O   UNL     1       7.120   8.882  -5.227  1.00  0.00    -0.550 OA
ENDBRANCH   6   7
ENDBRANCH   5   6
ENDBRANCH   4   5
ENDBRANCH   3   4
ENDBRANCH   2   3
ENDBRANCH   1   2
BRANCH   1  10
ATOM     10  C   UNL     1       8.894   3.847  -9.341  1.00  0.00     0.000 C 
BRANCH  10  11
ATOM     11  C   UNL     1       9.741   3.855  -8.058  1.00  0.00    -0.000 C 
BRANCH  11  12
ATOM     12  C   UNL     1       8.890   3.997  -6.788  1.00  0.00    -0.000 C 
BRANCH  12  13
ATOM     13  C   UNL     1       7.403   4.143  -7.136  1.00  0.00    -0.000 C 
BRANCH  13  14
ATOM     14  C   UNL     1       6.848   5.482  -6.629  1.00  0.00    -0.000 C 
BRANCH  14  15
ATOM     15  C   UNL     1       6.164   6.295  -7.739  1.00  0.00    -0.003 C 
ATOM     16  C   UNL     1       5.592   5.414  -8.849  1.00  0.00     0.004 C 
ENDBRANCH  14  15
ENDBRANCH  13  14
ENDBRANCH  12  13
ENDBRANCH  11  12
ENDBRANCH  10  11
ENDBRANCH   1  10
TORSDOF 12
ENDMDL
