MODEL 1
REMARK VINA RESULT:    -7.562      0.000      0.000
REMARK INTER + INTRA:          -8.959
REMARK INTER:                  -9.110
REMARK INTRA:                   0.151
REMARK UNBOUND:                 0.151
REMARK SMILES O=c1c(O)c(-c2ccc(O)c(O)c2)oc2cc(O)cc(O)c12
REMARK SMILES IDX 5 1 3 2 2 3 1 4 22 5 20 6 19 7 17 8 16 9 15 10 14 11 6 12
REMARK SMILES IDX 7 13 8 14 9 15 13 16 11 17 10 18 12 20 4 22 21 24 18 26
REMARK H PARENT 10 19 12 21 4 23 21 25 18 27
REMARK Flexibility Score: inf
ROOT
ATOM      1  C   UNL     1      33.088  19.978 -15.356  1.00  0.00     0.180 A 
ATOM      2  C   UNL     1      34.159  20.484 -16.112  1.00  0.00     0.208 A 
ATOM      3  C   UNL     1      34.463  21.853 -16.031  1.00  0.00     0.238 A 
ATOM      4  O   UNL     1      35.456  22.289 -16.669  1.00  0.00    -0.285 OA
ATOM      5  C   UNL     1      33.682  22.701 -15.208  1.00  0.00     0.111 A 
ATOM      6  C   UNL     1      33.876  24.109 -15.082  1.00  0.00     0.134 A 
ATOM      7  C   UNL     1      33.129  24.827 -14.140  1.00  0.00     0.093 A 
ATOM      8  C   UNL     1      32.152  24.201 -13.367  1.00  0.00     0.123 A 
ATOM      9  C   UNL     1      31.915  22.834 -13.524  1.00  0.00     0.094 A 
ATOM     10  C   UNL     1      32.668  22.085 -14.431  1.00  0.00     0.146 A 
ATOM     11  O   UNL     1      32.416  20.786 -14.542  1.00  0.00    -0.452 OA
ENDROOT
BRANCH   1  12
ATOM     12  C   UNL     1      32.691  18.552 -15.407  1.00  0.00     0.025 A 
ATOM     13  C   UNL     1      32.207  17.928 -14.247  1.00  0.00     0.016 A 
ATOM     14  C   UNL     1      31.808  16.589 -14.278  1.00  0.00     0.051 A 
ATOM     15  C   UNL     1      31.871  15.859 -15.469  1.00  0.00     0.157 A 
ATOM     16  C   UNL     1      32.735  17.823 -16.609  1.00  0.00     0.062 A 
ATOM     17  C   UNL     1      32.332  16.479 -16.642  1.00  0.00     0.158 A 
BRANCH  15  18
ATOM     18  O   UNL     1      31.468  14.525 -15.469  1.00  0.00    -0.504 OA
ATOM     19  H   UNL     1      31.352  13.998 -14.611  1.00  0.00     0.293 HD
ENDBRANCH  15  18
BRANCH  17  20
ATOM     20  O   UNL     1      32.384  15.762 -17.837  1.00  0.00    -0.504 OA
ATOM     21  H   UNL     1      32.279  16.219 -18.735  1.00  0.00     0.293 HD
ENDBRANCH  17  20
ENDBRANCH   1  12
BRANCH   2  22
ATOM     22  O   UNL     1      34.930  19.626 -16.901  1.00  0.00    -0.502 OA
ATOM     23  H   UNL     1      35.525  19.962 -17.647  1.00  0.00     0.293 HD
ENDBRANCH   2  22
BRANCH   6  24
ATOM     24  O   UNL     1      34.761  24.849 -15.871  1.00  0.00    -0.507 OA
ATOM     25  H   UNL     1      35.718  25.051 -15.623  1.00  0.00     0.293 HD
ENDBRANCH   6  24
BRANCH   8  26
ATOM     26  O   UNL     1      31.418  24.949 -12.450  1.00  0.00    -0.508 OA
ATOM     27  H   UNL     1      31.733  25.860 -12.135  1.00  0.00     0.293 HD
ENDBRANCH   8  26
TORSDOF 6
ENDMDL
MODEL 2
REMARK VINA RESULT:    -7.556      0.610      1.464
REMARK INTER + INTRA:          -8.951
REMARK INTER:                  -9.177
REMARK INTRA:                   0.226
REMARK UNBOUND:                 0.151
REMARK SMILES O=c1c(O)c(-c2ccc(O)c(O)c2)oc2cc(O)cc(O)c12
REMARK SMILES IDX 5 1 3 2 2 3 1 4 22 5 20 6 19 7 17 8 16 9 15 10 14 11 6 12
REMARK SMILES IDX 7 13 8 14 9 15 13 16 11 17 10 18 12 20 4 22 21 24 18 26
REMARK H PARENT 10 19 12 21 4 23 21 25 18 27
REMARK Flexibility Score: inf
ROOT
ATOM      1  C   UNL     1      33.114  20.060 -15.394  1.00  0.00     0.180 A 
ATOM      2  C   UNL     1      34.214  20.514 -16.141  1.00  0.00     0.208 A 
ATOM      3  C   UNL     1      34.561  21.874 -16.086  1.00  0.00     0.238 A 
ATOM      4  O   UNL     1      35.579  22.264 -16.713  1.00  0.00    -0.285 OA
ATOM      5  C   UNL     1      33.792  22.765 -15.298  1.00  0.00     0.111 A 
ATOM      6  C   UNL     1      34.027  24.169 -15.200  1.00  0.00     0.134 A 
ATOM      7  C   UNL     1      33.286  24.932 -14.290  1.00  0.00     0.093 A 
ATOM      8  C   UNL     1      32.276  24.356 -13.521  1.00  0.00     0.123 A 
ATOM      9  C   UNL     1      31.997  22.993 -13.652  1.00  0.00     0.094 A 
ATOM     10  C   UNL     1      32.744  22.199 -14.526  1.00  0.00     0.146 A 
ATOM     11  O   UNL     1      32.453  20.908 -14.613  1.00  0.00    -0.452 OA
ENDROOT
BRANCH   1  12
ATOM     12  C   UNL     1      32.673  18.646 -15.421  1.00  0.00     0.025 A 
ATOM     13  C   UNL     1      32.778  17.913 -16.613  1.00  0.00     0.016 A 
ATOM     14  C   UNL     1      32.388  16.571 -16.655  1.00  0.00     0.051 A 
ATOM     15  C   UNL     1      31.903  15.939 -15.507  1.00  0.00     0.157 A 
ATOM     16  C   UNL     1      32.204  18.003 -14.261  1.00  0.00     0.062 A 
ATOM     17  C   UNL     1      31.815  16.656 -14.302  1.00  0.00     0.158 A 
BRANCH  15  18
ATOM     18  O   UNL     1      31.519  14.601 -15.580  1.00  0.00    -0.504 OA
ATOM     19  H   UNL     1      30.973  14.240 -16.353  1.00  0.00     0.293 HD
ENDBRANCH  15  18
BRANCH  17  20
ATOM     20  O   UNL     1      31.345  16.028 -13.149  1.00  0.00    -0.504 OA
ATOM     21  H   UNL     1      31.932  15.911 -12.331  1.00  0.00     0.293 HD
ENDBRANCH  17  20
ENDBRANCH   1  12
BRANCH   2  22
ATOM     22  O   UNL     1      34.972  19.614 -16.895  1.00  0.00    -0.502 OA
ATOM     23  H   UNL     1      35.927  19.806 -17.172  1.00  0.00     0.293 HD
ENDBRANCH   2  22
BRANCH   6  24
ATOM     24  O   UNL     1      34.951  24.863 -15.988  1.00  0.00    -0.507 OA
ATOM     25  H   UNL     1      34.785  25.164 -16.936  1.00  0.00     0.293 HD
ENDBRANCH   6  24
BRANCH   8  26
ATOM     26  O   UNL     1      31.548  25.147 -12.637  1.00  0.00    -0.508 OA
ATOM     27  H   UNL     1      30.924  24.739 -11.949  1.00  0.00     0.293 HD
ENDBRANCH   8  26
TORSDOF 6
ENDMDL
MODEL 3
REMARK VINA RESULT:    -7.453      1.568      3.354
REMARK INTER + INTRA:          -8.828
REMARK INTER:                  -9.130
REMARK INTRA:                   0.302
REMARK UNBOUND:                 0.151
REMARK SMILES O=c1c(O)c(-c2ccc(O)c(O)c2)oc2cc(O)cc(O)c12
REMARK SMILES IDX 5 1 3 2 2 3 1 4 22 5 20 6 19 7 17 8 16 9 15 10 14 11 6 12
REMARK SMILES IDX 7 13 8 14 9 15 13 16 11 17 10 18 12 20 4 22 21 24 18 26
REMARK H PARENT 10 19 12 21 4 23 21 25 18 27
REMARK Flexibility Score: inf
ROOT
ATOM      1  C   UNL     1      32.960  19.591 -15.670  1.00  0.00     0.180 A 
ATOM      2  C   UNL     1      32.471  20.683 -14.933  1.00  0.00     0.208 A 
ATOM      3  C   UNL     1      32.941  21.972 -15.233  1.00  0.00     0.238 A 
ATOM      4  O   UNL     1      32.460  22.951 -14.606  1.00  0.00    -0.285 OA
ATOM      5  C   UNL     1      33.906  22.150 -16.254  1.00  0.00     0.111 A 
ATOM      6  C   UNL     1      34.481  23.405 -16.614  1.00  0.00     0.134 A 
ATOM      7  C   UNL     1      35.329  23.483 -17.726  1.00  0.00     0.093 A 
ATOM      8  C   UNL     1      35.672  22.343 -18.451  1.00  0.00     0.123 A 
ATOM      9  C   UNL     1      35.161  21.100 -18.071  1.00  0.00     0.094 A 
ATOM     10  C   UNL     1      34.285  20.997 -16.988  1.00  0.00     0.146 A 
ATOM     11  O   UNL     1      33.814  19.798 -16.666  1.00  0.00    -0.452 OA
ENDROOT
BRANCH   1  12
ATOM     12  C   UNL     1      32.530  18.200 -15.396  1.00  0.00     0.025 A 
ATOM     13  C   UNL     1      32.163  17.835 -14.091  1.00  0.00     0.016 A 
ATOM     14  C   UNL     1      31.734  16.534 -13.815  1.00  0.00     0.051 A 
ATOM     15  C   UNL     1      31.651  15.584 -14.837  1.00  0.00     0.157 A 
ATOM     16  C   UNL     1      32.426  17.249 -16.427  1.00  0.00     0.062 A 
ATOM     17  C   UNL     1      31.993  15.944 -16.151  1.00  0.00     0.158 A 
BRANCH  15  18
ATOM     18  O   UNL     1      31.222  14.294 -14.530  1.00  0.00    -0.504 OA
ATOM     19  H   UNL     1      31.618  13.475 -14.977  1.00  0.00     0.293 HD
ENDBRANCH  15  18
BRANCH  17  20
ATOM     20  O   UNL     1      31.899  15.005 -17.178  1.00  0.00    -0.504 OA
ATOM     21  H   UNL     1      32.705  14.473 -17.486  1.00  0.00     0.293 HD
ENDBRANCH  17  20
ENDBRANCH   1  12
BRANCH   2  22
ATOM     22  O   UNL     1      31.503  20.487 -13.944  1.00  0.00    -0.502 OA
ATOM     23  H   UNL     1      30.707  21.103 -13.833  1.00  0.00     0.293 HD
ENDBRANCH   2  22
BRANCH   6  24
ATOM     24  O   UNL     1      34.277  24.591 -15.902  1.00  0.00    -0.507 OA
ATOM     25  H   UNL     1      34.923  24.975 -15.229  1.00  0.00     0.293 HD
ENDBRANCH   6  24
BRANCH   8  26
ATOM     26  O   UNL     1      36.529  22.454 -19.542  1.00  0.00    -0.508 OA
ATOM     27  H   UNL     1      36.827  23.358 -19.893  1.00  0.00     0.293 HD
ENDBRANCH   8  26
TORSDOF 6
ENDMDL
MODEL 4
REMARK VINA RESULT:    -7.343      3.090      7.079
REMARK INTER + INTRA:          -8.694
REMARK INTER:                  -8.443
REMARK INTRA:                  -0.251
REMARK UNBOUND:                 0.151
REMARK SMILES O=c1c(O)c(-c2ccc(O)c(O)c2)oc2cc(O)cc(O)c12
REMARK SMILES IDX 5 1 3 2 2 3 1 4 22 5 20 6 19 7 17 8 16 9 15 10 14 11 6 12
REMARK SMILES IDX 7 13 8 14 9 15 13 16 11 17 10 18 12 20 4 22 21 24 18 26
REMARK H PARENT 10 19 12 21 4 23 21 25 18 27
REMARK Flexibility Score: inf
ROOT
ATOM      1  C   UNL     1      32.736  17.746 -16.410  1.00  0.00     0.180 A 
ATOM      2  C   UNL     1      32.771  16.633 -17.268  1.00  0.00     0.208 A 
ATOM      3  C   UNL     1      32.167  15.434 -16.855  1.00  0.00     0.238 A 
ATOM      4  O   UNL     1      32.155  14.459 -17.649  1.00  0.00    -0.285 OA
ATOM      5  C   UNL     1      31.552  15.359 -15.582  1.00  0.00     0.111 A 
ATOM      6  C   UNL     1      30.947  14.184 -15.044  1.00  0.00     0.134 A 
ATOM      7  C   UNL     1      30.253  14.259 -13.829  1.00  0.00     0.093 A 
ATOM      8  C   UNL     1      30.199  15.447 -13.103  1.00  0.00     0.123 A 
ATOM      9  C   UNL     1      30.838  16.588 -13.592  1.00  0.00     0.094 A 
ATOM     10  C   UNL     1      31.507  16.554 -14.818  1.00  0.00     0.146 A 
ATOM     11  O   UNL     1      32.094  17.663 -15.250  1.00  0.00    -0.452 OA
ENDROOT
BRANCH   1  12
ATOM     12  C   UNL     1      33.371  19.036 -16.767  1.00  0.00     0.025 A 
ATOM     13  C   UNL     1      34.601  19.383 -16.186  1.00  0.00     0.016 A 
ATOM     14  C   UNL     1      35.228  20.585 -16.525  1.00  0.00     0.051 A 
ATOM     15  C   UNL     1      34.646  21.449 -17.456  1.00  0.00     0.157 A 
ATOM     16  C   UNL     1      32.797  19.896 -17.719  1.00  0.00     0.062 A 
ATOM     17  C   UNL     1      33.426  21.102 -18.061  1.00  0.00     0.158 A 
BRANCH  15  18
ATOM     18  O   UNL     1      35.294  22.643 -17.771  1.00  0.00    -0.504 OA
ATOM     19  H   UNL     1      34.950  23.542 -17.453  1.00  0.00     0.293 HD
ENDBRANCH  15  18
BRANCH  17  20
ATOM     20  O   UNL     1      32.847  21.953 -19.001  1.00  0.00    -0.504 OA
ATOM     21  H   UNL     1      33.263  22.847 -19.236  1.00  0.00     0.293 HD
ENDBRANCH  17  20
ENDBRANCH   1  12
BRANCH   2  22
ATOM     22  O   UNL     1      33.364  16.736 -18.530  1.00  0.00    -0.502 OA
ATOM     23  H   UNL     1      34.315  16.439 -18.709  1.00  0.00     0.293 HD
ENDBRANCH   2  22
BRANCH   6  24
ATOM     24  O   UNL     1      31.019  12.923 -15.643  1.00  0.00    -0.507 OA
ATOM     25  H   UNL     1      31.698  12.658 -16.341  1.00  0.00     0.293 HD
ENDBRANCH   6  24
BRANCH   8  26
ATOM     26  O   UNL     1      29.513  15.482 -11.891  1.00  0.00    -0.508 OA
ATOM     27  H   UNL     1      28.531  15.732 -11.845  1.00  0.00     0.293 HD
ENDBRANCH   8  26
TORSDOF 6
ENDMDL
MODEL 5
REMARK VINA RESULT:    -7.298      1.316      2.139
REMARK INTER + INTRA:          -8.641
REMARK INTER:                  -9.142
REMARK INTRA:                   0.502
REMARK UNBOUND:                 0.151
REMARK SMILES O=c1c(O)c(-c2ccc(O)c(O)c2)oc2cc(O)cc(O)c12
REMARK SMILES IDX 5 1 3 2 2 3 1 4 22 5 20 6 19 7 17 8 16 9 15 10 14 11 6 12
REMARK SMILES IDX 7 13 8 14 9 15 13 16 11 17 10 18 12 20 4 22 21 24 18 26
REMARK H PARENT 10 19 12 21 4 23 21 25 18 27
REMARK Flexibility Score: inf
ROOT
ATOM      1  C   UNL     1      32.753  18.855 -15.339  1.00  0.00     0.180 A 
ATOM      2  C   UNL     1      33.564  19.133 -16.452  1.00  0.00     0.208 A 
ATOM      3  C   UNL     1      34.083  20.428 -16.611  1.00  0.00     0.238 A 
ATOM      4  O   UNL     1      34.852  20.656 -17.581  1.00  0.00    -0.285 OA
ATOM      5  C   UNL     1      33.771  21.433 -15.663  1.00  0.00     0.111 A 
ATOM      6  C   UNL     1      34.209  22.789 -15.747  1.00  0.00     0.134 A 
ATOM      7  C   UNL     1      33.949  23.665 -14.686  1.00  0.00     0.093 A 
ATOM      8  C   UNL     1      33.213  23.253 -13.575  1.00  0.00     0.123 A 
ATOM      9  C   UNL     1      32.729  21.945 -13.511  1.00  0.00     0.094 A 
ATOM     10  C   UNL     1      33.003  21.038 -14.538  1.00  0.00     0.146 A 
ATOM     11  O   UNL     1      32.532  19.801 -14.432  1.00  0.00    -0.452 OA
ENDROOT
BRANCH   1  12
ATOM     12  C   UNL     1      32.150  17.521 -15.116  1.00  0.00     0.025 A 
ATOM     13  C   UNL     1      32.179  16.570 -16.148  1.00  0.00     0.016 A 
ATOM     14  C   UNL     1      31.634  15.298 -15.953  1.00  0.00     0.051 A 
ATOM     15  C   UNL     1      31.068  14.951 -14.723  1.00  0.00     0.157 A 
ATOM     16  C   UNL     1      31.598  17.164 -13.873  1.00  0.00     0.062 A 
ATOM     17  C   UNL     1      31.054  15.887 -13.675  1.00  0.00     0.158 A 
BRANCH  15  18
ATOM     18  O   UNL     1      30.531  13.675 -14.559  1.00  0.00    -0.504 OA
ATOM     19  H   UNL     1      30.879  12.875 -15.072  1.00  0.00     0.293 HD
ENDBRANCH  15  18
BRANCH  17  20
ATOM     20  O   UNL     1      30.504  15.544 -12.441  1.00  0.00    -0.504 OA
ATOM     21  H   UNL     1      29.826  16.139 -11.978  1.00  0.00     0.293 HD
ENDBRANCH  17  20
ENDBRANCH   1  12
BRANCH   2  22
ATOM     22  O   UNL     1      33.877  18.121 -17.364  1.00  0.00    -0.502 OA
ATOM     23  H   UNL     1      33.272  17.882 -18.140  1.00  0.00     0.293 HD
ENDBRANCH   2  22
BRANCH   6  24
ATOM     24  O   UNL     1      34.873  23.328 -16.852  1.00  0.00    -0.507 OA
ATOM     25  H   UNL     1      34.447  23.933 -17.538  1.00  0.00     0.293 HD
ENDBRANCH   6  24
BRANCH   8  26
ATOM     26  O   UNL     1      32.960  24.155 -12.545  1.00  0.00    -0.508 OA
ATOM     27  H   UNL     1      32.778  25.135 -12.731  1.00  0.00     0.293 HD
ENDBRANCH   8  26
TORSDOF 6
ENDMDL
MODEL 6
REMARK VINA RESULT:    -7.137      2.165      7.089
REMARK INTER + INTRA:          -8.446
REMARK INTER:                  -8.186
REMARK INTRA:                  -0.260
REMARK UNBOUND:                 0.151
REMARK SMILES O=c1c(O)c(-c2ccc(O)c(O)c2)oc2cc(O)cc(O)c12
REMARK SMILES IDX 5 1 3 2 2 3 1 4 22 5 20 6 19 7 17 8 16 9 15 10 14 11 6 12
REMARK SMILES IDX 7 13 8 14 9 15 13 16 11 17 10 18 12 20 4 22 21 24 18 26
REMARK H PARENT 10 19 12 21 4 23 21 25 18 27
REMARK Flexibility Score: inf
ROOT
ATOM      1  C   UNL     1      32.714  18.070 -15.883  1.00  0.00     0.180 A 
ATOM      2  C   UNL     1      32.740  17.150 -16.945  1.00  0.00     0.208 A 
ATOM      3  C   UNL     1      32.185  15.873 -16.755  1.00  0.00     0.238 A 
ATOM      4  O   UNL     1      32.163  15.074 -17.726  1.00  0.00    -0.285 OA
ATOM      5  C   UNL     1      31.627  15.528 -15.500  1.00  0.00     0.111 A 
ATOM      6  C   UNL     1      31.075  14.251 -15.183  1.00  0.00     0.134 A 
ATOM      7  C   UNL     1      30.433  14.062 -13.953  1.00  0.00     0.093 A 
ATOM      8  C   UNL     1      30.380  15.082 -13.004  1.00  0.00     0.123 A 
ATOM      9  C   UNL     1      30.970  16.317 -13.281  1.00  0.00     0.094 A 
ATOM     10  C   UNL     1      31.586  16.547 -14.514  1.00  0.00     0.146 A 
ATOM     11  O   UNL     1      32.125  17.739 -14.739  1.00  0.00    -0.452 OA
ENDROOT
BRANCH   1  12
ATOM     12  C   UNL     1      33.301  19.425 -16.000  1.00  0.00     0.025 A 
ATOM     13  C   UNL     1      32.454  20.544 -16.025  1.00  0.00     0.016 A 
ATOM     14  C   UNL     1      32.987  21.832 -16.114  1.00  0.00     0.051 A 
ATOM     15  C   UNL     1      34.371  22.024 -16.163  1.00  0.00     0.157 A 
ATOM     16  C   UNL     1      34.693  19.620 -16.030  1.00  0.00     0.062 A 
ATOM     17  C   UNL     1      35.230  20.913 -16.116  1.00  0.00     0.158 A 
BRANCH  15  18
ATOM     18  O   UNL     1      34.873  23.321 -16.254  1.00  0.00    -0.504 OA
ATOM     19  H   UNL     1      34.872  23.838 -17.125  1.00  0.00     0.293 HD
ENDBRANCH  15  18
BRANCH  17  20
ATOM     20  O   UNL     1      36.611  21.098 -16.151  1.00  0.00    -0.504 OA
ATOM     21  H   UNL     1      37.048  21.706 -16.834  1.00  0.00     0.293 HD
ENDBRANCH  17  20
ENDBRANCH   1  12
BRANCH   2  22
ATOM     22  O   UNL     1      33.276  17.519 -18.182  1.00  0.00    -0.502 OA
ATOM     23  H   UNL     1      32.966  17.107 -19.054  1.00  0.00     0.293 HD
ENDBRANCH   2  22
BRANCH   6  24
ATOM     24  O   UNL     1      31.154  13.136 -16.023  1.00  0.00    -0.507 OA
ATOM     25  H   UNL     1      31.917  12.477 -16.031  1.00  0.00     0.293 HD
ENDBRANCH   6  24
BRANCH   8  26
ATOM     26  O   UNL     1      29.747  14.855 -11.785  1.00  0.00    -0.508 OA
ATOM     27  H   UNL     1      29.001  15.457 -11.455  1.00  0.00     0.293 HD
ENDBRANCH   8  26
TORSDOF 6
ENDMDL
MODEL 7
REMARK VINA RESULT:    -6.906      2.432      7.372
REMARK INTER + INTRA:          -8.168
REMARK INTER:                  -7.835
REMARK INTRA:                  -0.332
REMARK UNBOUND:                 0.151
REMARK SMILES O=c1c(O)c(-c2ccc(O)c(O)c2)oc2cc(O)cc(O)c12
REMARK SMILES IDX 5 1 3 2 2 3 1 4 22 5 20 6 19 7 17 8 16 9 15 10 14 11 6 12
REMARK SMILES IDX 7 13 8 14 9 15 13 16 11 17 10 18 12 20 4 22 21 24 18 26
REMARK H PARENT 10 19 12 21 4 23 21 25 18 27
REMARK Flexibility Score: inf
ROOT
ATOM      1  C   UNL     1      33.360  19.469 -16.380  1.00  0.00     0.180 A 
ATOM      2  C   UNL     1      32.937  19.190 -15.070  1.00  0.00     0.208 A 
ATOM      3  C   UNL     1      32.417  17.918 -14.778  1.00  0.00     0.238 A 
ATOM      4  O   UNL     1      32.090  17.657 -13.591  1.00  0.00    -0.285 OA
ATOM      5  C   UNL     1      32.312  16.948 -15.804  1.00  0.00     0.111 A 
ATOM      6  C   UNL     1      31.763  15.643 -15.630  1.00  0.00     0.134 A 
ATOM      7  C   UNL     1      31.828  14.720 -16.682  1.00  0.00     0.093 A 
ATOM      8  C   UNL     1      32.362  15.076 -17.920  1.00  0.00     0.123 A 
ATOM      9  C   UNL     1      32.848  16.370 -18.119  1.00  0.00     0.094 A 
ATOM     10  C   UNL     1      32.829  17.301 -17.077  1.00  0.00     0.146 A 
ATOM     11  O   UNL     1      33.309  18.517 -17.306  1.00  0.00    -0.452 OA
ENDROOT
BRANCH   1  12
ATOM     12  C   UNL     1      33.896  20.794 -16.770  1.00  0.00     0.025 A 
ATOM     13  C   UNL     1      35.284  20.999 -16.788  1.00  0.00     0.016 A 
ATOM     14  C   UNL     1      35.812  22.234 -17.173  1.00  0.00     0.051 A 
ATOM     15  C   UNL     1      34.965  23.276 -17.559  1.00  0.00     0.157 A 
ATOM     16  C   UNL     1      33.045  21.837 -17.179  1.00  0.00     0.062 A 
ATOM     17  C   UNL     1      33.574  23.077 -17.567  1.00  0.00     0.158 A 
BRANCH  15  18
ATOM     18  O   UNL     1      35.520  24.498 -17.935  1.00  0.00    -0.504 OA
ATOM     19  H   UNL     1      35.147  25.046 -18.702  1.00  0.00     0.293 HD
ENDBRANCH  15  18
BRANCH  17  20
ATOM     20  O   UNL     1      32.723  24.107 -17.965  1.00  0.00    -0.504 OA
ATOM     21  H   UNL     1      32.429  24.210 -18.929  1.00  0.00     0.293 HD
ENDBRANCH  17  20
ENDBRANCH   1  12
BRANCH   2  22
ATOM     22  O   UNL     1      33.070  20.155 -14.067  1.00  0.00    -0.502 OA
ATOM     23  H   UNL     1      33.972  20.488 -13.749  1.00  0.00     0.293 HD
ENDBRANCH   2  22
BRANCH   6  24
ATOM     24  O   UNL     1      31.124  15.213 -14.464  1.00  0.00    -0.507 OA
ATOM     25  H   UNL     1      30.125  15.118 -14.359  1.00  0.00     0.293 HD
ENDBRANCH   6  24
BRANCH   8  26
ATOM     26  O   UNL     1      32.398  14.139 -18.949  1.00  0.00    -0.508 OA
ATOM     27  H   UNL     1      31.603  13.543 -19.151  1.00  0.00     0.293 HD
ENDBRANCH   8  26
TORSDOF 6
ENDMDL
MODEL 8
REMARK VINA RESULT:    -6.848      1.370      6.931
REMARK INTER + INTRA:          -8.099
REMARK INTER:                  -8.630
REMARK INTRA:                   0.531
REMARK UNBOUND:                 0.151
REMARK SMILES O=c1c(O)c(-c2ccc(O)c(O)c2)oc2cc(O)cc(O)c12
REMARK SMILES IDX 5 1 3 2 2 3 1 4 22 5 20 6 19 7 17 8 16 9 15 10 14 11 6 12
REMARK SMILES IDX 7 13 8 14 9 15 13 16 11 17 10 18 12 20 4 22 21 24 18 26
REMARK H PARENT 10 19 12 21 4 23 21 25 18 27
REMARK Flexibility Score: inf
ROOT
ATOM      1  C   UNL     1      32.821  19.307 -15.357  1.00  0.00     0.180 A 
ATOM      2  C   UNL     1      33.176  18.611 -16.524  1.00  0.00     0.208 A 
ATOM      3  C   UNL     1      32.796  17.266 -16.658  1.00  0.00     0.238 A 
ATOM      4  O   UNL     1      33.071  16.664 -17.728  1.00  0.00    -0.285 OA
ATOM      5  C   UNL     1      32.079  16.630 -15.615  1.00  0.00     0.111 A 
ATOM      6  C   UNL     1      31.678  15.261 -15.626  1.00  0.00     0.134 A 
ATOM      7  C   UNL     1      30.861  14.772 -14.600  1.00  0.00     0.093 A 
ATOM      8  C   UNL     1      30.484  15.583 -13.531  1.00  0.00     0.123 A 
ATOM      9  C   UNL     1      30.920  16.909 -13.481  1.00  0.00     0.094 A 
ATOM     10  C   UNL     1      31.707  17.435 -14.508  1.00  0.00     0.146 A 
ATOM     11  O   UNL     1      32.091  18.702 -14.426  1.00  0.00    -0.452 OA
ENDROOT
BRANCH   1  12
ATOM     12  C   UNL     1      33.207  20.720 -15.133  1.00  0.00     0.025 A 
ATOM     13  C   UNL     1      34.075  21.350 -16.038  1.00  0.00     0.016 A 
ATOM     14  C   UNL     1      34.436  22.688 -15.858  1.00  0.00     0.051 A 
ATOM     15  C   UNL     1      33.924  23.420 -14.783  1.00  0.00     0.157 A 
ATOM     16  C   UNL     1      32.677  21.464 -14.063  1.00  0.00     0.062 A 
ATOM     17  C   UNL     1      33.037  22.808 -13.883  1.00  0.00     0.158 A 
BRANCH  15  18
ATOM     18  O   UNL     1      34.305  24.752 -14.628  1.00  0.00    -0.504 OA
ATOM     19  H   UNL     1      33.766  25.403 -14.069  1.00  0.00     0.293 HD
ENDBRANCH  15  18
BRANCH  17  20
ATOM     20  O   UNL     1      32.512  23.536 -12.816  1.00  0.00    -0.504 OA
ATOM     21  H   UNL     1      31.698  23.214 -12.304  1.00  0.00     0.293 HD
ENDBRANCH  17  20
ENDBRANCH   1  12
BRANCH   2  22
ATOM     22  O   UNL     1      33.865  19.264 -17.550  1.00  0.00    -0.502 OA
ATOM     23  H   UNL     1      34.152  18.792 -18.399  1.00  0.00     0.293 HD
ENDBRANCH   2  22
BRANCH   6  24
ATOM     24  O   UNL     1      32.075  14.338 -16.600  1.00  0.00    -0.507 OA
ATOM     25  H   UNL     1      31.533  13.537 -16.885  1.00  0.00     0.293 HD
ENDBRANCH   6  24
BRANCH   8  26
ATOM     26  O   UNL     1      29.682  15.061 -12.520  1.00  0.00    -0.508 OA
ATOM     27  H   UNL     1      28.679  15.205 -12.510  1.00  0.00     0.293 HD
ENDBRANCH   8  26
TORSDOF 6
ENDMDL
MODEL 9
REMARK VINA RESULT:    -6.655      4.499      5.756
REMARK INTER + INTRA:          -7.866
REMARK INTER:                  -7.734
REMARK INTRA:                  -0.132
REMARK UNBOUND:                 0.151
REMARK SMILES O=c1c(O)c(-c2ccc(O)c(O)c2)oc2cc(O)cc(O)c12
REMARK SMILES IDX 5 1 3 2 2 3 1 4 22 5 20 6 19 7 17 8 16 9 15 10 14 11 6 12
REMARK SMILES IDX 7 13 8 14 9 15 13 16 11 17 10 18 12 20 4 22 21 24 18 26
REMARK H PARENT 10 19 12 21 4 23 21 25 18 27
REMARK Flexibility Score: inf
ROOT
ATOM      1  C   UNL     1      31.360  23.277 -17.549  1.00  0.00     0.180 A 
ATOM      2  C   UNL     1      32.692  22.836 -17.614  1.00  0.00     0.208 A 
ATOM      3  C   UNL     1      33.488  22.899 -16.459  1.00  0.00     0.238 A 
ATOM      4  O   UNL     1      34.663  22.453 -16.510  1.00  0.00    -0.285 OA
ATOM      5  C   UNL     1      32.946  23.418 -15.258  1.00  0.00     0.111 A 
ATOM      6  C   UNL     1      33.673  23.567 -14.039  1.00  0.00     0.134 A 
ATOM      7  C   UNL     1      33.001  23.970 -12.878  1.00  0.00     0.093 A 
ATOM      8  C   UNL     1      31.645  24.291 -12.907  1.00  0.00     0.123 A 
ATOM      9  C   UNL     1      30.937  24.206 -14.107  1.00  0.00     0.094 A 
ATOM     10  C   UNL     1      31.573  23.773 -15.274  1.00  0.00     0.146 A 
ATOM     11  O   UNL     1      30.861  23.697 -16.392  1.00  0.00    -0.452 OA
ENDROOT
BRANCH   1  12
ATOM     12  C   UNL     1      30.467  23.264 -18.731  1.00  0.00     0.025 A 
ATOM     13  C   UNL     1      30.116  22.038 -19.317  1.00  0.00     0.016 A 
ATOM     14  C   UNL     1      29.258  22.001 -20.420  1.00  0.00     0.051 A 
ATOM     15  C   UNL     1      28.726  23.183 -20.942  1.00  0.00     0.157 A 
ATOM     16  C   UNL     1      29.915  24.451 -19.245  1.00  0.00     0.062 A 
ATOM     17  C   UNL     1      29.051  24.415 -20.350  1.00  0.00     0.158 A 
BRANCH  15  18
ATOM     18  O   UNL     1      27.875  23.115 -22.044  1.00  0.00    -0.504 OA
ATOM     19  H   UNL     1      26.867  23.116 -21.946  1.00  0.00     0.293 HD
ENDBRANCH  15  18
BRANCH  17  20
ATOM     20  O   UNL     1      28.514  25.597 -20.857  1.00  0.00    -0.504 OA
ATOM     21  H   UNL     1      28.936  26.498 -20.664  1.00  0.00     0.293 HD
ENDBRANCH  17  20
ENDBRANCH   1  12
BRANCH   2  22
ATOM     22  O   UNL     1      33.200  22.307 -18.804  1.00  0.00    -0.502 OA
ATOM     23  H   UNL     1      33.716  21.436 -18.835  1.00  0.00     0.293 HD
ENDBRANCH   2  22
BRANCH   6  24
ATOM     24  O   UNL     1      35.051  23.360 -13.921  1.00  0.00    -0.507 OA
ATOM     25  H   UNL     1      35.686  23.982 -13.443  1.00  0.00     0.293 HD
ENDBRANCH   6  24
BRANCH   8  26
ATOM     26  O   UNL     1      31.011  24.702 -11.737  1.00  0.00    -0.508 OA
ATOM     27  H   UNL     1      30.165  25.260 -11.760  1.00  0.00     0.293 HD
ENDBRANCH   8  26
TORSDOF 6
ENDMDL
