MODEL 1
REMARK VINA RESULT:    -5.956      0.000      0.000
REMARK INTER + INTRA:         -13.391
REMARK INTER:                 -11.527
REMARK INTRA:                  -1.864
REMARK UNBOUND:                -1.864
REMARK SMILES CCCCCCCCCCCCCCCCCC(=O)[O-]
REMARK SMILES IDX 10 1 11 2 12 3 13 4 14 5 15 6 16 7 17 8 18 9 19 10 20 11
REMARK SMILES IDX 9 12 8 13 7 14 6 15 5 16 4 17 3 18 2 19 1 20
REMARK H PARENT
REMARK Flexibility Score: inf
ROOT
ATOM      1  C   UNL     1       3.128   9.269  17.152  1.00  0.00     0.000 C 
ENDROOT
BRANCH   1   2
ATOM      2  C   UNL     1       2.794  10.189  18.339  1.00  0.00     0.000 C 
BRANCH   2   3
ATOM      3  C   UNL     1       3.498  11.556  18.254  1.00  0.00     0.000 C 
BRANCH   3   4
ATOM      4  C   UNL     1       5.008  11.500  17.952  1.00  0.00     0.000 C 
BRANCH   4   5
ATOM      5  C   UNL     1       5.370  12.105  16.588  1.00  0.00     0.000 C 
BRANCH   5   6
ATOM      6  C   UNL     1       4.126  12.663  15.886  1.00  0.00     0.000 C 
BRANCH   6   7
ATOM      7  C   UNL     1       4.110  12.269  14.402  1.00  0.00     0.006 C 
BRANCH   7   8
ATOM      8  C   UNL     1       3.138  11.117  14.116  1.00  0.00     0.053 C 
BRANCH   8   9
ATOM      9  C   UNL     1       3.855   9.883  13.662  1.00  0.00     0.041 C 
ATOM     10  O   UNL     1       5.073   9.939  13.346  1.00  0.00    -0.550 OA
ATOM     11  O   UNL     1       3.188   8.666  13.616  1.00  0.00    -0.550 OA
ENDBRANCH   8   9
ENDBRANCH   7   8
ENDBRANCH   6   7
ENDBRANCH   5   6
ENDBRANCH   4   5
ENDBRANCH   3   4
ENDBRANCH   2   3
ENDBRANCH   1   2
BRANCH   1  12
ATOM     12  C   UNL     1       2.383   7.925  17.222  1.00  0.00     0.000 C 
BRANCH  12  13
ATOM     13  C   UNL     1       1.035   8.030  17.959  1.00  0.00    -0.000 C 
BRANCH  13  14
ATOM     14  C   UNL     1       0.224   6.724  17.901  1.00  0.00    -0.000 C 
BRANCH  14  15
ATOM     15  C   UNL     1       1.079   5.517  17.480  1.00  0.00    -0.000 C 
BRANCH  15  16
ATOM     16  C   UNL     1       0.847   4.277  18.365  1.00  0.00    -0.000 C 
BRANCH  16  17
ATOM     17  C   UNL     1       1.970   3.969  19.372  1.00  0.00    -0.000 C 
BRANCH  17  18
ATOM     18  C   UNL     1       3.098   5.013  19.353  1.00  0.00    -0.000 C 
BRANCH  18  19
ATOM     19  C   UNL     1       2.999   6.009  20.518  1.00  0.00    -0.003 C 
ATOM     20  C   UNL     1       3.387   5.391  21.863  1.00  0.00     0.004 C 
ENDBRANCH  18  19
ENDBRANCH  17  18
ENDBRANCH  16  17
ENDBRANCH  15  16
ENDBRANCH  14  15
ENDBRANCH  13  14
ENDBRANCH  12  13
ENDBRANCH   1  12
TORSDOF 16
ENDMDL
MODEL 2
REMARK VINA RESULT:    -5.911      0.709      1.167
REMARK INTER + INTRA:         -13.305
REMARK INTER:                 -11.739
REMARK INTRA:                  -1.565
REMARK UNBOUND:                -1.864
REMARK SMILES CCCCCCCCCCCCCCCCCC(=O)[O-]
REMARK SMILES IDX 10 1 11 2 12 3 13 4 14 5 15 6 16 7 17 8 18 9 19 10 20 11
REMARK SMILES IDX 9 12 8 13 7 14 6 15 5 16 4 17 3 18 2 19 1 20
REMARK H PARENT
REMARK Flexibility Score: inf
ROOT
ATOM      1  C   UNL     1       3.143   9.731  17.297  1.00  0.00     0.000 C 
ENDROOT
BRANCH   1   2
ATOM      2  C   UNL     1       3.100  10.826  18.378  1.00  0.00     0.000 C 
BRANCH   2   3
ATOM      3  C   UNL     1       4.233  11.859  18.230  1.00  0.00     0.000 C 
BRANCH   3   4
ATOM      4  C   UNL     1       5.232  11.579  17.091  1.00  0.00     0.000 C 
BRANCH   4   5
ATOM      5  C   UNL     1       5.242  12.678  16.018  1.00  0.00     0.000 C 
BRANCH   5   6
ATOM      6  C   UNL     1       3.822  12.978  15.526  1.00  0.00     0.000 C 
BRANCH   6   7
ATOM      7  C   UNL     1       3.600  12.416  14.114  1.00  0.00     0.006 C 
BRANCH   7   8
ATOM      8  C   UNL     1       2.849  11.078  14.132  1.00  0.00     0.053 C 
BRANCH   8   9
ATOM      9  C   UNL     1       3.728   9.941  13.710  1.00  0.00     0.041 C 
ATOM     10  O   UNL     1       3.235   8.798  13.515  1.00  0.00    -0.550 OA
ATOM     11  O   UNL     1       5.085  10.149  13.504  1.00  0.00    -0.550 OA
ENDBRANCH   8   9
ENDBRANCH   7   8
ENDBRANCH   6   7
ENDBRANCH   5   6
ENDBRANCH   4   5
ENDBRANCH   3   4
ENDBRANCH   2   3
ENDBRANCH   1   2
BRANCH   1  12
ATOM     12  C   UNL     1       2.149   8.590  17.576  1.00  0.00     0.000 C 
BRANCH  12  13
ATOM     13  C   UNL     1       2.785   7.197  17.417  1.00  0.00    -0.000 C 
BRANCH  13  14
ATOM     14  C   UNL     1       1.802   6.157  16.852  1.00  0.00    -0.000 C 
BRANCH  14  15
ATOM     15  C   UNL     1       0.478   6.112  17.633  1.00  0.00    -0.000 C 
BRANCH  15  16
ATOM     16  C   UNL     1       0.398   4.925  18.612  1.00  0.00    -0.000 C 
BRANCH  16  17
ATOM     17  C   UNL     1       1.665   4.055  18.697  1.00  0.00    -0.000 C 
BRANCH  17  18
ATOM     18  C   UNL     1       2.317   4.076  20.089  1.00  0.00    -0.000 C 
BRANCH  18  19
ATOM     19  C   UNL     1       3.115   5.364  20.346  1.00  0.00    -0.003 C 
ATOM     20  C   UNL     1       3.359   5.625  21.834  1.00  0.00     0.004 C 
ENDBRANCH  18  19
ENDBRANCH  17  18
ENDBRANCH  16  17
ENDBRANCH  15  16
ENDBRANCH  14  15
ENDBRANCH  13  14
ENDBRANCH  12  13
ENDBRANCH   1  12
TORSDOF 16
ENDMDL
MODEL 3
REMARK VINA RESULT:    -5.852      0.889      1.388
REMARK INTER + INTRA:         -13.190
REMARK INTER:                 -11.471
REMARK INTRA:                  -1.719
REMARK UNBOUND:                -1.864
REMARK SMILES CCCCCCCCCCCCCCCCCC(=O)[O-]
REMARK SMILES IDX 10 1 11 2 12 3 13 4 14 5 15 6 16 7 17 8 18 9 19 10 20 11
REMARK SMILES IDX 9 12 8 13 7 14 6 15 5 16 4 17 3 18 2 19 1 20
REMARK H PARENT
REMARK Flexibility Score: inf
ROOT
ATOM      1  C   UNL     1       3.051   8.266  16.855  1.00  0.00     0.000 C 
ENDROOT
BRANCH   1   2
ATOM      2  C   UNL     1       2.407   9.607  17.249  1.00  0.00     0.000 C 
BRANCH   2   3
ATOM      3  C   UNL     1       3.024  10.218  18.521  1.00  0.00     0.000 C 
BRANCH   3   4
ATOM      4  C   UNL     1       3.556  11.656  18.368  1.00  0.00     0.000 C 
BRANCH   4   5
ATOM      5  C   UNL     1       5.078  11.715  18.174  1.00  0.00     0.000 C 
BRANCH   5   6
ATOM      6  C   UNL     1       5.440  11.816  16.687  1.00  0.00     0.000 C 
BRANCH   6   7
ATOM      7  C   UNL     1       4.484  12.767  15.953  1.00  0.00     0.006 C 
BRANCH   7   8
ATOM      8  C   UNL     1       4.427  12.486  14.446  1.00  0.00     0.053 C 
BRANCH   8   9
ATOM      9  C   UNL     1       3.570  11.299  14.133  1.00  0.00     0.041 C 
ATOM     10  O   UNL     1       2.348  11.451  13.868  1.00  0.00    -0.550 OA
ATOM     11  O   UNL     1       4.125  10.026  14.104  1.00  0.00    -0.550 OA
ENDBRANCH   8   9
ENDBRANCH   7   8
ENDBRANCH   6   7
ENDBRANCH   5   6
ENDBRANCH   4   5
ENDBRANCH   3   4
ENDBRANCH   2   3
ENDBRANCH   1   2
BRANCH   1  12
ATOM     12  C   UNL     1       2.137   7.065  17.149  1.00  0.00     0.000 C 
BRANCH  12  13
ATOM     13  C   UNL     1       0.833   7.471  17.861  1.00  0.00    -0.000 C 
BRANCH  13  14
ATOM     14  C   UNL     1       0.021   6.258  18.347  1.00  0.00    -0.000 C 
BRANCH  14  15
ATOM     15  C   UNL     1       0.689   4.919  17.991  1.00  0.00    -0.000 C 
BRANCH  15  16
ATOM     16  C   UNL     1       1.082   4.094  19.230  1.00  0.00    -0.000 C 
BRANCH  16  17
ATOM     17  C   UNL     1       2.592   3.841  19.400  1.00  0.00    -0.000 C 
BRANCH  17  18
ATOM     18  C   UNL     1       3.412   5.138  19.489  1.00  0.00    -0.000 C 
BRANCH  18  19
ATOM     19  C   UNL     1       2.981   6.027  20.666  1.00  0.00    -0.003 C 
ATOM     20  C   UNL     1       3.425   5.476  22.022  1.00  0.00     0.004 C 
ENDBRANCH  18  19
ENDBRANCH  17  18
ENDBRANCH  16  17
ENDBRANCH  15  16
ENDBRANCH  14  15
ENDBRANCH  13  14
ENDBRANCH  12  13
ENDBRANCH   1  12
TORSDOF 16
ENDMDL
MODEL 4
REMARK VINA RESULT:    -5.662      2.210      3.224
REMARK INTER + INTRA:         -12.821
REMARK INTER:                 -11.316
REMARK INTRA:                  -1.505
REMARK UNBOUND:                -1.864
REMARK SMILES CCCCCCCCCCCCCCCCCC(=O)[O-]
REMARK SMILES IDX 10 1 11 2 12 3 13 4 14 5 15 6 16 7 17 8 18 9 19 10 20 11
REMARK SMILES IDX 9 12 8 13 7 14 6 15 5 16 4 17 3 18 2 19 1 20
REMARK H PARENT
REMARK Flexibility Score: inf
ROOT
ATOM      1  C   UNL     1       3.149   9.724  16.578  1.00  0.00     0.000 C 
ENDROOT
BRANCH   1   2
ATOM      2  C   UNL     1       3.518   9.182  15.186  1.00  0.00     0.000 C 
BRANCH   2   3
ATOM      3  C   UNL     1       3.811  10.298  14.166  1.00  0.00     0.000 C 
BRANCH   3   4
ATOM      4  C   UNL     1       2.773  11.436  14.123  1.00  0.00     0.000 C 
BRANCH   4   5
ATOM      5  C   UNL     1       3.362  12.801  14.511  1.00  0.00     0.000 C 
BRANCH   5   6
ATOM      6  C   UNL     1       4.824  12.663  14.951  1.00  0.00     0.000 C 
BRANCH   6   7
ATOM      7  C   UNL     1       4.965  12.877  16.464  1.00  0.00     0.006 C 
BRANCH   7   8
ATOM      8  C   UNL     1       5.909  11.855  17.112  1.00  0.00     0.053 C 
BRANCH   8   9
ATOM      9  C   UNL     1       5.637  11.697  18.576  1.00  0.00     0.041 C 
ATOM     10  O   UNL     1       6.581  11.448  19.372  1.00  0.00    -0.550 OA
ATOM     11  O   UNL     1       4.348  11.853  19.067  1.00  0.00    -0.550 OA
ENDBRANCH   8   9
ENDBRANCH   7   8
ENDBRANCH   6   7
ENDBRANCH   5   6
ENDBRANCH   4   5
ENDBRANCH   3   4
ENDBRANCH   2   3
ENDBRANCH   1   2
BRANCH   1  12
ATOM     12  C   UNL     1       2.158   8.812  17.322  1.00  0.00     0.000 C 
BRANCH  12  13
ATOM     13  C   UNL     1       2.733   7.410  17.596  1.00  0.00    -0.000 C 
BRANCH  13  14
ATOM     14  C   UNL     1       1.875   6.287  16.988  1.00  0.00    -0.000 C 
BRANCH  14  15
ATOM     15  C   UNL     1       0.503   6.158  17.671  1.00  0.00    -0.000 C 
BRANCH  15  16
ATOM     16  C   UNL     1       0.396   4.917  18.577  1.00  0.00    -0.000 C 
BRANCH  16  17
ATOM     17  C   UNL     1       1.675   4.066  18.681  1.00  0.00    -0.000 C 
BRANCH  17  18
ATOM     18  C   UNL     1       2.310   4.103  20.080  1.00  0.00    -0.000 C 
BRANCH  18  19
ATOM     19  C   UNL     1       2.966   5.457  20.393  1.00  0.00    -0.003 C 
ATOM     20  C   UNL     1       3.373   5.595  21.861  1.00  0.00     0.004 C 
ENDBRANCH  18  19
ENDBRANCH  17  18
ENDBRANCH  16  17
ENDBRANCH  15  16
ENDBRANCH  14  15
ENDBRANCH  13  14
ENDBRANCH  12  13
ENDBRANCH   1  12
TORSDOF 16
ENDMDL
MODEL 5
REMARK VINA RESULT:    -5.659      2.498      7.542
REMARK INTER + INTRA:         -12.815
REMARK INTER:                 -11.018
REMARK INTRA:                  -1.797
REMARK UNBOUND:                -1.864
REMARK SMILES CCCCCCCCCCCCCCCCCC(=O)[O-]
REMARK SMILES IDX 10 1 11 2 12 3 13 4 14 5 15 6 16 7 17 8 18 9 19 10 20 11
REMARK SMILES IDX 9 12 8 13 7 14 6 15 5 16 4 17 3 18 2 19 1 20
REMARK H PARENT
REMARK Flexibility Score: inf
ROOT
ATOM      1  C   UNL     1       3.091   9.972  17.220  1.00  0.00     0.000 C 
ENDROOT
BRANCH   1   2
ATOM      2  C   UNL     1       2.398   8.691  17.716  1.00  0.00     0.000 C 
BRANCH   2   3
ATOM      3  C   UNL     1       2.771   7.448  16.888  1.00  0.00     0.000 C 
BRANCH   3   4
ATOM      4  C   UNL     1       1.718   6.323  16.880  1.00  0.00     0.000 C 
BRANCH   4   5
ATOM      5  C   UNL     1       0.628   6.516  17.945  1.00  0.00     0.000 C 
BRANCH   5   6
ATOM      6  C   UNL     1       0.212   5.173  18.555  1.00  0.00     0.000 C 
BRANCH   6   7
ATOM      7  C   UNL     1       1.388   4.185  18.562  1.00  0.00     0.006 C 
BRANCH   7   8
ATOM      8  C   UNL     1       2.011   4.033  19.957  1.00  0.00     0.053 C 
BRANCH   8   9
ATOM      9  C   UNL     1       3.069   5.062  20.209  1.00  0.00     0.041 C 
ATOM     10  O   UNL     1       3.893   5.359  19.303  1.00  0.00    -0.550 OA
ATOM     11  O   UNL     1       3.129   5.715  21.433  1.00  0.00    -0.550 OA
ENDBRANCH   8   9
ENDBRANCH   7   8
ENDBRANCH   6   7
ENDBRANCH   5   6
ENDBRANCH   4   5
ENDBRANCH   3   4
ENDBRANCH   2   3
ENDBRANCH   1   2
BRANCH   1  12
ATOM     12  C   UNL     1       3.256  11.021  18.333  1.00  0.00     0.000 C 
BRANCH  12  13
ATOM     13  C   UNL     1       4.662  11.650  18.353  1.00  0.00    -0.000 C 
BRANCH  13  14
ATOM     14  C   UNL     1       5.306  11.708  16.958  1.00  0.00    -0.000 C 
BRANCH  14  15
ATOM     15  C   UNL     1       4.863  12.942  16.154  1.00  0.00    -0.000 C 
BRANCH  15  16
ATOM     16  C   UNL     1       4.587  12.627  14.672  1.00  0.00    -0.000 C 
BRANCH  16  17
ATOM     17  C   UNL     1       3.100  12.547  14.282  1.00  0.00    -0.000 C 
BRANCH  17  18
ATOM     18  C   UNL     1       2.653  11.124  13.909  1.00  0.00    -0.000 C 
BRANCH  18  19
ATOM     19  C   UNL     1       3.826  10.134  13.852  1.00  0.00    -0.003 C 
ATOM     20  C   UNL     1       3.416   8.753  13.336  1.00  0.00     0.004 C 
ENDBRANCH  18  19
ENDBRANCH  17  18
ENDBRANCH  16  17
ENDBRANCH  15  16
ENDBRANCH  14  15
ENDBRANCH  13  14
ENDBRANCH  12  13
ENDBRANCH   1  12
TORSDOF 16
ENDMDL
MODEL 6
REMARK VINA RESULT:    -5.376      2.559      7.269
REMARK INTER + INTRA:         -12.268
REMARK INTER:                 -10.777
REMARK INTRA:                  -1.491
REMARK UNBOUND:                -1.864
REMARK SMILES CCCCCCCCCCCCCCCCCC(=O)[O-]
REMARK SMILES IDX 10 1 11 2 12 3 13 4 14 5 15 6 16 7 17 8 18 9 19 10 20 11
REMARK SMILES IDX 9 12 8 13 7 14 6 15 5 16 4 17 3 18 2 19 1 20
REMARK H PARENT
REMARK Flexibility Score: inf
ROOT
ATOM      1  C   UNL     1       2.918   9.838  16.540  1.00  0.00     0.000 C 
ENDROOT
BRANCH   1   2
ATOM      2  C   UNL     1       2.191   8.849  17.468  1.00  0.00     0.000 C 
BRANCH   2   3
ATOM      3  C   UNL     1       2.777   7.426  17.405  1.00  0.00     0.000 C 
BRANCH   3   4
ATOM      4  C   UNL     1       1.792   6.330  16.955  1.00  0.00     0.000 C 
BRANCH   4   5
ATOM      5  C   UNL     1       0.443   6.398  17.688  1.00  0.00     0.000 C 
BRANCH   5   6
ATOM      6  C   UNL     1       0.189   5.117  18.492  1.00  0.00     0.000 C 
BRANCH   6   7
ATOM      7  C   UNL     1       1.431   4.214  18.493  1.00  0.00     0.006 C 
BRANCH   7   8
ATOM      8  C   UNL     1       1.999   4.006  19.903  1.00  0.00     0.053 C 
BRANCH   8   9
ATOM      9  C   UNL     1       3.099   4.975  20.209  1.00  0.00     0.041 C 
ATOM     10  O   UNL     1       3.971   5.239  19.339  1.00  0.00    -0.550 OA
ATOM     11  O   UNL     1       3.145   5.611  21.443  1.00  0.00    -0.550 OA
ENDBRANCH   8   9
ENDBRANCH   7   8
ENDBRANCH   6   7
ENDBRANCH   5   6
ENDBRANCH   4   5
ENDBRANCH   3   4
ENDBRANCH   2   3
ENDBRANCH   1   2
BRANCH   1  12
ATOM     12  C   UNL     1       3.498   9.155  15.290  1.00  0.00     0.000 C 
BRANCH  12  13
ATOM     13  C   UNL     1       3.865  10.158  14.181  1.00  0.00    -0.000 C 
BRANCH  13  14
ATOM     14  C   UNL     1       2.787  11.236  13.976  1.00  0.00    -0.000 C 
BRANCH  14  15
ATOM     15  C   UNL     1       3.292  12.648  14.318  1.00  0.00    -0.000 C 
BRANCH  15  16
ATOM     16  C   UNL     1       4.702  12.649  14.938  1.00  0.00    -0.000 C 
BRANCH  16  17
ATOM     17  C   UNL     1       4.746  12.762  16.473  1.00  0.00    -0.000 C 
BRANCH  17  18
ATOM     18  C   UNL     1       5.928  12.002  17.097  1.00  0.00    -0.000 C 
BRANCH  18  19
ATOM     19  C   UNL     1       5.702  11.679  18.582  1.00  0.00    -0.003 C 
ATOM     20  C   UNL     1       4.258  11.915  19.029  1.00  0.00     0.004 C 
ENDBRANCH  18  19
ENDBRANCH  17  18
ENDBRANCH  16  17
ENDBRANCH  15  16
ENDBRANCH  14  15
ENDBRANCH  13  14
ENDBRANCH  12  13
ENDBRANCH   1  12
TORSDOF 16
ENDMDL
MODEL 7
REMARK VINA RESULT:    -5.319      2.563      7.185
REMARK INTER + INTRA:         -12.158
REMARK INTER:                 -10.604
REMARK INTRA:                  -1.554
REMARK UNBOUND:                -1.864
REMARK SMILES CCCCCCCCCCCCCCCCCC(=O)[O-]
REMARK SMILES IDX 10 1 11 2 12 3 13 4 14 5 15 6 16 7 17 8 18 9 19 10 20 11
REMARK SMILES IDX 9 12 8 13 7 14 6 15 5 16 4 17 3 18 2 19 1 20
REMARK H PARENT
REMARK Flexibility Score: inf
ROOT
ATOM      1  C   UNL     1       3.194   9.214  16.325  1.00  0.00     0.000 C 
ENDROOT
BRANCH   1   2
ATOM      2  C   UNL     1       2.773   7.805  16.779  1.00  0.00     0.000 C 
BRANCH   2   3
ATOM      3  C   UNL     1       1.988   7.812  18.103  1.00  0.00     0.000 C 
BRANCH   3   4
ATOM      4  C   UNL     1       0.495   7.449  17.982  1.00  0.00     0.000 C 
BRANCH   4   5
ATOM      5  C   UNL     1       0.162   6.074  18.580  1.00  0.00     0.000 C 
BRANCH   5   6
ATOM      6  C   UNL     1       0.744   4.945  17.721  1.00  0.00     0.000 C 
BRANCH   6   7
ATOM      7  C   UNL     1       1.567   3.972  18.577  1.00  0.00     0.006 C 
BRANCH   7   8
ATOM      8  C   UNL     1       1.713   4.452  20.027  1.00  0.00     0.053 C 
BRANCH   8   9
ATOM      9  C   UNL     1       3.018   5.151  20.253  1.00  0.00     0.041 C 
ATOM     10  O   UNL     1       3.305   5.605  21.393  1.00  0.00    -0.550 OA
ATOM     11  O   UNL     1       3.931   5.276  19.214  1.00  0.00    -0.550 OA
ENDBRANCH   8   9
ENDBRANCH   7   8
ENDBRANCH   6   7
ENDBRANCH   5   6
ENDBRANCH   4   5
ENDBRANCH   3   4
ENDBRANCH   2   3
ENDBRANCH   1   2
BRANCH   1  12
ATOM     12  C   UNL     1       3.577   9.263  14.836  1.00  0.00     0.000 C 
BRANCH  12  13
ATOM     13  C   UNL     1       4.068  10.654  14.394  1.00  0.00    -0.000 C 
BRANCH  13  14
ATOM     14  C   UNL     1       2.920  11.665  14.235  1.00  0.00    -0.000 C 
BRANCH  14  15
ATOM     15  C   UNL     1       3.189  12.985  14.978  1.00  0.00    -0.000 C 
BRANCH  15  16
ATOM     16  C   UNL     1       3.999  12.792  16.273  1.00  0.00    -0.000 C 
BRANCH  16  17
ATOM     17  C   UNL     1       3.164  12.529  17.539  1.00  0.00    -0.000 C 
BRANCH  17  18
ATOM     18  C   UNL     1       3.990  11.933  18.691  1.00  0.00    -0.000 C 
BRANCH  18  19
ATOM     19  C   UNL     1       5.449  11.666  18.292  1.00  0.00    -0.003 C 
ATOM     20  C   UNL     1       6.375  11.502  19.499  1.00  0.00     0.004 C 
ENDBRANCH  18  19
ENDBRANCH  17  18
ENDBRANCH  16  17
ENDBRANCH  15  16
ENDBRANCH  14  15
ENDBRANCH  13  14
ENDBRANCH  12  13
ENDBRANCH   1  12
TORSDOF 16
ENDMDL
MODEL 8
REMARK VINA RESULT:    -5.120      2.993      7.231
REMARK INTER + INTRA:         -11.773
REMARK INTER:                 -10.054
REMARK INTRA:                  -1.719
REMARK UNBOUND:                -1.864
REMARK SMILES CCCCCCCCCCCCCCCCCC(=O)[O-]
REMARK SMILES IDX 10 1 11 2 12 3 13 4 14 5 15 6 16 7 17 8 18 9 19 10 20 11
REMARK SMILES IDX 9 12 8 13 7 14 6 15 5 16 4 17 3 18 2 19 1 20
REMARK H PARENT
REMARK Flexibility Score: inf
ROOT
ATOM      1  C   UNL     1       4.116  12.015  18.561  1.00  0.00     0.000 C 
ENDROOT
BRANCH   1   2
ATOM      2  C   UNL     1       3.094  10.867  18.627  1.00  0.00     0.000 C 
BRANCH   2   3
ATOM      3  C   UNL     1       3.181   9.915  17.420  1.00  0.00     0.000 C 
BRANCH   3   4
ATOM      4  C   UNL     1       2.126   8.793  17.392  1.00  0.00     0.000 C 
BRANCH   4   5
ATOM      5  C   UNL     1       2.741   7.394  17.234  1.00  0.00     0.000 C 
BRANCH   5   6
ATOM      6  C   UNL     1       1.652   6.317  17.183  1.00  0.00     0.000 C 
BRANCH   6   7
ATOM      7  C   UNL     1       1.504   5.621  18.543  1.00  0.00     0.006 C 
BRANCH   7   8
ATOM      8  C   UNL     1       2.479   6.175  19.590  1.00  0.00     0.053 C 
BRANCH   8   9
ATOM      9  C   UNL     1       2.889   5.127  20.578  1.00  0.00     0.041 C 
ATOM     10  O   UNL     1       2.737   3.906  20.307  1.00  0.00    -0.550 OA
ATOM     11  O   UNL     1       3.465   5.496  21.787  1.00  0.00    -0.550 OA
ENDBRANCH   8   9
ENDBRANCH   7   8
ENDBRANCH   6   7
ENDBRANCH   5   6
ENDBRANCH   4   5
ENDBRANCH   3   4
ENDBRANCH   2   3
ENDBRANCH   1   2
BRANCH   1  12
ATOM     12  C   UNL     1       5.525  11.527  18.181  1.00  0.00     0.000 C 
BRANCH  12  13
ATOM     13  C   UNL     1       5.920  11.915  16.744  1.00  0.00    -0.000 C 
BRANCH  13  14
ATOM     14  C   UNL     1       5.033  13.030  16.165  1.00  0.00    -0.000 C 
BRANCH  14  15
ATOM     15  C   UNL     1       4.677  12.794  14.687  1.00  0.00    -0.000 C 
BRANCH  15  16
ATOM     16  C   UNL     1       3.161  12.679  14.444  1.00  0.00    -0.000 C 
BRANCH  16  17
ATOM     17  C   UNL     1       2.673  11.301  13.962  1.00  0.00    -0.000 C 
BRANCH  17  18
ATOM     18  C   UNL     1       3.764  10.220  14.031  1.00  0.00    -0.000 C 
BRANCH  18  19
ATOM     19  C   UNL     1       3.576   9.125  12.969  1.00  0.00    -0.003 C 
ATOM     20  C   UNL     1       3.234   7.763  13.574  1.00  0.00     0.004 C 
ENDBRANCH  18  19
ENDBRANCH  17  18
ENDBRANCH  16  17
ENDBRANCH  15  16
ENDBRANCH  14  15
ENDBRANCH  13  14
ENDBRANCH  12  13
ENDBRANCH   1  12
TORSDOF 16
ENDMDL
MODEL 9
REMARK VINA RESULT:    -4.634      2.842      7.037
REMARK INTER + INTRA:         -10.832
REMARK INTER:                  -9.409
REMARK INTRA:                  -1.423
REMARK UNBOUND:                -1.864
REMARK SMILES CCCCCCCCCCCCCCCCCC(=O)[O-]
REMARK SMILES IDX 10 1 11 2 12 3 13 4 14 5 15 6 16 7 17 8 18 9 19 10 20 11
REMARK SMILES IDX 9 12 8 13 7 14 6 15 5 16 4 17 3 18 2 19 1 20
REMARK H PARENT
REMARK Flexibility Score: inf
ROOT
ATOM      1  C   UNL     1       3.063  10.175  15.297  1.00  0.00     0.000 C 
ENDROOT
BRANCH   1   2
ATOM      2  C   UNL     1       3.436   9.166  16.397  1.00  0.00     0.000 C 
BRANCH   2   3
ATOM      3  C   UNL     1       2.343   9.017  17.471  1.00  0.00     0.000 C 
BRANCH   3   4
ATOM      4  C   UNL     1       1.905   7.570  17.766  1.00  0.00     0.000 C 
BRANCH   4   5
ATOM      5  C   UNL     1       2.769   6.523  17.046  1.00  0.00     0.000 C 
BRANCH   5   6
ATOM      6  C   UNL     1       3.419   5.563  18.049  1.00  0.00     0.000 C 
BRANCH   6   7
ATOM      7  C   UNL     1       2.983   5.892  19.485  1.00  0.00     0.006 C 
BRANCH   7   8
ATOM      8  C   UNL     1       2.188   4.747  20.128  1.00  0.00     0.053 C 
BRANCH   8   9
ATOM      9  C   UNL     1       1.322   4.042  19.130  1.00  0.00     0.041 C 
ATOM     10  O   UNL     1       1.656   2.909  18.690  1.00  0.00    -0.550 OA
ATOM     11  O   UNL     1       0.132   4.620  18.708  1.00  0.00    -0.550 OA
ENDBRANCH   8   9
ENDBRANCH   7   8
ENDBRANCH   6   7
ENDBRANCH   5   6
ENDBRANCH   4   5
ENDBRANCH   3   4
ENDBRANCH   2   3
ENDBRANCH   1   2
BRANCH   1  12
ATOM     12  C   UNL     1       4.287  10.661  14.503  1.00  0.00     0.000 C 
BRANCH  12  13
ATOM     13  C   UNL     1       4.241  12.171  14.204  1.00  0.00    -0.000 C 
BRANCH  13  14
ATOM     14  C   UNL     1       4.358  13.031  15.474  1.00  0.00    -0.000 C 
BRANCH  14  15
ATOM     15  C   UNL     1       2.987  13.448  16.033  1.00  0.00    -0.000 C 
BRANCH  15  16
ATOM     16  C   UNL     1       2.953  13.491  17.572  1.00  0.00    -0.000 C 
BRANCH  16  17
ATOM     17  C   UNL     1       3.190  12.141  18.274  1.00  0.00    -0.000 C 
BRANCH  17  18
ATOM     18  C   UNL     1       4.379  12.171  19.248  1.00  0.00    -0.000 C 
BRANCH  18  19
ATOM     19  C   UNL     1       5.663  11.599  18.628  1.00  0.00    -0.003 C 
ATOM     20  C   UNL     1       6.745  11.301  19.669  1.00  0.00     0.004 C 
ENDBRANCH  18  19
ENDBRANCH  17  18
ENDBRANCH  16  17
ENDBRANCH  15  16
ENDBRANCH  14  15
ENDBRANCH  13  14
ENDBRANCH  12  13
ENDBRANCH   1  12
TORSDOF 16
ENDMDL
