MODEL 1
REMARK VINA RESULT:    -6.124      0.000      0.000
REMARK INTER + INTRA:          -7.511
REMARK INTER:                  -7.198
REMARK INTRA:                  -0.314
REMARK UNBOUND:                -0.314
REMARK SMILES O=c1cc(-c2ccc(O)c(O)c2)oc2cc(O)cc(O)c12
REMARK SMILES IDX 4 1 3 2 2 3 1 4 21 5 19 6 18 7 16 8 15 9 14 10 13 11 5 12
REMARK SMILES IDX 6 13 7 14 8 15 12 16 10 17 9 18 11 20 20 22 17 24
REMARK H PARENT 9 19 11 21 20 23 17 25
REMARK Flexibility Score: inf
ROOT
ATOM      1  C   UNL     1      17.856  -3.970  -2.227  1.00  0.00     0.138 A 
ATOM      2  C   UNL     1      18.217  -4.844  -1.192  1.00  0.00     0.100 A 
ATOM      3  C   UNL     1      19.525  -4.837  -0.708  1.00  0.00     0.197 A 
ATOM      4  O   UNL     1      19.835  -5.675   0.178  1.00  0.00    -0.289 OA
ATOM      5  C   UNL     1      20.468  -3.926  -1.241  1.00  0.00     0.107 A 
ATOM      6  C   UNL     1      21.819  -3.802  -0.797  1.00  0.00     0.134 A 
ATOM      7  C   UNL     1      22.694  -2.948  -1.480  1.00  0.00     0.093 A 
ATOM      8  C   UNL     1      22.251  -2.169  -2.552  1.00  0.00     0.123 A 
ATOM      9  C   UNL     1      20.921  -2.244  -2.959  1.00  0.00     0.094 A 
ATOM     10  C   UNL     1      20.032  -3.113  -2.320  1.00  0.00     0.146 A 
ATOM     11  O   UNL     1      18.776  -3.164  -2.749  1.00  0.00    -0.456 OA
ENDROOT
BRANCH   1  12
ATOM     12  C   UNL     1      16.480  -3.936  -2.780  1.00  0.00     0.021 A 
ATOM     13  C   UNL     1      15.424  -4.503  -2.046  1.00  0.00     0.016 A 
ATOM     14  C   UNL     1      14.121  -4.491  -2.549  1.00  0.00     0.051 A 
ATOM     15  C   UNL     1      13.850  -3.921  -3.800  1.00  0.00     0.157 A 
ATOM     16  C   UNL     1      16.203  -3.376  -4.043  1.00  0.00     0.062 A 
ATOM     17  C   UNL     1      14.898  -3.365  -4.551  1.00  0.00     0.158 A 
BRANCH  15  18
ATOM     18  O   UNL     1      12.548  -3.909  -4.298  1.00  0.00    -0.504 OA
ATOM     19  H   UNL     1      12.083  -4.762  -4.587  1.00  0.00     0.293 HD
ENDBRANCH  15  18
BRANCH  17  20
ATOM     20  O   UNL     1      14.664  -2.800  -5.804  1.00  0.00    -0.504 OA
ATOM     21  H   UNL     1      13.777  -2.901  -6.282  1.00  0.00     0.293 HD
ENDBRANCH  17  20
ENDBRANCH   1  12
BRANCH   6  22
ATOM     22  O   UNL     1      22.341  -4.468   0.315  1.00  0.00    -0.507 OA
ATOM     23  H   UNL     1      23.024  -4.083   0.950  1.00  0.00     0.293 HD
ENDBRANCH   6  22
BRANCH   8  24
ATOM     24  O   UNL     1      23.124  -1.310  -3.216  1.00  0.00    -0.508 OA
ATOM     25  H   UNL     1      24.124  -1.342  -3.053  1.00  0.00     0.293 HD
ENDBRANCH   8  24
TORSDOF 5
ENDMDL
MODEL 2
REMARK VINA RESULT:    -5.912      2.139      7.582
REMARK INTER + INTRA:          -7.262
REMARK INTER:                  -6.992
REMARK INTRA:                  -0.270
REMARK UNBOUND:                -0.314
REMARK SMILES O=c1cc(-c2ccc(O)c(O)c2)oc2cc(O)cc(O)c12
REMARK SMILES IDX 4 1 3 2 2 3 1 4 21 5 19 6 18 7 16 8 15 9 14 10 13 11 5 12
REMARK SMILES IDX 6 13 7 14 8 15 12 16 10 17 9 18 11 20 20 22 17 24
REMARK H PARENT 9 19 11 21 20 23 17 25
REMARK Flexibility Score: inf
ROOT
ATOM      1  C   UNL     1      16.882  -4.730  -1.492  1.00  0.00     0.138 A 
ATOM      2  C   UNL     1      16.868  -4.516  -2.877  1.00  0.00     0.100 A 
ATOM      3  C   UNL     1      15.664  -4.218  -3.516  1.00  0.00     0.197 A 
ATOM      4  O   UNL     1      15.673  -4.092  -4.768  1.00  0.00    -0.289 OA
ATOM      5  C   UNL     1      14.475  -4.101  -2.758  1.00  0.00     0.107 A 
ATOM      6  C   UNL     1      13.198  -3.761  -3.298  1.00  0.00     0.134 A 
ATOM      7  C   UNL     1      12.069  -3.791  -2.469  1.00  0.00     0.093 A 
ATOM      8  C   UNL     1      12.181  -4.090  -1.109  1.00  0.00     0.123 A 
ATOM      9  C   UNL     1      13.430  -4.371  -0.562  1.00  0.00     0.094 A 
ATOM     10  C   UNL     1      14.571  -4.383  -1.370  1.00  0.00     0.146 A 
ATOM     11  O   UNL     1      15.742  -4.671  -0.811  1.00  0.00    -0.456 OA
ENDROOT
BRANCH   1  12
ATOM     12  C   UNL     1      18.134  -5.051  -0.761  1.00  0.00     0.021 A 
ATOM     13  C   UNL     1      18.205  -6.226   0.008  1.00  0.00     0.016 A 
ATOM     14  C   UNL     1      19.369  -6.545   0.711  1.00  0.00     0.051 A 
ATOM     15  C   UNL     1      20.479  -5.692   0.668  1.00  0.00     0.157 A 
ATOM     16  C   UNL     1      19.250  -4.191  -0.790  1.00  0.00     0.062 A 
ATOM     17  C   UNL     1      20.416  -4.508  -0.084  1.00  0.00     0.158 A 
BRANCH  15  18
ATOM     18  O   UNL     1      21.640  -6.014   1.370  1.00  0.00    -0.504 OA
ATOM     19  H   UNL     1      21.741  -6.903   1.848  1.00  0.00     0.293 HD
ENDBRANCH  15  18
BRANCH  17  20
ATOM     20  O   UNL     1      21.499  -3.632  -0.139  1.00  0.00    -0.504 OA
ATOM     21  H   UNL     1      21.639  -2.905   0.553  1.00  0.00     0.293 HD
ENDBRANCH  17  20
ENDBRANCH   1  12
BRANCH   6  22
ATOM     22  O   UNL     1      12.989  -3.365  -4.622  1.00  0.00    -0.507 OA
ATOM     23  H   UNL     1      13.541  -3.671  -5.409  1.00  0.00     0.293 HD
ENDBRANCH   6  22
BRANCH   8  24
ATOM     24  O   UNL     1      11.055  -4.102  -0.289  1.00  0.00    -0.508 OA
ATOM     25  H   UNL     1      10.569  -4.965  -0.068  1.00  0.00     0.293 HD
ENDBRANCH   8  24
TORSDOF 5
ENDMDL
MODEL 3
REMARK VINA RESULT:    -5.910      3.880      7.450
REMARK INTER + INTRA:          -7.260
REMARK INTER:                  -6.989
REMARK INTRA:                  -0.271
REMARK UNBOUND:                -0.314
REMARK SMILES O=c1cc(-c2ccc(O)c(O)c2)oc2cc(O)cc(O)c12
REMARK SMILES IDX 4 1 3 2 2 3 1 4 21 5 19 6 18 7 16 8 15 9 14 10 13 11 5 12
REMARK SMILES IDX 6 13 7 14 8 15 12 16 10 17 9 18 11 20 20 22 17 24
REMARK H PARENT 9 19 11 21 20 23 17 25
REMARK Flexibility Score: inf
ROOT
ATOM      1  C   UNL     1      14.325  -3.623  -2.741  1.00  0.00     0.138 A 
ATOM      2  C   UNL     1      12.987  -3.256  -2.937  1.00  0.00     0.100 A 
ATOM      3  C   UNL     1      12.012  -3.701  -2.044  1.00  0.00     0.197 A 
ATOM      4  O   UNL     1      10.812  -3.406  -2.280  1.00  0.00    -0.289 OA
ATOM      5  C   UNL     1      12.385  -4.491  -0.931  1.00  0.00     0.107 A 
ATOM      6  C   UNL     1      11.483  -4.967   0.067  1.00  0.00     0.134 A 
ATOM      7  C   UNL     1      11.948  -5.840   1.059  1.00  0.00     0.093 A 
ATOM      8  C   UNL     1      13.295  -6.204   1.124  1.00  0.00     0.123 A 
ATOM      9  C   UNL     1      14.194  -5.702   0.186  1.00  0.00     0.094 A 
ATOM     10  C   UNL     1      13.754  -4.857  -0.837  1.00  0.00     0.146 A 
ATOM     11  O   UNL     1      14.642  -4.412  -1.719  1.00  0.00    -0.456 OA
ENDROOT
BRANCH   1  12
ATOM     12  C   UNL     1      15.403  -3.178  -3.660  1.00  0.00     0.021 A 
ATOM     13  C   UNL     1      15.421  -3.649  -4.985  1.00  0.00     0.016 A 
ATOM     14  C   UNL     1      16.430  -3.251  -5.866  1.00  0.00     0.051 A 
ATOM     15  C   UNL     1      17.443  -2.384  -5.438  1.00  0.00     0.157 A 
ATOM     16  C   UNL     1      16.432  -2.317  -3.232  1.00  0.00     0.062 A 
ATOM     17  C   UNL     1      17.445  -1.919  -4.113  1.00  0.00     0.158 A 
BRANCH  15  18
ATOM     18  O   UNL     1      18.447  -1.988  -6.321  1.00  0.00    -0.504 OA
ATOM     19  H   UNL     1      18.780  -1.031  -6.350  1.00  0.00     0.293 HD
ENDBRANCH  15  18
BRANCH  17  20
ATOM     20  O   UNL     1      18.446  -1.064  -3.653  1.00  0.00    -0.504 OA
ATOM     21  H   UNL     1      18.240  -0.259  -3.074  1.00  0.00     0.293 HD
ENDBRANCH  17  20
ENDBRANCH   1  12
BRANCH   6  22
ATOM     22  O   UNL     1      10.137  -4.597   0.145  1.00  0.00    -0.507 OA
ATOM     23  H   UNL     1       9.424  -4.876  -0.512  1.00  0.00     0.293 HD
ENDBRANCH   6  22
BRANCH   8  24
ATOM     24  O   UNL     1      13.753  -7.060   2.123  1.00  0.00    -0.508 OA
ATOM     25  H   UNL     1      13.170  -7.311   2.913  1.00  0.00     0.293 HD
ENDBRANCH   8  24
TORSDOF 5
ENDMDL
MODEL 4
REMARK VINA RESULT:    -5.815      1.708      3.377
REMARK INTER + INTRA:          -7.148
REMARK INTER:                  -6.863
REMARK INTRA:                  -0.285
REMARK UNBOUND:                -0.314
REMARK SMILES O=c1cc(-c2ccc(O)c(O)c2)oc2cc(O)cc(O)c12
REMARK SMILES IDX 4 1 3 2 2 3 1 4 21 5 19 6 18 7 16 8 15 9 14 10 13 11 5 12
REMARK SMILES IDX 6 13 7 14 8 15 12 16 10 17 9 18 11 20 20 22 17 24
REMARK H PARENT 9 19 11 21 20 23 17 25
REMARK Flexibility Score: inf
ROOT
ATOM      1  C   UNL     1      16.032  -3.929  -2.192  1.00  0.00     0.138 A 
ATOM      2  C   UNL     1      16.769  -3.245  -3.168  1.00  0.00     0.100 A 
ATOM      3  C   UNL     1      18.161  -3.198  -3.075  1.00  0.00     0.197 A 
ATOM      4  O   UNL     1      18.790  -2.525  -3.931  1.00  0.00    -0.289 OA
ATOM      5  C   UNL     1      18.818  -3.867  -2.015  1.00  0.00     0.107 A 
ATOM      6  C   UNL     1      20.233  -3.921  -1.842  1.00  0.00     0.134 A 
ATOM      7  C   UNL     1      20.766  -4.513  -0.690  1.00  0.00     0.093 A 
ATOM      8  C   UNL     1      19.936  -5.107   0.264  1.00  0.00     0.123 A 
ATOM      9  C   UNL     1      18.556  -5.106   0.078  1.00  0.00     0.094 A 
ATOM     10  C   UNL     1      17.992  -4.493  -1.044  1.00  0.00     0.146 A 
ATOM     11  O   UNL     1      16.670  -4.502  -1.176  1.00  0.00    -0.456 OA
ENDROOT
BRANCH   1  12
ATOM     12  C   UNL     1      14.551  -4.011  -2.242  1.00  0.00     0.021 A 
ATOM     13  C   UNL     1      13.816  -4.004  -1.044  1.00  0.00     0.016 A 
ATOM     14  C   UNL     1      12.422  -4.089  -1.065  1.00  0.00     0.051 A 
ATOM     15  C   UNL     1      11.737  -4.191  -2.282  1.00  0.00     0.157 A 
ATOM     16  C   UNL     1      13.857  -4.128  -3.463  1.00  0.00     0.062 A 
ATOM     17  C   UNL     1      12.460  -4.215  -3.486  1.00  0.00     0.158 A 
BRANCH  15  18
ATOM     18  O   UNL     1      10.345  -4.274  -2.300  1.00  0.00    -0.504 OA
ATOM     19  H   UNL     1       9.803  -3.925  -3.082  1.00  0.00     0.293 HD
ENDBRANCH  15  18
BRANCH  17  20
ATOM     20  O   UNL     1      11.809  -4.328  -4.714  1.00  0.00    -0.504 OA
ATOM     21  H   UNL     1      10.799  -4.348  -4.787  1.00  0.00     0.293 HD
ENDBRANCH  17  20
ENDBRANCH   1  12
BRANCH   6  22
ATOM     22  O   UNL     1      21.154  -3.435  -2.775  1.00  0.00    -0.507 OA
ATOM     23  H   UNL     1      21.171  -3.685  -3.752  1.00  0.00     0.293 HD
ENDBRANCH   6  22
BRANCH   8  24
ATOM     24  O   UNL     1      20.475  -5.708   1.400  1.00  0.00    -0.508 OA
ATOM     25  H   UNL     1      19.988  -6.453   1.887  1.00  0.00     0.293 HD
ENDBRANCH   8  24
TORSDOF 5
ENDMDL
MODEL 5
REMARK VINA RESULT:    -5.781      1.679      7.604
REMARK INTER + INTRA:          -7.109
REMARK INTER:                  -6.805
REMARK INTRA:                  -0.304
REMARK UNBOUND:                -0.314
REMARK SMILES O=c1cc(-c2ccc(O)c(O)c2)oc2cc(O)cc(O)c12
REMARK SMILES IDX 4 1 3 2 2 3 1 4 21 5 19 6 18 7 16 8 15 9 14 10 13 11 5 12
REMARK SMILES IDX 6 13 7 14 8 15 12 16 10 17 9 18 11 20 20 22 17 24
REMARK H PARENT 9 19 11 21 20 23 17 25
REMARK Flexibility Score: inf
ROOT
ATOM      1  C   UNL     1      17.086  -4.177  -2.003  1.00  0.00     0.138 A 
ATOM      2  C   UNL     1      16.860  -4.129  -3.386  1.00  0.00     0.100 A 
ATOM      3  C   UNL     1      15.553  -4.059  -3.869  1.00  0.00     0.197 A 
ATOM      4  O   UNL     1      15.379  -4.080  -5.115  1.00  0.00    -0.289 OA
ATOM      5  C   UNL     1      14.469  -4.003  -2.961  1.00  0.00     0.107 A 
ATOM      6  C   UNL     1      13.097  -3.889  -3.339  1.00  0.00     0.134 A 
ATOM      7  C   UNL     1      12.102  -3.962  -2.356  1.00  0.00     0.093 A 
ATOM      8  C   UNL     1      12.433  -4.083  -1.004  1.00  0.00     0.123 A 
ATOM      9  C   UNL     1      13.770  -4.142  -0.620  1.00  0.00     0.094 A 
ATOM     10  C   UNL     1      14.785  -4.107  -1.580  1.00  0.00     0.146 A 
ATOM     11  O   UNL     1      16.047  -4.180  -1.173  1.00  0.00    -0.456 OA
ENDROOT
BRANCH   1  12
ATOM     12  C   UNL     1      18.455  -4.252  -1.435  1.00  0.00     0.021 A 
ATOM     13  C   UNL     1      19.520  -3.632  -2.110  1.00  0.00     0.016 A 
ATOM     14  C   UNL     1      20.819  -3.696  -1.600  1.00  0.00     0.051 A 
ATOM     15  C   UNL     1      21.079  -4.389  -0.411  1.00  0.00     0.157 A 
ATOM     16  C   UNL     1      18.725  -4.959  -0.246  1.00  0.00     0.062 A 
ATOM     17  C   UNL     1      20.026  -5.027   0.266  1.00  0.00     0.158 A 
BRANCH  15  18
ATOM     18  O   UNL     1      22.376  -4.450   0.097  1.00  0.00    -0.504 OA
ATOM     19  H   UNL     1      23.070  -5.078  -0.294  1.00  0.00     0.293 HD
ENDBRANCH  15  18
BRANCH  17  20
ATOM     20  O   UNL     1      20.253  -5.734   1.446  1.00  0.00    -0.504 OA
ATOM     21  H   UNL     1      20.864  -6.541   1.480  1.00  0.00     0.293 HD
ENDBRANCH  17  20
ENDBRANCH   1  12
BRANCH   6  22
ATOM     22  O   UNL     1      12.662  -3.680  -4.651  1.00  0.00    -0.507 OA
ATOM     23  H   UNL     1      12.932  -4.242  -5.444  1.00  0.00     0.293 HD
ENDBRANCH   6  22
BRANCH   8  24
ATOM     24  O   UNL     1      11.437  -4.139  -0.030  1.00  0.00    -0.508 OA
ATOM     25  H   UNL     1      10.690  -4.824  -0.075  1.00  0.00     0.293 HD
ENDBRANCH   8  24
TORSDOF 5
ENDMDL
MODEL 6
REMARK VINA RESULT:    -5.777      1.836      3.763
REMARK INTER + INTRA:          -7.104
REMARK INTER:                  -6.807
REMARK INTRA:                  -0.297
REMARK UNBOUND:                -0.314
REMARK SMILES O=c1cc(-c2ccc(O)c(O)c2)oc2cc(O)cc(O)c12
REMARK SMILES IDX 4 1 3 2 2 3 1 4 21 5 19 6 18 7 16 8 15 9 14 10 13 11 5 12
REMARK SMILES IDX 6 13 7 14 8 15 12 16 10 17 9 18 11 20 20 22 17 24
REMARK H PARENT 9 19 11 21 20 23 17 25
REMARK Flexibility Score: inf
ROOT
ATOM      1  C   UNL     1      15.804  -3.560  -2.908  1.00  0.00     0.138 A 
ATOM      2  C   UNL     1      16.338  -2.791  -3.951  1.00  0.00     0.100 A 
ATOM      3  C   UNL     1      17.712  -2.551  -3.998  1.00  0.00     0.197 A 
ATOM      4  O   UNL     1      18.153  -1.806  -4.910  1.00  0.00    -0.289 OA
ATOM      5  C   UNL     1      18.558  -3.113  -3.012  1.00  0.00     0.107 A 
ATOM      6  C   UNL     1      19.978  -2.969  -2.983  1.00  0.00     0.134 A 
ATOM      7  C   UNL     1      20.700  -3.471  -1.892  1.00  0.00     0.093 A 
ATOM      8  C   UNL     1      20.060  -4.164  -0.862  1.00  0.00     0.123 A 
ATOM      9  C   UNL     1      18.681  -4.356  -0.908  1.00  0.00     0.094 A 
ATOM     10  C   UNL     1      17.929  -3.837  -1.965  1.00  0.00     0.146 A 
ATOM     11  O   UNL     1      16.614  -4.030  -1.964  1.00  0.00    -0.456 OA
ENDROOT
BRANCH   1  12
ATOM     12  C   UNL     1      14.351  -3.846  -2.809  1.00  0.00     0.021 A 
ATOM     13  C   UNL     1      13.621  -4.136  -3.975  1.00  0.00     0.016 A 
ATOM     14  C   UNL     1      12.251  -4.400  -3.909  1.00  0.00     0.051 A 
ATOM     15  C   UNL     1      11.583  -4.370  -2.679  1.00  0.00     0.157 A 
ATOM     16  C   UNL     1      13.670  -3.804  -1.576  1.00  0.00     0.062 A 
ATOM     17  C   UNL     1      12.297  -4.066  -1.508  1.00  0.00     0.158 A 
BRANCH  15  18
ATOM     18  O   UNL     1      10.216  -4.635  -2.616  1.00  0.00    -0.504 OA
ATOM     19  H   UNL     1       9.783  -5.332  -3.212  1.00  0.00     0.293 HD
ENDBRANCH  15  18
BRANCH  17  20
ATOM     20  O   UNL     1      11.659  -4.017  -0.269  1.00  0.00    -0.504 OA
ATOM     21  H   UNL     1      11.017  -3.273  -0.024  1.00  0.00     0.293 HD
ENDBRANCH  17  20
ENDBRANCH   1  12
BRANCH   6  22
ATOM     22  O   UNL     1      20.724  -2.370  -4.001  1.00  0.00    -0.507 OA
ATOM     23  H   UNL     1      20.860  -2.760  -4.922  1.00  0.00     0.293 HD
ENDBRANCH   6  22
BRANCH   8  24
ATOM     24  O   UNL     1      20.787  -4.674   0.211  1.00  0.00    -0.508 OA
ATOM     25  H   UNL     1      21.395  -4.083   0.768  1.00  0.00     0.293 HD
ENDBRANCH   8  24
TORSDOF 5
ENDMDL
MODEL 7
REMARK VINA RESULT:    -5.751      2.031      3.089
REMARK INTER + INTRA:          -7.073
REMARK INTER:                  -6.760
REMARK INTRA:                  -0.313
REMARK UNBOUND:                -0.314
REMARK SMILES O=c1cc(-c2ccc(O)c(O)c2)oc2cc(O)cc(O)c12
REMARK SMILES IDX 4 1 3 2 2 3 1 4 21 5 19 6 18 7 16 8 15 9 14 10 13 11 5 12
REMARK SMILES IDX 6 13 7 14 8 15 12 16 10 17 9 18 11 20 20 22 17 24
REMARK H PARENT 9 19 11 21 20 23 17 25
REMARK Flexibility Score: inf
ROOT
ATOM      1  C   UNL     1      15.168  -4.554  -0.950  1.00  0.00     0.138 A 
ATOM      2  C   UNL     1      15.455  -5.006   0.346  1.00  0.00     0.100 A 
ATOM      3  C   UNL     1      16.778  -5.039   0.788  1.00  0.00     0.197 A 
ATOM      4  O   UNL     1      17.010  -5.508   1.932  1.00  0.00    -0.289 OA
ATOM      5  C   UNL     1      17.815  -4.586  -0.062  1.00  0.00     0.107 A 
ATOM      6  C   UNL     1      19.195  -4.535   0.297  1.00  0.00     0.134 A 
ATOM      7  C   UNL     1      20.146  -4.179  -0.668  1.00  0.00     0.093 A 
ATOM      8  C   UNL     1      19.761  -3.813  -1.960  1.00  0.00     0.123 A 
ATOM      9  C   UNL     1      18.411  -3.808  -2.304  1.00  0.00     0.094 A 
ATOM     10  C   UNL     1      17.441  -4.192  -1.374  1.00  0.00     0.146 A 
ATOM     11  O   UNL     1      16.166  -4.186  -1.748  1.00  0.00    -0.456 OA
ENDROOT
BRANCH   1  12
ATOM     12  C   UNL     1      13.779  -4.498  -1.471  1.00  0.00     0.021 A 
ATOM     13  C   UNL     1      12.700  -4.529  -0.571  1.00  0.00     0.016 A 
ATOM     14  C   UNL     1      11.384  -4.487  -1.038  1.00  0.00     0.051 A 
ATOM     15  C   UNL     1      11.122  -4.422  -2.412  1.00  0.00     0.157 A 
ATOM     16  C   UNL     1      13.509  -4.446  -2.853  1.00  0.00     0.062 A 
ATOM     17  C   UNL     1      12.191  -4.406  -3.323  1.00  0.00     0.158 A 
BRANCH  15  18
ATOM     18  O   UNL     1       9.808  -4.378  -2.874  1.00  0.00    -0.504 OA
ATOM     19  H   UNL     1       9.487  -3.640  -3.492  1.00  0.00     0.293 HD
ENDBRANCH  15  18
BRANCH  17  20
ATOM     20  O   UNL     1      11.964  -4.353  -4.697  1.00  0.00    -0.504 OA
ATOM     21  H   UNL     1      11.102  -4.685  -5.113  1.00  0.00     0.293 HD
ENDBRANCH  17  20
ENDBRANCH   1  12
BRANCH   6  22
ATOM     22  O   UNL     1      19.680  -4.798   1.581  1.00  0.00    -0.507 OA
ATOM     23  H   UNL     1      19.686  -4.135   2.342  1.00  0.00     0.293 HD
ENDBRANCH   6  22
BRANCH   8  24
ATOM     24  O   UNL     1      20.712  -3.444  -2.909  1.00  0.00    -0.508 OA
ATOM     25  H   UNL     1      20.992  -4.076  -3.650  1.00  0.00     0.293 HD
ENDBRANCH   8  24
TORSDOF 5
ENDMDL
MODEL 8
REMARK VINA RESULT:    -5.662      2.539      3.970
REMARK INTER + INTRA:          -6.969
REMARK INTER:                  -6.682
REMARK INTRA:                  -0.287
REMARK UNBOUND:                -0.314
REMARK SMILES O=c1cc(-c2ccc(O)c(O)c2)oc2cc(O)cc(O)c12
REMARK SMILES IDX 4 1 3 2 2 3 1 4 21 5 19 6 18 7 16 8 15 9 14 10 13 11 5 12
REMARK SMILES IDX 6 13 7 14 8 15 12 16 10 17 9 18 11 20 20 22 17 24
REMARK H PARENT 9 19 11 21 20 23 17 25
REMARK Flexibility Score: inf
ROOT
ATOM      1  C   UNL     1      15.188  -3.813  -2.237  1.00  0.00     0.138 A 
ATOM      2  C   UNL     1      16.162  -4.505  -1.504  1.00  0.00     0.100 A 
ATOM      3  C   UNL     1      17.509  -4.355  -1.834  1.00  0.00     0.197 A 
ATOM      4  O   UNL     1      18.356  -5.035  -1.199  1.00  0.00    -0.289 OA
ATOM      5  C   UNL     1      17.883  -3.482  -2.883  1.00  0.00     0.107 A 
ATOM      6  C   UNL     1      19.229  -3.220  -3.281  1.00  0.00     0.134 A 
ATOM      7  C   UNL     1      19.472  -2.429  -4.411  1.00  0.00     0.093 A 
ATOM      8  C   UNL     1      18.422  -1.841  -5.120  1.00  0.00     0.123 A 
ATOM      9  C   UNL     1      17.107  -2.048  -4.708  1.00  0.00     0.094 A 
ATOM     10  C   UNL     1      16.830  -2.861  -3.605  1.00  0.00     0.146 A 
ATOM     11  O   UNL     1      15.562  -3.044  -3.254  1.00  0.00    -0.456 OA
ENDROOT
BRANCH   1  12
ATOM     12  C   UNL     1      13.741  -3.936  -1.928  1.00  0.00     0.021 A 
ATOM     13  C   UNL     1      12.800  -3.826  -2.967  1.00  0.00     0.016 A 
ATOM     14  C   UNL     1      11.433  -3.929  -2.700  1.00  0.00     0.051 A 
ATOM     15  C   UNL     1      10.980  -4.136  -1.391  1.00  0.00     0.157 A 
ATOM     16  C   UNL     1      13.278  -4.131  -0.612  1.00  0.00     0.062 A 
ATOM     17  C   UNL     1      11.908  -4.233  -0.343  1.00  0.00     0.158 A 
BRANCH  15  18
ATOM     18  O   UNL     1       9.615  -4.241  -1.129  1.00  0.00    -0.504 OA
ATOM     19  H   UNL     1       9.036  -4.931  -1.596  1.00  0.00     0.293 HD
ENDBRANCH  15  18
BRANCH  17  20
ATOM     20  O   UNL     1      11.490  -4.428   0.973  1.00  0.00    -0.504 OA
ATOM     21  H   UNL     1      10.532  -4.271   1.262  1.00  0.00     0.293 HD
ENDBRANCH  17  20
ENDBRANCH   1  12
BRANCH   6  22
ATOM     22  O   UNL     1      20.353  -3.687  -2.594  1.00  0.00    -0.507 OA
ATOM     23  H   UNL     1      21.299  -3.649  -2.943  1.00  0.00     0.293 HD
ENDBRANCH   6  22
BRANCH   8  24
ATOM     24  O   UNL     1      18.673  -1.042  -6.233  1.00  0.00    -0.508 OA
ATOM     25  H   UNL     1      19.156  -0.155  -6.150  1.00  0.00     0.293 HD
ENDBRANCH   8  24
TORSDOF 5
ENDMDL
