MODEL 1
REMARK VINA RESULT:    -4.471      0.000      0.000
REMARK INTER + INTRA:         -11.572
REMARK INTER:                  -8.653
REMARK INTRA:                  -2.919
REMARK UNBOUND:                -2.919
REMARK SMILES CCCCCCCCCCCCCCCCCC(=O)[O-]
REMARK SMILES IDX 10 1 11 2 12 3 13 4 14 5 15 6 16 7 17 8 18 9 19 10 20 11
REMARK SMILES IDX 9 12 8 13 7 14 6 15 5 16 4 17 3 18 2 19 1 20
REMARK H PARENT
REMARK Flexibility Score: inf
ROOT
ATOM      1  C   UNL     1      19.124 -33.068  20.726  1.00  0.00     0.000 C 
ENDROOT
BRANCH   1   2
ATOM      2  C   UNL     1      18.998 -34.306  19.821  1.00  0.00     0.000 C 
BRANCH   2   3
ATOM      3  C   UNL     1      17.628 -34.391  19.129  1.00  0.00     0.000 C 
BRANCH   3   4
ATOM      4  C   UNL     1      16.853 -35.667  19.508  1.00  0.00     0.000 C 
BRANCH   4   5
ATOM      5  C   UNL     1      15.736 -35.398  20.529  1.00  0.00     0.000 C 
BRANCH   5   6
ATOM      6  C   UNL     1      14.918 -34.140  20.187  1.00  0.00     0.000 C 
BRANCH   6   7
ATOM      7  C   UNL     1      14.564 -33.308  21.430  1.00  0.00     0.006 C 
BRANCH   7   8
ATOM      8  C   UNL     1      13.622 -32.139  21.113  1.00  0.00     0.053 C 
BRANCH   8   9
ATOM      9  C   UNL     1      13.036 -31.583  22.373  1.00  0.00     0.041 C 
ATOM     10  O   UNL     1      12.214 -30.630  22.324  1.00  0.00    -0.550 OA
ATOM     11  O   UNL     1      13.432 -32.088  23.605  1.00  0.00    -0.550 OA
ENDBRANCH   8   9
ENDBRANCH   7   8
ENDBRANCH   6   7
ENDBRANCH   5   6
ENDBRANCH   4   5
ENDBRANCH   3   4
ENDBRANCH   2   3
ENDBRANCH   1   2
BRANCH   1  12
ATOM     12  C   UNL     1      17.989 -32.052  20.509  1.00  0.00     0.000 C 
BRANCH  12  13
ATOM     13  C   UNL     1      18.059 -30.794  21.400  1.00  0.00    -0.000 C 
BRANCH  13  14
ATOM     14  C   UNL     1      16.698 -30.266  21.898  1.00  0.00    -0.000 C 
BRANCH  14  15
ATOM     15  C   UNL     1      16.485 -30.351  23.421  1.00  0.00    -0.000 C 
BRANCH  15  16
ATOM     16  C   UNL     1      17.417 -31.365  24.099  1.00  0.00    -0.000 C 
BRANCH  16  17
ATOM     17  C   UNL     1      16.796 -32.770  24.091  1.00  0.00    -0.000 C 
BRANCH  17  18
ATOM     18  C   UNL     1      17.853 -33.885  24.085  1.00  0.00    -0.000 C 
BRANCH  18  19
ATOM     19  C   UNL     1      17.233 -35.290  24.142  1.00  0.00    -0.003 C 
ATOM     20  C   UNL     1      17.980 -36.258  23.231  1.00  0.00     0.004 C 
ENDBRANCH  18  19
ENDBRANCH  17  18
ENDBRANCH  16  17
ENDBRANCH  15  16
ENDBRANCH  14  15
ENDBRANCH  13  14
ENDBRANCH  12  13
ENDBRANCH   1  12
TORSDOF 16
ENDMDL
MODEL 2
REMARK VINA RESULT:    -4.249      2.312      3.972
REMARK INTER + INTRA:         -11.143
REMARK INTER:                  -8.147
REMARK INTRA:                  -2.996
REMARK UNBOUND:                -2.919
REMARK SMILES CCCCCCCCCCCCCCCCCC(=O)[O-]
REMARK SMILES IDX 10 1 11 2 12 3 13 4 14 5 15 6 16 7 17 8 18 9 19 10 20 11
REMARK SMILES IDX 9 12 8 13 7 14 6 15 5 16 4 17 3 18 2 19 1 20
REMARK H PARENT
REMARK Flexibility Score: inf
ROOT
ATOM      1  C   UNL     1      19.444 -34.183  20.333  1.00  0.00     0.000 C 
ENDROOT
BRANCH   1   2
ATOM      2  C   UNL     1      18.386 -34.643  19.315  1.00  0.00     0.000 C 
BRANCH   2   3
ATOM      3  C   UNL     1      17.995 -36.118  19.501  1.00  0.00     0.000 C 
BRANCH   3   4
ATOM      4  C   UNL     1      17.117 -36.344  20.746  1.00  0.00     0.000 C 
BRANCH   4   5
ATOM      5  C   UNL     1      15.954 -35.343  20.839  1.00  0.00     0.000 C 
BRANCH   5   6
ATOM      6  C   UNL     1      15.802 -34.747  22.250  1.00  0.00     0.000 C 
BRANCH   6   7
ATOM      7  C   UNL     1      16.900 -35.223  23.214  1.00  0.00     0.006 C 
BRANCH   7   8
ATOM      8  C   UNL     1      16.610 -34.850  24.675  1.00  0.00     0.053 C 
BRANCH   8   9
ATOM      9  C   UNL     1      17.887 -34.613  25.417  1.00  0.00     0.041 C 
ATOM     10  O   UNL     1      18.045 -33.558  26.089  1.00  0.00    -0.550 OA
ATOM     11  O   UNL     1      18.923 -35.535  25.331  1.00  0.00    -0.550 OA
ENDBRANCH   8   9
ENDBRANCH   7   8
ENDBRANCH   6   7
ENDBRANCH   5   6
ENDBRANCH   4   5
ENDBRANCH   3   4
ENDBRANCH   2   3
ENDBRANCH   1   2
BRANCH   1  12
ATOM     12  C   UNL     1      19.268 -32.713  20.756  1.00  0.00     0.000 C 
BRANCH  12  13
ATOM     13  C   UNL     1      17.851 -32.139  20.551  1.00  0.00    -0.000 C 
BRANCH  13  14
ATOM     14  C   UNL     1      17.404 -31.105  21.605  1.00  0.00    -0.000 C 
BRANCH  14  15
ATOM     15  C   UNL     1      17.627 -31.528  23.068  1.00  0.00    -0.000 C 
BRANCH  15  16
ATOM     16  C   UNL     1      16.397 -31.284  23.955  1.00  0.00    -0.000 C 
BRANCH  16  17
ATOM     17  C   UNL     1      15.237 -30.702  23.133  1.00  0.00    -0.000 C 
BRANCH  17  18
ATOM     18  C   UNL     1      13.904 -31.421  23.398  1.00  0.00    -0.000 C 
BRANCH  18  19
ATOM     19  C   UNL     1      12.997 -31.463  22.159  1.00  0.00    -0.003 C 
ATOM     20  C   UNL     1      13.750 -31.999  20.945  1.00  0.00     0.004 C 
ENDBRANCH  18  19
ENDBRANCH  17  18
ENDBRANCH  16  17
ENDBRANCH  15  16
ENDBRANCH  14  15
ENDBRANCH  13  14
ENDBRANCH  12  13
ENDBRANCH   1  12
TORSDOF 16
ENDMDL
MODEL 3
REMARK VINA RESULT:    -4.245      2.067      4.587
REMARK INTER + INTRA:         -11.135
REMARK INTER:                  -8.958
REMARK INTRA:                  -2.177
REMARK UNBOUND:                -2.919
REMARK SMILES CCCCCCCCCCCCCCCCCC(=O)[O-]
REMARK SMILES IDX 10 1 11 2 12 3 13 4 14 5 15 6 16 7 17 8 18 9 19 10 20 11
REMARK SMILES IDX 9 12 8 13 7 14 6 15 5 16 4 17 3 18 2 19 1 20
REMARK H PARENT
REMARK Flexibility Score: inf
ROOT
ATOM      1  C   UNL     1      15.399 -35.381  20.506  1.00  0.00     0.000 C 
ENDROOT
BRANCH   1   2
ATOM      2  C   UNL     1      15.354 -34.447  21.729  1.00  0.00     0.000 C 
BRANCH   2   3
ATOM      3  C   UNL     1      16.170 -33.162  21.515  1.00  0.00     0.000 C 
BRANCH   3   4
ATOM      4  C   UNL     1      15.280 -31.935  21.245  1.00  0.00     0.000 C 
BRANCH   4   5
ATOM      5  C   UNL     1      13.783 -32.286  21.217  1.00  0.00     0.000 C 
BRANCH   5   6
ATOM      6  C   UNL     1      12.948 -31.364  22.123  1.00  0.00     0.000 C 
BRANCH   6   7
ATOM      7  C   UNL     1      13.796 -30.285  22.814  1.00  0.00     0.006 C 
BRANCH   7   8
ATOM      8  C   UNL     1      13.425 -30.091  24.290  1.00  0.00     0.053 C 
BRANCH   8   9
ATOM      9  C   UNL     1      12.536 -28.900  24.454  1.00  0.00     0.041 C 
ATOM     10  O   UNL     1      12.816 -28.010  25.301  1.00  0.00    -0.550 OA
ATOM     11  O   UNL     1      11.371 -28.793  23.704  1.00  0.00    -0.550 OA
ENDBRANCH   8   9
ENDBRANCH   7   8
ENDBRANCH   6   7
ENDBRANCH   5   6
ENDBRANCH   4   5
ENDBRANCH   3   4
ENDBRANCH   2   3
ENDBRANCH   1   2
BRANCH   1  12
ATOM     12  C   UNL     1      16.627 -35.137  19.612  1.00  0.00     0.000 C 
BRANCH  12  13
ATOM     13  C   UNL     1      17.511 -36.376  19.363  1.00  0.00    -0.000 C 
BRANCH  13  14
ATOM     14  C   UNL     1      17.656 -37.331  20.566  1.00  0.00    -0.000 C 
BRANCH  14  15
ATOM     15  C   UNL     1      18.839 -37.024  21.502  1.00  0.00    -0.000 C 
BRANCH  15  16
ATOM     16  C   UNL     1      18.460 -36.086  22.656  1.00  0.00    -0.000 C 
BRANCH  16  17
ATOM     17  C   UNL     1      19.282 -34.789  22.601  1.00  0.00    -0.000 C 
BRANCH  17  18
ATOM     18  C   UNL     1      20.204 -34.724  21.373  1.00  0.00    -0.000 C 
BRANCH  18  19
ATOM     19  C   UNL     1      19.837 -33.578  20.417  1.00  0.00    -0.003 C 
ATOM     20  C   UNL     1      20.564 -32.292  20.798  1.00  0.00     0.004 C 
ENDBRANCH  18  19
ENDBRANCH  17  18
ENDBRANCH  16  17
ENDBRANCH  15  16
ENDBRANCH  14  15
ENDBRANCH  13  14
ENDBRANCH  12  13
ENDBRANCH   1  12
TORSDOF 16
ENDMDL
MODEL 4
REMARK VINA RESULT:    -4.222      2.642      5.049
REMARK INTER + INTRA:         -11.091
REMARK INTER:                  -8.542
REMARK INTRA:                  -2.548
REMARK UNBOUND:                -2.919
REMARK SMILES CCCCCCCCCCCCCCCCCC(=O)[O-]
REMARK SMILES IDX 10 1 11 2 12 3 13 4 14 5 15 6 16 7 17 8 18 9 19 10 20 11
REMARK SMILES IDX 9 12 8 13 7 14 6 15 5 16 4 17 3 18 2 19 1 20
REMARK H PARENT
REMARK Flexibility Score: inf
ROOT
ATOM      1  C   UNL     1      17.679 -31.487  21.040  1.00  0.00     0.000 C 
ENDROOT
BRANCH   1   2
ATOM      2  C   UNL     1      18.786 -31.542  22.107  1.00  0.00     0.000 C 
BRANCH   2   3
ATOM      3  C   UNL     1      20.191 -31.394  21.502  1.00  0.00     0.000 C 
BRANCH   3   4
ATOM      4  C   UNL     1      20.602 -32.614  20.657  1.00  0.00     0.000 C 
BRANCH   4   5
ATOM      5  C   UNL     1      20.517 -33.933  21.443  1.00  0.00     0.000 C 
BRANCH   5   6
ATOM      6  C   UNL     1      19.526 -34.928  20.814  1.00  0.00     0.000 C 
BRANCH   6   7
ATOM      7  C   UNL     1      19.242 -34.625  19.334  1.00  0.00     0.006 C 
BRANCH   7   8
ATOM      8  C   UNL     1      17.745 -34.658  18.998  1.00  0.00     0.053 C 
BRANCH   8   9
ATOM      9  C   UNL     1      17.148 -35.971  19.396  1.00  0.00     0.041 C 
ATOM     10  O   UNL     1      16.189 -36.011  20.213  1.00  0.00    -0.550 OA
ATOM     11  O   UNL     1      17.678 -37.155  18.899  1.00  0.00    -0.550 OA
ENDBRANCH   8   9
ENDBRANCH   7   8
ENDBRANCH   6   7
ENDBRANCH   5   6
ENDBRANCH   4   5
ENDBRANCH   3   4
ENDBRANCH   2   3
ENDBRANCH   1   2
BRANCH   1  12
ATOM     12  C   UNL     1      16.595 -32.560  21.245  1.00  0.00     0.000 C 
BRANCH  12  13
ATOM     13  C   UNL     1      16.728 -33.383  22.543  1.00  0.00    -0.000 C 
BRANCH  13  14
ATOM     14  C   UNL     1      15.425 -34.043  23.038  1.00  0.00    -0.000 C 
BRANCH  14  15
ATOM     15  C   UNL     1      14.719 -33.306  24.191  1.00  0.00    -0.000 C 
BRANCH  15  16
ATOM     16  C   UNL     1      15.056 -31.809  24.239  1.00  0.00    -0.000 C 
BRANCH  16  17
ATOM     17  C   UNL     1      13.787 -30.957  24.078  1.00  0.00    -0.000 C 
BRANCH  17  18
ATOM     18  C   UNL     1      13.591 -30.453  22.640  1.00  0.00    -0.000 C 
BRANCH  18  19
ATOM     19  C   UNL     1      12.555 -31.277  21.859  1.00  0.00    -0.003 C 
ATOM     20  C   UNL     1      13.211 -32.039  20.712  1.00  0.00     0.004 C 
ENDBRANCH  18  19
ENDBRANCH  17  18
ENDBRANCH  16  17
ENDBRANCH  15  16
ENDBRANCH  14  15
ENDBRANCH  13  14
ENDBRANCH  12  13
ENDBRANCH   1  12
TORSDOF 16
ENDMDL
MODEL 5
REMARK VINA RESULT:    -4.206      3.127      5.182
REMARK INTER + INTRA:         -11.060
REMARK INTER:                  -8.654
REMARK INTRA:                  -2.407
REMARK UNBOUND:                -2.919
REMARK SMILES CCCCCCCCCCCCCCCCCC(=O)[O-]
REMARK SMILES IDX 10 1 11 2 12 3 13 4 14 5 15 6 16 7 17 8 18 9 19 10 20 11
REMARK SMILES IDX 9 12 8 13 7 14 6 15 5 16 4 17 3 18 2 19 1 20
REMARK H PARENT
REMARK Flexibility Score: inf
ROOT
ATOM      1  C   UNL     1      17.978 -35.919  19.894  1.00  0.00     0.000 C 
ENDROOT
BRANCH   1   2
ATOM      2  C   UNL     1      18.535 -34.624  19.277  1.00  0.00     0.000 C 
BRANCH   2   3
ATOM      3  C   UNL     1      19.708 -34.046  20.086  1.00  0.00     0.000 C 
BRANCH   3   4
ATOM      4  C   UNL     1      19.296 -32.829  20.934  1.00  0.00     0.000 C 
BRANCH   4   5
ATOM      5  C   UNL     1      17.995 -32.176  20.439  1.00  0.00     0.000 C 
BRANCH   5   6
ATOM      6  C   UNL     1      17.486 -31.083  21.395  1.00  0.00     0.000 C 
BRANCH   6   7
ATOM      7  C   UNL     1      18.594 -30.109  21.826  1.00  0.00     0.006 C 
BRANCH   7   8
ATOM      8  C   UNL     1      18.737 -28.913  20.875  1.00  0.00     0.053 C 
BRANCH   8   9
ATOM      9  C   UNL     1      20.112 -28.331  20.969  1.00  0.00     0.041 C 
ATOM     10  O   UNL     1      20.267 -27.086  21.094  1.00  0.00    -0.550 OA
ATOM     11  O   UNL     1      21.225 -29.157  20.873  1.00  0.00    -0.550 OA
ENDBRANCH   8   9
ENDBRANCH   7   8
ENDBRANCH   6   7
ENDBRANCH   5   6
ENDBRANCH   4   5
ENDBRANCH   3   4
ENDBRANCH   2   3
ENDBRANCH   1   2
BRANCH   1  12
ATOM     12  C   UNL     1      16.440 -35.958  19.917  1.00  0.00     0.000 C 
BRANCH  12  13
ATOM     13  C   UNL     1      15.781 -35.110  21.023  1.00  0.00    -0.000 C 
BRANCH  13  14
ATOM     14  C   UNL     1      16.524 -35.103  22.376  1.00  0.00    -0.000 C 
BRANCH  14  15
ATOM     15  C   UNL     1      16.190 -33.915  23.296  1.00  0.00    -0.000 C 
BRANCH  15  16
ATOM     16  C   UNL     1      14.861 -34.094  24.044  1.00  0.00    -0.000 C 
BRANCH  16  17
ATOM     17  C   UNL     1      14.260 -32.733  24.428  1.00  0.00    -0.000 C 
BRANCH  17  18
ATOM     18  C   UNL     1      14.403 -31.687  23.311  1.00  0.00    -0.000 C 
BRANCH  18  19
ATOM     19  C   UNL     1      13.260 -31.756  22.286  1.00  0.00    -0.003 C 
ATOM     20  C   UNL     1      13.804 -31.857  20.864  1.00  0.00     0.004 C 
ENDBRANCH  18  19
ENDBRANCH  17  18
ENDBRANCH  16  17
ENDBRANCH  15  16
ENDBRANCH  14  15
ENDBRANCH  13  14
ENDBRANCH  12  13
ENDBRANCH   1  12
TORSDOF 16
ENDMDL
MODEL 6
REMARK VINA RESULT:    -4.166      2.633      4.130
REMARK INTER + INTRA:         -10.981
REMARK INTER:                  -7.961
REMARK INTRA:                  -3.020
REMARK UNBOUND:                -2.919
REMARK SMILES CCCCCCCCCCCCCCCCCC(=O)[O-]
REMARK SMILES IDX 10 1 11 2 12 3 13 4 14 5 15 6 16 7 17 8 18 9 19 10 20 11
REMARK SMILES IDX 9 12 8 13 7 14 6 15 5 16 4 17 3 18 2 19 1 20
REMARK H PARENT
REMARK Flexibility Score: inf
ROOT
ATOM      1  C   UNL     1      15.598 -35.203  20.655  1.00  0.00     0.000 C 
ENDROOT
BRANCH   1   2
ATOM      2  C   UNL     1      16.707 -35.774  19.756  1.00  0.00     0.000 C 
BRANCH   2   3
ATOM      3  C   UNL     1      17.711 -34.699  19.308  1.00  0.00     0.000 C 
BRANCH   3   4
ATOM      4  C   UNL     1      18.994 -34.698  20.161  1.00  0.00     0.000 C 
BRANCH   4   5
ATOM      5  C   UNL     1      19.558 -33.284  20.378  1.00  0.00     0.000 C 
BRANCH   5   6
ATOM      6  C   UNL     1      18.748 -32.482  21.411  1.00  0.00     0.000 C 
BRANCH   6   7
ATOM      7  C   UNL     1      18.024 -31.277  20.790  1.00  0.00     0.006 C 
BRANCH   7   8
ATOM      8  C   UNL     1      18.180 -29.996  21.621  1.00  0.00     0.053 C 
BRANCH   8   9
ATOM      9  C   UNL     1      19.349 -29.198  21.137  1.00  0.00     0.041 C 
ATOM     10  O   UNL     1      20.493 -29.381  21.634  1.00  0.00    -0.550 OA
ATOM     11  O   UNL     1      19.168 -28.218  20.168  1.00  0.00    -0.550 OA
ENDBRANCH   8   9
ENDBRANCH   7   8
ENDBRANCH   6   7
ENDBRANCH   5   6
ENDBRANCH   4   5
ENDBRANCH   3   4
ENDBRANCH   2   3
ENDBRANCH   1   2
BRANCH   1  12
ATOM     12  C   UNL     1      15.224 -33.754  20.298  1.00  0.00     0.000 C 
BRANCH  12  13
ATOM     13  C   UNL     1      14.245 -33.071  21.274  1.00  0.00    -0.000 C 
BRANCH  13  14
ATOM     14  C   UNL     1      14.376 -31.537  21.370  1.00  0.00    -0.000 C 
BRANCH  14  15
ATOM     15  C   UNL     1      14.590 -30.989  22.793  1.00  0.00    -0.000 C 
BRANCH  15  16
ATOM     16  C   UNL     1      15.014 -32.074  23.793  1.00  0.00    -0.000 C 
BRANCH  16  17
ATOM     17  C   UNL     1      16.478 -31.886  24.217  1.00  0.00    -0.000 C 
BRANCH  17  18
ATOM     18  C   UNL     1      17.146 -33.204  24.640  1.00  0.00    -0.000 C 
BRANCH  18  19
ATOM     19  C   UNL     1      16.402 -34.441  24.114  1.00  0.00    -0.003 C 
ATOM     20  C   UNL     1      17.376 -35.562  23.765  1.00  0.00     0.004 C 
ENDBRANCH  18  19
ENDBRANCH  17  18
ENDBRANCH  16  17
ENDBRANCH  15  16
ENDBRANCH  14  15
ENDBRANCH  13  14
ENDBRANCH  12  13
ENDBRANCH   1  12
TORSDOF 16
ENDMDL
MODEL 7
REMARK VINA RESULT:    -4.154      1.409      3.592
REMARK INTER + INTRA:         -10.959
REMARK INTER:                  -8.203
REMARK INTRA:                  -2.755
REMARK UNBOUND:                -2.919
REMARK SMILES CCCCCCCCCCCCCCCCCC(=O)[O-]
REMARK SMILES IDX 10 1 11 2 12 3 13 4 14 5 15 6 16 7 17 8 18 9 19 10 20 11
REMARK SMILES IDX 9 12 8 13 7 14 6 15 5 16 4 17 3 18 2 19 1 20
REMARK H PARENT
REMARK Flexibility Score: inf
ROOT
ATOM      1  C   UNL     1      16.933 -34.416  19.620  1.00  0.00     0.000 C 
ENDROOT
BRANCH   1   2
ATOM      2  C   UNL     1      16.044 -35.139  20.647  1.00  0.00     0.000 C 
BRANCH   2   3
ATOM      3  C   UNL     1      16.854 -35.719  21.818  1.00  0.00     0.000 C 
BRANCH   3   4
ATOM      4  C   UNL     1      16.611 -34.961  23.136  1.00  0.00     0.000 C 
BRANCH   4   5
ATOM      5  C   UNL     1      15.313 -34.138  23.114  1.00  0.00     0.000 C 
BRANCH   5   6
ATOM      6  C   UNL     1      14.909 -33.642  24.514  1.00  0.00     0.000 C 
BRANCH   6   7
ATOM      7  C   UNL     1      13.729 -32.658  24.476  1.00  0.00     0.006 C 
BRANCH   7   8
ATOM      8  C   UNL     1      14.065 -31.357  23.734  1.00  0.00     0.053 C 
BRANCH   8   9
ATOM      9  C   UNL     1      13.055 -31.089  22.664  1.00  0.00     0.041 C 
ATOM     10  O   UNL     1      12.188 -30.188  22.819  1.00  0.00    -0.550 OA
ATOM     11  O   UNL     1      13.041 -31.865  21.511  1.00  0.00    -0.550 OA
ENDBRANCH   8   9
ENDBRANCH   7   8
ENDBRANCH   6   7
ENDBRANCH   5   6
ENDBRANCH   4   5
ENDBRANCH   3   4
ENDBRANCH   2   3
ENDBRANCH   1   2
BRANCH   1  12
ATOM     12  C   UNL     1      18.276 -35.128  19.385  1.00  0.00     0.000 C 
BRANCH  12  13
ATOM     13  C   UNL     1      19.527 -34.248  19.591  1.00  0.00    -0.000 C 
BRANCH  13  14
ATOM     14  C   UNL     1      20.140 -34.301  21.006  1.00  0.00    -0.000 C 
BRANCH  14  15
ATOM     15  C   UNL     1      20.078 -32.979  21.792  1.00  0.00    -0.000 C 
BRANCH  15  16
ATOM     16  C   UNL     1      19.967 -31.747  20.882  1.00  0.00    -0.000 C 
BRANCH  16  17
ATOM     17  C   UNL     1      18.591 -31.080  21.028  1.00  0.00    -0.000 C 
BRANCH  17  18
ATOM     18  C   UNL     1      17.748 -31.701  22.154  1.00  0.00    -0.000 C 
BRANCH  18  19
ATOM     19  C   UNL     1      17.623 -30.781  23.378  1.00  0.00    -0.003 C 
ATOM     20  C   UNL     1      17.893 -31.545  24.670  1.00  0.00     0.004 C 
ENDBRANCH  18  19
ENDBRANCH  17  18
ENDBRANCH  16  17
ENDBRANCH  15  16
ENDBRANCH  14  15
ENDBRANCH  13  14
ENDBRANCH  12  13
ENDBRANCH   1  12
TORSDOF 16
ENDMDL
MODEL 8
REMARK VINA RESULT:    -4.152      1.430      2.729
REMARK INTER + INTRA:         -10.955
REMARK INTER:                  -8.059
REMARK INTRA:                  -2.896
REMARK UNBOUND:                -2.919
REMARK SMILES CCCCCCCCCCCCCCCCCC(=O)[O-]
REMARK SMILES IDX 10 1 11 2 12 3 13 4 14 5 15 6 16 7 17 8 18 9 19 10 20 11
REMARK SMILES IDX 9 12 8 13 7 14 6 15 5 16 4 17 3 18 2 19 1 20
REMARK H PARENT
REMARK Flexibility Score: inf
ROOT
ATOM      1  C   UNL     1      17.592 -34.628  19.286  1.00  0.00     0.000 C 
ENDROOT
BRANCH   1   2
ATOM      2  C   UNL     1      16.831 -35.762  19.996  1.00  0.00     0.000 C 
BRANCH   2   3
ATOM      3  C   UNL     1      15.404 -35.351  20.393  1.00  0.00     0.000 C 
BRANCH   3   4
ATOM      4  C   UNL     1      15.230 -33.823  20.473  1.00  0.00     0.000 C 
BRANCH   4   5
ATOM      5  C   UNL     1      14.618 -33.367  21.807  1.00  0.00     0.000 C 
BRANCH   5   6
ATOM      6  C   UNL     1      15.117 -31.976  22.236  1.00  0.00     0.000 C 
BRANCH   6   7
ATOM      7  C   UNL     1      14.618 -31.573  23.633  1.00  0.00     0.006 C 
BRANCH   7   8
ATOM      8  C   UNL     1      14.240 -30.088  23.724  1.00  0.00     0.053 C 
BRANCH   8   9
ATOM      9  C   UNL     1      12.766 -29.910  23.534  1.00  0.00     0.041 C 
ATOM     10  O   UNL     1      12.155 -30.573  22.653  1.00  0.00    -0.550 OA
ATOM     11  O   UNL     1      12.074 -28.980  24.300  1.00  0.00    -0.550 OA
ENDBRANCH   8   9
ENDBRANCH   7   8
ENDBRANCH   6   7
ENDBRANCH   5   6
ENDBRANCH   4   5
ENDBRANCH   3   4
ENDBRANCH   2   3
ENDBRANCH   1   2
BRANCH   1  12
ATOM     12  C   UNL     1      19.108 -34.671  19.545  1.00  0.00     0.000 C 
BRANCH  12  13
ATOM     13  C   UNL     1      19.665 -33.485  20.359  1.00  0.00    -0.000 C 
BRANCH  13  14
ATOM     14  C   UNL     1      18.602 -32.599  21.040  1.00  0.00    -0.000 C 
BRANCH  14  15
ATOM     15  C   UNL     1      18.762 -32.446  22.564  1.00  0.00    -0.000 C 
BRANCH  15  16
ATOM     16  C   UNL     1      18.949 -33.789  23.283  1.00  0.00    -0.000 C 
BRANCH  16  17
ATOM     17  C   UNL     1      17.613 -34.540  23.398  1.00  0.00    -0.000 C 
BRANCH  17  18
ATOM     18  C   UNL     1      17.798 -36.059  23.537  1.00  0.00    -0.000 C 
BRANCH  18  19
ATOM     19  C   UNL     1      19.170 -36.538  23.037  1.00  0.00    -0.003 C 
ATOM     20  C   UNL     1      19.024 -37.705  22.066  1.00  0.00     0.004 C 
ENDBRANCH  18  19
ENDBRANCH  17  18
ENDBRANCH  16  17
ENDBRANCH  15  16
ENDBRANCH  14  15
ENDBRANCH  13  14
ENDBRANCH  12  13
ENDBRANCH   1  12
TORSDOF 16
ENDMDL
MODEL 9
REMARK VINA RESULT:    -4.104      1.273      4.478
REMARK INTER + INTRA:         -10.862
REMARK INTER:                  -7.854
REMARK INTRA:                  -3.008
REMARK UNBOUND:                -2.919
REMARK SMILES CCCCCCCCCCCCCCCCCC(=O)[O-]
REMARK SMILES IDX 10 1 11 2 12 3 13 4 14 5 15 6 16 7 17 8 18 9 19 10 20 11
REMARK SMILES IDX 9 12 8 13 7 14 6 15 5 16 4 17 3 18 2 19 1 20
REMARK H PARENT
REMARK Flexibility Score: inf
ROOT
ATOM      1  C   UNL     1      16.536 -35.115  22.806  1.00  0.00     0.000 C 
ENDROOT
BRANCH   1   2
ATOM      2  C   UNL     1      16.798 -34.186  24.005  1.00  0.00     0.000 C 
BRANCH   2   3
ATOM      3  C   UNL     1      18.128 -33.427  23.878  1.00  0.00     0.000 C 
BRANCH   3   4
ATOM      4  C   UNL     1      17.929 -31.906  23.738  1.00  0.00     0.000 C 
BRANCH   4   5
ATOM      5  C   UNL     1      17.692 -31.472  22.283  1.00  0.00     0.000 C 
BRANCH   5   6
ATOM      6  C   UNL     1      16.217 -31.130  22.005  1.00  0.00     0.000 C 
BRANCH   6   7
ATOM      7  C   UNL     1      15.470 -30.665  23.265  1.00  0.00     0.006 C 
BRANCH   7   8
ATOM      8  C   UNL     1      14.189 -31.468  23.527  1.00  0.00     0.053 C 
BRANCH   8   9
ATOM      9  C   UNL     1      13.077 -30.980  22.654  1.00  0.00     0.041 C 
ATOM     10  O   UNL     1      12.359 -30.012  23.022  1.00  0.00    -0.550 OA
ATOM     11  O   UNL     1      12.803 -31.622  21.452  1.00  0.00    -0.550 OA
ENDBRANCH   8   9
ENDBRANCH   7   8
ENDBRANCH   6   7
ENDBRANCH   5   6
ENDBRANCH   4   5
ENDBRANCH   3   4
ENDBRANCH   2   3
ENDBRANCH   1   2
BRANCH   1  12
ATOM     12  C   UNL     1      15.396 -34.617  21.901  1.00  0.00     0.000 C 
BRANCH  12  13
ATOM     13  C   UNL     1      15.517 -35.019  20.417  1.00  0.00    -0.000 C 
BRANCH  13  14
ATOM     14  C   UNL     1      16.482 -36.188  20.130  1.00  0.00    -0.000 C 
BRANCH  14  15
ATOM     15  C   UNL     1      17.800 -35.791  19.440  1.00  0.00    -0.000 C 
BRANCH  15  16
ATOM     16  C   UNL     1      17.977 -34.270  19.321  1.00  0.00    -0.000 C 
BRANCH  16  17
ATOM     17  C   UNL     1      19.348 -33.835  19.860  1.00  0.00    -0.000 C 
BRANCH  17  18
ATOM     18  C   UNL     1      19.886 -34.782  20.944  1.00  0.00    -0.000 C 
BRANCH  18  19
ATOM     19  C   UNL     1      21.042 -34.166  21.748  1.00  0.00    -0.003 C 
ATOM     20  C   UNL     1      21.218 -32.689  21.413  1.00  0.00     0.004 C 
ENDBRANCH  18  19
ENDBRANCH  17  18
ENDBRANCH  16  17
ENDBRANCH  15  16
ENDBRANCH  14  15
ENDBRANCH  13  14
ENDBRANCH  12  13
ENDBRANCH   1  12
TORSDOF 16
ENDMDL
