MODEL 1
REMARK VINA RESULT:    -3.662      0.000      0.000
REMARK INTER + INTRA:          -6.987
REMARK INTER:                  -5.803
REMARK INTRA:                  -1.185
REMARK UNBOUND:                -1.185
REMARK SMILES CCCCCCCCCCCC(=O)[O-]
REMARK SMILES IDX 7 1 8 2 9 3 10 4 11 5 12 6 13 7 14 8 6 9 5 10 4 11 3 12 2 13
REMARK SMILES IDX 1 14
REMARK H PARENT
REMARK Flexibility Score: inf
ROOT
ATOM      1  C   UNL     1      -2.551 -10.918 -16.541  1.00  0.00     0.000 C 
ENDROOT
BRANCH   1   2
ATOM      2  C   UNL     1      -1.744 -10.695 -15.255  1.00  0.00     0.000 C 
BRANCH   2   3
ATOM      3  C   UNL     1      -1.349 -12.030 -14.615  1.00  0.00     0.000 C 
BRANCH   3   4
ATOM      4  C   UNL     1      -2.425 -13.098 -14.857  1.00  0.00     0.006 C 
BRANCH   4   5
ATOM      5  C   UNL     1      -1.857 -14.522 -14.793  1.00  0.00     0.053 C 
BRANCH   5   6
ATOM      6  C   UNL     1      -1.968 -15.104 -13.416  1.00  0.00     0.041 C 
ATOM      7  O   UNL     1      -2.857 -14.693 -12.624  1.00  0.00    -0.550 OA
ATOM      8  O   UNL     1      -1.067 -16.074 -12.997  1.00  0.00    -0.550 OA
ENDBRANCH   5   6
ENDBRANCH   4   5
ENDBRANCH   3   4
ENDBRANCH   2   3
ENDBRANCH   1   2
BRANCH   1   9
ATOM      9  C   UNL     1      -3.842 -10.091 -16.530  1.00  0.00     0.000 C 
BRANCH   9  10
ATOM     10  C   UNL     1      -5.069 -10.991 -16.339  1.00  0.00    -0.000 C 
BRANCH  10  11
ATOM     11  C   UNL     1      -5.382 -11.777 -17.622  1.00  0.00    -0.000 C 
BRANCH  11  12
ATOM     12  C   UNL     1      -5.466 -13.297 -17.369  1.00  0.00    -0.000 C 
BRANCH  12  13
ATOM     13  C   UNL     1      -4.783 -14.142 -18.457  1.00  0.00    -0.003 C 
ATOM     14  C   UNL     1      -3.259 -14.101 -18.377  1.00  0.00     0.004 C 
ENDBRANCH  12  13
ENDBRANCH  11  12
ENDBRANCH  10  11
ENDBRANCH   9  10
ENDBRANCH   1   9
TORSDOF 10
ENDMDL
MODEL 2
REMARK VINA RESULT:    -3.590     15.331     17.069
REMARK INTER + INTRA:          -6.873
REMARK INTER:                  -5.479
REMARK INTRA:                  -1.394
REMARK UNBOUND:                -1.185
REMARK SMILES CCCCCCCCCCCC(=O)[O-]
REMARK SMILES IDX 7 1 8 2 9 3 10 4 11 5 12 6 13 7 14 8 6 9 5 10 4 11 3 12 2 13
REMARK SMILES IDX 1 14
REMARK H PARENT
REMARK Flexibility Score: inf
ROOT
ATOM      1  C   UNL     1      -2.248  -4.094 -26.385  1.00  0.00     0.000 C 
ENDROOT
BRANCH   1   2
ATOM      2  C   UNL     1      -1.499  -3.695 -27.663  1.00  0.00     0.000 C 
BRANCH   2   3
ATOM      3  C   UNL     1      -1.051  -2.231 -27.605  1.00  0.00     0.000 C 
BRANCH   3   4
ATOM      4  C   UNL     1      -2.042  -1.322 -28.347  1.00  0.00     0.006 C 
BRANCH   4   5
ATOM      5  C   UNL     1      -1.446   0.057 -28.659  1.00  0.00     0.053 C 
BRANCH   5   6
ATOM      6  C   UNL     1      -1.294   0.277 -30.133  1.00  0.00     0.041 C 
ATOM      7  O   UNL     1      -2.288   0.617 -30.829  1.00  0.00    -0.550 OA
ATOM      8  O   UNL     1      -0.064   0.074 -30.744  1.00  0.00    -0.550 OA
ENDBRANCH   5   6
ENDBRANCH   4   5
ENDBRANCH   3   4
ENDBRANCH   2   3
ENDBRANCH   1   2
BRANCH   1   9
ATOM      9  C   UNL     1      -3.558  -4.817 -26.718  1.00  0.00     0.000 C 
BRANCH   9  10
ATOM     10  C   UNL     1      -4.767  -4.043 -26.179  1.00  0.00    -0.000 C 
BRANCH  10  11
ATOM     11  C   UNL     1      -5.130  -2.872 -27.106  1.00  0.00    -0.000 C 
BRANCH  11  12
ATOM     12  C   UNL     1      -5.078  -1.513 -26.378  1.00  0.00    -0.000 C 
BRANCH  12  13
ATOM     13  C   UNL     1      -4.504  -1.598 -24.954  1.00  0.00    -0.003 C 
ATOM     14  C   UNL     1      -3.165  -0.881 -24.805  1.00  0.00     0.004 C 
ENDBRANCH  12  13
ENDBRANCH  11  12
ENDBRANCH  10  11
ENDBRANCH   9  10
ENDBRANCH   1   9
TORSDOF 10
ENDMDL
MODEL 3
REMARK VINA RESULT:    -3.553      1.331      1.770
REMARK INTER + INTRA:          -6.815
REMARK INTER:                  -5.871
REMARK INTRA:                  -0.944
REMARK UNBOUND:                -1.185
REMARK SMILES CCCCCCCCCCCC(=O)[O-]
REMARK SMILES IDX 7 1 8 2 9 3 10 4 11 5 12 6 13 7 14 8 6 9 5 10 4 11 3 12 2 13
REMARK SMILES IDX 1 14
REMARK H PARENT
REMARK Flexibility Score: inf
ROOT
ATOM      1  C   UNL     1      -2.836  -9.173 -16.306  1.00  0.00     0.000 C 
ENDROOT
BRANCH   1   2
ATOM      2  C   UNL     1      -2.172 -10.551 -16.196  1.00  0.00     0.000 C 
BRANCH   2   3
ATOM      3  C   UNL     1      -1.325 -10.655 -14.922  1.00  0.00     0.000 C 
BRANCH   3   4
ATOM      4  C   UNL     1      -1.304 -12.095 -14.390  1.00  0.00     0.006 C 
BRANCH   4   5
ATOM      5  C   UNL     1      -2.301 -13.001 -15.125  1.00  0.00     0.053 C 
BRANCH   5   6
ATOM      6  C   UNL     1      -1.732 -14.363 -15.380  1.00  0.00     0.041 C 
ATOM      7  O   UNL     1      -1.313 -15.065 -14.421  1.00  0.00    -0.550 OA
ATOM      8  O   UNL     1      -1.632 -14.844 -16.679  1.00  0.00    -0.550 OA
ENDBRANCH   5   6
ENDBRANCH   4   5
ENDBRANCH   3   4
ENDBRANCH   2   3
ENDBRANCH   1   2
BRANCH   1   9
ATOM      9  C   UNL     1      -4.336  -9.306 -16.595  1.00  0.00     0.000 C 
BRANCH   9  10
ATOM     10  C   UNL     1      -4.879 -10.643 -16.076  1.00  0.00    -0.000 C 
BRANCH  10  11
ATOM     11  C   UNL     1      -5.843 -11.278 -17.091  1.00  0.00    -0.000 C 
BRANCH  11  12
ATOM     12  C   UNL     1      -5.111 -12.180 -18.106  1.00  0.00    -0.000 C 
BRANCH  12  13
ATOM     13  C   UNL     1      -5.471 -13.670 -17.979  1.00  0.00    -0.003 C 
ATOM     14  C   UNL     1      -4.592 -14.573 -18.841  1.00  0.00     0.004 C 
ENDBRANCH  12  13
ENDBRANCH  11  12
ENDBRANCH  10  11
ENDBRANCH   9  10
ENDBRANCH   1   9
TORSDOF 10
ENDMDL
MODEL 4
REMARK VINA RESULT:    -3.523     15.503     17.245
REMARK INTER + INTRA:          -6.767
REMARK INTER:                  -5.950
REMARK INTRA:                  -0.817
REMARK UNBOUND:                -1.185
REMARK SMILES CCCCCCCCCCCC(=O)[O-]
REMARK SMILES IDX 7 1 8 2 9 3 10 4 11 5 12 6 13 7 14 8 6 9 5 10 4 11 3 12 2 13
REMARK SMILES IDX 1 14
REMARK H PARENT
REMARK Flexibility Score: inf
ROOT
ATOM      1  C   UNL     1      -1.237  -3.559 -27.926  1.00  0.00     0.000 C 
ENDROOT
BRANCH   1   2
ATOM      2  C   UNL     1      -2.131  -3.521 -26.680  1.00  0.00     0.000 C 
BRANCH   2   3
ATOM      3  C   UNL     1      -3.391  -4.370 -26.880  1.00  0.00     0.000 C 
BRANCH   3   4
ATOM      4  C   UNL     1      -4.595  -3.749 -26.157  1.00  0.00     0.006 C 
BRANCH   4   5
ATOM      5  C   UNL     1      -5.049  -2.436 -26.806  1.00  0.00     0.053 C 
BRANCH   5   6
ATOM      6  C   UNL     1      -4.940  -1.280 -25.859  1.00  0.00     0.041 C 
ATOM      7  O   UNL     1      -4.512  -1.459 -24.688  1.00  0.00    -0.550 OA
ATOM      8  O   UNL     1      -5.343  -0.012 -26.258  1.00  0.00    -0.550 OA
ENDBRANCH   5   6
ENDBRANCH   4   5
ENDBRANCH   3   4
ENDBRANCH   2   3
ENDBRANCH   1   2
BRANCH   1   9
ATOM      9  C   UNL     1      -0.773  -2.150 -28.313  1.00  0.00     0.000 C 
BRANCH   9  10
ATOM     10  C   UNL     1      -1.882  -1.119 -28.069  1.00  0.00    -0.000 C 
BRANCH  10  11
ATOM     11  C   UNL     1      -1.800   0.031 -29.086  1.00  0.00    -0.000 C 
BRANCH  11  12
ATOM     12  C   UNL     1      -0.610  -0.131 -30.055  1.00  0.00    -0.000 C 
BRANCH  12  13
ATOM     13  C   UNL     1      -0.333   1.120 -30.904  1.00  0.00    -0.003 C 
ATOM     14  C   UNL     1      -1.586   1.676 -31.577  1.00  0.00     0.004 C 
ENDBRANCH  12  13
ENDBRANCH  11  12
ENDBRANCH  10  11
ENDBRANCH   9  10
ENDBRANCH   1   9
TORSDOF 10
ENDMDL
MODEL 5
REMARK VINA RESULT:    -3.516     14.644     16.472
REMARK INTER + INTRA:          -6.756
REMARK INTER:                  -5.682
REMARK INTRA:                  -1.074
REMARK UNBOUND:                -1.185
REMARK SMILES CCCCCCCCCCCC(=O)[O-]
REMARK SMILES IDX 7 1 8 2 9 3 10 4 11 5 12 6 13 7 14 8 6 9 5 10 4 11 3 12 2 13
REMARK SMILES IDX 1 14
REMARK H PARENT
REMARK Flexibility Score: inf
ROOT
ATOM      1  C   UNL     1      -1.359  -3.857 -27.395  1.00  0.00     0.000 C 
ENDROOT
BRANCH   1   2
ATOM      2  C   UNL     1      -2.267  -4.977 -26.870  1.00  0.00     0.000 C 
BRANCH   2   3
ATOM      3  C   UNL     1      -3.695  -4.469 -26.646  1.00  0.00     0.000 C 
BRANCH   3   4
ATOM      4  C   UNL     1      -3.860  -3.036 -27.174  1.00  0.00     0.006 C 
BRANCH   4   5
ATOM      5  C   UNL     1      -5.174  -2.394 -26.711  1.00  0.00     0.053 C 
BRANCH   5   6
ATOM      6  C   UNL     1      -4.942  -1.330 -25.682  1.00  0.00     0.041 C 
ATOM      7  O   UNL     1      -4.479  -1.633 -24.550  1.00  0.00    -0.550 OA
ATOM      8  O   UNL     1      -5.270  -0.010 -25.960  1.00  0.00    -0.550 OA
ENDBRANCH   5   6
ENDBRANCH   4   5
ENDBRANCH   3   4
ENDBRANCH   2   3
ENDBRANCH   1   2
BRANCH   1   9
ATOM      9  C   UNL     1      -0.198  -4.430 -28.216  1.00  0.00     0.000 C 
BRANCH   9  10
ATOM     10  C   UNL     1       0.549  -3.317 -28.963  1.00  0.00    -0.000 C 
BRANCH  10  11
ATOM     11  C   UNL     1       0.264  -1.944 -28.335  1.00  0.00    -0.000 C 
BRANCH  11  12
ATOM     12  C   UNL     1      -0.290  -0.936 -29.363  1.00  0.00    -0.000 C 
BRANCH  12  13
ATOM     13  C   UNL     1      -1.696  -0.416 -29.020  1.00  0.00    -0.003 C 
ATOM     14  C   UNL     1      -1.859  -0.064 -27.543  1.00  0.00     0.004 C 
ENDBRANCH  12  13
ENDBRANCH  11  12
ENDBRANCH  10  11
ENDBRANCH   9  10
ENDBRANCH   1   9
TORSDOF 10
ENDMDL
MODEL 6
REMARK VINA RESULT:    -3.407      2.531      4.628
REMARK INTER + INTRA:          -6.584
REMARK INTER:                  -5.417
REMARK INTRA:                  -1.166
REMARK UNBOUND:                -1.185
REMARK SMILES CCCCCCCCCCCC(=O)[O-]
REMARK SMILES IDX 7 1 8 2 9 3 10 4 11 5 12 6 13 7 14 8 6 9 5 10 4 11 3 12 2 13
REMARK SMILES IDX 1 14
REMARK H PARENT
REMARK Flexibility Score: inf
ROOT
ATOM      1  C   UNL     1      -2.659  -9.157 -17.426  1.00  0.00     0.000 C 
ENDROOT
BRANCH   1   2
ATOM      2  C   UNL     1      -3.724 -10.214 -17.745  1.00  0.00     0.000 C 
BRANCH   2   3
ATOM      3  C   UNL     1      -4.649 -10.445 -16.545  1.00  0.00     0.000 C 
BRANCH   3   4
ATOM      4  C   UNL     1      -5.519 -11.694 -16.752  1.00  0.00     0.006 C 
BRANCH   4   5
ATOM      5  C   UNL     1      -5.339 -12.303 -18.148  1.00  0.00     0.053 C 
BRANCH   5   6
ATOM      6  C   UNL     1      -5.355 -13.801 -18.109  1.00  0.00     0.041 C 
ATOM      7  O   UNL     1      -5.983 -14.404 -17.198  1.00  0.00    -0.550 OA
ATOM      8  O   UNL     1      -4.648 -14.530 -19.056  1.00  0.00    -0.550 OA
ENDBRANCH   5   6
ENDBRANCH   4   5
ENDBRANCH   3   4
ENDBRANCH   2   3
ENDBRANCH   1   2
BRANCH   1   9
ATOM      9  C   UNL     1      -2.387  -9.089 -15.918  1.00  0.00     0.000 C 
BRANCH   9  10
ATOM     10  C   UNL     1      -1.047  -9.752 -15.571  1.00  0.00    -0.000 C 
BRANCH  10  11
ATOM     11  C   UNL     1      -1.254 -10.959 -14.644  1.00  0.00    -0.000 C 
BRANCH  11  12
ATOM     12  C   UNL     1      -1.345 -12.287 -15.425  1.00  0.00    -0.000 C 
BRANCH  12  13
ATOM     13  C   UNL     1      -2.555 -13.151 -15.034  1.00  0.00    -0.003 C 
ATOM     14  C   UNL     1      -2.186 -14.318 -14.121  1.00  0.00     0.004 C 
ENDBRANCH  12  13
ENDBRANCH  11  12
ENDBRANCH  10  11
ENDBRANCH   9  10
ENDBRANCH   1   9
TORSDOF 10
ENDMDL
MODEL 7
REMARK VINA RESULT:    -3.407     17.787     18.837
REMARK INTER + INTRA:          -6.583
REMARK INTER:                  -5.672
REMARK INTRA:                  -0.912
REMARK UNBOUND:                -1.185
REMARK SMILES CCCCCCCCCCCC(=O)[O-]
REMARK SMILES IDX 7 1 8 2 9 3 10 4 11 5 12 6 13 7 14 8 6 9 5 10 4 11 3 12 2 13
REMARK SMILES IDX 1 14
REMARK H PARENT
REMARK Flexibility Score: inf
ROOT
ATOM      1  C   UNL     1      11.356  -2.613 -22.716  1.00  0.00     0.000 C 
ENDROOT
BRANCH   1   2
ATOM      2  C   UNL     1      12.672  -3.304 -22.337  1.00  0.00     0.000 C 
BRANCH   2   3
ATOM      3  C   UNL     1      12.834  -4.631 -23.087  1.00  0.00     0.000 C 
BRANCH   3   4
ATOM      4  C   UNL     1      13.300  -5.746 -22.140  1.00  0.00     0.006 C 
BRANCH   4   5
ATOM      5  C   UNL     1      13.695  -5.209 -20.759  1.00  0.00     0.053 C 
BRANCH   5   6
ATOM      6  C   UNL     1      12.857  -5.804 -19.669  1.00  0.00     0.041 C 
ATOM      7  O   UNL     1      13.294  -5.855 -18.489  1.00  0.00    -0.550 OA
ATOM      8  O   UNL     1      11.607  -6.333 -19.963  1.00  0.00    -0.550 OA
ENDBRANCH   5   6
ENDBRANCH   4   5
ENDBRANCH   3   4
ENDBRANCH   2   3
ENDBRANCH   1   2
BRANCH   1   9
ATOM      9  C   UNL     1      10.361  -2.645 -21.549  1.00  0.00     0.000 C 
BRANCH   9  10
ATOM     10  C   UNL     1      11.091  -2.569 -20.202  1.00  0.00    -0.000 C 
BRANCH  10  11
ATOM     11  C   UNL     1      10.897  -1.193 -19.547  1.00  0.00    -0.000 C 
BRANCH  11  12
ATOM     12  C   UNL     1       9.796  -0.365 -20.242  1.00  0.00    -0.000 C 
BRANCH  12  13
ATOM     13  C   UNL     1       9.729   1.095 -19.766  1.00  0.00    -0.003 C 
ATOM     14  C   UNL     1      10.356   1.305 -18.389  1.00  0.00     0.004 C 
ENDBRANCH  12  13
ENDBRANCH  11  12
ENDBRANCH  10  11
ENDBRANCH   9  10
ENDBRANCH   1   9
TORSDOF 10
ENDMDL
MODEL 8
REMARK VINA RESULT:    -3.373     14.182     16.073
REMARK INTER + INTRA:          -6.529
REMARK INTER:                  -5.437
REMARK INTRA:                  -1.092
REMARK UNBOUND:                -1.185
REMARK SMILES CCCCCCCCCCCC(=O)[O-]
REMARK SMILES IDX 7 1 8 2 9 3 10 4 11 5 12 6 13 7 14 8 6 9 5 10 4 11 3 12 2 13
REMARK SMILES IDX 1 14
REMARK H PARENT
REMARK Flexibility Score: inf
ROOT
ATOM      1  C   UNL     1      -3.360  -4.377 -25.459  1.00  0.00     0.000 C 
ENDROOT
BRANCH   1   2
ATOM      2  C   UNL     1      -4.215  -4.509 -26.726  1.00  0.00     0.000 C 
BRANCH   2   3
ATOM      3  C   UNL     1      -5.111  -3.281 -26.917  1.00  0.00     0.000 C 
BRANCH   3   4
ATOM      4  C   UNL     1      -4.994  -2.322 -25.724  1.00  0.00     0.006 C 
BRANCH   4   5
ATOM      5  C   UNL     1      -4.927  -0.853 -26.162  1.00  0.00     0.053 C 
BRANCH   5   6
ATOM      6  C   UNL     1      -4.093  -0.031 -25.228  1.00  0.00     0.041 C 
ATOM      7  O   UNL     1      -4.624   0.531 -24.233  1.00  0.00    -0.550 OA
ATOM      8  O   UNL     1      -2.738   0.144 -25.474  1.00  0.00    -0.550 OA
ENDBRANCH   5   6
ENDBRANCH   4   5
ENDBRANCH   3   4
ENDBRANCH   2   3
ENDBRANCH   1   2
BRANCH   1   9
ATOM      9  C   UNL     1      -1.867  -4.486 -25.789  1.00  0.00     0.000 C 
BRANCH   9  10
ATOM     10  C   UNL     1      -1.647  -4.658 -27.297  1.00  0.00    -0.000 C 
BRANCH  10  11
ATOM     11  C   UNL     1      -0.810  -3.503 -27.868  1.00  0.00    -0.000 C 
BRANCH  11  12
ATOM     12  C   UNL     1      -1.612  -2.188 -27.956  1.00  0.00    -0.000 C 
BRANCH  12  13
ATOM     13  C   UNL     1      -0.983  -1.143 -28.892  1.00  0.00    -0.003 C 
ATOM     14  C   UNL     1      -1.753   0.175 -28.922  1.00  0.00     0.004 C 
ENDBRANCH  12  13
ENDBRANCH  11  12
ENDBRANCH  10  11
ENDBRANCH   9  10
ENDBRANCH   1   9
TORSDOF 10
ENDMDL
MODEL 9
REMARK VINA RESULT:    -3.333     15.134     16.813
REMARK INTER + INTRA:          -6.466
REMARK INTER:                  -5.806
REMARK INTRA:                  -0.661
REMARK UNBOUND:                -1.185
REMARK SMILES CCCCCCCCCCCC(=O)[O-]
REMARK SMILES IDX 7 1 8 2 9 3 10 4 11 5 12 6 13 7 14 8 6 9 5 10 4 11 3 12 2 13
REMARK SMILES IDX 1 14
REMARK H PARENT
REMARK Flexibility Score: inf
ROOT
ATOM      1  C   UNL     1      -1.094  -2.222 -27.882  1.00  0.00     0.000 C 
ENDROOT
BRANCH   1   2
ATOM      2  C   UNL     1      -2.321  -2.971 -27.346  1.00  0.00     0.000 C 
BRANCH   2   3
ATOM      3  C   UNL     1      -3.540  -2.047 -27.267  1.00  0.00     0.000 C 
BRANCH   3   4
ATOM      4  C   UNL     1      -4.843  -2.857 -27.193  1.00  0.00     0.006 C 
BRANCH   4   5
ATOM      5  C   UNL     1      -4.647  -4.210 -26.496  1.00  0.00     0.053 C 
BRANCH   5   6
ATOM      6  C   UNL     1      -5.076  -4.164 -25.061  1.00  0.00     0.041 C 
ATOM      7  O   UNL     1      -6.116  -4.771 -24.691  1.00  0.00    -0.550 OA
ATOM      8  O   UNL     1      -4.348  -3.422 -24.140  1.00  0.00    -0.550 OA
ENDBRANCH   5   6
ENDBRANCH   4   5
ENDBRANCH   3   4
ENDBRANCH   2   3
ENDBRANCH   1   2
BRANCH   1   9
ATOM      9  C   UNL     1      -0.157  -3.171 -28.637  1.00  0.00     0.000 C 
BRANCH   9  10
ATOM     10  C   UNL     1       0.820  -2.389 -29.525  1.00  0.00    -0.000 C 
BRANCH  10  11
ATOM     11  C   UNL     1       0.308  -0.964 -29.787  1.00  0.00    -0.000 C 
BRANCH  11  12
ATOM     12  C   UNL     1       0.241  -0.636 -31.293  1.00  0.00    -0.000 C 
BRANCH  12  13
ATOM     13  C   UNL     1      -0.680   0.550 -31.625  1.00  0.00    -0.003 C 
ATOM     14  C   UNL     1      -1.985   0.534 -30.834  1.00  0.00     0.004 C 
ENDBRANCH  12  13
ENDBRANCH  11  12
ENDBRANCH  10  11
ENDBRANCH   9  10
ENDBRANCH   1   9
TORSDOF 10
ENDMDL
