MODEL 1
REMARK VINA RESULT:    -4.093      0.000      0.000
REMARK INTER + INTRA:          -9.534
REMARK INTER:                  -7.443
REMARK INTRA:                  -2.091
REMARK UNBOUND:                -2.091
REMARK SMILES CCCCCCCCCCCCCCCC(=O)[O-]
REMARK SMILES IDX 9 1 10 2 11 3 12 4 13 5 14 6 15 7 16 8 17 9 18 10 8 11 7 12
REMARK SMILES IDX 6 13 5 14 4 15 3 16 2 17 1 18
REMARK H PARENT
REMARK Flexibility Score: inf
ROOT
ATOM      1  C   UNL     1     -23.237  -8.755  -3.955  1.00  0.00     0.000 C 
ENDROOT
BRANCH   1   2
ATOM      2  C   UNL     1     -22.112  -9.735  -3.587  1.00  0.00     0.000 C 
BRANCH   2   3
ATOM      3  C   UNL     1     -22.335 -11.099  -4.256  1.00  0.00     0.000 C 
BRANCH   3   4
ATOM      4  C   UNL     1     -21.314 -11.384  -5.370  1.00  0.00     0.000 C 
BRANCH   4   5
ATOM      5  C   UNL     1     -21.847 -11.023  -6.767  1.00  0.00     0.000 C 
BRANCH   5   6
ATOM      6  C   UNL     1     -20.896 -10.103  -7.555  1.00  0.00     0.006 C 
BRANCH   6   7
ATOM      7  C   UNL     1     -19.769  -9.493  -6.701  1.00  0.00     0.053 C 
BRANCH   7   8
ATOM      8  C   UNL     1     -18.409  -9.962  -7.118  1.00  0.00     0.041 C 
ATOM      9  O   UNL     1     -18.069  -9.931  -8.331  1.00  0.00    -0.550 OA
ATOM     10  O   UNL     1     -17.525 -10.463  -6.171  1.00  0.00    -0.550 OA
ENDBRANCH   7   8
ENDBRANCH   6   7
ENDBRANCH   5   6
ENDBRANCH   4   5
ENDBRANCH   3   4
ENDBRANCH   2   3
ENDBRANCH   1   2
BRANCH   1  11
ATOM     11  C   UNL     1     -24.400  -9.434  -4.696  1.00  0.00     0.000 C 
BRANCH  11  12
ATOM     12  C   UNL     1     -24.729  -8.747  -6.033  1.00  0.00    -0.000 C 
BRANCH  12  13
ATOM     13  C   UNL     1     -23.863  -7.501  -6.285  1.00  0.00    -0.000 C 
BRANCH  13  14
ATOM     14  C   UNL     1     -24.505  -6.522  -7.280  1.00  0.00    -0.000 C 
BRANCH  14  15
ATOM     15  C   UNL     1     -26.001  -6.343  -6.982  1.00  0.00    -0.000 C 
BRANCH  15  16
ATOM     16  C   UNL     1     -26.274  -5.283  -5.899  1.00  0.00    -0.000 C 
BRANCH  16  17
ATOM     17  C   UNL     1     -26.825  -5.841  -4.575  1.00  0.00    -0.003 C 
ATOM     18  C   UNL     1     -25.760  -5.952  -3.484  1.00  0.00     0.004 C 
ENDBRANCH  16  17
ENDBRANCH  15  16
ENDBRANCH  14  15
ENDBRANCH  13  14
ENDBRANCH  12  13
ENDBRANCH  11  12
ENDBRANCH   1  11
TORSDOF 14
ENDMDL
MODEL 2
REMARK VINA RESULT:    -4.035      3.666      6.929
REMARK INTER + INTRA:          -9.429
REMARK INTER:                  -7.443
REMARK INTRA:                  -1.986
REMARK UNBOUND:                -2.091
REMARK SMILES CCCCCCCCCCCCCCCC(=O)[O-]
REMARK SMILES IDX 9 1 10 2 11 3 12 4 13 5 14 6 15 7 16 8 17 9 18 10 8 11 7 12
REMARK SMILES IDX 6 13 5 14 4 15 3 16 2 17 1 18
REMARK H PARENT
REMARK Flexibility Score: inf
ROOT
ATOM      1  C   UNL     1     -23.531  -7.931  -6.733  1.00  0.00     0.000 C 
ENDROOT
BRANCH   1   2
ATOM      2  C   UNL     1     -24.470  -9.119  -6.472  1.00  0.00     0.000 C 
BRANCH   2   3
ATOM      3  C   UNL     1     -24.513  -9.463  -4.976  1.00  0.00     0.000 C 
BRANCH   3   4
ATOM      4  C   UNL     1     -23.844  -8.389  -4.104  1.00  0.00     0.000 C 
BRANCH   4   5
ATOM      5  C   UNL     1     -24.802  -7.798  -3.055  1.00  0.00     0.000 C 
BRANCH   5   6
ATOM      6  C   UNL     1     -25.840  -6.836  -3.661  1.00  0.00     0.006 C 
BRANCH   6   7
ATOM      7  C   UNL     1     -25.220  -5.643  -4.411  1.00  0.00     0.053 C 
BRANCH   7   8
ATOM      8  C   UNL     1     -26.153  -5.046  -5.421  1.00  0.00     0.041 C 
ATOM      9  O   UNL     1     -25.733  -4.197  -6.252  1.00  0.00    -0.550 OA
ATOM     10  O   UNL     1     -27.496  -5.403  -5.424  1.00  0.00    -0.550 OA
ENDBRANCH   7   8
ENDBRANCH   6   7
ENDBRANCH   5   6
ENDBRANCH   4   5
ENDBRANCH   3   4
ENDBRANCH   2   3
ENDBRANCH   1   2
BRANCH   1  11
ATOM     11  C   UNL     1     -22.327  -8.306  -7.612  1.00  0.00     0.000 C 
BRANCH  11  12
ATOM     12  C   UNL     1     -22.351  -9.781  -8.049  1.00  0.00    -0.000 C 
BRANCH  12  13
ATOM     13  C   UNL     1     -21.174 -10.587  -7.473  1.00  0.00    -0.000 C 
BRANCH  13  14
ATOM     14  C   UNL     1     -21.579 -11.454  -6.272  1.00  0.00    -0.000 C 
BRANCH  14  15
ATOM     15  C   UNL     1     -21.034 -10.864  -4.963  1.00  0.00    -0.000 C 
BRANCH  15  16
ATOM     16  C   UNL     1     -19.843  -9.914  -5.183  1.00  0.00    -0.000 C 
BRANCH  16  17
ATOM     17  C   UNL     1     -18.485 -10.458  -4.706  1.00  0.00    -0.003 C 
ATOM     18  C   UNL     1     -17.399 -10.380  -5.778  1.00  0.00     0.004 C 
ENDBRANCH  16  17
ENDBRANCH  15  16
ENDBRANCH  14  15
ENDBRANCH  13  14
ENDBRANCH  12  13
ENDBRANCH  11  12
ENDBRANCH   1  11
TORSDOF 14
ENDMDL
MODEL 3
REMARK VINA RESULT:    -4.014      1.199      2.639
REMARK INTER + INTRA:          -9.390
REMARK INTER:                  -7.627
REMARK INTRA:                  -1.762
REMARK UNBOUND:                -2.091
REMARK SMILES CCCCCCCCCCCCCCCC(=O)[O-]
REMARK SMILES IDX 9 1 10 2 11 3 12 4 13 5 14 6 15 7 16 8 17 9 18 10 8 11 7 12
REMARK SMILES IDX 6 13 5 14 4 15 3 16 2 17 1 18
REMARK H PARENT
REMARK Flexibility Score: inf
ROOT
ATOM      1  C   UNL     1     -23.299  -8.473  -6.940  1.00  0.00     0.000 C 
ENDROOT
BRANCH   1   2
ATOM      2  C   UNL     1     -22.624  -9.368  -7.991  1.00  0.00     0.000 C 
BRANCH   2   3
ATOM      3  C   UNL     1     -21.313  -9.954  -7.449  1.00  0.00     0.000 C 
BRANCH   3   4
ATOM      4  C   UNL     1     -21.491 -11.372  -6.880  1.00  0.00     0.000 C 
BRANCH   4   5
ATOM      5  C   UNL     1     -21.076 -11.472  -5.402  1.00  0.00     0.000 C 
BRANCH   5   6
ATOM      6  C   UNL     1     -20.013 -10.432  -5.003  1.00  0.00     0.006 C 
BRANCH   6   7
ATOM      7  C   UNL     1     -18.575 -10.983  -4.994  1.00  0.00     0.053 C 
BRANCH   7   8
ATOM      8  C   UNL     1     -17.639 -10.168  -5.834  1.00  0.00     0.041 C 
ATOM      9  O   UNL     1     -17.725 -10.193  -7.091  1.00  0.00    -0.550 OA
ATOM     10  O   UNL     1     -16.648  -9.404  -5.230  1.00  0.00    -0.550 OA
ENDBRANCH   7   8
ENDBRANCH   6   7
ENDBRANCH   5   6
ENDBRANCH   4   5
ENDBRANCH   3   4
ENDBRANCH   2   3
ENDBRANCH   1   2
BRANCH   1  11
ATOM     11  C   UNL     1     -24.472  -9.168  -6.230  1.00  0.00     0.000 C 
BRANCH  11  12
ATOM     12  C   UNL     1     -24.133  -9.566  -4.783  1.00  0.00    -0.000 C 
BRANCH  12  13
ATOM     13  C   UNL     1     -24.127  -8.361  -3.826  1.00  0.00    -0.000 C 
BRANCH  13  14
ATOM     14  C   UNL     1     -25.527  -7.768  -3.609  1.00  0.00    -0.000 C 
BRANCH  14  15
ATOM     15  C   UNL     1     -25.525  -6.253  -3.865  1.00  0.00    -0.000 C 
BRANCH  15  16
ATOM     16  C   UNL     1     -26.646  -5.805  -4.819  1.00  0.00    -0.000 C 
BRANCH  16  17
ATOM     17  C   UNL     1     -26.168  -5.347  -6.208  1.00  0.00    -0.003 C 
ATOM     18  C   UNL     1     -26.532  -6.330  -7.320  1.00  0.00     0.004 C 
ENDBRANCH  16  17
ENDBRANCH  15  16
ENDBRANCH  14  15
ENDBRANCH  13  14
ENDBRANCH  12  13
ENDBRANCH  11  12
ENDBRANCH   1  11
TORSDOF 14
ENDMDL
MODEL 4
REMARK VINA RESULT:    -4.008      1.809      3.380
REMARK INTER + INTRA:          -9.380
REMARK INTER:                  -7.775
REMARK INTRA:                  -1.605
REMARK UNBOUND:                -2.091
REMARK SMILES CCCCCCCCCCCCCCCC(=O)[O-]
REMARK SMILES IDX 9 1 10 2 11 3 12 4 13 5 14 6 15 7 16 8 17 9 18 10 8 11 7 12
REMARK SMILES IDX 6 13 5 14 4 15 3 16 2 17 1 18
REMARK H PARENT
REMARK Flexibility Score: inf
ROOT
ATOM      1  C   UNL     1     -23.914  -7.409  -6.564  1.00  0.00     0.000 C 
ENDROOT
BRANCH   1   2
ATOM      2  C   UNL     1     -24.800  -8.647  -6.360  1.00  0.00     0.000 C 
BRANCH   2   3
ATOM      3  C   UNL     1     -24.633  -9.212  -4.941  1.00  0.00     0.000 C 
BRANCH   3   4
ATOM      4  C   UNL     1     -23.173  -9.177  -4.461  1.00  0.00     0.000 C 
BRANCH   4   5
ATOM      5  C   UNL     1     -22.600 -10.583  -4.210  1.00  0.00     0.000 C 
BRANCH   5   6
ATOM      6  C   UNL     1     -21.304 -10.854  -4.996  1.00  0.00     0.006 C 
BRANCH   6   7
ATOM      7  C   UNL     1     -21.540 -11.401  -6.416  1.00  0.00     0.053 C 
BRANCH   7   8
ATOM      8  C   UNL     1     -21.183 -10.412  -7.484  1.00  0.00     0.041 C 
ATOM      9  O   UNL     1     -19.997 -10.003  -7.602  1.00  0.00    -0.550 OA
ATOM     10  O   UNL     1     -22.167  -9.917  -8.330  1.00  0.00    -0.550 OA
ENDBRANCH   7   8
ENDBRANCH   6   7
ENDBRANCH   5   6
ENDBRANCH   4   5
ENDBRANCH   3   4
ENDBRANCH   2   3
ENDBRANCH   1   2
BRANCH   1  11
ATOM     11  C   UNL     1     -24.725  -6.140  -6.870  1.00  0.00     0.000 C 
BRANCH  11  12
ATOM     12  C   UNL     1     -26.242  -6.364  -6.740  1.00  0.00    -0.000 C 
BRANCH  12  13
ATOM     13  C   UNL     1     -26.873  -5.501  -5.633  1.00  0.00    -0.000 C 
BRANCH  13  14
ATOM     14  C   UNL     1     -26.509  -5.987  -4.222  1.00  0.00    -0.000 C 
BRANCH  14  15
ATOM     15  C   UNL     1     -25.780  -4.887  -3.436  1.00  0.00    -0.000 C 
BRANCH  15  16
ATOM     16  C   UNL     1     -25.569  -3.602  -4.258  1.00  0.00    -0.000 C 
BRANCH  16  17
ATOM     17  C   UNL     1     -25.438  -2.316  -3.423  1.00  0.00    -0.003 C 
ATOM     18  C   UNL     1     -25.685  -2.543  -1.932  1.00  0.00     0.004 C 
ENDBRANCH  16  17
ENDBRANCH  15  16
ENDBRANCH  14  15
ENDBRANCH  13  14
ENDBRANCH  12  13
ENDBRANCH  11  12
ENDBRANCH   1  11
TORSDOF 14
ENDMDL
MODEL 5
REMARK VINA RESULT:    -3.981      1.516      3.013
REMARK INTER + INTRA:          -9.329
REMARK INTER:                  -7.240
REMARK INTRA:                  -2.090
REMARK UNBOUND:                -2.091
REMARK SMILES CCCCCCCCCCCCCCCC(=O)[O-]
REMARK SMILES IDX 9 1 10 2 11 3 12 4 13 5 14 6 15 7 16 8 17 9 18 10 8 11 7 12
REMARK SMILES IDX 6 13 5 14 4 15 3 16 2 17 1 18
REMARK H PARENT
REMARK Flexibility Score: inf
ROOT
ATOM      1  C   UNL     1     -24.388  -9.319  -5.021  1.00  0.00     0.000 C 
ENDROOT
BRANCH   1   2
ATOM      2  C   UNL     1     -24.510  -9.077  -6.534  1.00  0.00     0.000 C 
BRANCH   2   3
ATOM      3  C   UNL     1     -23.164  -8.635  -7.127  1.00  0.00     0.000 C 
BRANCH   3   4
ATOM      4  C   UNL     1     -22.544  -9.701  -8.044  1.00  0.00     0.000 C 
BRANCH   4   5
ATOM      5  C   UNL     1     -21.236 -10.280  -7.478  1.00  0.00     0.000 C 
BRANCH   5   6
ATOM      6  C   UNL     1     -21.469 -11.429  -6.479  1.00  0.00     0.006 C 
BRANCH   6   7
ATOM      7  C   UNL     1     -21.222 -11.037  -5.010  1.00  0.00     0.053 C 
BRANCH   7   8
ATOM      8  C   UNL     1     -19.921 -10.321  -4.814  1.00  0.00     0.041 C 
ATOM      9  O   UNL     1     -19.907  -9.111  -4.463  1.00  0.00    -0.550 OA
ATOM     10  O   UNL     1     -18.721 -10.980  -5.048  1.00  0.00    -0.550 OA
ENDBRANCH   7   8
ENDBRANCH   6   7
ENDBRANCH   5   6
ENDBRANCH   4   5
ENDBRANCH   3   4
ENDBRANCH   2   3
ENDBRANCH   1   2
BRANCH   1  11
ATOM     11  C   UNL     1     -23.702  -8.156  -4.285  1.00  0.00     0.000 C 
BRANCH  11  12
ATOM     12  C   UNL     1     -24.182  -8.014  -2.830  1.00  0.00    -0.000 C 
BRANCH  12  13
ATOM     13  C   UNL     1     -25.281  -6.949  -2.673  1.00  0.00    -0.000 C 
BRANCH  13  14
ATOM     14  C   UNL     1     -25.322  -5.961  -3.848  1.00  0.00    -0.000 C 
BRANCH  14  15
ATOM     15  C   UNL     1     -26.712  -5.946  -4.502  1.00  0.00    -0.000 C 
BRANCH  15  16
ATOM     16  C   UNL     1     -26.653  -5.805  -6.034  1.00  0.00    -0.000 C 
BRANCH  16  17
ATOM     17  C   UNL     1     -25.253  -5.518  -6.603  1.00  0.00    -0.003 C 
ATOM     18  C   UNL     1     -25.242  -5.381  -8.125  1.00  0.00     0.004 C 
ENDBRANCH  16  17
ENDBRANCH  15  16
ENDBRANCH  14  15
ENDBRANCH  13  14
ENDBRANCH  12  13
ENDBRANCH  11  12
ENDBRANCH   1  11
TORSDOF 14
ENDMDL
MODEL 6
REMARK VINA RESULT:    -3.974      3.474      6.853
REMARK INTER + INTRA:          -9.318
REMARK INTER:                  -7.174
REMARK INTRA:                  -2.144
REMARK UNBOUND:                -2.091
REMARK SMILES CCCCCCCCCCCCCCCC(=O)[O-]
REMARK SMILES IDX 9 1 10 2 11 3 12 4 13 5 14 6 15 7 16 8 17 9 18 10 8 11 7 12
REMARK SMILES IDX 6 13 5 14 4 15 3 16 2 17 1 18
REMARK H PARENT
REMARK Flexibility Score: inf
ROOT
ATOM      1  C   UNL     1     -24.457  -8.676  -4.972  1.00  0.00     0.000 C 
ENDROOT
BRANCH   1   2
ATOM      2  C   UNL     1     -23.505  -7.627  -5.567  1.00  0.00     0.000 C 
BRANCH   2   3
ATOM      3  C   UNL     1     -24.156  -6.910  -6.758  1.00  0.00     0.000 C 
BRANCH   3   4
ATOM      4  C   UNL     1     -25.692  -6.960  -6.710  1.00  0.00     0.000 C 
BRANCH   4   5
ATOM      5  C   UNL     1     -26.326  -5.562  -6.612  1.00  0.00     0.000 C 
BRANCH   5   6
ATOM      6  C   UNL     1     -27.230  -5.396  -5.376  1.00  0.00     0.006 C 
BRANCH   6   7
ATOM      7  C   UNL     1     -26.599  -5.908  -4.069  1.00  0.00     0.053 C 
BRANCH   7   8
ATOM      8  C   UNL     1     -25.536  -4.992  -3.542  1.00  0.00     0.041 C 
ATOM      9  O   UNL     1     -24.546  -5.459  -2.918  1.00  0.00    -0.550 OA
ATOM     10  O   UNL     1     -25.653  -3.618  -3.713  1.00  0.00    -0.550 OA
ENDBRANCH   7   8
ENDBRANCH   6   7
ENDBRANCH   5   6
ENDBRANCH   4   5
ENDBRANCH   3   4
ENDBRANCH   2   3
ENDBRANCH   1   2
BRANCH   1  11
ATOM     11  C   UNL     1     -23.715  -9.856  -4.324  1.00  0.00     0.000 C 
BRANCH  11  12
ATOM     12  C   UNL     1     -22.331  -9.456  -3.782  1.00  0.00    -0.000 C 
BRANCH  12  13
ATOM     13  C   UNL     1     -21.202 -10.342  -4.335  1.00  0.00    -0.000 C 
BRANCH  13  14
ATOM     14  C   UNL     1     -21.727 -11.526  -5.161  1.00  0.00    -0.000 C 
BRANCH  14  15
ATOM     15  C   UNL     1     -21.222 -11.449  -6.610  1.00  0.00    -0.000 C 
BRANCH  15  16
ATOM     16  C   UNL     1     -20.393 -10.182  -6.890  1.00  0.00    -0.000 C 
BRANCH  16  17
ATOM     17  C   UNL     1     -20.999  -9.233  -7.939  1.00  0.00    -0.003 C 
ATOM     18  C   UNL     1     -22.389  -9.665  -8.404  1.00  0.00     0.004 C 
ENDBRANCH  16  17
ENDBRANCH  15  16
ENDBRANCH  14  15
ENDBRANCH  13  14
ENDBRANCH  12  13
ENDBRANCH  11  12
ENDBRANCH   1  11
TORSDOF 14
ENDMDL
MODEL 7
REMARK VINA RESULT:    -3.968      3.500      6.501
REMARK INTER + INTRA:          -9.306
REMARK INTER:                  -6.961
REMARK INTRA:                  -2.345
REMARK UNBOUND:                -2.091
REMARK SMILES CCCCCCCCCCCCCCCC(=O)[O-]
REMARK SMILES IDX 9 1 10 2 11 3 12 4 13 5 14 6 15 7 16 8 17 9 18 10 8 11 7 12
REMARK SMILES IDX 6 13 5 14 4 15 3 16 2 17 1 18
REMARK H PARENT
REMARK Flexibility Score: inf
ROOT
ATOM      1  C   UNL     1     -22.021 -11.395  -5.188  1.00  0.00     0.000 C 
ENDROOT
BRANCH   1   2
ATOM      2  C   UNL     1     -21.524 -10.274  -4.263  1.00  0.00     0.000 C 
BRANCH   2   3
ATOM      3  C   UNL     1     -22.647  -9.267  -3.970  1.00  0.00     0.000 C 
BRANCH   3   4
ATOM      4  C   UNL     1     -24.014  -9.741  -4.491  1.00  0.00     0.000 C 
BRANCH   4   5
ATOM      5  C   UNL     1     -24.892  -8.579  -4.987  1.00  0.00     0.000 C 
BRANCH   5   6
ATOM      6  C   UNL     1     -24.401  -7.979  -6.318  1.00  0.00     0.006 C 
BRANCH   6   7
ATOM      7  C   UNL     1     -24.699  -6.477  -6.472  1.00  0.00     0.053 C 
BRANCH   7   8
ATOM      8  C   UNL     1     -26.167  -6.178  -6.503  1.00  0.00     0.041 C 
ATOM      9  O   UNL     1     -26.723  -5.616  -5.522  1.00  0.00    -0.550 OA
ATOM     10  O   UNL     1     -26.931  -6.551  -7.602  1.00  0.00    -0.550 OA
ENDBRANCH   7   8
ENDBRANCH   6   7
ENDBRANCH   5   6
ENDBRANCH   4   5
ENDBRANCH   3   4
ENDBRANCH   2   3
ENDBRANCH   1   2
BRANCH   1  11
ATOM     11  C   UNL     1     -21.313 -11.399  -6.552  1.00  0.00     0.000 C 
BRANCH  11  12
ATOM     12  C   UNL     1     -21.887 -10.348  -7.519  1.00  0.00    -0.000 C 
BRANCH  12  13
ATOM     13  C   UNL     1     -20.826  -9.343  -7.998  1.00  0.00    -0.000 C 
BRANCH  13  14
ATOM     14  C   UNL     1     -20.702  -8.124  -7.071  1.00  0.00    -0.000 C 
BRANCH  14  15
ATOM     15  C   UNL     1     -19.355  -8.133  -6.333  1.00  0.00    -0.000 C 
BRANCH  15  16
ATOM     16  C   UNL     1     -18.368  -9.171  -6.897  1.00  0.00    -0.000 C 
BRANCH  16  17
ATOM     17  C   UNL     1     -17.383  -9.752  -5.868  1.00  0.00    -0.003 C 
ATOM     18  C   UNL     1     -17.960 -10.933  -5.088  1.00  0.00     0.004 C 
ENDBRANCH  16  17
ENDBRANCH  15  16
ENDBRANCH  14  15
ENDBRANCH  13  14
ENDBRANCH  12  13
ENDBRANCH  11  12
ENDBRANCH   1  11
TORSDOF 14
ENDMDL
MODEL 8
REMARK VINA RESULT:    -3.958      2.374      3.655
REMARK INTER + INTRA:          -9.288
REMARK INTER:                  -7.195
REMARK INTRA:                  -2.094
REMARK UNBOUND:                -2.091
REMARK SMILES CCCCCCCCCCCCCCCC(=O)[O-]
REMARK SMILES IDX 9 1 10 2 11 3 12 4 13 5 14 6 15 7 16 8 17 9 18 10 8 11 7 12
REMARK SMILES IDX 6 13 5 14 4 15 3 16 2 17 1 18
REMARK H PARENT
REMARK Flexibility Score: inf
ROOT
ATOM      1  C   UNL     1     -21.208 -10.747  -4.794  1.00  0.00     0.000 C 
ENDROOT
BRANCH   1   2
ATOM      2  C   UNL     1     -20.006  -9.803  -4.948  1.00  0.00     0.000 C 
BRANCH   2   3
ATOM      3  C   UNL     1     -18.688 -10.550  -4.697  1.00  0.00     0.000 C 
BRANCH   3   4
ATOM      4  C   UNL     1     -17.719 -10.454  -5.887  1.00  0.00     0.000 C 
BRANCH   4   5
ATOM      5  C   UNL     1     -18.040  -9.271  -6.816  1.00  0.00     0.000 C 
BRANCH   5   6
ATOM      6  C   UNL     1     -18.057  -9.662  -8.305  1.00  0.00     0.006 C 
BRANCH   6   7
ATOM      7  C   UNL     1     -18.137  -8.460  -9.264  1.00  0.00     0.053 C 
BRANCH   7   8
ATOM      8  C   UNL     1     -17.242  -8.610 -10.457  1.00  0.00     0.041 C 
ATOM      9  O   UNL     1     -16.414  -7.707 -10.749  1.00  0.00    -0.550 OA
ATOM     10  O   UNL     1     -17.344  -9.735 -11.266  1.00  0.00    -0.550 OA
ENDBRANCH   7   8
ENDBRANCH   6   7
ENDBRANCH   5   6
ENDBRANCH   4   5
ENDBRANCH   3   4
ENDBRANCH   2   3
ENDBRANCH   1   2
BRANCH   1  11
ATOM     11  C   UNL     1     -21.403 -11.666  -6.010  1.00  0.00     0.000 C 
BRANCH  11  12
ATOM     12  C   UNL     1     -21.207 -10.927  -7.346  1.00  0.00    -0.000 C 
BRANCH  12  13
ATOM     13  C   UNL     1     -22.464 -10.158  -7.786  1.00  0.00    -0.000 C 
BRANCH  13  14
ATOM     14  C   UNL     1     -22.313  -8.637  -7.635  1.00  0.00    -0.000 C 
BRANCH  14  15
ATOM     15  C   UNL     1     -23.540  -8.030  -6.940  1.00  0.00    -0.000 C 
BRANCH  15  16
ATOM     16  C   UNL     1     -24.363  -9.071  -6.159  1.00  0.00    -0.000 C 
BRANCH  16  17
ATOM     17  C   UNL     1     -24.438  -8.829  -4.642  1.00  0.00    -0.003 C 
ATOM     18  C   UNL     1     -23.382  -7.844  -4.141  1.00  0.00     0.004 C 
ENDBRANCH  16  17
ENDBRANCH  15  16
ENDBRANCH  14  15
ENDBRANCH  13  14
ENDBRANCH  12  13
ENDBRANCH  11  12
ENDBRANCH   1  11
TORSDOF 14
ENDMDL
MODEL 9
REMARK VINA RESULT:    -3.880      1.870      3.869
REMARK INTER + INTRA:          -9.147
REMARK INTER:                  -7.189
REMARK INTRA:                  -1.958
REMARK UNBOUND:                -2.091
REMARK SMILES CCCCCCCCCCCCCCCC(=O)[O-]
REMARK SMILES IDX 9 1 10 2 11 3 12 4 13 5 14 6 15 7 16 8 17 9 18 10 8 11 7 12
REMARK SMILES IDX 6 13 5 14 4 15 3 16 2 17 1 18
REMARK H PARENT
REMARK Flexibility Score: inf
ROOT
ATOM      1  C   UNL     1     -24.576  -6.444  -7.139  1.00  0.00     0.000 C 
ENDROOT
BRANCH   1   2
ATOM      2  C   UNL     1     -23.744  -7.609  -6.580  1.00  0.00     0.000 C 
BRANCH   2   3
ATOM      3  C   UNL     1     -24.630  -8.833  -6.308  1.00  0.00     0.000 C 
BRANCH   3   4
ATOM      4  C   UNL     1     -24.454  -9.383  -4.883  1.00  0.00     0.000 C 
BRANCH   4   5
ATOM      5  C   UNL     1     -23.250  -8.763  -4.154  1.00  0.00     0.000 C 
BRANCH   5   6
ATOM      6  C   UNL     1     -22.232  -9.813  -3.671  1.00  0.00     0.006 C 
BRANCH   6   7
ATOM      7  C   UNL     1     -22.248 -11.118  -4.488  1.00  0.00     0.053 C 
BRANCH   7   8
ATOM      8  C   UNL     1     -21.324 -11.075  -5.667  1.00  0.00     0.041 C 
ATOM      9  O   UNL     1     -21.786 -11.102  -6.839  1.00  0.00    -0.550 OA
ATOM     10  O   UNL     1     -19.949 -11.035  -5.473  1.00  0.00    -0.550 OA
ENDBRANCH   7   8
ENDBRANCH   6   7
ENDBRANCH   5   6
ENDBRANCH   4   5
ENDBRANCH   3   4
ENDBRANCH   2   3
ENDBRANCH   1   2
BRANCH   1  11
ATOM     11  C   UNL     1     -26.064  -6.542  -6.765  1.00  0.00     0.000 C 
BRANCH  11  12
ATOM     12  C   UNL     1     -26.529  -5.368  -5.885  1.00  0.00    -0.000 C 
BRANCH  12  13
ATOM     13  C   UNL     1     -26.804  -5.793  -4.432  1.00  0.00    -0.000 C 
BRANCH  13  14
ATOM     14  C   UNL     1     -25.525  -5.874  -3.585  1.00  0.00    -0.000 C 
BRANCH  14  15
ATOM     15  C   UNL     1     -24.822  -4.511  -3.524  1.00  0.00    -0.000 C 
BRANCH  15  16
ATOM     16  C   UNL     1     -25.475  -3.543  -2.522  1.00  0.00    -0.000 C 
BRANCH  16  17
ATOM     17  C   UNL     1     -25.596  -2.089  -3.012  1.00  0.00    -0.003 C 
ATOM     18  C   UNL     1     -25.755  -1.981  -4.528  1.00  0.00     0.004 C 
ENDBRANCH  16  17
ENDBRANCH  15  16
ENDBRANCH  14  15
ENDBRANCH  13  14
ENDBRANCH  12  13
ENDBRANCH  11  12
ENDBRANCH   1  11
TORSDOF 14
ENDMDL
