MODEL 1
REMARK VINA RESULT:    -4.916      0.000      0.000
REMARK INTER + INTRA:         -12.949
REMARK INTER:                 -10.664
REMARK INTRA:                  -2.285
REMARK UNBOUND:                -2.285
REMARK SMILES CCCCCCCCCCCCCCCCCCCCCC(=O)[O-]
REMARK SMILES IDX 12 1 11 2 10 3 9 4 8 5 7 6 6 7 5 8 4 9 3 10 2 11 1 12 13 13
REMARK SMILES IDX 14 14 15 15 16 16 17 17 18 18 19 19 20 20 21 21 22 22 23 23
REMARK SMILES IDX 24 24
REMARK H PARENT
REMARK Flexibility Score: inf
ROOT
ATOM      1  C   UNL     1      11.701  -0.976   0.166  1.00  0.00     0.000 C 
ENDROOT
BRANCH   1   2
ATOM      2  C   UNL     1      11.358   0.372   0.820  1.00  0.00     0.000 C 
BRANCH   2   3
ATOM      3  C   UNL     1      10.877   0.214   2.271  1.00  0.00     0.000 C 
BRANCH   3   4
ATOM      4  C   UNL     1      11.944   0.644   3.295  1.00  0.00    -0.000 C 
BRANCH   4   5
ATOM      5  C   UNL     1      12.245  -0.462   4.329  1.00  0.00    -0.000 C 
BRANCH   5   6
ATOM      6  C   UNL     1      13.593  -1.177   4.108  1.00  0.00    -0.000 C 
BRANCH   6   7
ATOM      7  C   UNL     1      13.526  -2.429   3.216  1.00  0.00    -0.000 C 
BRANCH   7   8
ATOM      8  C   UNL     1      14.402  -2.312   1.958  1.00  0.00    -0.000 C 
BRANCH   8   9
ATOM      9  C   UNL     1      14.995  -0.904   1.833  1.00  0.00    -0.000 C 
BRANCH   9  10
ATOM     10  C   UNL     1      15.984  -0.826   0.663  1.00  0.00    -0.000 C 
BRANCH  10  11
ATOM     11  C   UNL     1      15.535   0.212  -0.370  1.00  0.00    -0.003 C 
ATOM     12  C   UNL     1      14.923  -0.459  -1.597  1.00  0.00     0.004 C 
ENDBRANCH  10  11
ENDBRANCH   9  10
ENDBRANCH   8   9
ENDBRANCH   7   8
ENDBRANCH   6   7
ENDBRANCH   5   6
ENDBRANCH   4   5
ENDBRANCH   3   4
ENDBRANCH   2   3
ENDBRANCH   1   2
BRANCH   1  13
ATOM     13  C   UNL     1      10.835  -2.104   0.746  1.00  0.00     0.000 C 
BRANCH  13  14
ATOM     14  C   UNL     1      10.969  -3.414  -0.048  1.00  0.00     0.000 C 
BRANCH  14  15
ATOM     15  C   UNL     1       9.623  -4.145  -0.199  1.00  0.00     0.000 C 
BRANCH  15  16
ATOM     16  C   UNL     1       9.782  -5.598  -0.675  1.00  0.00     0.000 C 
BRANCH  16  17
ATOM     17  C   UNL     1       8.851  -5.945  -1.850  1.00  0.00     0.000 C 
BRANCH  17  18
ATOM     18  C   UNL     1       7.675  -4.960  -1.994  1.00  0.00     0.000 C 
BRANCH  18  19
ATOM     19  C   UNL     1       7.121  -4.802  -3.423  1.00  0.00     0.000 C 
BRANCH  19  20
ATOM     20  C   UNL     1       5.733  -4.141  -3.460  1.00  0.00     0.006 C 
BRANCH  20  21
ATOM     21  C   UNL     1       4.916  -4.578  -4.684  1.00  0.00     0.053 C 
BRANCH  21  22
ATOM     22  C   UNL     1       4.057  -5.767  -4.387  1.00  0.00     0.041 C 
ATOM     23  O   UNL     1       4.395  -6.909  -4.794  1.00  0.00    -0.550 OA
ATOM     24  O   UNL     1       2.880  -5.613  -3.663  1.00  0.00    -0.550 OA
ENDBRANCH  21  22
ENDBRANCH  20  21
ENDBRANCH  19  20
ENDBRANCH  18  19
ENDBRANCH  17  18
ENDBRANCH  16  17
ENDBRANCH  15  16
ENDBRANCH  14  15
ENDBRANCH  13  14
ENDBRANCH   1  13
TORSDOF 20
ENDMDL
MODEL 2
REMARK VINA RESULT:    -4.884      2.369      2.882
REMARK INTER + INTRA:         -12.878
REMARK INTER:                 -10.369
REMARK INTRA:                  -2.509
REMARK UNBOUND:                -2.285
REMARK SMILES CCCCCCCCCCCCCCCCCCCCCC(=O)[O-]
REMARK SMILES IDX 12 1 11 2 10 3 9 4 8 5 7 6 6 7 5 8 4 9 3 10 2 11 1 12 13 13
REMARK SMILES IDX 14 14 15 15 16 16 17 17 18 18 19 19 20 20 21 21 22 22 23 23
REMARK SMILES IDX 24 24
REMARK H PARENT
REMARK Flexibility Score: inf
ROOT
ATOM      1  C   UNL     1      10.928  -1.820   0.607  1.00  0.00     0.000 C 
ENDROOT
BRANCH   1   2
ATOM      2  C   UNL     1      11.577  -0.516   0.118  1.00  0.00     0.000 C 
BRANCH   2   3
ATOM      3  C   UNL     1      11.536   0.595   1.180  1.00  0.00     0.000 C 
BRANCH   3   4
ATOM      4  C   UNL     1      10.607   0.248   2.359  1.00  0.00    -0.000 C 
BRANCH   4   5
ATOM      5  C   UNL     1      11.253   0.556   3.726  1.00  0.00    -0.000 C 
BRANCH   5   6
ATOM      6  C   UNL     1      12.712   0.072   3.853  1.00  0.00    -0.000 C 
BRANCH   6   7
ATOM      7  C   UNL     1      12.882  -1.453   3.972  1.00  0.00    -0.000 C 
BRANCH   7   8
ATOM      8  C   UNL     1      14.054  -1.989   3.133  1.00  0.00    -0.000 C 
BRANCH   8   9
ATOM      9  C   UNL     1      14.761  -0.850   2.390  1.00  0.00    -0.000 C 
BRANCH   9  10
ATOM     10  C   UNL     1      15.144  -1.277   0.967  1.00  0.00    -0.000 C 
BRANCH  10  11
ATOM     11  C   UNL     1      15.185  -0.072   0.022  1.00  0.00    -0.003 C 
ATOM     12  C   UNL     1      15.071  -0.510  -1.435  1.00  0.00     0.004 C 
ENDBRANCH  10  11
ENDBRANCH   9  10
ENDBRANCH   8   9
ENDBRANCH   7   8
ENDBRANCH   6   7
ENDBRANCH   5   6
ENDBRANCH   4   5
ENDBRANCH   3   4
ENDBRANCH   2   3
ENDBRANCH   1   2
BRANCH   1  13
ATOM     13  C   UNL     1      11.914  -2.994   0.507  1.00  0.00     0.000 C 
BRANCH  13  14
ATOM     14  C   UNL     1      11.330  -4.186  -0.270  1.00  0.00     0.000 C 
BRANCH  14  15
ATOM     15  C   UNL     1       9.790  -4.188  -0.263  1.00  0.00     0.000 C 
BRANCH  15  16
ATOM     16  C   UNL     1       9.190  -5.377  -1.031  1.00  0.00     0.000 C 
BRANCH  16  17
ATOM     17  C   UNL     1       7.959  -4.985  -1.867  1.00  0.00     0.000 C 
BRANCH  17  18
ATOM     18  C   UNL     1       7.982  -5.586  -3.286  1.00  0.00     0.000 C 
BRANCH  18  19
ATOM     19  C   UNL     1       7.419  -4.676  -4.394  1.00  0.00     0.000 C 
BRANCH  19  20
ATOM     20  C   UNL     1       8.300  -4.649  -5.655  1.00  0.00     0.006 C 
BRANCH  20  21
ATOM     21  C   UNL     1       8.190  -5.948  -6.465  1.00  0.00     0.053 C 
BRANCH  21  22
ATOM     22  C   UNL     1       9.516  -6.384  -7.005  1.00  0.00     0.041 C 
ATOM     23  O   UNL     1      10.531  -5.654  -6.857  1.00  0.00    -0.550 OA
ATOM     24  O   UNL     1       9.631  -7.595  -7.677  1.00  0.00    -0.550 OA
ENDBRANCH  21  22
ENDBRANCH  20  21
ENDBRANCH  19  20
ENDBRANCH  18  19
ENDBRANCH  17  18
ENDBRANCH  16  17
ENDBRANCH  15  16
ENDBRANCH  14  15
ENDBRANCH  13  14
ENDBRANCH   1  13
TORSDOF 20
ENDMDL
MODEL 3
REMARK VINA RESULT:    -4.780      1.544      1.875
REMARK INTER + INTRA:         -12.652
REMARK INTER:                 -10.375
REMARK INTRA:                  -2.278
REMARK UNBOUND:                -2.285
REMARK SMILES CCCCCCCCCCCCCCCCCCCCCC(=O)[O-]
REMARK SMILES IDX 12 1 11 2 10 3 9 4 8 5 7 6 6 7 5 8 4 9 3 10 2 11 1 12 13 13
REMARK SMILES IDX 14 14 15 15 16 16 17 17 18 18 19 19 20 20 21 21 22 22 23 23
REMARK SMILES IDX 24 24
REMARK H PARENT
REMARK Flexibility Score: inf
ROOT
ATOM      1  C   UNL     1      11.576  -0.403   0.301  1.00  0.00     0.000 C 
ENDROOT
BRANCH   1   2
ATOM      2  C   UNL     1      11.516   0.723   1.345  1.00  0.00     0.000 C 
BRANCH   2   3
ATOM      3  C   UNL     1      10.689   0.335   2.581  1.00  0.00     0.000 C 
BRANCH   3   4
ATOM      4  C   UNL     1      11.268   0.918   3.883  1.00  0.00    -0.000 C 
BRANCH   4   5
ATOM      5  C   UNL     1      12.638   0.306   4.244  1.00  0.00    -0.000 C 
BRANCH   5   6
ATOM      6  C   UNL     1      12.693  -1.229   4.110  1.00  0.00    -0.000 C 
BRANCH   6   7
ATOM      7  C   UNL     1      13.830  -1.763   3.221  1.00  0.00    -0.000 C 
BRANCH   7   8
ATOM      8  C   UNL     1      15.030  -0.805   3.148  1.00  0.00    -0.000 C 
BRANCH   8   9
ATOM      9  C   UNL     1      15.116  -0.141   1.769  1.00  0.00    -0.000 C 
BRANCH   9  10
ATOM     10  C   UNL     1      15.163  -1.193   0.654  1.00  0.00    -0.000 C 
BRANCH  10  11
ATOM     11  C   UNL     1      15.809  -0.625  -0.613  1.00  0.00    -0.003 C 
ATOM     12  C   UNL     1      14.777  -0.435  -1.721  1.00  0.00     0.004 C 
ENDBRANCH  10  11
ENDBRANCH   9  10
ENDBRANCH   8   9
ENDBRANCH   7   8
ENDBRANCH   6   7
ENDBRANCH   5   6
ENDBRANCH   4   5
ENDBRANCH   3   4
ENDBRANCH   2   3
ENDBRANCH   1   2
BRANCH   1  13
ATOM     13  C   UNL     1      11.054  -1.723   0.888  1.00  0.00     0.000 C 
BRANCH  13  14
ATOM     14  C   UNL     1      11.589  -2.953   0.134  1.00  0.00     0.000 C 
BRANCH  14  15
ATOM     15  C   UNL     1      10.463  -3.912  -0.290  1.00  0.00     0.000 C 
BRANCH  15  16
ATOM     16  C   UNL     1      10.978  -5.311  -0.666  1.00  0.00     0.000 C 
BRANCH  16  17
ATOM     17  C   UNL     1       9.907  -6.403  -0.509  1.00  0.00     0.000 C 
BRANCH  17  18
ATOM     18  C   UNL     1       9.273  -6.821  -1.851  1.00  0.00     0.000 C 
BRANCH  18  19
ATOM     19  C   UNL     1       8.313  -5.790  -2.474  1.00  0.00     0.000 C 
BRANCH  19  20
ATOM     20  C   UNL     1       7.591  -6.320  -3.723  1.00  0.00     0.006 C 
BRANCH  20  21
ATOM     21  C   UNL     1       8.092  -5.649  -5.009  1.00  0.00     0.053 C 
BRANCH  21  22
ATOM     22  C   UNL     1       6.969  -5.324  -5.945  1.00  0.00     0.041 C 
ATOM     23  O   UNL     1       7.197  -5.152  -7.171  1.00  0.00    -0.550 OA
ATOM     24  O   UNL     1       5.671  -5.208  -5.461  1.00  0.00    -0.550 OA
ENDBRANCH  21  22
ENDBRANCH  20  21
ENDBRANCH  19  20
ENDBRANCH  18  19
ENDBRANCH  17  18
ENDBRANCH  16  17
ENDBRANCH  15  16
ENDBRANCH  14  15
ENDBRANCH  13  14
ENDBRANCH   1  13
TORSDOF 20
ENDMDL
MODEL 4
REMARK VINA RESULT:    -4.663      6.565      9.397
REMARK INTER + INTRA:         -12.399
REMARK INTER:                  -8.842
REMARK INTRA:                  -3.557
REMARK UNBOUND:                -2.285
REMARK SMILES CCCCCCCCCCCCCCCCCCCCCC(=O)[O-]
REMARK SMILES IDX 12 1 11 2 10 3 9 4 8 5 7 6 6 7 5 8 4 9 3 10 2 11 1 12 13 13
REMARK SMILES IDX 14 14 15 15 16 16 17 17 18 18 19 19 20 20 21 21 22 22 23 23
REMARK SMILES IDX 24 24
REMARK H PARENT
REMARK Flexibility Score: inf
ROOT
ATOM      1  C   UNL     1      11.434   0.949   3.656  1.00  0.00     0.000 C 
ENDROOT
BRANCH   1   2
ATOM      2  C   UNL     1      10.121   0.273   3.233  1.00  0.00     0.000 C 
BRANCH   2   3
ATOM      3  C   UNL     1      10.121  -0.136   1.751  1.00  0.00     0.000 C 
BRANCH   3   4
ATOM      4  C   UNL     1      10.404  -1.637   1.554  1.00  0.00    -0.000 C 
BRANCH   4   5
ATOM      5  C   UNL     1      11.793  -1.897   0.934  1.00  0.00    -0.000 C 
BRANCH   5   6
ATOM      6  C   UNL     1      12.264  -0.792  -0.034  1.00  0.00    -0.000 C 
BRANCH   6   7
ATOM      7  C   UNL     1      13.659  -0.218   0.265  1.00  0.00    -0.000 C 
BRANCH   7   8
ATOM      8  C   UNL     1      14.676  -0.511  -0.850  1.00  0.00    -0.000 C 
BRANCH   8   9
ATOM      9  C   UNL     1      16.107  -0.505  -0.300  1.00  0.00    -0.000 C 
BRANCH   9  10
ATOM     10  C   UNL     1      16.156   0.118   1.100  1.00  0.00    -0.000 C 
BRANCH  10  11
ATOM     11  C   UNL     1      17.433   0.942   1.292  1.00  0.00    -0.003 C 
ATOM     12  C   UNL     1      17.258   1.982   2.395  1.00  0.00     0.004 C 
ENDBRANCH  10  11
ENDBRANCH   9  10
ENDBRANCH   8   9
ENDBRANCH   7   8
ENDBRANCH   6   7
ENDBRANCH   5   6
ENDBRANCH   4   5
ENDBRANCH   3   4
ENDBRANCH   2   3
ENDBRANCH   1   2
BRANCH   1  13
ATOM     13  C   UNL     1      12.319  -0.021   4.454  1.00  0.00     0.000 C 
BRANCH  13  14
ATOM     14  C   UNL     1      13.755  -0.088   3.909  1.00  0.00     0.000 C 
BRANCH  14  15
ATOM     15  C   UNL     1      14.441  -1.427   4.236  1.00  0.00     0.000 C 
BRANCH  15  16
ATOM     16  C   UNL     1      13.868  -2.605   3.432  1.00  0.00     0.000 C 
BRANCH  16  17
ATOM     17  C   UNL     1      14.925  -3.294   2.551  1.00  0.00     0.000 C 
BRANCH  17  18
ATOM     18  C   UNL     1      16.355  -2.787   2.822  1.00  0.00     0.000 C 
BRANCH  18  19
ATOM     19  C   UNL     1      17.178  -3.639   3.807  1.00  0.00     0.000 C 
BRANCH  19  20
ATOM     20  C   UNL     1      18.133  -2.800   4.674  1.00  0.00     0.006 C 
BRANCH  20  21
ATOM     21  C   UNL     1      18.198  -1.338   4.212  1.00  0.00     0.053 C 
BRANCH  21  22
ATOM     22  C   UNL     1      18.088  -0.384   5.361  1.00  0.00     0.041 C 
ATOM     23  O   UNL     1      17.183  -0.534   6.223  1.00  0.00    -0.550 OA
ATOM     24  O   UNL     1      18.983   0.673   5.477  1.00  0.00    -0.550 OA
ENDBRANCH  21  22
ENDBRANCH  20  21
ENDBRANCH  19  20
ENDBRANCH  18  19
ENDBRANCH  17  18
ENDBRANCH  16  17
ENDBRANCH  15  16
ENDBRANCH  14  15
ENDBRANCH  13  14
ENDBRANCH   1  13
TORSDOF 20
ENDMDL
MODEL 5
REMARK VINA RESULT:    -4.634      6.504      8.595
REMARK INTER + INTRA:         -12.336
REMARK INTER:                  -9.057
REMARK INTRA:                  -3.280
REMARK UNBOUND:                -2.285
REMARK SMILES CCCCCCCCCCCCCCCCCCCCCC(=O)[O-]
REMARK SMILES IDX 12 1 11 2 10 3 9 4 8 5 7 6 6 7 5 8 4 9 3 10 2 11 1 12 13 13
REMARK SMILES IDX 14 14 15 15 16 16 17 17 18 18 19 19 20 20 21 21 22 22 23 23
REMARK SMILES IDX 24 24
REMARK H PARENT
REMARK Flexibility Score: inf
ROOT
ATOM      1  C   UNL     1      11.001   0.920   3.548  1.00  0.00     0.000 C 
ENDROOT
BRANCH   1   2
ATOM      2  C   UNL     1      10.464  -0.020   2.458  1.00  0.00     0.000 C 
BRANCH   2   3
ATOM      3  C   UNL     1      10.755   0.499   1.040  1.00  0.00     0.000 C 
BRANCH   3   4
ATOM      4  C   UNL     1      11.665  -0.452   0.241  1.00  0.00    -0.000 C 
BRANCH   4   5
ATOM      5  C   UNL     1      13.157  -0.078   0.364  1.00  0.00    -0.000 C 
BRANCH   5   6
ATOM      6  C   UNL     1      14.020  -0.543  -0.827  1.00  0.00    -0.000 C 
BRANCH   6   7
ATOM      7  C   UNL     1      15.528  -0.271  -0.682  1.00  0.00    -0.000 C 
BRANCH   7   8
ATOM      8  C   UNL     1      15.964  -0.092   0.781  1.00  0.00    -0.000 C 
BRANCH   8   9
ATOM      9  C   UNL     1      17.275   0.697   0.868  1.00  0.00    -0.000 C 
BRANCH   9  10
ATOM     10  C   UNL     1      18.136   0.204   2.038  1.00  0.00    -0.000 C 
BRANCH  10  11
ATOM     11  C   UNL     1      18.170   1.235   3.171  1.00  0.00    -0.003 C 
ATOM     12  C   UNL     1      17.474   2.529   2.761  1.00  0.00     0.004 C 
ENDBRANCH  10  11
ENDBRANCH   9  10
ENDBRANCH   8   9
ENDBRANCH   7   8
ENDBRANCH   6   7
ENDBRANCH   5   6
ENDBRANCH   4   5
ENDBRANCH   3   4
ENDBRANCH   2   3
ENDBRANCH   1   2
BRANCH   1  13
ATOM     13  C   UNL     1      11.998   0.189   4.460  1.00  0.00     0.000 C 
BRANCH  13  14
ATOM     14  C   UNL     1      13.437   0.246   3.920  1.00  0.00     0.000 C 
BRANCH  14  15
ATOM     15  C   UNL     1      14.094  -1.145   3.865  1.00  0.00     0.000 C 
BRANCH  15  16
ATOM     16  C   UNL     1      13.078  -2.279   3.650  1.00  0.00     0.000 C 
BRANCH  16  17
ATOM     17  C   UNL     1      13.411  -3.153   2.429  1.00  0.00     0.000 C 
BRANCH  17  18
ATOM     18  C   UNL     1      14.879  -3.023   1.980  1.00  0.00     0.000 C 
BRANCH  18  19
ATOM     19  C   UNL     1      15.653  -4.350   1.869  1.00  0.00     0.000 C 
BRANCH  19  20
ATOM     20  C   UNL     1      16.748  -4.498   2.939  1.00  0.00     0.006 C 
BRANCH  20  21
ATOM     21  C   UNL     1      16.937  -3.211   3.754  1.00  0.00     0.053 C 
BRANCH  21  22
ATOM     22  C   UNL     1      17.011  -3.486   5.224  1.00  0.00     0.041 C 
ATOM     23  O   UNL     1      16.241  -2.886   6.019  1.00  0.00    -0.550 OA
ATOM     24  O   UNL     1      17.934  -4.402   5.716  1.00  0.00    -0.550 OA
ENDBRANCH  21  22
ENDBRANCH  20  21
ENDBRANCH  19  20
ENDBRANCH  18  19
ENDBRANCH  17  18
ENDBRANCH  16  17
ENDBRANCH  15  16
ENDBRANCH  14  15
ENDBRANCH  13  14
ENDBRANCH   1  13
TORSDOF 20
ENDMDL
MODEL 6
REMARK VINA RESULT:    -4.602      3.822      5.107
REMARK INTER + INTRA:         -12.268
REMARK INTER:                  -9.180
REMARK INTRA:                  -3.087
REMARK UNBOUND:                -2.285
REMARK SMILES CCCCCCCCCCCCCCCCCCCCCC(=O)[O-]
REMARK SMILES IDX 12 1 11 2 10 3 9 4 8 5 7 6 6 7 5 8 4 9 3 10 2 11 1 12 13 13
REMARK SMILES IDX 14 14 15 15 16 16 17 17 18 18 19 19 20 20 21 21 22 22 23 23
REMARK SMILES IDX 24 24
REMARK H PARENT
REMARK Flexibility Score: inf
ROOT
ATOM      1  C   UNL     1      12.549   0.271   3.258  1.00  0.00     0.000 C 
ENDROOT
BRANCH   1   2
ATOM      2  C   UNL     1      13.163  -0.866   4.089  1.00  0.00     0.000 C 
BRANCH   2   3
ATOM      3  C   UNL     1      13.030  -2.235   3.402  1.00  0.00     0.000 C 
BRANCH   3   4
ATOM      4  C   UNL     1      14.396  -2.862   3.068  1.00  0.00    -0.000 C 
BRANCH   4   5
ATOM      5  C   UNL     1      15.490  -2.461   4.080  1.00  0.00    -0.000 C 
BRANCH   5   6
ATOM      6  C   UNL     1      16.914  -2.442   3.490  1.00  0.00    -0.000 C 
BRANCH   6   7
ATOM      7  C   UNL     1      17.590  -1.060   3.467  1.00  0.00    -0.000 C 
BRANCH   7   8
ATOM      8  C   UNL     1      16.637   0.062   3.024  1.00  0.00    -0.000 C 
BRANCH   8   9
ATOM      9  C   UNL     1      16.690   0.258   1.505  1.00  0.00    -0.000 C 
BRANCH   9  10
ATOM     10  C   UNL     1      15.311   0.034   0.874  1.00  0.00    -0.000 C 
BRANCH  10  11
ATOM     11  C   UNL     1      15.373  -1.032  -0.224  1.00  0.00    -0.003 C 
ATOM     12  C   UNL     1      15.129  -0.422  -1.601  1.00  0.00     0.004 C 
ENDBRANCH  10  11
ENDBRANCH   9  10
ENDBRANCH   8   9
ENDBRANCH   7   8
ENDBRANCH   6   7
ENDBRANCH   5   6
ENDBRANCH   4   5
ENDBRANCH   3   4
ENDBRANCH   2   3
ENDBRANCH   1   2
BRANCH   1  13
ATOM     13  C   UNL     1      11.020   0.138   3.191  1.00  0.00     0.000 C 
BRANCH  13  14
ATOM     14  C   UNL     1      10.503   0.038   1.746  1.00  0.00     0.000 C 
BRANCH  14  15
ATOM     15  C   UNL     1      11.646  -0.125   0.728  1.00  0.00     0.000 C 
BRANCH  15  16
ATOM     16  C   UNL     1      11.708  -1.536   0.120  1.00  0.00     0.000 C 
BRANCH  16  17
ATOM     17  C   UNL     1      10.572  -2.448   0.614  1.00  0.00     0.000 C 
BRANCH  17  18
ATOM     18  C   UNL     1      10.439  -3.743  -0.211  1.00  0.00     0.000 C 
BRANCH  18  19
ATOM     19  C   UNL     1      11.705  -4.620  -0.267  1.00  0.00     0.000 C 
BRANCH  19  20
ATOM     20  C   UNL     1      11.391  -6.121  -0.386  1.00  0.00     0.006 C 
BRANCH  20  21
ATOM     21  C   UNL     1      11.942  -6.725  -1.685  1.00  0.00     0.053 C 
BRANCH  21  22
ATOM     22  C   UNL     1      12.138  -8.205  -1.573  1.00  0.00     0.041 C 
ATOM     23  O   UNL     1      11.441  -8.990  -2.269  1.00  0.00    -0.550 OA
ATOM     24  O   UNL     1      13.087  -8.718  -0.697  1.00  0.00    -0.550 OA
ENDBRANCH  21  22
ENDBRANCH  20  21
ENDBRANCH  19  20
ENDBRANCH  18  19
ENDBRANCH  17  18
ENDBRANCH  16  17
ENDBRANCH  15  16
ENDBRANCH  14  15
ENDBRANCH  13  14
ENDBRANCH   1  13
TORSDOF 20
ENDMDL
MODEL 7
REMARK VINA RESULT:    -4.535      4.577      9.968
REMARK INTER + INTRA:         -12.121
REMARK INTER:                  -9.931
REMARK INTRA:                  -2.190
REMARK UNBOUND:                -2.285
REMARK SMILES CCCCCCCCCCCCCCCCCCCCCC(=O)[O-]
REMARK SMILES IDX 12 1 11 2 10 3 9 4 8 5 7 6 6 7 5 8 4 9 3 10 2 11 1 12 13 13
REMARK SMILES IDX 14 14 15 15 16 16 17 17 18 18 19 19 20 20 21 21 22 22 23 23
REMARK SMILES IDX 24 24
REMARK H PARENT
REMARK Flexibility Score: inf
ROOT
ATOM      1  C   UNL     1      11.707  -3.059   0.145  1.00  0.00     0.000 C 
ENDROOT
BRANCH   1   2
ATOM      2  C   UNL     1      10.711  -4.151  -0.274  1.00  0.00     0.000 C 
BRANCH   2   3
ATOM      3  C   UNL     1      11.397  -5.501  -0.541  1.00  0.00     0.000 C 
BRANCH   3   4
ATOM      4  C   UNL     1      10.549  -6.425  -1.436  1.00  0.00    -0.000 C 
BRANCH   4   5
ATOM      5  C   UNL     1       9.034  -6.226  -1.218  1.00  0.00    -0.000 C 
BRANCH   5   6
ATOM      6  C   UNL     1       8.179  -6.504  -2.471  1.00  0.00    -0.000 C 
BRANCH   6   7
ATOM      7  C   UNL     1       7.701  -5.250  -3.223  1.00  0.00    -0.000 C 
BRANCH   7   8
ATOM      8  C   UNL     1       7.032  -4.220  -2.299  1.00  0.00    -0.000 C 
BRANCH   8   9
ATOM      9  C   UNL     1       5.610  -3.901  -2.773  1.00  0.00    -0.000 C 
BRANCH   9  10
ATOM     10  C   UNL     1       5.391  -4.379  -4.214  1.00  0.00    -0.000 C 
BRANCH  10  11
ATOM     11  C   UNL     1       4.102  -5.198  -4.333  1.00  0.00    -0.003 C 
ATOM     12  C   UNL     1       4.405  -6.665  -4.624  1.00  0.00     0.004 C 
ENDBRANCH  10  11
ENDBRANCH   9  10
ENDBRANCH   8   9
ENDBRANCH   7   8
ENDBRANCH   6   7
ENDBRANCH   5   6
ENDBRANCH   4   5
ENDBRANCH   3   4
ENDBRANCH   2   3
ENDBRANCH   1   2
BRANCH   1  13
ATOM     13  C   UNL     1      10.974  -1.841   0.726  1.00  0.00     0.000 C 
BRANCH  13  14
ATOM     14  C   UNL     1      11.586  -0.510   0.258  1.00  0.00     0.000 C 
BRANCH  14  15
ATOM     15  C   UNL     1      11.351   0.627   1.268  1.00  0.00     0.000 C 
BRANCH  15  16
ATOM     16  C   UNL     1      10.768   0.132   2.602  1.00  0.00     0.000 C 
BRANCH  16  17
ATOM     17  C   UNL     1      11.487   0.729   3.824  1.00  0.00     0.000 C 
BRANCH  17  18
ATOM     18  C   UNL     1      12.721  -0.089   4.253  1.00  0.00     0.000 C 
BRANCH  18  19
ATOM     19  C   UNL     1      12.671  -1.587   3.899  1.00  0.00     0.000 C 
BRANCH  19  20
ATOM     20  C   UNL     1      14.055  -2.171   3.567  1.00  0.00     0.006 C 
BRANCH  20  21
ATOM     21  C   UNL     1      14.579  -1.682   2.210  1.00  0.00     0.053 C 
BRANCH  21  22
ATOM     22  C   UNL     1      15.791  -0.815   2.359  1.00  0.00     0.041 C 
ATOM     23  O   UNL     1      16.867  -1.302   2.793  1.00  0.00    -0.550 OA
ATOM     24  O   UNL     1      15.729   0.532   2.023  1.00  0.00    -0.550 OA
ENDBRANCH  21  22
ENDBRANCH  20  21
ENDBRANCH  19  20
ENDBRANCH  18  19
ENDBRANCH  17  18
ENDBRANCH  16  17
ENDBRANCH  15  16
ENDBRANCH  14  15
ENDBRANCH  13  14
ENDBRANCH   1  13
TORSDOF 20
ENDMDL
MODEL 8
REMARK VINA RESULT:    -4.534      3.833      4.721
REMARK INTER + INTRA:         -12.119
REMARK INTER:                  -9.746
REMARK INTRA:                  -2.373
REMARK UNBOUND:                -2.285
REMARK SMILES CCCCCCCCCCCCCCCCCCCCCC(=O)[O-]
REMARK SMILES IDX 12 1 11 2 10 3 9 4 8 5 7 6 6 7 5 8 4 9 3 10 2 11 1 12 13 13
REMARK SMILES IDX 14 14 15 15 16 16 17 17 18 18 19 19 20 20 21 21 22 22 23 23
REMARK SMILES IDX 24 24
REMARK H PARENT
REMARK Flexibility Score: inf
ROOT
ATOM      1  C   UNL     1      10.996   0.643   1.068  1.00  0.00     0.000 C 
ENDROOT
BRANCH   1   2
ATOM      2  C   UNL     1       9.892   0.209   2.044  1.00  0.00     0.000 C 
BRANCH   2   3
ATOM      3  C   UNL     1      10.205   0.603   3.497  1.00  0.00     0.000 C 
BRANCH   3   4
ATOM      4  C   UNL     1      11.714   0.780   3.748  1.00  0.00    -0.000 C 
BRANCH   4   5
ATOM      5  C   UNL     1      12.372  -0.503   4.298  1.00  0.00    -0.000 C 
BRANCH   5   6
ATOM      6  C   UNL     1      13.656  -0.919   3.552  1.00  0.00    -0.000 C 
BRANCH   6   7
ATOM      7  C   UNL     1      13.724  -2.403   3.154  1.00  0.00    -0.000 C 
BRANCH   7   8
ATOM      8  C   UNL     1      14.879  -2.708   2.186  1.00  0.00    -0.000 C 
BRANCH   8   9
ATOM      9  C   UNL     1      15.611  -1.423   1.784  1.00  0.00    -0.000 C 
BRANCH   9  10
ATOM     10  C   UNL     1      15.830  -1.366   0.267  1.00  0.00    -0.000 C 
BRANCH  10  11
ATOM     11  C   UNL     1      15.190  -0.112  -0.336  1.00  0.00    -0.003 C 
ATOM     12  C   UNL     1      14.693  -0.373  -1.754  1.00  0.00     0.004 C 
ENDBRANCH  10  11
ENDBRANCH   9  10
ENDBRANCH   8   9
ENDBRANCH   7   8
ENDBRANCH   6   7
ENDBRANCH   5   6
ENDBRANCH   4   5
ENDBRANCH   3   4
ENDBRANCH   2   3
ENDBRANCH   1   2
BRANCH   1  13
ATOM     13  C   UNL     1      11.587  -0.570   0.333  1.00  0.00     0.000 C 
BRANCH  13  14
ATOM     14  C   UNL     1      11.107  -1.906   0.925  1.00  0.00     0.000 C 
BRANCH  14  15
ATOM     15  C   UNL     1      11.541  -3.111   0.072  1.00  0.00     0.000 C 
BRANCH  15  16
ATOM     16  C   UNL     1      10.364  -4.015  -0.330  1.00  0.00     0.000 C 
BRANCH  16  17
ATOM     17  C   UNL     1      10.805  -5.447  -0.678  1.00  0.00     0.000 C 
BRANCH  17  18
ATOM     18  C   UNL     1       9.629  -6.355  -1.087  1.00  0.00     0.000 C 
BRANCH  18  19
ATOM     19  C   UNL     1       9.959  -7.856  -1.182  1.00  0.00     0.000 C 
BRANCH  19  20
ATOM     20  C   UNL     1      11.334  -8.130  -1.815  1.00  0.00     0.006 C 
BRANCH  20  21
ATOM     21  C   UNL     1      12.306  -8.787  -0.825  1.00  0.00     0.053 C 
BRANCH  21  22
ATOM     22  C   UNL     1      12.625 -10.199  -1.209  1.00  0.00     0.041 C 
ATOM     23  O   UNL     1      12.053 -11.157  -0.627  1.00  0.00    -0.550 OA
ATOM     24  O   UNL     1      13.557 -10.455  -2.207  1.00  0.00    -0.550 OA
ENDBRANCH  21  22
ENDBRANCH  20  21
ENDBRANCH  19  20
ENDBRANCH  18  19
ENDBRANCH  17  18
ENDBRANCH  16  17
ENDBRANCH  15  16
ENDBRANCH  14  15
ENDBRANCH  13  14
ENDBRANCH   1  13
TORSDOF 20
ENDMDL
MODEL 9
REMARK VINA RESULT:    -4.516      3.496      5.936
REMARK INTER + INTRA:         -12.082
REMARK INTER:                  -9.142
REMARK INTRA:                  -2.939
REMARK UNBOUND:                -2.285
REMARK SMILES CCCCCCCCCCCCCCCCCCCCCC(=O)[O-]
REMARK SMILES IDX 12 1 11 2 10 3 9 4 8 5 7 6 6 7 5 8 4 9 3 10 2 11 1 12 13 13
REMARK SMILES IDX 14 14 15 15 16 16 17 17 18 18 19 19 20 20 21 21 22 22 23 23
REMARK SMILES IDX 24 24
REMARK H PARENT
REMARK Flexibility Score: inf
ROOT
ATOM      1  C   UNL     1      15.520  -1.786   2.570  1.00  0.00     0.000 C 
ENDROOT
BRANCH   1   2
ATOM      2  C   UNL     1      15.475  -0.263   2.373  1.00  0.00     0.000 C 
BRANCH   2   3
ATOM      3  C   UNL     1      16.006   0.167   0.996  1.00  0.00     0.000 C 
BRANCH   3   4
ATOM      4  C   UNL     1      16.148  -1.019   0.023  1.00  0.00    -0.000 C 
BRANCH   4   5
ATOM      5  C   UNL     1      15.341  -0.812  -1.276  1.00  0.00    -0.000 C 
BRANCH   5   6
ATOM      6  C   UNL     1      13.987  -0.105  -1.067  1.00  0.00    -0.000 C 
BRANCH   6   7
ATOM      7  C   UNL     1      12.913  -0.952  -0.364  1.00  0.00    -0.000 C 
BRANCH   7   8
ATOM      8  C   UNL     1      11.924  -0.104   0.452  1.00  0.00    -0.000 C 
BRANCH   8   9
ATOM      9  C   UNL     1      10.999  -0.995   1.289  1.00  0.00    -0.000 C 
BRANCH   9  10
ATOM     10  C   UNL     1      10.694  -0.349   2.645  1.00  0.00    -0.000 C 
BRANCH  10  11
ATOM     11  C   UNL     1      11.879   0.488   3.137  1.00  0.00    -0.003 C 
ATOM     12  C   UNL     1      11.615   1.053   4.530  1.00  0.00     0.004 C 
ENDBRANCH  10  11
ENDBRANCH   9  10
ENDBRANCH   8   9
ENDBRANCH   7   8
ENDBRANCH   6   7
ENDBRANCH   5   6
ENDBRANCH   4   5
ENDBRANCH   3   4
ENDBRANCH   2   3
ENDBRANCH   1   2
BRANCH   1  13
ATOM     13  C   UNL     1      14.291  -2.275   3.351  1.00  0.00     0.000 C 
BRANCH  13  14
ATOM     14  C   UNL     1      13.435  -3.263   2.539  1.00  0.00     0.000 C 
BRANCH  14  15
ATOM     15  C   UNL     1      14.287  -4.144   1.608  1.00  0.00     0.000 C 
BRANCH  15  16
ATOM     16  C   UNL     1      13.576  -5.444   1.198  1.00  0.00     0.000 C 
BRANCH  16  17
ATOM     17  C   UNL     1      14.514  -6.663   1.205  1.00  0.00     0.000 C 
BRANCH  17  18
ATOM     18  C   UNL     1      13.766  -7.994   1.415  1.00  0.00     0.000 C 
BRANCH  18  19
ATOM     19  C   UNL     1      12.229  -7.890   1.422  1.00  0.00     0.000 C 
BRANCH  19  20
ATOM     20  C   UNL     1      11.580  -8.487   0.162  1.00  0.00     0.006 C 
BRANCH  20  21
ATOM     21  C   UNL     1      10.389  -7.651  -0.327  1.00  0.00     0.053 C 
BRANCH  21  22
ATOM     22  C   UNL     1      10.674  -6.986  -1.638  1.00  0.00     0.041 C 
ATOM     23  O   UNL     1      11.843  -6.608  -1.914  1.00  0.00    -0.550 OA
ATOM     24  O   UNL     1       9.648  -6.780  -2.552  1.00  0.00    -0.550 OA
ENDBRANCH  21  22
ENDBRANCH  20  21
ENDBRANCH  19  20
ENDBRANCH  18  19
ENDBRANCH  17  18
ENDBRANCH  16  17
ENDBRANCH  15  16
ENDBRANCH  14  15
ENDBRANCH  13  14
ENDBRANCH   1  13
TORSDOF 20
ENDMDL
