MODEL 1
REMARK VINA RESULT:    -4.987      0.000      0.000
REMARK INTER + INTRA:         -14.827
REMARK INTER:                 -11.402
REMARK INTRA:                  -3.426
REMARK UNBOUND:                -3.426
REMARK SMILES CCCCCCCCCCCCCCCCCCCCCCCC(=O)[O-]
REMARK SMILES IDX 13 1 14 2 15 3 16 4 17 5 18 6 19 7 20 8 21 9 22 10 23 11
REMARK SMILES IDX 24 12 25 13 26 14 12 15 11 16 10 17 9 18 8 19 7 20 6 21 5 22
REMARK SMILES IDX 4 23 3 24 2 25 1 26
REMARK H PARENT
REMARK Flexibility Score: inf
ROOT
ATOM      1  C   UNL     1      23.112  11.944  32.704  1.00  0.00     0.000 C 
ENDROOT
BRANCH   1   2
ATOM      2  C   UNL     1      24.474  12.397  32.149  1.00  0.00     0.000 C 
BRANCH   2   3
ATOM      3  C   UNL     1      24.414  12.726  30.649  1.00  0.00     0.000 C 
BRANCH   3   4
ATOM      4  C   UNL     1      25.795  12.651  29.976  1.00  0.00     0.000 C 
BRANCH   4   5
ATOM      5  C   UNL     1      26.409  11.240  30.025  1.00  0.00     0.000 C 
BRANCH   5   6
ATOM      6  C   UNL     1      27.736  11.136  30.805  1.00  0.00     0.000 C 
BRANCH   6   7
ATOM      7  C   UNL     1      28.379  12.484  31.188  1.00  0.00     0.000 C 
BRANCH   7   8
ATOM      8  C   UNL     1      28.292  12.845  32.684  1.00  0.00     0.000 C 
BRANCH   8   9
ATOM      9  C   UNL     1      28.095  11.649  33.635  1.00  0.00     0.000 C 
BRANCH   9  10
ATOM     10  C   UNL     1      27.635  12.010  35.061  1.00  0.00     0.006 C 
BRANCH  10  11
ATOM     11  C   UNL     1      26.415  12.950  35.106  1.00  0.00     0.053 C 
BRANCH  11  12
ATOM     12  C   UNL     1      25.271  12.372  35.884  1.00  0.00     0.041 C 
ATOM     13  O   UNL     1      24.684  13.061  36.758  1.00  0.00    -0.550 OA
ATOM     14  O   UNL     1      24.878  11.056  35.669  1.00  0.00    -0.550 OA
ENDBRANCH  11  12
ENDBRANCH  10  11
ENDBRANCH   9  10
ENDBRANCH   8   9
ENDBRANCH   7   8
ENDBRANCH   6   7
ENDBRANCH   5   6
ENDBRANCH   4   5
ENDBRANCH   3   4
ENDBRANCH   2   3
ENDBRANCH   1   2
BRANCH   1  15
ATOM     15  C   UNL     1      22.091  11.651  31.595  1.00  0.00     0.000 C 
BRANCH  15  16
ATOM     16  C   UNL     1      20.861  10.884  32.112  1.00  0.00     0.000 C 
BRANCH  16  17
ATOM     17  C   UNL     1      19.613  11.772  32.237  1.00  0.00     0.000 C 
BRANCH  17  18
ATOM     18  C   UNL     1      19.808  13.242  31.810  1.00  0.00    -0.000 C 
BRANCH  18  19
ATOM     19  C   UNL     1      19.756  14.281  32.949  1.00  0.00    -0.000 C 
BRANCH  19  20
ATOM     20  C   UNL     1      20.697  13.990  34.140  1.00  0.00    -0.000 C 
BRANCH  20  21
ATOM     21  C   UNL     1      19.964  13.709  35.467  1.00  0.00    -0.000 C 
BRANCH  21  22
ATOM     22  C   UNL     1      20.001  12.243  35.940  1.00  0.00    -0.000 C 
BRANCH  22  23
ATOM     23  C   UNL     1      21.323  11.500  35.669  1.00  0.00    -0.000 C 
BRANCH  23  24
ATOM     24  C   UNL     1      21.219   9.962  35.671  1.00  0.00    -0.000 C 
BRANCH  24  25
ATOM     25  C   UNL     1      19.771   9.435  35.755  1.00  0.00    -0.003 C 
ATOM     26  C   UNL     1      19.592   8.367  36.834  1.00  0.00     0.004 C 
ENDBRANCH  24  25
ENDBRANCH  23  24
ENDBRANCH  22  23
ENDBRANCH  21  22
ENDBRANCH  20  21
ENDBRANCH  19  20
ENDBRANCH  18  19
ENDBRANCH  17  18
ENDBRANCH  16  17
ENDBRANCH  15  16
ENDBRANCH   1  15
TORSDOF 22
ENDMDL
MODEL 2
REMARK VINA RESULT:    -4.839      1.299      3.294
REMARK INTER + INTRA:         -14.487
REMARK INTER:                 -10.594
REMARK INTRA:                  -3.894
REMARK UNBOUND:                -3.426
REMARK SMILES CCCCCCCCCCCCCCCCCCCCCCCC(=O)[O-]
REMARK SMILES IDX 13 1 14 2 15 3 16 4 17 5 18 6 19 7 20 8 21 9 22 10 23 11
REMARK SMILES IDX 24 12 25 13 26 14 12 15 11 16 10 17 9 18 8 19 7 20 6 21 5 22
REMARK SMILES IDX 4 23 3 24 2 25 1 26
REMARK H PARENT
REMARK Flexibility Score: inf
ROOT
ATOM      1  C   UNL     1      23.205  11.379  35.068  1.00  0.00     0.000 C 
ENDROOT
BRANCH   1   2
ATOM      2  C   UNL     1      22.748  11.673  33.629  1.00  0.00     0.000 C 
BRANCH   2   3
ATOM      3  C   UNL     1      23.885  12.229  32.757  1.00  0.00     0.000 C 
BRANCH   3   4
ATOM      4  C   UNL     1      23.450  12.454  31.299  1.00  0.00     0.000 C 
BRANCH   4   5
ATOM      5  C   UNL     1      24.627  12.406  30.308  1.00  0.00     0.000 C 
BRANCH   5   6
ATOM      6  C   UNL     1      25.758  13.415  30.594  1.00  0.00     0.000 C 
BRANCH   6   7
ATOM      7  C   UNL     1      27.187  12.849  30.471  1.00  0.00     0.000 C 
BRANCH   7   8
ATOM      8  C   UNL     1      27.890  12.558  31.811  1.00  0.00     0.000 C 
BRANCH   8   9
ATOM      9  C   UNL     1      27.434  11.270  32.523  1.00  0.00     0.000 C 
BRANCH   9  10
ATOM     10  C   UNL     1      27.230  11.396  34.045  1.00  0.00     0.006 C 
BRANCH  10  11
ATOM     11  C   UNL     1      28.024  12.547  34.691  1.00  0.00     0.053 C 
BRANCH  11  12
ATOM     12  C   UNL     1      27.135  13.615  35.255  1.00  0.00     0.041 C 
ATOM     13  O   UNL     1      25.928  13.368  35.511  1.00  0.00    -0.550 OA
ATOM     14  O   UNL     1      27.633  14.896  35.462  1.00  0.00    -0.550 OA
ENDBRANCH  11  12
ENDBRANCH  10  11
ENDBRANCH   9  10
ENDBRANCH   8   9
ENDBRANCH   7   8
ENDBRANCH   6   7
ENDBRANCH   5   6
ENDBRANCH   4   5
ENDBRANCH   3   4
ENDBRANCH   2   3
ENDBRANCH   1   2
BRANCH   1  15
ATOM     15  C   UNL     1      22.153  10.604  35.875  1.00  0.00     0.000 C 
BRANCH  15  16
ATOM     16  C   UNL     1      21.239   9.747  34.983  1.00  0.00     0.000 C 
BRANCH  16  17
ATOM     17  C   UNL     1      19.750  10.100  35.140  1.00  0.00     0.000 C 
BRANCH  17  18
ATOM     18  C   UNL     1      19.459  11.346  36.002  1.00  0.00    -0.000 C 
BRANCH  18  19
ATOM     19  C   UNL     1      19.150  12.641  35.223  1.00  0.00    -0.000 C 
BRANCH  19  20
ATOM     20  C   UNL     1      20.255  13.719  35.287  1.00  0.00    -0.000 C 
BRANCH  20  21
ATOM     21  C   UNL     1      20.519  14.429  33.944  1.00  0.00    -0.000 C 
BRANCH  21  22
ATOM     22  C   UNL     1      19.536  14.080  32.811  1.00  0.00    -0.000 C 
BRANCH  22  23
ATOM     23  C   UNL     1      20.162  13.976  31.408  1.00  0.00    -0.000 C 
BRANCH  23  24
ATOM     24  C   UNL     1      19.823  12.687  30.635  1.00  0.00    -0.000 C 
BRANCH  24  25
ATOM     25  C   UNL     1      19.380  11.517  31.539  1.00  0.00    -0.003 C 
ATOM     26  C   UNL     1      20.300  10.301  31.425  1.00  0.00     0.004 C 
ENDBRANCH  24  25
ENDBRANCH  23  24
ENDBRANCH  22  23
ENDBRANCH  21  22
ENDBRANCH  20  21
ENDBRANCH  19  20
ENDBRANCH  18  19
ENDBRANCH  17  18
ENDBRANCH  16  17
ENDBRANCH  15  16
ENDBRANCH   1  15
TORSDOF 22
ENDMDL
MODEL 3
REMARK VINA RESULT:    -4.836      2.188      7.512
REMARK INTER + INTRA:         -14.480
REMARK INTER:                 -11.110
REMARK INTRA:                  -3.371
REMARK UNBOUND:                -3.426
REMARK SMILES CCCCCCCCCCCCCCCCCCCCCCCC(=O)[O-]
REMARK SMILES IDX 13 1 14 2 15 3 16 4 17 5 18 6 19 7 20 8 21 9 22 10 23 11
REMARK SMILES IDX 24 12 25 13 26 14 12 15 11 16 10 17 9 18 8 19 7 20 6 21 5 22
REMARK SMILES IDX 4 23 3 24 2 25 1 26
REMARK H PARENT
REMARK Flexibility Score: inf
ROOT
ATOM      1  C   UNL     1      22.666  10.810  35.879  1.00  0.00     0.000 C 
ENDROOT
BRANCH   1   2
ATOM      2  C   UNL     1      21.627  10.113  34.982  1.00  0.00     0.000 C 
BRANCH   2   3
ATOM      3  C   UNL     1      20.273   9.933  35.688  1.00  0.00     0.000 C 
BRANCH   3   4
ATOM      4  C   UNL     1      19.273  11.044  35.329  1.00  0.00     0.000 C 
BRANCH   4   5
ATOM      5  C   UNL     1      19.377  12.267  36.259  1.00  0.00     0.000 C 
BRANCH   5   6
ATOM      6  C   UNL     1      19.208  13.631  35.559  1.00  0.00     0.000 C 
BRANCH   6   7
ATOM      7  C   UNL     1      20.437  14.117  34.766  1.00  0.00     0.000 C 
BRANCH   7   8
ATOM      8  C   UNL     1      20.253  14.156  33.236  1.00  0.00     0.000 C 
BRANCH   8   9
ATOM      9  C   UNL     1      18.861  13.727  32.734  1.00  0.00     0.000 C 
BRANCH   9  10
ATOM     10  C   UNL     1      18.859  12.611  31.672  1.00  0.00     0.006 C 
BRANCH  10  11
ATOM     11  C   UNL     1      20.021  11.610  31.812  1.00  0.00     0.053 C 
BRANCH  11  12
ATOM     12  C   UNL     1      20.938  11.622  30.626  1.00  0.00     0.041 C 
ATOM     13  O   UNL     1      21.134  12.687  29.985  1.00  0.00    -0.550 OA
ATOM     14  O   UNL     1      21.549  10.446  30.206  1.00  0.00    -0.550 OA
ENDBRANCH  11  12
ENDBRANCH  10  11
ENDBRANCH   9  10
ENDBRANCH   8   9
ENDBRANCH   7   8
ENDBRANCH   6   7
ENDBRANCH   5   6
ENDBRANCH   4   5
ENDBRANCH   3   4
ENDBRANCH   2   3
ENDBRANCH   1   2
BRANCH   1  15
ATOM     15  C   UNL     1      23.336  12.005  35.186  1.00  0.00     0.000 C 
BRANCH  15  16
ATOM     16  C   UNL     1      23.198  11.953  33.654  1.00  0.00     0.000 C 
BRANCH  16  17
ATOM     17  C   UNL     1      24.522  12.240  32.926  1.00  0.00     0.000 C 
BRANCH  17  18
ATOM     18  C   UNL     1      24.383  12.615  31.436  1.00  0.00    -0.000 C 
BRANCH  18  19
ATOM     19  C   UNL     1      25.693  13.005  30.720  1.00  0.00    -0.000 C 
BRANCH  19  20
ATOM     20  C   UNL     1      26.731  11.867  30.594  1.00  0.00    -0.000 C 
BRANCH  20  21
ATOM     21  C   UNL     1      28.098  12.190  31.228  1.00  0.00    -0.000 C 
BRANCH  21  22
ATOM     22  C   UNL     1      28.041  12.753  32.661  1.00  0.00    -0.000 C 
BRANCH  22  23
ATOM     23  C   UNL     1      28.170  11.705  33.783  1.00  0.00    -0.000 C 
BRANCH  23  24
ATOM     24  C   UNL     1      27.624  12.146  35.154  1.00  0.00    -0.000 C 
BRANCH  24  25
ATOM     25  C   UNL     1      26.762  13.425  35.100  1.00  0.00    -0.003 C 
ATOM     26  C   UNL     1      27.558  14.690  35.421  1.00  0.00     0.004 C 
ENDBRANCH  24  25
ENDBRANCH  23  24
ENDBRANCH  22  23
ENDBRANCH  21  22
ENDBRANCH  20  21
ENDBRANCH  19  20
ENDBRANCH  18  19
ENDBRANCH  17  18
ENDBRANCH  16  17
ENDBRANCH  15  16
ENDBRANCH   1  15
TORSDOF 22
ENDMDL
MODEL 4
REMARK VINA RESULT:    -4.772      2.215      4.494
REMARK INTER + INTRA:         -14.336
REMARK INTER:                 -10.875
REMARK INTRA:                  -3.461
REMARK UNBOUND:                -3.426
REMARK SMILES CCCCCCCCCCCCCCCCCCCCCCCC(=O)[O-]
REMARK SMILES IDX 13 1 14 2 15 3 16 4 17 5 18 6 19 7 20 8 21 9 22 10 23 11
REMARK SMILES IDX 24 12 25 13 26 14 12 15 11 16 10 17 9 18 8 19 7 20 6 21 5 22
REMARK SMILES IDX 4 23 3 24 2 25 1 26
REMARK H PARENT
REMARK Flexibility Score: inf
ROOT
ATOM      1  C   UNL     1      20.035   9.716  35.524  1.00  0.00     0.000 C 
ENDROOT
BRANCH   1   2
ATOM      2  C   UNL     1      21.401  10.073  34.912  1.00  0.00     0.000 C 
BRANCH   2   3
ATOM      3  C   UNL     1      22.303  10.833  35.899  1.00  0.00     0.000 C 
BRANCH   3   4
ATOM      4  C   UNL     1      22.719  12.215  35.369  1.00  0.00     0.000 C 
BRANCH   4   5
ATOM      5  C   UNL     1      24.242  12.435  35.401  1.00  0.00     0.000 C 
BRANCH   5   6
ATOM      6  C   UNL     1      25.083  11.147  35.518  1.00  0.00     0.000 C 
BRANCH   6   7
ATOM      7  C   UNL     1      26.515  11.246  34.958  1.00  0.00     0.000 C 
BRANCH   7   8
ATOM      8  C   UNL     1      27.263  12.549  35.306  1.00  0.00     0.000 C 
BRANCH   8   9
ATOM      9  C   UNL     1      27.627  13.435  34.100  1.00  0.00     0.000 C 
BRANCH   9  10
ATOM     10  C   UNL     1      26.863  13.124  32.799  1.00  0.00     0.006 C 
BRANCH  10  11
ATOM     11  C   UNL     1      27.766  12.686  31.631  1.00  0.00     0.053 C 
BRANCH  11  12
ATOM     12  C   UNL     1      27.110  11.671  30.744  1.00  0.00     0.041 C 
ATOM     13  O   UNL     1      26.073  11.969  30.096  1.00  0.00    -0.550 OA
ATOM     14  O   UNL     1      27.624  10.382  30.663  1.00  0.00    -0.550 OA
ENDBRANCH  11  12
ENDBRANCH  10  11
ENDBRANCH   9  10
ENDBRANCH   8   9
ENDBRANCH   7   8
ENDBRANCH   6   7
ENDBRANCH   5   6
ENDBRANCH   4   5
ENDBRANCH   3   4
ENDBRANCH   2   3
ENDBRANCH   1   2
BRANCH   1  15
ATOM     15  C   UNL     1      18.956   9.477  34.459  1.00  0.00     0.000 C 
BRANCH  15  16
ATOM     16  C   UNL     1      19.549   9.253  33.057  1.00  0.00     0.000 C 
BRANCH  16  17
ATOM     17  C   UNL     1      18.835  10.072  31.969  1.00  0.00     0.000 C 
BRANCH  17  18
ATOM     18  C   UNL     1      19.766  10.840  31.008  1.00  0.00    -0.000 C 
BRANCH  18  19
ATOM     19  C   UNL     1      21.271  10.775  31.340  1.00  0.00    -0.000 C 
BRANCH  19  20
ATOM     20  C   UNL     1      21.896  12.114  31.793  1.00  0.00    -0.000 C 
BRANCH  20  21
ATOM     21  C   UNL     1      21.032  13.351  31.479  1.00  0.00    -0.000 C 
BRANCH  21  22
ATOM     22  C   UNL     1      20.350  14.003  32.696  1.00  0.00    -0.000 C 
BRANCH  22  23
ATOM     23  C   UNL     1      18.828  13.785  32.791  1.00  0.00    -0.000 C 
BRANCH  23  24
ATOM     24  C   UNL     1      18.264  13.732  34.224  1.00  0.00    -0.000 C 
BRANCH  24  25
ATOM     25  C   UNL     1      19.310  13.347  35.291  1.00  0.00    -0.003 C 
ATOM     26  C   UNL     1      18.676  12.958  36.627  1.00  0.00     0.004 C 
ENDBRANCH  24  25
ENDBRANCH  23  24
ENDBRANCH  22  23
ENDBRANCH  21  22
ENDBRANCH  20  21
ENDBRANCH  19  20
ENDBRANCH  18  19
ENDBRANCH  17  18
ENDBRANCH  16  17
ENDBRANCH  15  16
ENDBRANCH   1  15
TORSDOF 22
ENDMDL
MODEL 5
REMARK VINA RESULT:    -4.763      1.997      6.609
REMARK INTER + INTRA:         -14.314
REMARK INTER:                 -10.518
REMARK INTRA:                  -3.796
REMARK UNBOUND:                -3.426
REMARK SMILES CCCCCCCCCCCCCCCCCCCCCCCC(=O)[O-]
REMARK SMILES IDX 13 1 14 2 15 3 16 4 17 5 18 6 19 7 20 8 21 9 22 10 23 11
REMARK SMILES IDX 24 12 25 13 26 14 12 15 11 16 10 17 9 18 8 19 7 20 6 21 5 22
REMARK SMILES IDX 4 23 3 24 2 25 1 26
REMARK H PARENT
REMARK Flexibility Score: inf
ROOT
ATOM      1  C   UNL     1      21.886  11.206  30.280  1.00  0.00     0.000 C 
ENDROOT
BRANCH   1   2
ATOM      2  C   UNL     1      21.211  10.861  31.619  1.00  0.00     0.000 C 
BRANCH   2   3
ATOM      3  C   UNL     1      19.681  10.996  31.555  1.00  0.00     0.000 C 
BRANCH   3   4
ATOM      4  C   UNL     1      19.234  12.404  31.127  1.00  0.00     0.000 C 
BRANCH   4   5
ATOM      5  C   UNL     1      19.073  13.369  32.316  1.00  0.00     0.000 C 
BRANCH   5   6
ATOM      6  C   UNL     1      20.346  14.156  32.690  1.00  0.00     0.000 C 
BRANCH   6   7
ATOM      7  C   UNL     1      20.947  13.815  34.067  1.00  0.00     0.000 C 
BRANCH   7   8
ATOM      8  C   UNL     1      19.923  13.687  35.212  1.00  0.00     0.000 C 
BRANCH   8   9
ATOM      9  C   UNL     1      19.944  12.341  35.961  1.00  0.00     0.000 C 
BRANCH   9  10
ATOM     10  C   UNL     1      20.423  11.134  35.132  1.00  0.00     0.006 C 
BRANCH  10  11
ATOM     11  C   UNL     1      20.884   9.934  35.981  1.00  0.00     0.053 C 
BRANCH  11  12
ATOM     12  C   UNL     1      19.825   8.881  36.112  1.00  0.00     0.041 C 
ATOM     13  O   UNL     1      19.813   8.113  37.109  1.00  0.00    -0.550 OA
ATOM     14  O   UNL     1      18.873   8.723  35.112  1.00  0.00    -0.550 OA
ENDBRANCH  11  12
ENDBRANCH  10  11
ENDBRANCH   9  10
ENDBRANCH   8   9
ENDBRANCH   7   8
ENDBRANCH   6   7
ENDBRANCH   5   6
ENDBRANCH   4   5
ENDBRANCH   3   4
ENDBRANCH   2   3
ENDBRANCH   1   2
BRANCH   1  15
ATOM     15  C   UNL     1      22.937  12.317  30.417  1.00  0.00     0.000 C 
BRANCH  15  16
ATOM     16  C   UNL     1      23.695  12.251  31.755  1.00  0.00     0.000 C 
BRANCH  16  17
ATOM     17  C   UNL     1      25.121  12.818  31.661  1.00  0.00     0.000 C 
BRANCH  17  18
ATOM     18  C   UNL     1      26.034  12.129  30.627  1.00  0.00    -0.000 C 
BRANCH  18  19
ATOM     19  C   UNL     1      27.288  11.434  31.199  1.00  0.00    -0.000 C 
BRANCH  19  20
ATOM     20  C   UNL     1      28.262  12.366  31.953  1.00  0.00    -0.000 C 
BRANCH  20  21
ATOM     21  C   UNL     1      28.298  12.138  33.477  1.00  0.00    -0.000 C 
BRANCH  21  22
ATOM     22  C   UNL     1      27.671  13.262  34.324  1.00  0.00    -0.000 C 
BRANCH  22  23
ATOM     23  C   UNL     1      26.518  12.821  35.247  1.00  0.00    -0.000 C 
BRANCH  23  24
ATOM     24  C   UNL     1      26.014  11.383  35.021  1.00  0.00    -0.000 C 
BRANCH  24  25
ATOM     25  C   UNL     1      24.501  11.206  35.272  1.00  0.00    -0.003 C 
ATOM     26  C   UNL     1      23.811  12.512  35.667  1.00  0.00     0.004 C 
ENDBRANCH  24  25
ENDBRANCH  23  24
ENDBRANCH  22  23
ENDBRANCH  21  22
ENDBRANCH  20  21
ENDBRANCH  19  20
ENDBRANCH  18  19
ENDBRANCH  17  18
ENDBRANCH  16  17
ENDBRANCH  15  16
ENDBRANCH   1  15
TORSDOF 22
ENDMDL
MODEL 6
REMARK VINA RESULT:    -4.759      1.897      4.548
REMARK INTER + INTRA:         -14.304
REMARK INTER:                 -11.040
REMARK INTRA:                  -3.264
REMARK UNBOUND:                -3.426
REMARK SMILES CCCCCCCCCCCCCCCCCCCCCCCC(=O)[O-]
REMARK SMILES IDX 13 1 14 2 15 3 16 4 17 5 18 6 19 7 20 8 21 9 22 10 23 11
REMARK SMILES IDX 24 12 25 13 26 14 12 15 11 16 10 17 9 18 8 19 7 20 6 21 5 22
REMARK SMILES IDX 4 23 3 24 2 25 1 26
REMARK H PARENT
REMARK Flexibility Score: inf
ROOT
ATOM      1  C   UNL     1      22.162  10.639  35.892  1.00  0.00     0.000 C 
ENDROOT
BRANCH   1   2
ATOM      2  C   UNL     1      23.341  11.083  35.008  1.00  0.00     0.000 C 
BRANCH   2   3
ATOM      3  C   UNL     1      23.780  12.526  35.301  1.00  0.00     0.000 C 
BRANCH   3   4
ATOM      4  C   UNL     1      25.067  12.589  36.142  1.00  0.00     0.000 C 
BRANCH   4   5
ATOM      5  C   UNL     1      25.978  13.768  35.757  1.00  0.00     0.000 C 
BRANCH   5   6
ATOM      6  C   UNL     1      27.293  13.371  35.055  1.00  0.00     0.000 C 
BRANCH   6   7
ATOM      7  C   UNL     1      27.501  11.856  34.861  1.00  0.00     0.000 C 
BRANCH   7   8
ATOM      8  C   UNL     1      28.101  11.449  33.501  1.00  0.00     0.000 C 
BRANCH   8   9
ATOM      9  C   UNL     1      28.343  12.611  32.519  1.00  0.00     0.000 C 
BRANCH   9  10
ATOM     10  C   UNL     1      28.245  12.244  31.026  1.00  0.00     0.006 C 
BRANCH  10  11
ATOM     11  C   UNL     1      26.854  11.744  30.594  1.00  0.00     0.053 C 
BRANCH  11  12
ATOM     12  C   UNL     1      25.806  12.812  30.679  1.00  0.00     0.041 C 
ATOM     13  O   UNL     1      24.821  12.677  31.450  1.00  0.00    -0.550 OA
ATOM     14  O   UNL     1      25.899  13.943  29.875  1.00  0.00    -0.550 OA
ENDBRANCH  11  12
ENDBRANCH  10  11
ENDBRANCH   9  10
ENDBRANCH   8   9
ENDBRANCH   7   8
ENDBRANCH   6   7
ENDBRANCH   5   6
ENDBRANCH   4   5
ENDBRANCH   3   4
ENDBRANCH   2   3
ENDBRANCH   1   2
BRANCH   1  15
ATOM     15  C   UNL     1      21.272   9.591  35.207  1.00  0.00     0.000 C 
BRANCH  15  16
ATOM     16  C   UNL     1      19.797   9.700  35.632  1.00  0.00     0.000 C 
BRANCH  16  17
ATOM     17  C   UNL     1      18.837   9.802  34.435  1.00  0.00     0.000 C 
BRANCH  17  18
ATOM     18  C   UNL     1      19.406   9.296  33.093  1.00  0.00    -0.000 C 
BRANCH  18  19
ATOM     19  C   UNL     1      18.846   9.980  31.828  1.00  0.00    -0.000 C 
BRANCH  19  20
ATOM     20  C   UNL     1      19.868  10.831  31.041  1.00  0.00    -0.000 C 
BRANCH  20  21
ATOM     21  C   UNL     1      21.222  11.008  31.755  1.00  0.00    -0.000 C 
BRANCH  21  22
ATOM     22  C   UNL     1      21.479  12.411  32.338  1.00  0.00    -0.000 C 
BRANCH  22  23
ATOM     23  C   UNL     1      20.424  13.474  31.979  1.00  0.00    -0.000 C 
BRANCH  23  24
ATOM     24  C   UNL     1      19.695  14.103  33.182  1.00  0.00    -0.000 C 
BRANCH  24  25
ATOM     25  C   UNL     1      20.545  14.153  34.469  1.00  0.00    -0.003 C 
ATOM     26  C   UNL     1      19.921  13.367  35.622  1.00  0.00     0.004 C 
ENDBRANCH  24  25
ENDBRANCH  23  24
ENDBRANCH  22  23
ENDBRANCH  21  22
ENDBRANCH  20  21
ENDBRANCH  19  20
ENDBRANCH  18  19
ENDBRANCH  17  18
ENDBRANCH  16  17
ENDBRANCH  15  16
ENDBRANCH   1  15
TORSDOF 22
ENDMDL
MODEL 7
REMARK VINA RESULT:    -4.757      1.169      3.462
REMARK INTER + INTRA:         -14.301
REMARK INTER:                 -10.230
REMARK INTRA:                  -4.071
REMARK UNBOUND:                -3.426
REMARK SMILES CCCCCCCCCCCCCCCCCCCCCCCC(=O)[O-]
REMARK SMILES IDX 13 1 14 2 15 3 16 4 17 5 18 6 19 7 20 8 21 9 22 10 23 11
REMARK SMILES IDX 24 12 25 13 26 14 12 15 11 16 10 17 9 18 8 19 7 20 6 21 5 22
REMARK SMILES IDX 4 23 3 24 2 25 1 26
REMARK H PARENT
REMARK Flexibility Score: inf
ROOT
ATOM      1  C   UNL     1      22.463  11.443  35.864  1.00  0.00     0.000 C 
ENDROOT
BRANCH   1   2
ATOM      2  C   UNL     1      22.797  12.449  34.749  1.00  0.00     0.000 C 
BRANCH   2   3
ATOM      3  C   UNL     1      23.079  11.759  33.404  1.00  0.00     0.000 C 
BRANCH   3   4
ATOM      4  C   UNL     1      24.121  12.516  32.564  1.00  0.00     0.000 C 
BRANCH   4   5
ATOM      5  C   UNL     1      23.854  12.422  31.051  1.00  0.00     0.000 C 
BRANCH   5   6
ATOM      6  C   UNL     1      25.112  12.227  30.180  1.00  0.00     0.000 C 
BRANCH   6   7
ATOM      7  C   UNL     1      26.207  13.296  30.361  1.00  0.00     0.000 C 
BRANCH   7   8
ATOM      8  C   UNL     1      27.610  12.745  30.684  1.00  0.00     0.000 C 
BRANCH   8   9
ATOM      9  C   UNL     1      28.020  12.831  32.166  1.00  0.00     0.000 C 
BRANCH   9  10
ATOM     10  C   UNL     1      27.856  11.528  32.972  1.00  0.00     0.006 C 
BRANCH  10  11
ATOM     11  C   UNL     1      27.945  11.719  34.498  1.00  0.00     0.053 C 
BRANCH  11  12
ATOM     12  C   UNL     1      26.605  11.957  35.127  1.00  0.00     0.041 C 
ATOM     13  O   UNL     1      25.854  10.987  35.408  1.00  0.00    -0.550 OA
ATOM     14  O   UNL     1      26.170  13.255  35.369  1.00  0.00    -0.550 OA
ENDBRANCH  11  12
ENDBRANCH  10  11
ENDBRANCH   9  10
ENDBRANCH   8   9
ENDBRANCH   7   8
ENDBRANCH   6   7
ENDBRANCH   5   6
ENDBRANCH   4   5
ENDBRANCH   3   4
ENDBRANCH   2   3
ENDBRANCH   1   2
BRANCH   1  15
ATOM     15  C   UNL     1      22.013  10.082  35.315  1.00  0.00     0.000 C 
BRANCH  15  16
ATOM     16  C   UNL     1      20.633   9.657  35.850  1.00  0.00     0.000 C 
BRANCH  16  17
ATOM     17  C   UNL     1      19.598   9.452  34.731  1.00  0.00     0.000 C 
BRANCH  17  18
ATOM     18  C   UNL     1      20.182   9.350  33.307  1.00  0.00    -0.000 C 
BRANCH  18  19
ATOM     19  C   UNL     1      19.513  10.248  32.245  1.00  0.00    -0.000 C 
BRANCH  19  20
ATOM     20  C   UNL     1      20.462  10.769  31.142  1.00  0.00    -0.000 C 
BRANCH  20  21
ATOM     21  C   UNL     1      20.364  12.287  30.894  1.00  0.00    -0.000 C 
BRANCH  21  22
ATOM     22  C   UNL     1      19.474  13.060  31.886  1.00  0.00    -0.000 C 
BRANCH  22  23
ATOM     23  C   UNL     1      20.170  14.215  32.629  1.00  0.00    -0.000 C 
BRANCH  23  24
ATOM     24  C   UNL     1      20.075  14.155  34.166  1.00  0.00    -0.000 C 
BRANCH  24  25
ATOM     25  C   UNL     1      19.057  13.118  34.687  1.00  0.00    -0.003 C 
ATOM     26  C   UNL     1      19.027  13.035  36.213  1.00  0.00     0.004 C 
ENDBRANCH  24  25
ENDBRANCH  23  24
ENDBRANCH  22  23
ENDBRANCH  21  22
ENDBRANCH  20  21
ENDBRANCH  19  20
ENDBRANCH  18  19
ENDBRANCH  17  18
ENDBRANCH  16  17
ENDBRANCH  15  16
ENDBRANCH   1  15
TORSDOF 22
ENDMDL
MODEL 8
REMARK VINA RESULT:    -4.753      1.096      2.700
REMARK INTER + INTRA:         -14.292
REMARK INTER:                 -10.577
REMARK INTRA:                  -3.715
REMARK UNBOUND:                -3.426
REMARK SMILES CCCCCCCCCCCCCCCCCCCCCCCC(=O)[O-]
REMARK SMILES IDX 13 1 14 2 15 3 16 4 17 5 18 6 19 7 20 8 21 9 22 10 23 11
REMARK SMILES IDX 24 12 25 13 26 14 12 15 11 16 10 17 9 18 8 19 7 20 6 21 5 22
REMARK SMILES IDX 4 23 3 24 2 25 1 26
REMARK H PARENT
REMARK Flexibility Score: inf
ROOT
ATOM      1  C   UNL     1      22.881  11.356  34.788  1.00  0.00     0.000 C 
ENDROOT
BRANCH   1   2
ATOM      2  C   UNL     1      22.961  12.517  33.782  1.00  0.00     0.000 C 
BRANCH   2   3
ATOM      3  C   UNL     1      23.960  12.239  32.647  1.00  0.00     0.000 C 
BRANCH   3   4
ATOM      4  C   UNL     1      23.293  12.256  31.261  1.00  0.00     0.000 C 
BRANCH   4   5
ATOM      5  C   UNL     1      24.159  12.937  30.187  1.00  0.00     0.000 C 
BRANCH   5   6
ATOM      6  C   UNL     1      25.672  12.952  30.485  1.00  0.00     0.000 C 
BRANCH   6   7
ATOM      7  C   UNL     1      26.422  11.652  30.133  1.00  0.00     0.000 C 
BRANCH   7   8
ATOM      8  C   UNL     1      27.568  11.280  31.094  1.00  0.00     0.000 C 
BRANCH   8   9
ATOM      9  C   UNL     1      28.195  12.464  31.854  1.00  0.00     0.000 C 
BRANCH   9  10
ATOM     10  C   UNL     1      28.336  12.270  33.376  1.00  0.00     0.006 C 
BRANCH  10  11
ATOM     11  C   UNL     1      27.372  13.134  34.210  1.00  0.00     0.053 C 
BRANCH  11  12
ATOM     12  C   UNL     1      26.535  12.320  35.150  1.00  0.00     0.041 C 
ATOM     13  O   UNL     1      26.571  11.063  35.107  1.00  0.00    -0.550 OA
ATOM     14  O   UNL     1      25.684  12.952  36.049  1.00  0.00    -0.550 OA
ENDBRANCH  11  12
ENDBRANCH  10  11
ENDBRANCH   9  10
ENDBRANCH   8   9
ENDBRANCH   7   8
ENDBRANCH   6   7
ENDBRANCH   5   6
ENDBRANCH   4   5
ENDBRANCH   3   4
ENDBRANCH   2   3
ENDBRANCH   1   2
BRANCH   1  15
ATOM     15  C   UNL     1      21.816  11.585  35.870  1.00  0.00     0.000 C 
BRANCH  15  16
ATOM     16  C   UNL     1      21.081  12.927  35.700  1.00  0.00     0.000 C 
BRANCH  16  17
ATOM     17  C   UNL     1      19.562  12.804  35.905  1.00  0.00     0.000 C 
BRANCH  17  18
ATOM     18  C   UNL     1      18.701  13.224  34.696  1.00  0.00    -0.000 C 
BRANCH  18  19
ATOM     19  C   UNL     1      19.478  13.742  33.468  1.00  0.00    -0.000 C 
BRANCH  19  20
ATOM     20  C   UNL     1      19.520  12.772  32.266  1.00  0.00    -0.000 C 
BRANCH  20  21
ATOM     21  C   UNL     1      19.044  11.343  32.594  1.00  0.00    -0.000 C 
BRANCH  21  22
ATOM     22  C   UNL     1      20.165  10.304  32.782  1.00  0.00    -0.000 C 
BRANCH  22  23
ATOM     23  C   UNL     1      19.759   9.035  33.557  1.00  0.00    -0.000 C 
BRANCH  23  24
ATOM     24  C   UNL     1      19.053   9.290  34.902  1.00  0.00    -0.000 C 
BRANCH  24  25
ATOM     25  C   UNL     1      19.873   8.845  36.131  1.00  0.00    -0.003 C 
ATOM     26  C   UNL     1      19.118   7.856  37.020  1.00  0.00     0.004 C 
ENDBRANCH  24  25
ENDBRANCH  23  24
ENDBRANCH  22  23
ENDBRANCH  21  22
ENDBRANCH  20  21
ENDBRANCH  19  20
ENDBRANCH  18  19
ENDBRANCH  17  18
ENDBRANCH  16  17
ENDBRANCH  15  16
ENDBRANCH   1  15
TORSDOF 22
ENDMDL
MODEL 9
REMARK VINA RESULT:    -4.661      2.152      6.929
REMARK INTER + INTRA:         -14.081
REMARK INTER:                 -10.448
REMARK INTRA:                  -3.633
REMARK UNBOUND:                -3.426
REMARK SMILES CCCCCCCCCCCCCCCCCCCCCCCC(=O)[O-]
REMARK SMILES IDX 13 1 14 2 15 3 16 4 17 5 18 6 19 7 20 8 21 9 22 10 23 11
REMARK SMILES IDX 24 12 25 13 26 14 12 15 11 16 10 17 9 18 8 19 7 20 6 21 5 22
REMARK SMILES IDX 4 23 3 24 2 25 1 26
REMARK H PARENT
REMARK Flexibility Score: inf
ROOT
ATOM      1  C   UNL     1      20.598  13.098  35.510  1.00  0.00     0.000 C 
ENDROOT
BRANCH   1   2
ATOM      2  C   UNL     1      20.540  13.892  34.193  1.00  0.00     0.000 C 
BRANCH   2   3
ATOM      3  C   UNL     1      19.135  13.889  33.570  1.00  0.00     0.000 C 
BRANCH   3   4
ATOM      4  C   UNL     1      19.171  13.733  32.040  1.00  0.00     0.000 C 
BRANCH   4   5
ATOM      5  C   UNL     1      20.523  14.143  31.428  1.00  0.00     0.000 C 
BRANCH   5   6
ATOM      6  C   UNL     1      20.915  13.376  30.148  1.00  0.00     0.000 C 
BRANCH   6   7
ATOM      7  C   UNL     1      22.030  12.328  30.329  1.00  0.00     0.000 C 
BRANCH   7   8
ATOM      8  C   UNL     1      21.630  11.084  31.147  1.00  0.00     0.000 C 
BRANCH   8   9
ATOM      9  C   UNL     1      20.342  10.381  30.679  1.00  0.00     0.000 C 
BRANCH   9  10
ATOM     10  C   UNL     1      19.378   9.956  31.804  1.00  0.00     0.006 C 
BRANCH  10  11
ATOM     11  C   UNL     1      20.081   9.575  33.121  1.00  0.00     0.053 C 
BRANCH  11  12
ATOM     12  C   UNL     1      19.189   9.728  34.316  1.00  0.00     0.041 C 
ATOM     13  O   UNL     1      19.315   8.962  35.306  1.00  0.00    -0.550 OA
ATOM     14  O   UNL     1      18.190  10.696  34.319  1.00  0.00    -0.550 OA
ENDBRANCH  11  12
ENDBRANCH  10  11
ENDBRANCH   9  10
ENDBRANCH   8   9
ENDBRANCH   7   8
ENDBRANCH   6   7
ENDBRANCH   5   6
ENDBRANCH   4   5
ENDBRANCH   3   4
ENDBRANCH   2   3
ENDBRANCH   1   2
BRANCH   1  15
ATOM     15  C   UNL     1      21.727  12.058  35.522  1.00  0.00     0.000 C 
BRANCH  15  16
ATOM     16  C   UNL     1      22.578  12.095  34.240  1.00  0.00     0.000 C 
BRANCH  16  17
ATOM     17  C   UNL     1      23.992  11.526  34.446  1.00  0.00     0.000 C 
BRANCH  17  18
ATOM     18  C   UNL     1      24.561  11.683  35.871  1.00  0.00    -0.000 C 
BRANCH  18  19
ATOM     19  C   UNL     1      25.326  12.995  36.146  1.00  0.00    -0.000 C 
BRANCH  19  20
ATOM     20  C   UNL     1      26.473  13.300  35.155  1.00  0.00    -0.000 C 
BRANCH  20  21
ATOM     21  C   UNL     1      27.664  12.327  35.253  1.00  0.00    -0.000 C 
BRANCH  21  22
ATOM     22  C   UNL     1      28.090  11.673  33.925  1.00  0.00    -0.000 C 
BRANCH  22  23
ATOM     23  C   UNL     1      28.025  12.592  32.691  1.00  0.00    -0.000 C 
BRANCH  23  24
ATOM     24  C   UNL     1      27.939  11.862  31.337  1.00  0.00    -0.000 C 
BRANCH  24  25
ATOM     25  C   UNL     1      26.554  11.959  30.663  1.00  0.00    -0.003 C 
ATOM     26  C   UNL     1      25.601  12.900  31.402  1.00  0.00     0.004 C 
ENDBRANCH  24  25
ENDBRANCH  23  24
ENDBRANCH  22  23
ENDBRANCH  21  22
ENDBRANCH  20  21
ENDBRANCH  19  20
ENDBRANCH  18  19
ENDBRANCH  17  18
ENDBRANCH  16  17
ENDBRANCH  15  16
ENDBRANCH   1  15
TORSDOF 22
ENDMDL
