MODEL 1
REMARK VINA RESULT:    -5.296      0.000      0.000
REMARK INTER + INTRA:         -11.735
REMARK INTER:                 -10.250
REMARK INTRA:                  -1.485
REMARK UNBOUND:                -1.485
REMARK SMILES CCCCCCCCCCCCCCCCCC(=O)[O-]
REMARK SMILES IDX 10 1 11 2 12 3 13 4 14 5 15 6 16 7 17 8 18 9 19 10 20 11
REMARK SMILES IDX 9 12 8 13 7 14 6 15 5 16 4 17 3 18 2 19 1 20
REMARK H PARENT
REMARK Flexibility Score: inf
ROOT
ATOM      1  C   UNL     1     260.290 262.583 248.007  1.00  0.00     0.000 C 
ENDROOT
BRANCH   1   2
ATOM      2  C   UNL     1     259.219 261.971 248.930  1.00  0.00     0.000 C 
BRANCH   2   3
ATOM      3  C   UNL     1     258.253 262.986 249.576  1.00  0.00     0.000 C 
BRANCH   3   4
ATOM      4  C   UNL     1     257.488 262.468 250.808  1.00  0.00     0.000 C 
BRANCH   4   5
ATOM      5  C   UNL     1     256.474 261.366 250.464  1.00  0.00     0.000 C 
BRANCH   5   6
ATOM      6  C   UNL     1     255.558 261.073 251.661  1.00  0.00     0.000 C 
BRANCH   6   7
ATOM      7  C   UNL     1     255.936 261.885 252.910  1.00  0.00     0.006 C 
BRANCH   7   8
ATOM      8  C   UNL     1     254.738 262.147 253.832  1.00  0.00     0.053 C 
BRANCH   8   9
ATOM      9  C   UNL     1     254.224 260.861 254.397  1.00  0.00     0.041 C 
ATOM     10  O   UNL     1     254.901 260.226 255.248  1.00  0.00    -0.550 OA
ATOM     11  O   UNL     1     253.017 260.337 253.951  1.00  0.00    -0.550 OA
ENDBRANCH   8   9
ENDBRANCH   7   8
ENDBRANCH   6   7
ENDBRANCH   5   6
ENDBRANCH   4   5
ENDBRANCH   3   4
ENDBRANCH   2   3
ENDBRANCH   1   2
BRANCH   1  12
ATOM     12  C   UNL     1     260.027 262.388 246.501  1.00  0.00     0.000 C 
BRANCH  12  13
ATOM     13  C   UNL     1     259.201 261.122 246.175  1.00  0.00    -0.000 C 
BRANCH  13  14
ATOM     14  C   UNL     1     258.353 261.230 244.892  1.00  0.00    -0.000 C 
BRANCH  14  15
ATOM     15  C   UNL     1     256.831 261.290 245.124  1.00  0.00    -0.000 C 
BRANCH  15  16
ATOM     16  C   UNL     1     256.437 261.052 246.592  1.00  0.00    -0.000 C 
BRANCH  16  17
ATOM     17  C   UNL     1     255.110 260.289 246.736  1.00  0.00    -0.000 C 
BRANCH  17  18
ATOM     18  C   UNL     1     254.160 260.944 247.755  1.00  0.00    -0.000 C 
BRANCH  18  19
ATOM     19  C   UNL     1     252.754 261.177 247.182  1.00  0.00    -0.003 C 
ATOM     20  C   UNL     1     251.937 259.890 247.073  1.00  0.00     0.004 C 
ENDBRANCH  18  19
ENDBRANCH  17  18
ENDBRANCH  16  17
ENDBRANCH  15  16
ENDBRANCH  14  15
ENDBRANCH  13  14
ENDBRANCH  12  13
ENDBRANCH   1  12
TORSDOF 16
ENDMDL
MODEL 2
REMARK VINA RESULT:    -5.207      1.289      4.352
REMARK INTER + INTRA:         -11.562
REMARK INTER:                  -9.821
REMARK INTRA:                  -1.741
REMARK UNBOUND:                -1.485
REMARK SMILES CCCCCCCCCCCCCCCCCC(=O)[O-]
REMARK SMILES IDX 10 1 11 2 12 3 13 4 14 5 15 6 16 7 17 8 18 9 19 10 20 11
REMARK SMILES IDX 9 12 8 13 7 14 6 15 5 16 4 17 3 18 2 19 1 20
REMARK H PARENT
REMARK Flexibility Score: inf
ROOT
ATOM      1  C   UNL     1     254.713 260.579 245.620  1.00  0.00     0.000 C 
ENDROOT
BRANCH   1   2
ATOM      2  C   UNL     1     253.816 260.669 246.869  1.00  0.00     0.000 C 
BRANCH   2   3
ATOM      3  C   UNL     1     254.563 260.896 248.199  1.00  0.00     0.000 C 
BRANCH   3   4
ATOM      4  C   UNL     1     254.875 259.619 249.000  1.00  0.00     0.000 C 
BRANCH   4   5
ATOM      5  C   UNL     1     255.607 259.904 250.321  1.00  0.00     0.000 C 
BRANCH   5   6
ATOM      6  C   UNL     1     256.279 261.285 250.286  1.00  0.00     0.000 C 
BRANCH   6   7
ATOM      7  C   UNL     1     256.101 262.063 251.599  1.00  0.00     0.006 C 
BRANCH   7   8
ATOM      8  C   UNL     1     254.627 262.238 251.990  1.00  0.00     0.053 C 
BRANCH   8   9
ATOM      9  C   UNL     1     254.393 261.739 253.380  1.00  0.00     0.041 C 
ATOM     10  O   UNL     1     254.989 262.269 254.353  1.00  0.00    -0.550 OA
ATOM     11  O   UNL     1     253.550 260.655 253.597  1.00  0.00    -0.550 OA
ENDBRANCH   8   9
ENDBRANCH   7   8
ENDBRANCH   6   7
ENDBRANCH   5   6
ENDBRANCH   4   5
ENDBRANCH   3   4
ENDBRANCH   2   3
ENDBRANCH   1   2
BRANCH   1  12
ATOM     12  C   UNL     1     256.093 261.247 245.770  1.00  0.00     0.000 C 
BRANCH  12  13
ATOM     13  C   UNL     1     257.073 260.911 244.623  1.00  0.00    -0.000 C 
BRANCH  13  14
ATOM     14  C   UNL     1     258.541 261.285 244.911  1.00  0.00    -0.000 C 
BRANCH  14  15
ATOM     15  C   UNL     1     258.963 261.163 246.388  1.00  0.00    -0.000 C 
BRANCH  15  16
ATOM     16  C   UNL     1     259.690 262.414 246.911  1.00  0.00    -0.000 C 
BRANCH  16  17
ATOM     17  C   UNL     1     258.726 263.554 247.278  1.00  0.00    -0.000 C 
BRANCH  17  18
ATOM     18  C   UNL     1     258.929 264.057 248.719  1.00  0.00    -0.000 C 
BRANCH  18  19
ATOM     19  C   UNL     1     260.104 263.361 249.424  1.00  0.00    -0.003 C 
ATOM     20  C   UNL     1     259.720 262.778 250.783  1.00  0.00     0.004 C 
ENDBRANCH  18  19
ENDBRANCH  17  18
ENDBRANCH  16  17
ENDBRANCH  15  16
ENDBRANCH  14  15
ENDBRANCH  13  14
ENDBRANCH  12  13
ENDBRANCH   1  12
TORSDOF 16
ENDMDL
MODEL 3
REMARK VINA RESULT:    -5.179      4.365      8.085
REMARK INTER + INTRA:         -11.509
REMARK INTER:                  -9.379
REMARK INTRA:                  -2.130
REMARK UNBOUND:                -1.485
REMARK SMILES CCCCCCCCCCCCCCCCCC(=O)[O-]
REMARK SMILES IDX 10 1 11 2 12 3 13 4 14 5 15 6 16 7 17 8 18 9 19 10 20 11
REMARK SMILES IDX 9 12 8 13 7 14 6 15 5 16 4 17 3 18 2 19 1 20
REMARK H PARENT
REMARK Flexibility Score: inf
ROOT
ATOM      1  C   UNL     1     251.067 258.892 247.183  1.00  0.00     0.000 C 
ENDROOT
BRANCH   1   2
ATOM      2  C   UNL     1     249.717 258.184 246.960  1.00  0.00     0.000 C 
BRANCH   2   3
ATOM      3  C   UNL     1     249.792 256.647 246.858  1.00  0.00     0.000 C 
BRANCH   3   4
ATOM      4  C   UNL     1     249.832 256.087 245.425  1.00  0.00     0.000 C 
BRANCH   4   5
ATOM      5  C   UNL     1     250.717 254.838 245.294  1.00  0.00     0.000 C 
BRANCH   5   6
ATOM      6  C   UNL     1     252.161 255.144 245.719  1.00  0.00     0.000 C 
BRANCH   6   7
ATOM      7  C   UNL     1     252.643 254.247 246.870  1.00  0.00     0.006 C 
BRANCH   7   8
ATOM      8  C   UNL     1     254.114 253.836 246.724  1.00  0.00     0.053 C 
BRANCH   8   9
ATOM      9  C   UNL     1     254.916 254.350 247.877  1.00  0.00     0.041 C 
ATOM     10  O   UNL     1     255.374 255.523 247.859  1.00  0.00    -0.550 OA
ATOM     11  O   UNL     1     255.198 253.519 248.955  1.00  0.00    -0.550 OA
ENDBRANCH   8   9
ENDBRANCH   7   8
ENDBRANCH   6   7
ENDBRANCH   5   6
ENDBRANCH   4   5
ENDBRANCH   3   4
ENDBRANCH   2   3
ENDBRANCH   1   2
BRANCH   1  12
ATOM     12  C   UNL     1     252.181 257.989 247.745  1.00  0.00     0.000 C 
BRANCH  12  13
ATOM     13  C   UNL     1     253.601 258.402 247.293  1.00  0.00    -0.000 C 
BRANCH  13  14
ATOM     14  C   UNL     1     253.760 258.564 245.768  1.00  0.00    -0.000 C 
BRANCH  14  15
ATOM     15  C   UNL     1     254.506 259.839 245.326  1.00  0.00    -0.000 C 
BRANCH  15  16
ATOM     16  C   UNL     1     254.792 260.802 246.490  1.00  0.00    -0.000 C 
BRANCH  16  17
ATOM     17  C   UNL     1     256.293 260.949 246.787  1.00  0.00    -0.000 C 
BRANCH  17  18
ATOM     18  C   UNL     1     256.648 260.570 248.236  1.00  0.00    -0.000 C 
BRANCH  18  19
ATOM     19  C   UNL     1     255.503 260.865 249.217  1.00  0.00    -0.003 C 
ATOM     20  C   UNL     1     255.306 259.755 250.249  1.00  0.00     0.004 C 
ENDBRANCH  18  19
ENDBRANCH  17  18
ENDBRANCH  16  17
ENDBRANCH  15  16
ENDBRANCH  14  15
ENDBRANCH  13  14
ENDBRANCH  12  13
ENDBRANCH   1  12
TORSDOF 16
ENDMDL
MODEL 4
REMARK VINA RESULT:    -5.163      3.195      6.540
REMARK INTER + INTRA:         -11.477
REMARK INTER:                  -8.917
REMARK INTRA:                  -2.560
REMARK UNBOUND:                -1.485
REMARK SMILES CCCCCCCCCCCCCCCCCC(=O)[O-]
REMARK SMILES IDX 10 1 11 2 12 3 13 4 14 5 15 6 16 7 17 8 18 9 19 10 20 11
REMARK SMILES IDX 9 12 8 13 7 14 6 15 5 16 4 17 3 18 2 19 1 20
REMARK H PARENT
REMARK Flexibility Score: inf
ROOT
ATOM      1  C   UNL     1     253.703 260.889 246.411  1.00  0.00     0.000 C 
ENDROOT
BRANCH   1   2
ATOM      2  C   UNL     1     254.461 260.106 245.322  1.00  0.00     0.000 C 
BRANCH   2   3
ATOM      3  C   UNL     1     255.901 260.587 245.049  1.00  0.00     0.000 C 
BRANCH   3   4
ATOM      4  C   UNL     1     256.530 261.436 246.168  1.00  0.00     0.000 C 
BRANCH   4   5
ATOM      5  C   UNL     1     257.917 261.985 245.797  1.00  0.00     0.000 C 
BRANCH   5   6
ATOM      6  C   UNL     1     258.870 260.845 245.407  1.00  0.00     0.000 C 
BRANCH   6   7
ATOM      7  C   UNL     1     260.012 260.656 246.417  1.00  0.00     0.006 C 
BRANCH   7   8
ATOM      8  C   UNL     1     259.514 260.583 247.867  1.00  0.00     0.053 C 
BRANCH   8   9
ATOM      9  C   UNL     1     260.092 261.702 248.674  1.00  0.00     0.041 C 
ATOM     10  O   UNL     1     260.511 262.743 248.105  1.00  0.00    -0.550 OA
ATOM     11  O   UNL     1     260.210 261.576 250.053  1.00  0.00    -0.550 OA
ENDBRANCH   8   9
ENDBRANCH   7   8
ENDBRANCH   6   7
ENDBRANCH   5   6
ENDBRANCH   4   5
ENDBRANCH   3   4
ENDBRANCH   2   3
ENDBRANCH   1   2
BRANCH   1  12
ATOM     12  C   UNL     1     252.541 260.119 247.064  1.00  0.00     0.000 C 
BRANCH  12  13
ATOM     13  C   UNL     1     252.589 258.593 246.814  1.00  0.00    -0.000 C 
BRANCH  13  14
ATOM     14  C   UNL     1     252.304 257.735 248.062  1.00  0.00    -0.000 C 
BRANCH  14  15
ATOM     15  C   UNL     1     253.544 257.393 248.911  1.00  0.00    -0.000 C 
BRANCH  15  16
ATOM     16  C   UNL     1     254.855 257.449 248.109  1.00  0.00    -0.000 C 
BRANCH  16  17
ATOM     17  C   UNL     1     255.774 258.600 248.551  1.00  0.00    -0.000 C 
BRANCH  17  18
ATOM     18  C   UNL     1     255.253 259.323 249.806  1.00  0.00    -0.000 C 
BRANCH  18  19
ATOM     19  C   UNL     1     255.345 260.852 249.683  1.00  0.00    -0.003 C 
ATOM     20  C   UNL     1     256.619 261.421 250.308  1.00  0.00     0.004 C 
ENDBRANCH  18  19
ENDBRANCH  17  18
ENDBRANCH  16  17
ENDBRANCH  15  16
ENDBRANCH  14  15
ENDBRANCH  13  14
ENDBRANCH  12  13
ENDBRANCH   1  12
TORSDOF 16
ENDMDL
MODEL 5
REMARK VINA RESULT:    -5.119      4.238      6.813
REMARK INTER + INTRA:         -11.391
REMARK INTER:                  -8.736
REMARK INTRA:                  -2.655
REMARK UNBOUND:                -1.485
REMARK SMILES CCCCCCCCCCCCCCCCCC(=O)[O-]
REMARK SMILES IDX 10 1 11 2 12 3 13 4 14 5 15 6 16 7 17 8 18 9 19 10 20 11
REMARK SMILES IDX 9 12 8 13 7 14 6 15 5 16 4 17 3 18 2 19 1 20
REMARK H PARENT
REMARK Flexibility Score: inf
ROOT
ATOM      1  C   UNL     1     255.389 261.213 246.106  1.00  0.00     0.000 C 
ENDROOT
BRANCH   1   2
ATOM      2  C   UNL     1     254.836 260.135 245.154  1.00  0.00     0.000 C 
BRANCH   2   3
ATOM      3  C   UNL     1     253.778 259.196 245.771  1.00  0.00     0.000 C 
BRANCH   3   4
ATOM      4  C   UNL     1     252.842 259.851 246.801  1.00  0.00     0.000 C 
BRANCH   4   5
ATOM      5  C   UNL     1     251.792 258.878 247.361  1.00  0.00     0.000 C 
BRANCH   5   6
ATOM      6  C   UNL     1     250.370 259.373 247.057  1.00  0.00     0.000 C 
BRANCH   6   7
ATOM      7  C   UNL     1     249.320 258.256 247.158  1.00  0.00     0.006 C 
BRANCH   7   8
ATOM      8  C   UNL     1     249.867 256.987 247.825  1.00  0.00     0.053 C 
BRANCH   8   9
ATOM      9  C   UNL     1     249.182 255.774 247.278  1.00  0.00     0.041 C 
ATOM     10  O   UNL     1     248.052 255.876 246.734  1.00  0.00    -0.550 OA
ATOM     11  O   UNL     1     249.772 254.523 247.412  1.00  0.00    -0.550 OA
ENDBRANCH   8   9
ENDBRANCH   7   8
ENDBRANCH   6   7
ENDBRANCH   5   6
ENDBRANCH   4   5
ENDBRANCH   3   4
ENDBRANCH   2   3
ENDBRANCH   1   2
BRANCH   1  12
ATOM     12  C   UNL     1     256.842 260.982 246.563  1.00  0.00     0.000 C 
BRANCH  12  13
ATOM     13  C   UNL     1     256.994 260.839 248.095  1.00  0.00    -0.000 C 
BRANCH  13  14
ATOM     14  C   UNL     1     255.660 260.801 248.866  1.00  0.00    -0.000 C 
BRANCH  14  15
ATOM     15  C   UNL     1     255.361 259.469 249.581  1.00  0.00    -0.000 C 
BRANCH  15  16
ATOM     16  C   UNL     1     255.618 258.239 248.693  1.00  0.00    -0.000 C 
BRANCH  16  17
ATOM     17  C   UNL     1     254.623 257.097 248.955  1.00  0.00    -0.000 C 
BRANCH  17  18
ATOM     18  C   UNL     1     254.674 256.008 247.869  1.00  0.00    -0.000 C 
BRANCH  18  19
ATOM     19  C   UNL     1     253.283 255.444 247.537  1.00  0.00    -0.003 C 
ATOM     20  C   UNL     1     252.918 255.597 246.061  1.00  0.00     0.004 C 
ENDBRANCH  18  19
ENDBRANCH  17  18
ENDBRANCH  16  17
ENDBRANCH  15  16
ENDBRANCH  14  15
ENDBRANCH  13  14
ENDBRANCH  12  13
ENDBRANCH   1  12
TORSDOF 16
ENDMDL
MODEL 6
REMARK VINA RESULT:    -5.114      5.036      8.925
REMARK INTER + INTRA:         -11.382
REMARK INTER:                  -9.180
REMARK INTRA:                  -2.203
REMARK UNBOUND:                -1.485
REMARK SMILES CCCCCCCCCCCCCCCCCC(=O)[O-]
REMARK SMILES IDX 10 1 11 2 12 3 13 4 14 5 15 6 16 7 17 8 18 9 19 10 20 11
REMARK SMILES IDX 9 12 8 13 7 14 6 15 5 16 4 17 3 18 2 19 1 20
REMARK H PARENT
REMARK Flexibility Score: inf
ROOT
ATOM      1  C   UNL     1     251.052 258.943 246.884  1.00  0.00     0.000 C 
ENDROOT
BRANCH   1   2
ATOM      2  C   UNL     1     249.626 259.393 247.254  1.00  0.00     0.000 C 
BRANCH   2   3
ATOM      3  C   UNL     1     248.891 260.204 246.166  1.00  0.00     0.000 C 
BRANCH   3   4
ATOM      4  C   UNL     1     247.699 259.486 245.509  1.00  0.00     0.000 C 
BRANCH   4   5
ATOM      5  C   UNL     1     247.938 257.980 245.318  1.00  0.00     0.000 C 
BRANCH   5   6
ATOM      6  C   UNL     1     246.946 257.159 246.155  1.00  0.00     0.000 C 
BRANCH   6   7
ATOM      7  C   UNL     1     247.496 255.775 246.536  1.00  0.00     0.006 C 
BRANCH   7   8
ATOM      8  C   UNL     1     248.972 255.600 246.158  1.00  0.00     0.053 C 
BRANCH   8   9
ATOM      9  C   UNL     1     249.470 254.261 246.603  1.00  0.00     0.041 C 
ATOM     10  O   UNL     1     250.669 253.934 246.409  1.00  0.00    -0.550 OA
ATOM     11  O   UNL     1     248.596 253.355 247.192  1.00  0.00    -0.550 OA
ENDBRANCH   8   9
ENDBRANCH   7   8
ENDBRANCH   6   7
ENDBRANCH   5   6
ENDBRANCH   4   5
ENDBRANCH   3   4
ENDBRANCH   2   3
ENDBRANCH   1   2
BRANCH   1  12
ATOM     12  C   UNL     1     251.571 257.733 247.682  1.00  0.00     0.000 C 
BRANCH  12  13
ATOM     13  C   UNL     1     252.540 256.831 246.882  1.00  0.00    -0.000 C 
BRANCH  13  14
ATOM     14  C   UNL     1     254.030 257.189 247.055  1.00  0.00    -0.000 C 
BRANCH  14  15
ATOM     15  C   UNL     1     254.422 257.668 248.466  1.00  0.00    -0.000 C 
BRANCH  15  16
ATOM     16  C   UNL     1     255.314 258.921 248.449  1.00  0.00    -0.000 C 
BRANCH  16  17
ATOM     17  C   UNL     1     254.517 260.222 248.637  1.00  0.00    -0.000 C 
BRANCH  17  18
ATOM     18  C   UNL     1     254.182 260.908 247.300  1.00  0.00    -0.000 C 
BRANCH  18  19
ATOM     19  C   UNL     1     255.258 260.664 246.230  1.00  0.00    -0.003 C 
ATOM     20  C   UNL     1     254.689 260.074 244.941  1.00  0.00     0.004 C 
ENDBRANCH  18  19
ENDBRANCH  17  18
ENDBRANCH  16  17
ENDBRANCH  15  16
ENDBRANCH  14  15
ENDBRANCH  13  14
ENDBRANCH  12  13
ENDBRANCH   1  12
TORSDOF 16
ENDMDL
MODEL 7
REMARK VINA RESULT:    -5.114      1.820      4.831
REMARK INTER + INTRA:         -11.382
REMARK INTER:                  -9.184
REMARK INTRA:                  -2.197
REMARK UNBOUND:                -1.485
REMARK SMILES CCCCCCCCCCCCCCCCCC(=O)[O-]
REMARK SMILES IDX 10 1 11 2 12 3 13 4 14 5 15 6 16 7 17 8 18 9 19 10 20 11
REMARK SMILES IDX 9 12 8 13 7 14 6 15 5 16 4 17 3 18 2 19 1 20
REMARK H PARENT
REMARK Flexibility Score: inf
ROOT
ATOM      1  C   UNL     1     253.754 258.463 246.468  1.00  0.00     0.000 C 
ENDROOT
BRANCH   1   2
ATOM      2  C   UNL     1     253.657 257.498 247.665  1.00  0.00     0.000 C 
BRANCH   2   3
ATOM      3  C   UNL     1     254.970 257.286 248.446  1.00  0.00     0.000 C 
BRANCH   3   4
ATOM      4  C   UNL     1     255.712 258.576 248.841  1.00  0.00     0.000 C 
BRANCH   4   5
ATOM      5  C   UNL     1     255.134 259.237 250.102  1.00  0.00     0.000 C 
BRANCH   5   6
ATOM      6  C   UNL     1     255.240 260.766 250.015  1.00  0.00     0.000 C 
BRANCH   6   7
ATOM      7  C   UNL     1     254.849 261.463 251.328  1.00  0.00     0.006 C 
BRANCH   7   8
ATOM      8  C   UNL     1     256.061 262.015 252.089  1.00  0.00     0.053 C 
BRANCH   8   9
ATOM      9  C   UNL     1     255.803 262.002 253.563  1.00  0.00     0.041 C 
ATOM     10  O   UNL     1     254.626 262.096 254.001  1.00  0.00    -0.550 OA
ATOM     11  O   UNL     1     256.865 261.931 254.455  1.00  0.00    -0.550 OA
ENDBRANCH   8   9
ENDBRANCH   7   8
ENDBRANCH   6   7
ENDBRANCH   5   6
ENDBRANCH   4   5
ENDBRANCH   3   4
ENDBRANCH   2   3
ENDBRANCH   1   2
BRANCH   1  12
ATOM     12  C   UNL     1     253.197 259.874 246.735  1.00  0.00     0.000 C 
BRANCH  12  13
ATOM     13  C   UNL     1     254.141 261.011 246.279  1.00  0.00    -0.000 C 
BRANCH  13  14
ATOM     14  C   UNL     1     255.389 260.530 245.512  1.00  0.00    -0.000 C 
BRANCH  14  15
ATOM     15  C   UNL     1     256.626 261.438 245.653  1.00  0.00    -0.000 C 
BRANCH  15  16
ATOM     16  C   UNL     1     257.309 261.314 247.026  1.00  0.00    -0.000 C 
BRANCH  16  17
ATOM     17  C   UNL     1     258.769 260.846 246.925  1.00  0.00    -0.000 C 
BRANCH  17  18
ATOM     18  C   UNL     1     259.590 261.199 248.179  1.00  0.00    -0.000 C 
BRANCH  18  19
ATOM     19  C   UNL     1     258.702 261.554 249.381  1.00  0.00    -0.003 C 
ATOM     20  C   UNL     1     258.948 262.969 249.903  1.00  0.00     0.004 C 
ENDBRANCH  18  19
ENDBRANCH  17  18
ENDBRANCH  16  17
ENDBRANCH  15  16
ENDBRANCH  14  15
ENDBRANCH  13  14
ENDBRANCH  12  13
ENDBRANCH   1  12
TORSDOF 16
ENDMDL
MODEL 8
REMARK VINA RESULT:    -5.110      4.235      7.655
REMARK INTER + INTRA:         -11.375
REMARK INTER:                  -9.149
REMARK INTRA:                  -2.227
REMARK UNBOUND:                -1.485
REMARK SMILES CCCCCCCCCCCCCCCCCC(=O)[O-]
REMARK SMILES IDX 10 1 11 2 12 3 13 4 14 5 15 6 16 7 17 8 18 9 19 10 20 11
REMARK SMILES IDX 9 12 8 13 7 14 6 15 5 16 4 17 3 18 2 19 1 20
REMARK H PARENT
REMARK Flexibility Score: inf
ROOT
ATOM      1  C   UNL     1     253.121 257.869 248.081  1.00  0.00     0.000 C 
ENDROOT
BRANCH   1   2
ATOM      2  C   UNL     1     254.401 257.017 247.984  1.00  0.00     0.000 C 
BRANCH   2   3
ATOM      3  C   UNL     1     254.169 255.503 247.793  1.00  0.00     0.000 C 
BRANCH   3   4
ATOM      4  C   UNL     1     253.288 255.123 246.590  1.00  0.00     0.000 C 
BRANCH   4   5
ATOM      5  C   UNL     1     252.259 254.032 246.923  1.00  0.00     0.000 C 
BRANCH   5   6
ATOM      6  C   UNL     1     250.865 254.420 246.407  1.00  0.00     0.000 C 
BRANCH   6   7
ATOM      7  C   UNL     1     250.790 255.883 245.946  1.00  0.00     0.006 C 
BRANCH   7   8
ATOM      8  C   UNL     1     249.358 256.329 245.621  1.00  0.00     0.053 C 
BRANCH   8   9
ATOM      9  C   UNL     1     248.888 257.341 246.617  1.00  0.00     0.041 C 
ATOM     10  O   UNL     1     249.450 258.464 246.694  1.00  0.00    -0.550 OA
ATOM     11  O   UNL     1     247.856 257.027 247.494  1.00  0.00    -0.550 OA
ENDBRANCH   8   9
ENDBRANCH   7   8
ENDBRANCH   6   7
ENDBRANCH   5   6
ENDBRANCH   4   5
ENDBRANCH   3   4
ENDBRANCH   2   3
ENDBRANCH   1   2
BRANCH   1  12
ATOM     12  C   UNL     1     252.892 258.822 246.893  1.00  0.00     0.000 C 
BRANCH  12  13
ATOM     13  C   UNL     1     253.877 258.600 245.722  1.00  0.00    -0.000 C 
BRANCH  13  14
ATOM     14  C   UNL     1     254.527 259.891 245.186  1.00  0.00    -0.000 C 
BRANCH  14  15
ATOM     15  C   UNL     1     254.798 260.972 246.251  1.00  0.00    -0.000 C 
BRANCH  15  16
ATOM     16  C   UNL     1     256.220 260.898 246.834  1.00  0.00    -0.000 C 
BRANCH  16  17
ATOM     17  C   UNL     1     256.252 260.312 248.255  1.00  0.00    -0.000 C 
BRANCH  17  18
ATOM     18  C   UNL     1     255.112 260.849 249.140  1.00  0.00    -0.000 C 
BRANCH  18  19
ATOM     19  C   UNL     1     255.304 260.493 250.623  1.00  0.00    -0.003 C 
ATOM     20  C   UNL     1     254.970 261.654 251.559  1.00  0.00     0.004 C 
ENDBRANCH  18  19
ENDBRANCH  17  18
ENDBRANCH  16  17
ENDBRANCH  15  16
ENDBRANCH  14  15
ENDBRANCH  13  14
ENDBRANCH  12  13
ENDBRANCH   1  12
TORSDOF 16
ENDMDL
MODEL 9
REMARK VINA RESULT:    -5.079      4.638      7.746
REMARK INTER + INTRA:         -11.315
REMARK INTER:                  -8.968
REMARK INTRA:                  -2.347
REMARK UNBOUND:                -1.485
REMARK SMILES CCCCCCCCCCCCCCCCCC(=O)[O-]
REMARK SMILES IDX 10 1 11 2 12 3 13 4 14 5 15 6 16 7 17 8 18 9 19 10 20 11
REMARK SMILES IDX 9 12 8 13 7 14 6 15 5 16 4 17 3 18 2 19 1 20
REMARK H PARENT
REMARK Flexibility Score: inf
ROOT
ATOM      1  C   UNL     1     253.316 254.525 248.258  1.00  0.00     0.000 C 
ENDROOT
BRANCH   1   2
ATOM      2  C   UNL     1     253.088 254.418 246.738  1.00  0.00     0.000 C 
BRANCH   2   3
ATOM      3  C   UNL     1     252.444 255.657 246.082  1.00  0.00     0.000 C 
BRANCH   3   4
ATOM      4  C   UNL     1     253.033 257.010 246.520  1.00  0.00     0.000 C 
BRANCH   4   5
ATOM      5  C   UNL     1     252.114 257.781 247.480  1.00  0.00     0.000 C 
BRANCH   5   6
ATOM      6  C   UNL     1     250.663 257.290 247.361  1.00  0.00     0.000 C 
BRANCH   6   7
ATOM      7  C   UNL     1     249.650 258.444 247.306  1.00  0.00     0.006 C 
BRANCH   7   8
ATOM      8  C   UNL     1     250.298 259.784 246.931  1.00  0.00     0.053 C 
BRANCH   8   9
ATOM      9  C   UNL     1     249.260 260.752 246.460  1.00  0.00     0.041 C 
ATOM     10  O   UNL     1     249.304 261.956 246.825  1.00  0.00    -0.550 OA
ATOM     11  O   UNL     1     248.215 260.315 245.655  1.00  0.00    -0.550 OA
ENDBRANCH   8   9
ENDBRANCH   7   8
ENDBRANCH   6   7
ENDBRANCH   5   6
ENDBRANCH   4   5
ENDBRANCH   3   4
ENDBRANCH   2   3
ENDBRANCH   1   2
BRANCH   1  12
ATOM     12  C   UNL     1     254.712 254.079 248.731  1.00  0.00     0.000 C 
BRANCH  12  13
ATOM     13  C   UNL     1     255.872 254.789 247.995  1.00  0.00    -0.000 C 
BRANCH  13  14
ATOM     14  C   UNL     1     256.536 255.923 248.801  1.00  0.00    -0.000 C 
BRANCH  14  15
ATOM     15  C   UNL     1     255.875 257.306 248.640  1.00  0.00    -0.000 C 
BRANCH  15  16
ATOM     16  C   UNL     1     254.979 257.687 249.831  1.00  0.00    -0.000 C 
BRANCH  16  17
ATOM     17  C   UNL     1     254.921 259.204 250.072  1.00  0.00    -0.000 C 
BRANCH  17  18
ATOM     18  C   UNL     1     255.313 260.015 248.824  1.00  0.00    -0.000 C 
BRANCH  18  19
ATOM     19  C   UNL     1     254.134 260.821 248.254  1.00  0.00    -0.003 C 
ATOM     20  C   UNL     1     254.092 260.810 246.727  1.00  0.00     0.004 C 
ENDBRANCH  18  19
ENDBRANCH  17  18
ENDBRANCH  16  17
ENDBRANCH  15  16
ENDBRANCH  14  15
ENDBRANCH  13  14
ENDBRANCH  12  13
ENDBRANCH   1  12
TORSDOF 16
ENDMDL
