MODEL 1
REMARK VINA RESULT:    -7.578      0.000      0.000
REMARK INTER + INTRA:          -9.482
REMARK INTER:                  -9.349
REMARK INTRA:                  -0.132
REMARK UNBOUND:                -0.132
REMARK SMILES Oc1cc(O)c2cc(O)c(-c3cc(O)c(O)c(O)c3)[o+]c2c1
REMARK SMILES IDX 10 1 20 2 21 3 22 4 2 5 3 6 4 7 6 8 7 9 8 10 11 11 12 12
REMARK SMILES IDX 13 13 19 14 15 15 17 16 14 17 16 19 18 21 9 23 1 25 5 27
REMARK H PARENT 14 18 16 20 18 22 9 24 1 26 5 28
REMARK Flexibility Score: inf
ROOT
ATOM      1  C   UNL     1      22.141  -5.745 -38.915  1.00  0.00     0.402 A 
ATOM      2  O   UNL     1      21.630  -5.217 -40.024  1.00  0.00    -0.202 OA
ATOM      3  C   UNL     1      20.778  -4.198 -40.022  1.00  0.00     0.368 A 
ATOM      4  C   UNL     1      20.298  -3.710 -41.240  1.00  0.00     0.162 A 
ATOM      5  C   UNL     1      19.405  -2.640 -41.270  1.00  0.00     0.128 A 
ATOM      6  C   UNL     1      18.986  -2.049 -40.071  1.00  0.00     0.093 A 
ATOM      7  C   UNL     1      19.451  -2.520 -38.837  1.00  0.00     0.136 A 
ATOM      8  C   UNL     1      20.358  -3.610 -38.805  1.00  0.00     0.125 A 
ATOM      9  C   UNL     1      20.867  -4.156 -37.614  1.00  0.00     0.078 A 
ATOM     10  C   UNL     1      21.754  -5.235 -37.661  1.00  0.00     0.223 A 
ENDROOT
BRANCH   1  11
ATOM     11  C   UNL     1      23.089  -6.874 -39.048  1.00  0.00     0.091 A 
ATOM     12  C   UNL     1      22.744  -7.975 -39.846  1.00  0.00     0.068 A 
ATOM     13  C   UNL     1      23.629  -9.047 -40.006  1.00  0.00     0.162 A 
ATOM     14  C   UNL     1      24.356  -6.841 -38.439  1.00  0.00     0.068 A 
ATOM     15  C   UNL     1      24.886  -9.019 -39.378  1.00  0.00     0.200 A 
ATOM     16  C   UNL     1      25.250  -7.910 -38.596  1.00  0.00     0.162 A 
BRANCH  13  17
ATOM     17  O   UNL     1      23.242 -10.129 -40.796  1.00  0.00    -0.504 OA
ATOM     18  H   UNL     1      23.915 -10.709 -41.283  1.00  0.00     0.293 HD
ENDBRANCH  13  17
BRANCH  15  19
ATOM     19  O   UNL     1      25.762 -10.093 -39.541  1.00  0.00    -0.502 OA
ATOM     20  H   UNL     1      26.691  -9.979 -39.929  1.00  0.00     0.293 HD
ENDBRANCH  15  19
BRANCH  16  21
ATOM     21  O   UNL     1      26.501  -7.870 -37.981  1.00  0.00    -0.504 OA
ATOM     22  H   UNL     1      26.628  -7.461 -37.063  1.00  0.00     0.293 HD
ENDBRANCH  16  21
ENDBRANCH   1  11
BRANCH  10  23
ATOM     23  O   UNL     1      22.221  -5.809 -36.479  1.00  0.00    -0.500 OA
ATOM     24  H   UNL     1      23.134  -6.247 -36.423  1.00  0.00     0.294 HD
ENDBRANCH  10  23
BRANCH   5  25
ATOM     25  O   UNL     1      18.937  -2.167 -42.494  1.00  0.00    -0.507 OA
ATOM     26  H   UNL     1      18.729  -2.795 -43.261  1.00  0.00     0.293 HD
ENDBRANCH   5  25
BRANCH   7  27
ATOM     27  O   UNL     1      18.989  -1.875 -37.686  1.00  0.00    -0.507 OA
ATOM     28  H   UNL     1      18.030  -1.600 -37.532  1.00  0.00     0.293 HD
ENDBRANCH   7  27
TORSDOF 7
ENDMDL
MODEL 2
REMARK VINA RESULT:    -7.516      0.080      1.796
REMARK INTER + INTRA:          -9.405
REMARK INTER:                  -9.337
REMARK INTRA:                  -0.068
REMARK UNBOUND:                -0.132
REMARK SMILES Oc1cc(O)c2cc(O)c(-c3cc(O)c(O)c(O)c3)[o+]c2c1
REMARK SMILES IDX 10 1 20 2 21 3 22 4 2 5 3 6 4 7 6 8 7 9 8 10 11 11 12 12
REMARK SMILES IDX 13 13 19 14 15 15 17 16 14 17 16 19 18 21 9 23 1 25 5 27
REMARK H PARENT 14 18 16 20 18 22 9 24 1 26 5 28
REMARK Flexibility Score: inf
ROOT
ATOM      1  C   UNL     1      22.136  -5.712 -38.937  1.00  0.00     0.402 A 
ATOM      2  O   UNL     1      21.621  -5.154 -40.030  1.00  0.00    -0.202 OA
ATOM      3  C   UNL     1      20.769  -4.136 -39.998  1.00  0.00     0.368 A 
ATOM      4  C   UNL     1      20.285  -3.616 -41.201  1.00  0.00     0.162 A 
ATOM      5  C   UNL     1      19.391  -2.546 -41.198  1.00  0.00     0.128 A 
ATOM      6  C   UNL     1      18.976  -1.987 -39.983  1.00  0.00     0.093 A 
ATOM      7  C   UNL     1      19.446  -2.491 -38.763  1.00  0.00     0.136 A 
ATOM      8  C   UNL     1      20.354  -3.581 -38.763  1.00  0.00     0.125 A 
ATOM      9  C   UNL     1      20.867  -4.158 -37.589  1.00  0.00     0.078 A 
ATOM     10  C   UNL     1      21.754  -5.235 -37.668  1.00  0.00     0.223 A 
ENDROOT
BRANCH   1  11
ATOM     11  C   UNL     1      23.085  -6.836 -39.103  1.00  0.00     0.091 A 
ATOM     12  C   UNL     1      24.319  -6.803 -38.437  1.00  0.00     0.068 A 
ATOM     13  C   UNL     1      25.227  -7.860 -38.561  1.00  0.00     0.162 A 
ATOM     14  C   UNL     1      22.751  -7.967 -39.870  1.00  0.00     0.068 A 
ATOM     15  C   UNL     1      24.898  -8.979 -39.345  1.00  0.00     0.200 A 
ATOM     16  C   UNL     1      23.654  -9.032 -39.997  1.00  0.00     0.162 A 
BRANCH  13  17
ATOM     17  O   UNL     1      26.449  -7.781 -37.894  1.00  0.00    -0.504 OA
ATOM     18  H   UNL     1      27.281  -8.244 -38.239  1.00  0.00     0.293 HD
ENDBRANCH  13  17
BRANCH  15  19
ATOM     19  O   UNL     1      25.810 -10.028 -39.465  1.00  0.00    -0.502 OA
ATOM     20  H   UNL     1      25.740 -10.724 -40.199  1.00  0.00     0.293 HD
ENDBRANCH  15  19
BRANCH  16  21
ATOM     21  O   UNL     1      23.317 -10.145 -40.766  1.00  0.00    -0.504 OA
ATOM     22  H   UNL     1      23.029 -11.018 -40.340  1.00  0.00     0.293 HD
ENDBRANCH  16  21
ENDBRANCH   1  11
BRANCH  10  23
ATOM     23  O   UNL     1      22.225  -5.840 -36.503  1.00  0.00    -0.500 OA
ATOM     24  H   UNL     1      21.912  -5.546 -35.585  1.00  0.00     0.294 HD
ENDBRANCH  10  23
BRANCH   5  25
ATOM     25  O   UNL     1      18.919  -2.041 -42.408  1.00  0.00    -0.507 OA
ATOM     26  H   UNL     1      19.543  -1.855 -43.185  1.00  0.00     0.293 HD
ENDBRANCH   5  25
BRANCH   7  27
ATOM     27  O   UNL     1      18.988  -1.877 -37.594  1.00  0.00    -0.507 OA
ATOM     28  H   UNL     1      19.218  -0.934 -37.316  1.00  0.00     0.293 HD
ENDBRANCH   7  27
TORSDOF 7
ENDMDL
MODEL 3
REMARK VINA RESULT:    -7.488      2.490      7.257
REMARK INTER + INTRA:          -9.371
REMARK INTER:                  -9.000
REMARK INTRA:                  -0.371
REMARK UNBOUND:                -0.132
REMARK SMILES Oc1cc(O)c2cc(O)c(-c3cc(O)c(O)c(O)c3)[o+]c2c1
REMARK SMILES IDX 10 1 20 2 21 3 22 4 2 5 3 6 4 7 6 8 7 9 8 10 11 11 12 12
REMARK SMILES IDX 13 13 19 14 15 15 17 16 14 17 16 19 18 21 9 23 1 25 5 27
REMARK H PARENT 14 18 16 20 18 22 9 24 1 26 5 28
REMARK Flexibility Score: inf
ROOT
ATOM      1  C   UNL     1      23.215  -4.594 -38.646  1.00  0.00     0.402 A 
ATOM      2  O   UNL     1      24.302  -3.827 -38.624  1.00  0.00    -0.202 OA
ATOM      3  C   UNL     1      25.521  -4.295 -38.382  1.00  0.00     0.368 A 
ATOM      4  C   UNL     1      26.602  -3.410 -38.383  1.00  0.00     0.162 A 
ATOM      5  C   UNL     1      27.894  -3.873 -38.135  1.00  0.00     0.128 A 
ATOM      6  C   UNL     1      28.110  -5.234 -37.885  1.00  0.00     0.093 A 
ATOM      7  C   UNL     1      27.043  -6.141 -37.878  1.00  0.00     0.136 A 
ATOM      8  C   UNL     1      25.728  -5.672 -38.127  1.00  0.00     0.125 A 
ATOM      9  C   UNL     1      24.598  -6.507 -38.127  1.00  0.00     0.078 A 
ATOM     10  C   UNL     1      23.331  -5.971 -38.377  1.00  0.00     0.223 A 
ENDROOT
BRANCH   1  11
ATOM     11  C   UNL     1      21.911  -3.955 -38.937  1.00  0.00     0.091 A 
ATOM     12  C   UNL     1      21.262  -3.222 -37.933  1.00  0.00     0.068 A 
ATOM     13  C   UNL     1      20.039  -2.591 -38.185  1.00  0.00     0.162 A 
ATOM     14  C   UNL     1      21.336  -4.017 -40.219  1.00  0.00     0.068 A 
ATOM     15  C   UNL     1      19.457  -2.674 -39.461  1.00  0.00     0.200 A 
ATOM     16  C   UNL     1      20.111  -3.386 -40.481  1.00  0.00     0.162 A 
BRANCH  13  17
ATOM     17  O   UNL     1      19.420  -1.885 -37.155  1.00  0.00    -0.504 OA
ATOM     18  H   UNL     1      18.570  -2.213 -36.711  1.00  0.00     0.293 HD
ENDBRANCH  13  17
BRANCH  15  19
ATOM     19  O   UNL     1      18.236  -2.044 -39.704  1.00  0.00    -0.502 OA
ATOM     20  H   UNL     1      18.173  -1.061 -39.942  1.00  0.00     0.293 HD
ENDBRANCH  15  19
BRANCH  16  21
ATOM     21  O   UNL     1      19.546  -3.461 -41.753  1.00  0.00    -0.504 OA
ATOM     22  H   UNL     1      20.088  -3.270 -42.587  1.00  0.00     0.293 HD
ENDBRANCH  16  21
ENDBRANCH   1  11
BRANCH  10  23
ATOM     23  O   UNL     1      22.203  -6.789 -38.329  1.00  0.00    -0.500 OA
ATOM     24  H   UNL     1      22.098  -7.589 -38.943  1.00  0.00     0.294 HD
ENDBRANCH  10  23
BRANCH   5  25
ATOM     25  O   UNL     1      28.959  -2.975 -38.140  1.00  0.00    -0.507 OA
ATOM     26  H   UNL     1      28.836  -2.007 -38.413  1.00  0.00     0.293 HD
ENDBRANCH   5  25
BRANCH   7  27
ATOM     27  O   UNL     1      27.342  -7.483 -37.623  1.00  0.00    -0.507 OA
ATOM     28  H   UNL     1      26.784  -8.262 -37.941  1.00  0.00     0.293 HD
ENDBRANCH   7  27
TORSDOF 7
ENDMDL
MODEL 4
REMARK VINA RESULT:    -7.445      2.493      7.111
REMARK INTER + INTRA:          -9.317
REMARK INTER:                  -8.965
REMARK INTRA:                  -0.353
REMARK UNBOUND:                -0.132
REMARK SMILES Oc1cc(O)c2cc(O)c(-c3cc(O)c(O)c(O)c3)[o+]c2c1
REMARK SMILES IDX 10 1 20 2 21 3 22 4 2 5 3 6 4 7 6 8 7 9 8 10 11 11 12 12
REMARK SMILES IDX 13 13 19 14 15 15 17 16 14 17 16 19 18 21 9 23 1 25 5 27
REMARK H PARENT 14 18 16 20 18 22 9 24 1 26 5 28
REMARK Flexibility Score: inf
ROOT
ATOM      1  C   UNL     1      23.215  -4.528 -38.622  1.00  0.00     0.402 A 
ATOM      2  O   UNL     1      24.316  -3.781 -38.615  1.00  0.00    -0.202 OA
ATOM      3  C   UNL     1      25.529  -4.270 -38.385  1.00  0.00     0.368 A 
ATOM      4  C   UNL     1      26.626  -3.405 -38.401  1.00  0.00     0.162 A 
ATOM      5  C   UNL     1      27.912  -3.891 -38.166  1.00  0.00     0.128 A 
ATOM      6  C   UNL     1      28.105  -5.255 -37.912  1.00  0.00     0.093 A 
ATOM      7  C   UNL     1      27.022  -6.142 -37.890  1.00  0.00     0.136 A 
ATOM      8  C   UNL     1      25.713  -5.650 -38.127  1.00  0.00     0.125 A 
ATOM      9  C   UNL     1      24.568  -6.464 -38.111  1.00  0.00     0.078 A 
ATOM     10  C   UNL     1      23.308  -5.906 -38.349  1.00  0.00     0.223 A 
ENDROOT
BRANCH   1  11
ATOM     11  C   UNL     1      21.920  -3.866 -38.901  1.00  0.00     0.091 A 
ATOM     12  C   UNL     1      21.348  -3.979 -40.178  1.00  0.00     0.068 A 
ATOM     13  C   UNL     1      20.117  -3.380 -40.464  1.00  0.00     0.162 A 
ATOM     14  C   UNL     1      21.220  -3.174 -37.897  1.00  0.00     0.068 A 
ATOM     15  C   UNL     1      19.431  -2.672 -39.463  1.00  0.00     0.200 A 
ATOM     16  C   UNL     1      19.984  -2.574 -38.175  1.00  0.00     0.162 A 
BRANCH  13  17
ATOM     17  O   UNL     1      19.590  -3.503 -41.749  1.00  0.00    -0.504 OA
ATOM     18  H   UNL     1      18.594  -3.575 -41.919  1.00  0.00     0.293 HD
ENDBRANCH  13  17
BRANCH  15  19
ATOM     19  O   UNL     1      18.204  -2.076 -39.758  1.00  0.00    -0.502 OA
ATOM     20  H   UNL     1      17.754  -1.424 -39.125  1.00  0.00     0.293 HD
ENDBRANCH  15  19
BRANCH  16  21
ATOM     21  O   UNL     1      19.303  -1.883 -37.173  1.00  0.00    -0.504 OA
ATOM     22  H   UNL     1      19.788  -1.280 -36.520  1.00  0.00     0.293 HD
ENDBRANCH  16  21
ENDBRANCH   1  11
BRANCH  10  23
ATOM     23  O   UNL     1      22.166  -6.703 -38.285  1.00  0.00    -0.500 OA
ATOM     24  H   UNL     1      21.294  -6.356 -37.903  1.00  0.00     0.294 HD
ENDBRANCH  10  23
BRANCH   5  25
ATOM     25  O   UNL     1      28.993  -3.013 -38.186  1.00  0.00    -0.507 OA
ATOM     26  H   UNL     1      29.946  -3.343 -38.085  1.00  0.00     0.293 HD
ENDBRANCH   5  25
BRANCH   7  27
ATOM     27  O   UNL     1      27.299  -7.488 -37.633  1.00  0.00    -0.507 OA
ATOM     28  H   UNL     1      26.827  -8.263 -38.077  1.00  0.00     0.293 HD
ENDBRANCH   7  27
TORSDOF 7
ENDMDL
MODEL 5
REMARK VINA RESULT:    -7.331      1.685      7.104
REMARK INTER + INTRA:          -9.177
REMARK INTER:                  -8.838
REMARK INTRA:                  -0.339
REMARK UNBOUND:                -0.132
REMARK SMILES Oc1cc(O)c2cc(O)c(-c3cc(O)c(O)c(O)c3)[o+]c2c1
REMARK SMILES IDX 10 1 20 2 21 3 22 4 2 5 3 6 4 7 6 8 7 9 8 10 11 11 12 12
REMARK SMILES IDX 13 13 19 14 15 15 17 16 14 17 16 19 18 21 9 23 1 25 5 27
REMARK H PARENT 14 18 16 20 18 22 9 24 1 26 5 28
REMARK Flexibility Score: inf
ROOT
ATOM      1  C   UNL     1      22.841  -4.417 -38.918  1.00  0.00     0.402 A 
ATOM      2  O   UNL     1      22.860  -5.748 -38.913  1.00  0.00    -0.202 OA
ATOM      3  C   UNL     1      23.955  -6.461 -38.675  1.00  0.00     0.368 A 
ATOM      4  C   UNL     1      23.875  -7.856 -38.689  1.00  0.00     0.162 A 
ATOM      5  C   UNL     1      25.007  -8.631 -38.439  1.00  0.00     0.128 A 
ATOM      6  C   UNL     1      26.233  -8.007 -38.171  1.00  0.00     0.093 A 
ATOM      7  C   UNL     1      26.340  -6.611 -38.152  1.00  0.00     0.136 A 
ATOM      8  C   UNL     1      25.190  -5.821 -38.408  1.00  0.00     0.125 A 
ATOM      9  C   UNL     1      25.206  -4.416 -38.422  1.00  0.00     0.078 A 
ATOM     10  C   UNL     1      24.033  -3.704 -38.687  1.00  0.00     0.223 A 
ENDROOT
BRANCH   1  11
ATOM     11  C   UNL     1      21.555  -3.736 -39.188  1.00  0.00     0.091 A 
ATOM     12  C   UNL     1      21.021  -3.758 -40.485  1.00  0.00     0.068 A 
ATOM     13  C   UNL     1      19.798  -3.140 -40.766  1.00  0.00     0.162 A 
ATOM     14  C   UNL     1      20.825  -3.115 -38.159  1.00  0.00     0.068 A 
ATOM     15  C   UNL     1      19.082  -2.502 -39.738  1.00  0.00     0.200 A 
ATOM     16  C   UNL     1      19.597  -2.495 -38.430  1.00  0.00     0.162 A 
BRANCH  13  17
ATOM     17  O   UNL     1      19.309  -3.172 -42.071  1.00  0.00    -0.504 OA
ATOM     18  H   UNL     1      19.754  -2.663 -42.826  1.00  0.00     0.293 HD
ENDBRANCH  13  17
BRANCH  15  19
ATOM     19  O   UNL     1      17.864  -1.885 -40.026  1.00  0.00    -0.502 OA
ATOM     20  H   UNL     1      17.027  -2.416 -40.241  1.00  0.00     0.293 HD
ENDBRANCH  15  19
BRANCH  16  21
ATOM     21  O   UNL     1      18.886  -1.876 -37.403  1.00  0.00    -0.504 OA
ATOM     22  H   UNL     1      18.721  -2.338 -36.517  1.00  0.00     0.293 HD
ENDBRANCH  16  21
ENDBRANCH   1  11
BRANCH  10  23
ATOM     23  O   UNL     1      24.058  -2.311 -38.750  1.00  0.00    -0.500 OA
ATOM     24  H   UNL     1      23.523  -1.799 -39.441  1.00  0.00     0.294 HD
ENDBRANCH  10  23
BRANCH   5  25
ATOM     25  O   UNL     1      24.908 -10.020 -38.457  1.00  0.00    -0.507 OA
ATOM     26  H   UNL     1      25.441 -10.582 -39.111  1.00  0.00     0.293 HD
ENDBRANCH   5  25
BRANCH   7  27
ATOM     27  O   UNL     1      27.596  -6.066 -37.873  1.00  0.00    -0.507 OA
ATOM     28  H   UNL     1      28.202  -6.379 -37.129  1.00  0.00     0.293 HD
ENDBRANCH   7  27
TORSDOF 7
ENDMDL
MODEL 6
REMARK VINA RESULT:    -7.215      1.654      7.238
REMARK INTER + INTRA:          -9.034
REMARK INTER:                  -8.758
REMARK INTRA:                  -0.277
REMARK UNBOUND:                -0.132
REMARK SMILES Oc1cc(O)c2cc(O)c(-c3cc(O)c(O)c(O)c3)[o+]c2c1
REMARK SMILES IDX 10 1 20 2 21 3 22 4 2 5 3 6 4 7 6 8 7 9 8 10 11 11 12 12
REMARK SMILES IDX 13 13 19 14 15 15 17 16 14 17 16 19 18 21 9 23 1 25 5 27
REMARK H PARENT 14 18 16 20 18 22 9 24 1 26 5 28
REMARK Flexibility Score: inf
ROOT
ATOM      1  C   UNL     1      22.850  -4.488 -39.047  1.00  0.00     0.402 A 
ATOM      2  O   UNL     1      22.906  -5.817 -39.089  1.00  0.00    -0.202 OA
ATOM      3  C   UNL     1      24.013  -6.508 -38.837  1.00  0.00     0.368 A 
ATOM      4  C   UNL     1      23.972  -7.903 -38.903  1.00  0.00     0.162 A 
ATOM      5  C   UNL     1      25.117  -8.656 -38.642  1.00  0.00     0.128 A 
ATOM      6  C   UNL     1      26.315  -8.010 -38.310  1.00  0.00     0.093 A 
ATOM      7  C   UNL     1      26.381  -6.613 -38.238  1.00  0.00     0.136 A 
ATOM      8  C   UNL     1      25.218  -5.845 -38.506  1.00  0.00     0.125 A 
ATOM      9  C   UNL     1      25.196  -4.441 -38.470  1.00  0.00     0.078 A 
ATOM     10  C   UNL     1      24.012  -3.752 -38.751  1.00  0.00     0.223 A 
ENDROOT
BRANCH   1  11
ATOM     11  C   UNL     1      21.554  -3.833 -39.338  1.00  0.00     0.091 A 
ATOM     12  C   UNL     1      20.874  -3.163 -38.310  1.00  0.00     0.068 A 
ATOM     13  C   UNL     1      19.658  -2.518 -38.560  1.00  0.00     0.162 A 
ATOM     14  C   UNL     1      21.018  -3.816 -40.637  1.00  0.00     0.068 A 
ATOM     15  C   UNL     1      19.114  -2.522 -39.856  1.00  0.00     0.200 A 
ATOM     16  C   UNL     1      19.800  -3.170 -40.897  1.00  0.00     0.162 A 
BRANCH  13  17
ATOM     17  O   UNL     1      19.006  -1.876 -37.508  1.00  0.00    -0.504 OA
ATOM     18  H   UNL     1      18.909  -2.302 -36.593  1.00  0.00     0.293 HD
ENDBRANCH  13  17
BRANCH  15  19
ATOM     19  O   UNL     1      17.900  -1.879 -40.096  1.00  0.00    -0.502 OA
ATOM     20  H   UNL     1      17.800  -0.872 -40.032  1.00  0.00     0.293 HD
ENDBRANCH  15  19
BRANCH  16  21
ATOM     21  O   UNL     1      19.274  -3.167 -42.188  1.00  0.00    -0.504 OA
ATOM     22  H   UNL     1      19.732  -2.679 -42.948  1.00  0.00     0.293 HD
ENDBRANCH  16  21
ENDBRANCH   1  11
BRANCH  10  23
ATOM     23  O   UNL     1      24.000  -2.357 -38.763  1.00  0.00    -0.500 OA
ATOM     24  H   UNL     1      24.681  -1.823 -39.292  1.00  0.00     0.294 HD
ENDBRANCH  10  23
BRANCH   5  25
ATOM     25  O   UNL     1      25.057 -10.046 -38.712  1.00  0.00    -0.507 OA
ATOM     26  H   UNL     1      24.250 -10.560 -38.379  1.00  0.00     0.293 HD
ENDBRANCH   5  25
BRANCH   7  27
ATOM     27  O   UNL     1      27.612  -6.044 -37.897  1.00  0.00    -0.507 OA
ATOM     28  H   UNL     1      28.482  -6.553 -37.848  1.00  0.00     0.293 HD
ENDBRANCH   7  27
TORSDOF 7
ENDMDL
MODEL 7
REMARK VINA RESULT:    -7.142      1.638      2.182
REMARK INTER + INTRA:          -8.944
REMARK INTER:                  -8.581
REMARK INTRA:                  -0.363
REMARK UNBOUND:                -0.132
REMARK SMILES Oc1cc(O)c2cc(O)c(-c3cc(O)c(O)c(O)c3)[o+]c2c1
REMARK SMILES IDX 10 1 20 2 21 3 22 4 2 5 3 6 4 7 6 8 7 9 8 10 11 11 12 12
REMARK SMILES IDX 13 13 19 14 15 15 17 16 14 17 16 19 18 21 9 23 1 25 5 27
REMARK H PARENT 14 18 16 20 18 22 9 24 1 26 5 28
REMARK Flexibility Score: inf
ROOT
ATOM      1  C   UNL     1      22.889  -4.527 -38.132  1.00  0.00     0.402 A 
ATOM      2  O   UNL     1      22.347  -4.425 -39.343  1.00  0.00    -0.202 OA
ATOM      3  C   UNL     1      21.203  -3.793 -39.579  1.00  0.00     0.368 A 
ATOM      4  C   UNL     1      20.715  -3.736 -40.887  1.00  0.00     0.162 A 
ATOM      5  C   UNL     1      19.518  -3.078 -41.166  1.00  0.00     0.128 A 
ATOM      6  C   UNL     1      18.801  -2.468 -40.130  1.00  0.00     0.093 A 
ATOM      7  C   UNL     1      19.268  -2.511 -38.810  1.00  0.00     0.136 A 
ATOM      8  C   UNL     1      20.484  -3.182 -38.524  1.00  0.00     0.125 A 
ATOM      9  C   UNL     1      21.021  -3.287 -37.230  1.00  0.00     0.078 A 
ATOM     10  C   UNL     1      22.224  -3.969 -37.023  1.00  0.00     0.223 A 
ENDROOT
BRANCH   1  11
ATOM     11  C   UNL     1      24.175  -5.249 -37.998  1.00  0.00     0.091 A 
ATOM     12  C   UNL     1      24.189  -6.651 -38.060  1.00  0.00     0.068 A 
ATOM     13  C   UNL     1      25.391  -7.358 -37.956  1.00  0.00     0.162 A 
ATOM     14  C   UNL     1      25.392  -4.558 -37.867  1.00  0.00     0.068 A 
ATOM     15  C   UNL     1      26.604  -6.664 -37.804  1.00  0.00     0.200 A 
ATOM     16  C   UNL     1      26.602  -5.259 -37.764  1.00  0.00     0.162 A 
BRANCH  13  17
ATOM     17  O   UNL     1      25.361  -8.751 -38.009  1.00  0.00    -0.504 OA
ATOM     18  H   UNL     1      26.063  -9.323 -37.555  1.00  0.00     0.293 HD
ENDBRANCH  13  17
BRANCH  15  19
ATOM     19  O   UNL     1      27.798  -7.377 -37.699  1.00  0.00    -0.502 OA
ATOM     20  H   UNL     1      28.466  -7.207 -36.956  1.00  0.00     0.293 HD
ENDBRANCH  15  19
BRANCH  16  21
ATOM     21  O   UNL     1      27.803  -4.563 -37.627  1.00  0.00    -0.504 OA
ATOM     22  H   UNL     1      28.658  -4.889 -38.062  1.00  0.00     0.293 HD
ENDBRANCH  16  21
ENDBRANCH   1  11
BRANCH  10  23
ATOM     23  O   UNL     1      22.733  -4.116 -35.733  1.00  0.00    -0.500 OA
ATOM     24  H   UNL     1      23.714  -4.306 -35.566  1.00  0.00     0.294 HD
ENDBRANCH  10  23
BRANCH   5  25
ATOM     25  O   UNL     1      19.048  -3.032 -42.477  1.00  0.00    -0.507 OA
ATOM     26  H   UNL     1      19.080  -2.179 -43.023  1.00  0.00     0.293 HD
ENDBRANCH   5  25
BRANCH   7  27
ATOM     27  O   UNL     1      18.496  -1.875 -37.834  1.00  0.00    -0.507 OA
ATOM     28  H   UNL     1      18.316  -0.882 -37.805  1.00  0.00     0.293 HD
ENDBRANCH   7  27
TORSDOF 7
ENDMDL
MODEL 8
REMARK VINA RESULT:    -7.065      1.490      3.583
REMARK INTER + INTRA:          -8.849
REMARK INTER:                  -8.922
REMARK INTRA:                   0.073
REMARK UNBOUND:                -0.132
REMARK SMILES Oc1cc(O)c2cc(O)c(-c3cc(O)c(O)c(O)c3)[o+]c2c1
REMARK SMILES IDX 10 1 20 2 21 3 22 4 2 5 3 6 4 7 6 8 7 9 8 10 11 11 12 12
REMARK SMILES IDX 13 13 19 14 15 15 17 16 14 17 16 19 18 21 9 23 1 25 5 27
REMARK H PARENT 14 18 16 20 18 22 9 24 1 26 5 28
REMARK Flexibility Score: inf
ROOT
ATOM      1  C   UNL     1      22.549  -5.690 -38.610  1.00  0.00     0.402 A 
ATOM      2  O   UNL     1      22.636  -5.094 -37.424  1.00  0.00    -0.202 OA
ATOM      3  C   UNL     1      21.869  -4.070 -37.064  1.00  0.00     0.368 A 
ATOM      4  C   UNL     1      22.032  -3.512 -35.793  1.00  0.00     0.162 A 
ATOM      5  C   UNL     1      21.240  -2.439 -35.387  1.00  0.00     0.128 A 
ATOM      6  C   UNL     1      20.273  -1.918 -36.256  1.00  0.00     0.093 A 
ATOM      7  C   UNL     1      20.091  -2.459 -37.535  1.00  0.00     0.136 A 
ATOM      8  C   UNL     1      20.897  -3.549 -37.951  1.00  0.00     0.125 A 
ATOM      9  C   UNL     1      20.793  -4.146 -39.219  1.00  0.00     0.078 A 
ATOM     10  C   UNL     1      21.626  -5.215 -39.561  1.00  0.00     0.223 A 
ENDROOT
BRANCH   1  11
ATOM     11  C   UNL     1      23.454  -6.828 -38.889  1.00  0.00     0.091 A 
ATOM     12  C   UNL     1      24.749  -6.830 -38.350  1.00  0.00     0.068 A 
ATOM     13  C   UNL     1      25.618  -7.901 -38.581  1.00  0.00     0.162 A 
ATOM     14  C   UNL     1      23.023  -7.938 -39.638  1.00  0.00     0.068 A 
ATOM     15  C   UNL     1      25.191  -8.999 -39.347  1.00  0.00     0.200 A 
ATOM     16  C   UNL     1      23.887  -9.018 -39.872  1.00  0.00     0.162 A 
BRANCH  13  17
ATOM     17  O   UNL     1      26.902  -7.858 -38.039  1.00  0.00    -0.504 OA
ATOM     18  H   UNL     1      27.130  -8.302 -37.157  1.00  0.00     0.293 HD
ENDBRANCH  13  17
BRANCH  15  19
ATOM     19  O   UNL     1      26.065 -10.063 -39.575  1.00  0.00    -0.502 OA
ATOM     20  H   UNL     1      26.980  -9.930 -39.989  1.00  0.00     0.293 HD
ENDBRANCH  15  19
BRANCH  16  21
ATOM     21  O   UNL     1      23.452 -10.110 -40.622  1.00  0.00    -0.504 OA
ATOM     22  H   UNL     1      22.728 -10.732 -40.283  1.00  0.00     0.293 HD
ENDBRANCH  16  21
ENDBRANCH   1  11
BRANCH  10  23
ATOM     23  O   UNL     1      21.557  -5.777 -40.835  1.00  0.00    -0.500 OA
ATOM     24  H   UNL     1      20.678  -5.866 -41.332  1.00  0.00     0.294 HD
ENDBRANCH  10  23
BRANCH   5  25
ATOM     25  O   UNL     1      21.416  -1.896 -34.116  1.00  0.00    -0.507 OA
ATOM     26  H   UNL     1      22.313  -1.929 -33.645  1.00  0.00     0.293 HD
ENDBRANCH   5  25
BRANCH   7  27
ATOM     27  O   UNL     1      19.104  -1.885 -38.341  1.00  0.00    -0.507 OA
ATOM     28  H   UNL     1      18.543  -2.395 -39.008  1.00  0.00     0.293 HD
ENDBRANCH   7  27
TORSDOF 7
ENDMDL
