MODEL 1
REMARK VINA RESULT:    -4.791      0.000      0.000
REMARK INTER + INTRA:         -16.273
REMARK INTER:                 -12.633
REMARK INTRA:                  -3.640
REMARK UNBOUND:                -3.640
REMARK SMILES CCCCCCCCCCCCCCCCCCCCCCCCCCCCCC(=O)[O-]
REMARK SMILES IDX 16 1 17 2 18 3 19 4 20 5 21 6 22 7 23 8 24 9 25 10 26 11
REMARK SMILES IDX 27 12 28 13 29 14 30 15 31 16 32 17 15 18 14 19 13 20 12 21
REMARK SMILES IDX 11 22 10 23 9 24 8 25 7 26 6 27 5 28 4 29 3 30 2 31 1 32
REMARK H PARENT
REMARK Flexibility Score: inf
ROOT
ATOM      1  C   UNL     1      -5.548 -43.930 -13.898  1.00  0.00     0.000 C 
ENDROOT
BRANCH   1   2
ATOM      2  C   UNL     1      -7.065 -43.682 -13.840  1.00  0.00     0.000 C 
BRANCH   2   3
ATOM      3  C   UNL     1      -7.450 -42.231 -14.173  1.00  0.00     0.000 C 
BRANCH   3   4
ATOM      4  C   UNL     1      -6.228 -41.379 -14.552  1.00  0.00     0.000 C 
BRANCH   4   5
ATOM      5  C   UNL     1      -6.451 -40.575 -15.845  1.00  0.00     0.000 C 
BRANCH   5   6
ATOM      6  C   UNL     1      -7.907 -40.107 -16.016  1.00  0.00     0.000 C 
BRANCH   6   7
ATOM      7  C   UNL     1      -8.126 -38.587 -15.892  1.00  0.00     0.000 C 
BRANCH   7   8
ATOM      8  C   UNL     1      -8.711 -37.957 -17.168  1.00  0.00     0.000 C 
BRANCH   8   9
ATOM      9  C   UNL     1      -7.660 -37.199 -17.993  1.00  0.00     0.000 C 
BRANCH   9  10
ATOM     10  C   UNL     1      -6.833 -38.114 -18.910  1.00  0.00     0.000 C 
BRANCH  10  11
ATOM     11  C   UNL     1      -7.742 -39.127 -19.622  1.00  0.00     0.000 C 
BRANCH  11  12
ATOM     12  C   UNL     1      -7.082 -40.504 -19.796  1.00  0.00     0.000 C 
BRANCH  12  13
ATOM     13  C   UNL     1      -5.600 -40.510 -19.383  1.00  0.00     0.006 C 
BRANCH  13  14
ATOM     14  C   UNL     1      -4.729 -41.125 -20.485  1.00  0.00     0.053 C 
BRANCH  14  15
ATOM     15  C   UNL     1      -3.817 -42.174 -19.927  1.00  0.00     0.041 C 
ATOM     16  O   UNL     1      -4.022 -42.640 -18.772  1.00  0.00    -0.550 OA
ATOM     17  O   UNL     1      -2.752 -42.649 -20.683  1.00  0.00    -0.550 OA
ENDBRANCH  14  15
ENDBRANCH  13  14
ENDBRANCH  12  13
ENDBRANCH  11  12
ENDBRANCH  10  11
ENDBRANCH   9  10
ENDBRANCH   8   9
ENDBRANCH   7   8
ENDBRANCH   6   7
ENDBRANCH   5   6
ENDBRANCH   4   5
ENDBRANCH   3   4
ENDBRANCH   2   3
ENDBRANCH   1   2
BRANCH   1  18
ATOM     18  C   UNL     1      -5.149 -45.397 -13.644  1.00  0.00     0.000 C 
BRANCH  18  19
ATOM     19  C   UNL     1      -5.913 -46.017 -12.461  1.00  0.00     0.000 C 
BRANCH  19  20
ATOM     20  C   UNL     1      -5.252 -45.720 -11.101  1.00  0.00     0.000 C 
BRANCH  20  21
ATOM     21  C   UNL     1      -6.139 -44.964 -10.086  1.00  0.00     0.000 C 
BRANCH  21  22
ATOM     22  C   UNL     1      -7.624 -44.839 -10.477  1.00  0.00     0.000 C 
BRANCH  22  23
ATOM     23  C   UNL     1      -8.157 -43.409 -10.315  1.00  0.00     0.000 C 
BRANCH  23  24
ATOM     24  C   UNL     1      -7.008 -42.411 -10.101  1.00  0.00    -0.000 C 
BRANCH  24  25
ATOM     25  C   UNL     1      -7.399 -40.965 -10.465  1.00  0.00    -0.000 C 
BRANCH  25  26
ATOM     26  C   UNL     1      -6.311 -40.187 -11.234  1.00  0.00    -0.000 C 
BRANCH  26  27
ATOM     27  C   UNL     1      -5.579 -39.098 -10.430  1.00  0.00    -0.000 C 
BRANCH  27  28
ATOM     28  C   UNL     1      -6.392 -38.588  -9.228  1.00  0.00    -0.000 C 
BRANCH  28  29
ATOM     29  C   UNL     1      -6.421 -37.053  -9.189  1.00  0.00    -0.000 C 
BRANCH  29  30
ATOM     30  C   UNL     1      -5.093 -36.416  -9.649  1.00  0.00    -0.000 C 
BRANCH  30  31
ATOM     31  C   UNL     1      -4.486 -35.411  -8.656  1.00  0.00    -0.003 C 
ATOM     32  C   UNL     1      -3.049 -35.755  -8.262  1.00  0.00     0.004 C 
ENDBRANCH  30  31
ENDBRANCH  29  30
ENDBRANCH  28  29
ENDBRANCH  27  28
ENDBRANCH  26  27
ENDBRANCH  25  26
ENDBRANCH  24  25
ENDBRANCH  23  24
ENDBRANCH  22  23
ENDBRANCH  21  22
ENDBRANCH  20  21
ENDBRANCH  19  20
ENDBRANCH  18  19
ENDBRANCH   1  18
TORSDOF 28
ENDMDL
MODEL 2
REMARK VINA RESULT:    -4.767      2.944      7.272
REMARK INTER + INTRA:         -16.209
REMARK INTER:                 -10.897
REMARK INTRA:                  -5.312
REMARK UNBOUND:                -3.640
REMARK SMILES CCCCCCCCCCCCCCCCCCCCCCCCCCCCCC(=O)[O-]
REMARK SMILES IDX 16 1 17 2 18 3 19 4 20 5 21 6 22 7 23 8 24 9 25 10 26 11
REMARK SMILES IDX 27 12 28 13 29 14 30 15 31 16 32 17 15 18 14 19 13 20 12 21
REMARK SMILES IDX 11 22 10 23 9 24 8 25 7 26 6 27 5 28 4 29 3 30 2 31 1 32
REMARK H PARENT
REMARK Flexibility Score: inf
ROOT
ATOM      1  C   UNL     1      -6.352 -40.342  -9.977  1.00  0.00     0.000 C 
ENDROOT
BRANCH   1   2
ATOM      2  C   UNL     1      -5.697 -39.013 -10.388  1.00  0.00     0.000 C 
BRANCH   2   3
ATOM      3  C   UNL     1      -5.958 -37.879  -9.383  1.00  0.00     0.000 C 
BRANCH   3   4
ATOM      4  C   UNL     1      -4.789 -36.883  -9.316  1.00  0.00     0.000 C 
BRANCH   4   5
ATOM      5  C   UNL     1      -5.263 -35.419  -9.320  1.00  0.00     0.000 C 
BRANCH   5   6
ATOM      6  C   UNL     1      -6.223 -35.103 -10.480  1.00  0.00     0.000 C 
BRANCH   6   7
ATOM      7  C   UNL     1      -7.566 -34.472 -10.067  1.00  0.00     0.000 C 
BRANCH   7   8
ATOM      8  C   UNL     1      -8.784 -35.284 -10.542  1.00  0.00     0.000 C 
BRANCH   8   9
ATOM      9  C   UNL     1      -9.418 -36.117  -9.418  1.00  0.00     0.000 C 
BRANCH   9  10
ATOM     10  C   UNL     1      -9.652 -37.586  -9.809  1.00  0.00     0.000 C 
BRANCH  10  11
ATOM     11  C   UNL     1      -9.160 -37.846 -11.240  1.00  0.00     0.000 C 
BRANCH  11  12
ATOM     12  C   UNL     1      -9.370 -39.301 -11.689  1.00  0.00     0.000 C 
BRANCH  12  13
ATOM     13  C   UNL     1      -9.204 -39.485 -13.208  1.00  0.00     0.006 C 
BRANCH  13  14
ATOM     14  C   UNL     1      -7.728 -39.671 -13.577  1.00  0.00     0.053 C 
BRANCH  14  15
ATOM     15  C   UNL     1      -7.587 -40.370 -14.894  1.00  0.00     0.041 C 
ATOM     16  O   UNL     1      -6.582 -40.148 -15.623  1.00  0.00    -0.550 OA
ATOM     17  O   UNL     1      -8.556 -41.276 -15.311  1.00  0.00    -0.550 OA
ENDBRANCH  14  15
ENDBRANCH  13  14
ENDBRANCH  12  13
ENDBRANCH  11  12
ENDBRANCH  10  11
ENDBRANCH   9  10
ENDBRANCH   8   9
ENDBRANCH   7   8
ENDBRANCH   6   7
ENDBRANCH   5   6
ENDBRANCH   4   5
ENDBRANCH   3   4
ENDBRANCH   2   3
ENDBRANCH   1   2
BRANCH   1  18
ATOM     18  C   UNL     1      -7.157 -40.258  -8.664  1.00  0.00     0.000 C 
BRANCH  18  19
ATOM     19  C   UNL     1      -7.912 -41.562  -8.355  1.00  0.00     0.000 C 
BRANCH  19  20
ATOM     20  C   UNL     1      -9.267 -41.656  -9.083  1.00  0.00     0.000 C 
BRANCH  20  21
ATOM     21  C   UNL     1      -9.493 -42.952  -9.895  1.00  0.00     0.000 C 
BRANCH  21  22
ATOM     22  C   UNL     1      -8.982 -42.915 -11.347  1.00  0.00     0.000 C 
BRANCH  22  23
ATOM     23  C   UNL     1      -7.544 -43.433 -11.478  1.00  0.00     0.000 C 
BRANCH  23  24
ATOM     24  C   UNL     1      -7.451 -44.914 -11.079  1.00  0.00    -0.000 C 
BRANCH  24  25
ATOM     25  C   UNL     1      -6.094 -45.277 -10.443  1.00  0.00    -0.000 C 
BRANCH  25  26
ATOM     26  C   UNL     1      -5.000 -45.667 -11.458  1.00  0.00    -0.000 C 
BRANCH  26  27
ATOM     27  C   UNL     1      -5.464 -46.554 -12.627  1.00  0.00    -0.000 C 
BRANCH  27  28
ATOM     28  C   UNL     1      -5.080 -45.985 -14.003  1.00  0.00    -0.000 C 
BRANCH  28  29
ATOM     29  C   UNL     1      -6.326 -45.564 -14.796  1.00  0.00    -0.000 C 
BRANCH  29  30
ATOM     30  C   UNL     1      -6.401 -44.040 -15.029  1.00  0.00    -0.000 C 
BRANCH  30  31
ATOM     31  C   UNL     1      -5.224 -43.243 -14.443  1.00  0.00    -0.003 C 
ATOM     32  C   UNL     1      -4.237 -42.766 -15.510  1.00  0.00     0.004 C 
ENDBRANCH  30  31
ENDBRANCH  29  30
ENDBRANCH  28  29
ENDBRANCH  27  28
ENDBRANCH  26  27
ENDBRANCH  25  26
ENDBRANCH  24  25
ENDBRANCH  23  24
ENDBRANCH  22  23
ENDBRANCH  21  22
ENDBRANCH  20  21
ENDBRANCH  19  20
ENDBRANCH  18  19
ENDBRANCH   1  18
TORSDOF 28
ENDMDL
MODEL 3
REMARK VINA RESULT:    -4.620      1.201      2.305
REMARK INTER + INTRA:         -15.823
REMARK INTER:                 -12.073
REMARK INTRA:                  -3.750
REMARK UNBOUND:                -3.640
REMARK SMILES CCCCCCCCCCCCCCCCCCCCCCCCCCCCCC(=O)[O-]
REMARK SMILES IDX 16 1 17 2 18 3 19 4 20 5 21 6 22 7 23 8 24 9 25 10 26 11
REMARK SMILES IDX 27 12 28 13 29 14 30 15 31 16 32 17 15 18 14 19 13 20 12 21
REMARK SMILES IDX 11 22 10 23 9 24 8 25 7 26 6 27 5 28 4 29 3 30 2 31 1 32
REMARK H PARENT
REMARK Flexibility Score: inf
ROOT
ATOM      1  C   UNL     1      -5.212 -42.161 -16.634  1.00  0.00     0.000 C 
ENDROOT
BRANCH   1   2
ATOM      2  C   UNL     1      -6.716 -42.478 -16.592  1.00  0.00     0.000 C 
BRANCH   2   3
ATOM      3  C   UNL     1      -7.589 -41.225 -16.410  1.00  0.00     0.000 C 
BRANCH   3   4
ATOM      4  C   UNL     1      -6.886 -40.146 -15.570  1.00  0.00     0.000 C 
BRANCH   4   5
ATOM      5  C   UNL     1      -7.853 -39.045 -15.100  1.00  0.00     0.000 C 
BRANCH   5   6
ATOM      6  C   UNL     1      -9.274 -39.214 -15.666  1.00  0.00     0.000 C 
BRANCH   6   7
ATOM      7  C   UNL     1      -9.935 -37.919 -16.177  1.00  0.00     0.000 C 
BRANCH   7   8
ATOM      8  C   UNL     1      -9.799 -37.735 -17.699  1.00  0.00     0.000 C 
BRANCH   8   9
ATOM      9  C   UNL     1      -8.843 -36.593 -18.077  1.00  0.00     0.000 C 
BRANCH   9  10
ATOM     10  C   UNL     1      -7.406 -37.070 -18.346  1.00  0.00     0.000 C 
BRANCH  10  11
ATOM     11  C   UNL     1      -7.411 -38.490 -18.932  1.00  0.00     0.000 C 
BRANCH  11  12
ATOM     12  C   UNL     1      -5.998 -39.072 -19.099  1.00  0.00     0.000 C 
BRANCH  12  13
ATOM     13  C   UNL     1      -5.791 -39.748 -20.465  1.00  0.00     0.006 C 
BRANCH  13  14
ATOM     14  C   UNL     1      -5.494 -41.243 -20.295  1.00  0.00     0.053 C 
BRANCH  14  15
ATOM     15  C   UNL     1      -4.066 -41.549 -20.625  1.00  0.00     0.041 C 
ATOM     16  O   UNL     1      -3.538 -41.060 -21.661  1.00  0.00    -0.550 OA
ATOM     17  O   UNL     1      -3.313 -42.360 -19.784  1.00  0.00    -0.550 OA
ENDBRANCH  14  15
ENDBRANCH  13  14
ENDBRANCH  12  13
ENDBRANCH  11  12
ENDBRANCH  10  11
ENDBRANCH   9  10
ENDBRANCH   8   9
ENDBRANCH   7   8
ENDBRANCH   6   7
ENDBRANCH   5   6
ENDBRANCH   4   5
ENDBRANCH   3   4
ENDBRANCH   2   3
ENDBRANCH   1   2
BRANCH   1  18
ATOM     18  C   UNL     1      -4.445 -42.621 -15.378  1.00  0.00     0.000 C 
BRANCH  18  19
ATOM     19  C   UNL     1      -5.312 -43.485 -14.446  1.00  0.00     0.000 C 
BRANCH  19  20
ATOM     20  C   UNL     1      -4.943 -44.980 -14.501  1.00  0.00     0.000 C 
BRANCH  20  21
ATOM     21  C   UNL     1      -4.949 -45.712 -13.139  1.00  0.00     0.000 C 
BRANCH  21  22
ATOM     22  C   UNL     1      -6.195 -45.468 -12.267  1.00  0.00     0.000 C 
BRANCH  22  23
ATOM     23  C   UNL     1      -5.861 -45.395 -10.772  1.00  0.00     0.000 C 
BRANCH  23  24
ATOM     24  C   UNL     1      -6.585 -44.217 -10.100  1.00  0.00    -0.000 C 
BRANCH  24  25
ATOM     25  C   UNL     1      -7.149 -43.205 -11.117  1.00  0.00    -0.000 C 
BRANCH  25  26
ATOM     26  C   UNL     1      -6.938 -41.727 -10.727  1.00  0.00    -0.000 C 
BRANCH  26  27
ATOM     27  C   UNL     1      -7.368 -40.693 -11.782  1.00  0.00    -0.000 C 
BRANCH  27  28
ATOM     28  C   UNL     1      -6.789 -39.292 -11.522  1.00  0.00    -0.000 C 
BRANCH  28  29
ATOM     29  C   UNL     1      -5.972 -39.262 -10.222  1.00  0.00    -0.000 C 
BRANCH  29  30
ATOM     30  C   UNL     1      -6.133 -37.941  -9.442  1.00  0.00    -0.000 C 
BRANCH  30  31
ATOM     31  C   UNL     1      -4.873 -37.060  -9.405  1.00  0.00    -0.003 C 
ATOM     32  C   UNL     1      -5.180 -35.591  -9.113  1.00  0.00     0.004 C 
ENDBRANCH  30  31
ENDBRANCH  29  30
ENDBRANCH  28  29
ENDBRANCH  27  28
ENDBRANCH  26  27
ENDBRANCH  25  26
ENDBRANCH  24  25
ENDBRANCH  23  24
ENDBRANCH  22  23
ENDBRANCH  21  22
ENDBRANCH  20  21
ENDBRANCH  19  20
ENDBRANCH  18  19
ENDBRANCH   1  18
TORSDOF 28
ENDMDL
MODEL 4
REMARK VINA RESULT:    -4.551      1.614      2.538
REMARK INTER + INTRA:         -15.639
REMARK INTER:                 -11.761
REMARK INTRA:                  -3.877
REMARK UNBOUND:                -3.640
REMARK SMILES CCCCCCCCCCCCCCCCCCCCCCCCCCCCCC(=O)[O-]
REMARK SMILES IDX 16 1 17 2 18 3 19 4 20 5 21 6 22 7 23 8 24 9 25 10 26 11
REMARK SMILES IDX 27 12 28 13 29 14 30 15 31 16 32 17 15 18 14 19 13 20 12 21
REMARK SMILES IDX 11 22 10 23 9 24 8 25 7 26 6 27 5 28 4 29 3 30 2 31 1 32
REMARK H PARENT
REMARK Flexibility Score: inf
ROOT
ATOM      1  C   UNL     1      -4.639 -42.380 -16.023  1.00  0.00     0.000 C 
ENDROOT
BRANCH   1   2
ATOM      2  C   UNL     1      -5.737 -41.617 -16.784  1.00  0.00     0.000 C 
BRANCH   2   3
ATOM      3  C   UNL     1      -6.547 -40.672 -15.882  1.00  0.00     0.000 C 
BRANCH   3   4
ATOM      4  C   UNL     1      -8.057 -40.763 -16.154  1.00  0.00     0.000 C 
BRANCH   4   5
ATOM      5  C   UNL     1      -8.801 -39.471 -15.773  1.00  0.00     0.000 C 
BRANCH   5   6
ATOM      6  C   UNL     1      -8.041 -38.197 -16.183  1.00  0.00     0.000 C 
BRANCH   6   7
ATOM      7  C   UNL     1      -8.666 -37.406 -17.348  1.00  0.00     0.000 C 
BRANCH   7   8
ATOM      8  C   UNL     1      -8.359 -38.020 -18.725  1.00  0.00     0.000 C 
BRANCH   8   9
ATOM      9  C   UNL     1      -6.905 -38.499 -18.853  1.00  0.00     0.000 C 
BRANCH   9  10
ATOM     10  C   UNL     1      -6.711 -39.564 -19.945  1.00  0.00     0.000 C 
BRANCH  10  11
ATOM     11  C   UNL     1      -5.221 -39.893 -20.117  1.00  0.00     0.000 C 
BRANCH  11  12
ATOM     12  C   UNL     1      -4.975 -41.353 -20.528  1.00  0.00     0.000 C 
BRANCH  12  13
ATOM     13  C   UNL     1      -3.690 -41.936 -19.914  1.00  0.00     0.006 C 
BRANCH  13  14
ATOM     14  C   UNL     1      -2.932 -42.786 -20.940  1.00  0.00     0.053 C 
BRANCH  14  15
ATOM     15  C   UNL     1      -3.479 -44.179 -20.994  1.00  0.00     0.041 C 
ATOM     16  O   UNL     1      -3.112 -44.968 -21.907  1.00  0.00    -0.550 OA
ATOM     17  O   UNL     1      -4.381 -44.613 -20.029  1.00  0.00    -0.550 OA
ENDBRANCH  14  15
ENDBRANCH  13  14
ENDBRANCH  12  13
ENDBRANCH  11  12
ENDBRANCH  10  11
ENDBRANCH   9  10
ENDBRANCH   8   9
ENDBRANCH   7   8
ENDBRANCH   6   7
ENDBRANCH   5   6
ENDBRANCH   4   5
ENDBRANCH   3   4
ENDBRANCH   2   3
ENDBRANCH   1   2
BRANCH   1  18
ATOM     18  C   UNL     1      -5.051 -42.802 -14.599  1.00  0.00     0.000 C 
BRANCH  18  19
ATOM     19  C   UNL     1      -5.099 -44.331 -14.431  1.00  0.00     0.000 C 
BRANCH  19  20
ATOM     20  C   UNL     1      -6.503 -44.848 -14.062  1.00  0.00     0.000 C 
BRANCH  20  21
ATOM     21  C   UNL     1      -7.628 -43.788 -14.101  1.00  0.00     0.000 C 
BRANCH  21  22
ATOM     22  C   UNL     1      -8.220 -43.408 -12.731  1.00  0.00     0.000 C 
BRANCH  22  23
ATOM     23  C   UNL     1      -8.296 -41.890 -12.524  1.00  0.00     0.000 C 
BRANCH  23  24
ATOM     24  C   UNL     1      -6.974 -41.340 -11.965  1.00  0.00    -0.000 C 
BRANCH  24  25
ATOM     25  C   UNL     1      -6.768 -39.845 -12.282  1.00  0.00    -0.000 C 
BRANCH  25  26
ATOM     26  C   UNL     1      -7.275 -38.888 -11.183  1.00  0.00    -0.000 C 
BRANCH  26  27
ATOM     27  C   UNL     1      -6.568 -39.005  -9.822  1.00  0.00    -0.000 C 
BRANCH  27  28
ATOM     28  C   UNL     1      -6.245 -37.639  -9.193  1.00  0.00    -0.000 C 
BRANCH  28  29
ATOM     29  C   UNL     1      -4.801 -37.214  -9.501  1.00  0.00    -0.000 C 
BRANCH  29  30
ATOM     30  C   UNL     1      -4.464 -35.805  -8.969  1.00  0.00    -0.000 C 
BRANCH  30  31
ATOM     31  C   UNL     1      -5.643 -35.071  -8.308  1.00  0.00    -0.003 C 
ATOM     32  C   UNL     1      -6.281 -34.024  -9.222  1.00  0.00     0.004 C 
ENDBRANCH  30  31
ENDBRANCH  29  30
ENDBRANCH  28  29
ENDBRANCH  27  28
ENDBRANCH  26  27
ENDBRANCH  25  26
ENDBRANCH  24  25
ENDBRANCH  23  24
ENDBRANCH  22  23
ENDBRANCH  21  22
ENDBRANCH  20  21
ENDBRANCH  19  20
ENDBRANCH  18  19
ENDBRANCH   1  18
TORSDOF 28
ENDMDL
MODEL 5
REMARK VINA RESULT:    -4.531      3.592      8.675
REMARK INTER + INTRA:         -15.587
REMARK INTER:                 -10.784
REMARK INTRA:                  -4.803
REMARK UNBOUND:                -3.640
REMARK SMILES CCCCCCCCCCCCCCCCCCCCCCCCCCCCCC(=O)[O-]
REMARK SMILES IDX 16 1 17 2 18 3 19 4 20 5 21 6 22 7 23 8 24 9 25 10 26 11
REMARK SMILES IDX 27 12 28 13 29 14 30 15 31 16 32 17 15 18 14 19 13 20 12 21
REMARK SMILES IDX 11 22 10 23 9 24 8 25 7 26 6 27 5 28 4 29 3 30 2 31 1 32
REMARK H PARENT
REMARK Flexibility Score: inf
ROOT
ATOM      1  C   UNL     1      -6.124 -40.053 -18.919  1.00  0.00     0.000 C 
ENDROOT
BRANCH   1   2
ATOM      2  C   UNL     1      -6.766 -41.124 -18.021  1.00  0.00     0.000 C 
BRANCH   2   3
ATOM      3  C   UNL     1      -5.937 -41.427 -16.761  1.00  0.00     0.000 C 
BRANCH   3   4
ATOM      4  C   UNL     1      -6.399 -40.600 -15.550  1.00  0.00     0.000 C 
BRANCH   4   5
ATOM      5  C   UNL     1      -6.033 -41.264 -14.212  1.00  0.00     0.000 C 
BRANCH   5   6
ATOM      6  C   UNL     1      -6.605 -40.517 -12.994  1.00  0.00     0.000 C 
BRANCH   6   7
ATOM      7  C   UNL     1      -7.389 -41.390 -11.996  1.00  0.00     0.000 C 
BRANCH   7   8
ATOM      8  C   UNL     1      -8.141 -40.567 -10.937  1.00  0.00     0.000 C 
BRANCH   8   9
ATOM      9  C   UNL     1      -7.823 -41.012  -9.501  1.00  0.00     0.000 C 
BRANCH   9  10
ATOM     10  C   UNL     1      -7.184 -39.902  -8.649  1.00  0.00     0.000 C 
BRANCH  10  11
ATOM     11  C   UNL     1      -6.957 -38.640  -9.493  1.00  0.00     0.000 C 
BRANCH  11  12
ATOM     12  C   UNL     1      -5.469 -38.319  -9.702  1.00  0.00     0.000 C 
BRANCH  12  13
ATOM     13  C   UNL     1      -5.185 -36.808  -9.744  1.00  0.00     0.006 C 
BRANCH  13  14
ATOM     14  C   UNL     1      -6.190 -36.040  -8.876  1.00  0.00     0.053 C 
BRANCH  14  15
ATOM     15  C   UNL     1      -6.918 -35.008  -9.681  1.00  0.00     0.041 C 
ATOM     16  O   UNL     1      -6.320 -33.964 -10.058  1.00  0.00    -0.550 OA
ATOM     17  O   UNL     1      -8.250 -35.203 -10.026  1.00  0.00    -0.550 OA
ENDBRANCH  14  15
ENDBRANCH  13  14
ENDBRANCH  12  13
ENDBRANCH  11  12
ENDBRANCH  10  11
ENDBRANCH   9  10
ENDBRANCH   8   9
ENDBRANCH   7   8
ENDBRANCH   6   7
ENDBRANCH   5   6
ENDBRANCH   4   5
ENDBRANCH   3   4
ENDBRANCH   2   3
ENDBRANCH   1   2
BRANCH   1  18
ATOM     18  C   UNL     1      -6.832 -38.685 -18.856  1.00  0.00     0.000 C 
BRANCH  18  19
ATOM     19  C   UNL     1      -8.195 -38.762 -18.147  1.00  0.00     0.000 C 
BRANCH  19  20
ATOM     20  C   UNL     1      -8.302 -37.801 -16.949  1.00  0.00     0.000 C 
BRANCH  20  21
ATOM     21  C   UNL     1      -9.373 -38.172 -15.897  1.00  0.00     0.000 C 
BRANCH  21  22
ATOM     22  C   UNL     1      -9.819 -39.646 -15.906  1.00  0.00     0.000 C 
BRANCH  22  23
ATOM     23  C   UNL     1     -10.029 -40.206 -14.494  1.00  0.00     0.000 C 
BRANCH  23  24
ATOM     24  C   UNL     1      -9.922 -41.739 -14.484  1.00  0.00    -0.000 C 
BRANCH  24  25
ATOM     25  C   UNL     1      -9.567 -42.321 -15.868  1.00  0.00    -0.000 C 
BRANCH  25  26
ATOM     26  C   UNL     1      -8.760 -43.634 -15.817  1.00  0.00    -0.000 C 
BRANCH  26  27
ATOM     27  C   UNL     1      -8.529 -44.218 -14.412  1.00  0.00    -0.000 C 
BRANCH  27  28
ATOM     28  C   UNL     1      -7.184 -44.953 -14.280  1.00  0.00    -0.000 C 
BRANCH  28  29
ATOM     29  C   UNL     1      -6.438 -44.520 -13.009  1.00  0.00    -0.000 C 
BRANCH  29  30
ATOM     30  C   UNL     1      -5.476 -45.603 -12.480  1.00  0.00    -0.000 C 
BRANCH  30  31
ATOM     31  C   UNL     1      -5.400 -45.700 -10.946  1.00  0.00    -0.003 C 
ATOM     32  C   UNL     1      -6.507 -44.913 -10.244  1.00  0.00     0.004 C 
ENDBRANCH  30  31
ENDBRANCH  29  30
ENDBRANCH  28  29
ENDBRANCH  27  28
ENDBRANCH  26  27
ENDBRANCH  25  26
ENDBRANCH  24  25
ENDBRANCH  23  24
ENDBRANCH  22  23
ENDBRANCH  21  22
ENDBRANCH  20  21
ENDBRANCH  19  20
ENDBRANCH  18  19
ENDBRANCH   1  18
TORSDOF 28
ENDMDL
MODEL 6
REMARK VINA RESULT:    -4.530      3.195      9.440
REMARK INTER + INTRA:         -15.584
REMARK INTER:                 -10.344
REMARK INTRA:                  -5.240
REMARK UNBOUND:                -3.640
REMARK SMILES CCCCCCCCCCCCCCCCCCCCCCCCCCCCCC(=O)[O-]
REMARK SMILES IDX 16 1 17 2 18 3 19 4 20 5 21 6 22 7 23 8 24 9 25 10 26 11
REMARK SMILES IDX 27 12 28 13 29 14 30 15 31 16 32 17 15 18 14 19 13 20 12 21
REMARK SMILES IDX 11 22 10 23 9 24 8 25 7 26 6 27 5 28 4 29 3 30 2 31 1 32
REMARK H PARENT
REMARK Flexibility Score: inf
ROOT
ATOM      1  C   UNL     1      -7.943 -41.409 -15.156  1.00  0.00     0.000 C 
ENDROOT
BRANCH   1   2
ATOM      2  C   UNL     1      -6.585 -40.871 -14.673  1.00  0.00     0.000 C 
BRANCH   2   3
ATOM      3  C   UNL     1      -5.528 -41.974 -14.502  1.00  0.00     0.000 C 
BRANCH   3   4
ATOM      4  C   UNL     1      -5.834 -43.209 -15.364  1.00  0.00     0.000 C 
BRANCH   4   5
ATOM      5  C   UNL     1      -4.889 -44.385 -15.059  1.00  0.00     0.000 C 
BRANCH   5   6
ATOM      6  C   UNL     1      -5.587 -45.537 -14.314  1.00  0.00     0.000 C 
BRANCH   6   7
ATOM      7  C   UNL     1      -5.115 -45.763 -12.866  1.00  0.00     0.000 C 
BRANCH   7   8
ATOM      8  C   UNL     1      -6.023 -45.086 -11.824  1.00  0.00     0.000 C 
BRANCH   8   9
ATOM      9  C   UNL     1      -7.445 -44.834 -12.349  1.00  0.00     0.000 C 
BRANCH   9  10
ATOM     10  C   UNL     1      -7.951 -43.410 -12.068  1.00  0.00     0.000 C 
BRANCH  10  11
ATOM     11  C   UNL     1      -6.985 -42.670 -11.132  1.00  0.00     0.000 C 
BRANCH  11  12
ATOM     12  C   UNL     1      -7.370 -41.198 -10.918  1.00  0.00     0.000 C 
BRANCH  12  13
ATOM     13  C   UNL     1      -6.441 -40.478  -9.925  1.00  0.00     0.006 C 
BRANCH  13  14
ATOM     14  C   UNL     1      -5.637 -39.379 -10.630  1.00  0.00     0.053 C 
BRANCH  14  15
ATOM     15  C   UNL     1      -5.988 -38.026 -10.092  1.00  0.00     0.041 C 
ATOM     16  O   UNL     1      -5.209 -37.444  -9.288  1.00  0.00    -0.550 OA
ATOM     17  O   UNL     1      -7.165 -37.401 -10.487  1.00  0.00    -0.550 OA
ENDBRANCH  14  15
ENDBRANCH  13  14
ENDBRANCH  12  13
ENDBRANCH  11  12
ENDBRANCH  10  11
ENDBRANCH   9  10
ENDBRANCH   8   9
ENDBRANCH   7   8
ENDBRANCH   6   7
ENDBRANCH   5   6
ENDBRANCH   4   5
ENDBRANCH   3   4
ENDBRANCH   2   3
ENDBRANCH   1   2
BRANCH   1  18
ATOM     18  C   UNL     1      -8.776 -40.377 -15.942  1.00  0.00     0.000 C 
BRANCH  18  19
ATOM     19  C   UNL     1      -8.219 -38.949 -15.807  1.00  0.00     0.000 C 
BRANCH  19  20
ATOM     20  C   UNL     1      -9.289 -37.866 -16.041  1.00  0.00     0.000 C 
BRANCH  20  21
ATOM     21  C   UNL     1      -9.227 -37.162 -17.416  1.00  0.00     0.000 C 
BRANCH  21  22
ATOM     22  C   UNL     1      -8.045 -37.577 -18.313  1.00  0.00     0.000 C 
BRANCH  22  23
ATOM     23  C   UNL     1      -8.499 -38.311 -19.581  1.00  0.00     0.000 C 
BRANCH  23  24
ATOM     24  C   UNL     1      -7.485 -39.391 -19.989  1.00  0.00    -0.000 C 
BRANCH  24  25
ATOM     25  C   UNL     1      -6.194 -39.346 -19.145  1.00  0.00    -0.000 C 
BRANCH  25  26
ATOM     26  C   UNL     1      -5.959 -40.600 -18.278  1.00  0.00    -0.000 C 
BRANCH  26  27
ATOM     27  C   UNL     1      -6.697 -41.871 -18.733  1.00  0.00    -0.000 C 
BRANCH  27  28
ATOM     28  C   UNL     1      -5.750 -42.956 -19.273  1.00  0.00    -0.000 C 
BRANCH  28  29
ATOM     29  C   UNL     1      -4.293 -42.664 -18.885  1.00  0.00    -0.000 C 
BRANCH  29  30
ATOM     30  C   UNL     1      -3.395 -42.369 -20.105  1.00  0.00    -0.000 C 
BRANCH  30  31
ATOM     31  C   UNL     1      -4.152 -42.206 -21.434  1.00  0.00    -0.003 C 
ATOM     32  C   UNL     1      -4.098 -40.779 -21.979  1.00  0.00     0.004 C 
ENDBRANCH  30  31
ENDBRANCH  29  30
ENDBRANCH  28  29
ENDBRANCH  27  28
ENDBRANCH  26  27
ENDBRANCH  25  26
ENDBRANCH  24  25
ENDBRANCH  23  24
ENDBRANCH  22  23
ENDBRANCH  21  22
ENDBRANCH  20  21
ENDBRANCH  19  20
ENDBRANCH  18  19
ENDBRANCH   1  18
TORSDOF 28
ENDMDL
MODEL 7
REMARK VINA RESULT:    -4.510      2.565      5.287
REMARK INTER + INTRA:         -15.531
REMARK INTER:                 -11.588
REMARK INTRA:                  -3.943
REMARK UNBOUND:                -3.640
REMARK SMILES CCCCCCCCCCCCCCCCCCCCCCCCCCCCCC(=O)[O-]
REMARK SMILES IDX 16 1 17 2 18 3 19 4 20 5 21 6 22 7 23 8 24 9 25 10 26 11
REMARK SMILES IDX 27 12 28 13 29 14 30 15 31 16 32 17 15 18 14 19 13 20 12 21
REMARK SMILES IDX 11 22 10 23 9 24 8 25 7 26 6 27 5 28 4 29 3 30 2 31 1 32
REMARK H PARENT
REMARK Flexibility Score: inf
ROOT
ATOM      1  C   UNL     1      -9.152 -38.926 -15.632  1.00  0.00     0.000 C 
ENDROOT
BRANCH   1   2
ATOM      2  C   UNL     1      -9.073 -37.694 -16.549  1.00  0.00     0.000 C 
BRANCH   2   3
ATOM      3  C   UNL     1      -8.852 -38.057 -18.026  1.00  0.00     0.000 C 
BRANCH   3   4
ATOM      4  C   UNL     1      -7.380 -37.913 -18.445  1.00  0.00     0.000 C 
BRANCH   4   5
ATOM      5  C   UNL     1      -6.742 -39.262 -18.823  1.00  0.00     0.000 C 
BRANCH   5   6
ATOM      6  C   UNL     1      -7.693 -40.454 -18.616  1.00  0.00     0.000 C 
BRANCH   6   7
ATOM      7  C   UNL     1      -7.130 -41.601 -17.756  1.00  0.00     0.000 C 
BRANCH   7   8
ATOM      8  C   UNL     1      -5.804 -41.240 -17.065  1.00  0.00     0.000 C 
BRANCH   8   9
ATOM      9  C   UNL     1      -5.033 -42.475 -16.573  1.00  0.00     0.000 C 
BRANCH   9  10
ATOM     10  C   UNL     1      -4.775 -42.464 -15.057  1.00  0.00     0.000 C 
BRANCH  10  11
ATOM     11  C   UNL     1      -5.142 -43.821 -14.439  1.00  0.00     0.000 C 
BRANCH  11  12
ATOM     12  C   UNL     1      -6.171 -44.600 -15.274  1.00  0.00     0.000 C 
BRANCH  12  13
ATOM     13  C   UNL     1      -5.725 -46.041 -15.575  1.00  0.00     0.006 C 
BRANCH  13  14
ATOM     14  C   UNL     1      -4.501 -46.421 -14.734  1.00  0.00     0.053 C 
BRANCH  14  15
ATOM     15  C   UNL     1      -3.449 -47.073 -15.578  1.00  0.00     0.041 C 
ATOM     16  O   UNL     1      -2.623 -47.869 -15.055  1.00  0.00    -0.550 OA
ATOM     17  O   UNL     1      -3.389 -46.815 -16.943  1.00  0.00    -0.550 OA
ENDBRANCH  14  15
ENDBRANCH  13  14
ENDBRANCH  12  13
ENDBRANCH  11  12
ENDBRANCH  10  11
ENDBRANCH   9  10
ENDBRANCH   8   9
ENDBRANCH   7   8
ENDBRANCH   6   7
ENDBRANCH   5   6
ENDBRANCH   4   5
ENDBRANCH   3   4
ENDBRANCH   2   3
ENDBRANCH   1   2
BRANCH   1  18
ATOM     18  C   UNL     1      -7.867 -39.177 -14.818  1.00  0.00     0.000 C 
BRANCH  18  19
ATOM     19  C   UNL     1      -7.891 -40.531 -14.086  1.00  0.00     0.000 C 
BRANCH  19  20
ATOM     20  C   UNL     1      -6.865 -40.609 -12.939  1.00  0.00     0.000 C 
BRANCH  20  21
ATOM     21  C   UNL     1      -6.989 -39.504 -11.866  1.00  0.00     0.000 C 
BRANCH  21  22
ATOM     22  C   UNL     1      -5.839 -39.451 -10.842  1.00  0.00     0.000 C 
BRANCH  22  23
ATOM     23  C   UNL     1      -6.341 -39.440  -9.393  1.00  0.00     0.000 C 
BRANCH  23  24
ATOM     24  C   UNL     1      -7.842 -39.114  -9.330  1.00  0.00    -0.000 C 
BRANCH  24  25
ATOM     25  C   UNL     1      -8.179 -38.059  -8.257  1.00  0.00    -0.000 C 
BRANCH  25  26
ATOM     26  C   UNL     1      -8.690 -36.718  -8.823  1.00  0.00    -0.000 C 
BRANCH  26  27
ATOM     27  C   UNL     1      -8.184 -36.355 -10.230  1.00  0.00    -0.000 C 
BRANCH  27  28
ATOM     28  C   UNL     1      -7.890 -34.854 -10.394  1.00  0.00    -0.000 C 
BRANCH  28  29
ATOM     29  C   UNL     1      -6.395 -34.558 -10.199  1.00  0.00    -0.000 C 
BRANCH  29  30
ATOM     30  C   UNL     1      -6.014 -34.351  -8.718  1.00  0.00    -0.000 C 
BRANCH  30  31
ATOM     31  C   UNL     1      -4.838 -35.215  -8.232  1.00  0.00    -0.003 C 
ATOM     32  C   UNL     1      -4.485 -36.342  -9.203  1.00  0.00     0.004 C 
ENDBRANCH  30  31
ENDBRANCH  29  30
ENDBRANCH  28  29
ENDBRANCH  27  28
ENDBRANCH  26  27
ENDBRANCH  25  26
ENDBRANCH  24  25
ENDBRANCH  23  24
ENDBRANCH  22  23
ENDBRANCH  21  22
ENDBRANCH  20  21
ENDBRANCH  19  20
ENDBRANCH  18  19
ENDBRANCH   1  18
TORSDOF 28
ENDMDL
MODEL 8
REMARK VINA RESULT:    -4.480      2.433      7.313
REMARK INTER + INTRA:         -15.453
REMARK INTER:                 -10.842
REMARK INTRA:                  -4.611
REMARK UNBOUND:                -3.640
REMARK SMILES CCCCCCCCCCCCCCCCCCCCCCCCCCCCCC(=O)[O-]
REMARK SMILES IDX 16 1 17 2 18 3 19 4 20 5 21 6 22 7 23 8 24 9 25 10 26 11
REMARK SMILES IDX 27 12 28 13 29 14 30 15 31 16 32 17 15 18 14 19 13 20 12 21
REMARK SMILES IDX 11 22 10 23 9 24 8 25 7 26 6 27 5 28 4 29 3 30 2 31 1 32
REMARK H PARENT
REMARK Flexibility Score: inf
ROOT
ATOM      1  C   UNL     1      -6.474 -40.624 -10.280  1.00  0.00     0.000 C 
ENDROOT
BRANCH   1   2
ATOM      2  C   UNL     1      -5.717 -39.309 -10.527  1.00  0.00     0.000 C 
BRANCH   2   3
ATOM      3  C   UNL     1      -5.999 -38.243  -9.455  1.00  0.00     0.000 C 
BRANCH   3   4
ATOM      4  C   UNL     1      -4.934 -37.134  -9.445  1.00  0.00     0.000 C 
BRANCH   4   5
ATOM      5  C   UNL     1      -5.534 -35.746  -9.159  1.00  0.00     0.000 C 
BRANCH   5   6
ATOM      6  C   UNL     1      -6.135 -35.083 -10.411  1.00  0.00     0.000 C 
BRANCH   6   7
ATOM      7  C   UNL     1      -7.535 -34.469 -10.221  1.00  0.00     0.000 C 
BRANCH   7   8
ATOM      8  C   UNL     1      -8.518 -35.419  -9.517  1.00  0.00     0.000 C 
BRANCH   8   9
ATOM      9  C   UNL     1      -9.154 -36.436 -10.477  1.00  0.00     0.000 C 
BRANCH   9  10
ATOM     10  C   UNL     1      -9.676 -37.696  -9.767  1.00  0.00     0.000 C 
BRANCH  10  11
ATOM     11  C   UNL     1      -9.765 -38.871 -10.751  1.00  0.00     0.000 C 
BRANCH  11  12
ATOM     12  C   UNL     1      -9.116 -38.563 -12.110  1.00  0.00     0.000 C 
BRANCH  12  13
ATOM     13  C   UNL     1      -8.783 -39.832 -12.913  1.00  0.00     0.006 C 
BRANCH  13  14
ATOM     14  C   UNL     1      -7.653 -39.564 -13.913  1.00  0.00     0.053 C 
BRANCH  14  15
ATOM     15  C   UNL     1      -8.187 -39.426 -15.305  1.00  0.00     0.041 C 
ATOM     16  O   UNL     1      -7.920 -38.399 -15.986  1.00  0.00    -0.550 OA
ATOM     17  O   UNL     1      -8.968 -40.435 -15.857  1.00  0.00    -0.550 OA
ENDBRANCH  14  15
ENDBRANCH  13  14
ENDBRANCH  12  13
ENDBRANCH  11  12
ENDBRANCH  10  11
ENDBRANCH   9  10
ENDBRANCH   8   9
ENDBRANCH   7   8
ENDBRANCH   6   7
ENDBRANCH   5   6
ENDBRANCH   4   5
ENDBRANCH   3   4
ENDBRANCH   2   3
ENDBRANCH   1   2
BRANCH   1  18
ATOM     18  C   UNL     1      -7.060 -40.746  -8.859  1.00  0.00     0.000 C 
BRANCH  18  19
ATOM     19  C   UNL     1      -8.262 -41.704  -8.800  1.00  0.00     0.000 C 
BRANCH  19  20
ATOM     20  C   UNL     1      -8.573 -42.357 -10.161  1.00  0.00     0.000 C 
BRANCH  20  21
ATOM     21  C   UNL     1      -9.068 -43.820 -10.093  1.00  0.00     0.000 C 
BRANCH  21  22
ATOM     22  C   UNL     1      -8.002 -44.889 -10.400  1.00  0.00     0.000 C 
BRANCH  22  23
ATOM     23  C   UNL     1      -6.651 -44.277 -10.788  1.00  0.00     0.000 C 
BRANCH  23  24
ATOM     24  C   UNL     1      -6.410 -44.380 -12.303  1.00  0.00    -0.000 C 
BRANCH  24  25
ATOM     25  C   UNL     1      -6.737 -43.070 -13.049  1.00  0.00    -0.000 C 
BRANCH  25  26
ATOM     26  C   UNL     1      -6.458 -43.116 -14.565  1.00  0.00    -0.000 C 
BRANCH  26  27
ATOM     27  C   UNL     1      -5.129 -42.485 -15.016  1.00  0.00    -0.000 C 
BRANCH  27  28
ATOM     28  C   UNL     1      -4.990 -42.404 -16.546  1.00  0.00    -0.000 C 
BRANCH  28  29
ATOM     29  C   UNL     1      -5.751 -41.195 -17.109  1.00  0.00    -0.000 C 
BRANCH  29  30
ATOM     30  C   UNL     1      -5.694 -41.115 -18.649  1.00  0.00    -0.000 C 
BRANCH  30  31
ATOM     31  C   UNL     1      -6.128 -39.761 -19.237  1.00  0.00    -0.003 C 
ATOM     32  C   UNL     1      -5.907 -39.668 -20.747  1.00  0.00     0.004 C 
ENDBRANCH  30  31
ENDBRANCH  29  30
ENDBRANCH  28  29
ENDBRANCH  27  28
ENDBRANCH  26  27
ENDBRANCH  25  26
ENDBRANCH  24  25
ENDBRANCH  23  24
ENDBRANCH  22  23
ENDBRANCH  21  22
ENDBRANCH  20  21
ENDBRANCH  19  20
ENDBRANCH  18  19
ENDBRANCH   1  18
TORSDOF 28
ENDMDL
MODEL 9
REMARK VINA RESULT:    -4.428      1.628      2.433
REMARK INTER + INTRA:         -15.315
REMARK INTER:                  -9.923
REMARK INTRA:                  -5.392
REMARK UNBOUND:                -3.640
REMARK SMILES CCCCCCCCCCCCCCCCCCCCCCCCCCCCCC(=O)[O-]
REMARK SMILES IDX 16 1 17 2 18 3 19 4 20 5 21 6 22 7 23 8 24 9 25 10 26 11
REMARK SMILES IDX 27 12 28 13 29 14 30 15 31 16 32 17 15 18 14 19 13 20 12 21
REMARK SMILES IDX 11 22 10 23 9 24 8 25 7 26 6 27 5 28 4 29 3 30 2 31 1 32
REMARK H PARENT
REMARK Flexibility Score: inf
ROOT
ATOM      1  C   UNL     1      -6.803 -45.083 -15.716  1.00  0.00     0.000 C 
ENDROOT
BRANCH   1   2
ATOM      2  C   UNL     1      -7.853 -43.990 -15.455  1.00  0.00     0.000 C 
BRANCH   2   3
ATOM      3  C   UNL     1      -8.335 -43.955 -13.996  1.00  0.00     0.000 C 
BRANCH   3   4
ATOM      4  C   UNL     1      -8.266 -42.541 -13.396  1.00  0.00     0.000 C 
BRANCH   4   5
ATOM      5  C   UNL     1      -6.828 -42.122 -13.043  1.00  0.00     0.000 C 
BRANCH   5   6
ATOM      6  C   UNL     1      -6.350 -40.893 -13.835  1.00  0.00     0.000 C 
BRANCH   6   7
ATOM      7  C   UNL     1      -7.467 -39.957 -14.334  1.00  0.00     0.000 C 
BRANCH   7   8
ATOM      8  C   UNL     1      -7.293 -39.542 -15.804  1.00  0.00     0.000 C 
BRANCH   8   9
ATOM      9  C   UNL     1      -7.836 -40.590 -16.788  1.00  0.00     0.000 C 
BRANCH   9  10
ATOM     10  C   UNL     1      -6.782 -41.081 -17.794  1.00  0.00     0.000 C 
BRANCH  10  11
ATOM     11  C   UNL     1      -5.550 -41.628 -17.058  1.00  0.00     0.000 C 
BRANCH  11  12
ATOM     12  C   UNL     1      -4.714 -42.586 -17.922  1.00  0.00     0.000 C 
BRANCH  12  13
ATOM     13  C   UNL     1      -5.523 -43.208 -19.073  1.00  0.00     0.006 C 
BRANCH  13  14
ATOM     14  C   UNL     1      -4.733 -43.154 -20.386  1.00  0.00     0.053 C 
BRANCH  14  15
ATOM     15  C   UNL     1      -4.582 -41.743 -20.865  1.00  0.00     0.041 C 
ATOM     16  O   UNL     1      -3.432 -41.241 -20.999  1.00  0.00    -0.550 OA
ATOM     17  O   UNL     1      -5.705 -40.986 -21.176  1.00  0.00    -0.550 OA
ENDBRANCH  14  15
ENDBRANCH  13  14
ENDBRANCH  12  13
ENDBRANCH  11  12
ENDBRANCH  10  11
ENDBRANCH   9  10
ENDBRANCH   8   9
ENDBRANCH   7   8
ENDBRANCH   6   7
ENDBRANCH   5   6
ENDBRANCH   4   5
ENDBRANCH   3   4
ENDBRANCH   2   3
ENDBRANCH   1   2
BRANCH   1  18
ATOM     18  C   UNL     1      -5.425 -44.780 -15.095  1.00  0.00     0.000 C 
BRANCH  18  19
ATOM     19  C   UNL     1      -4.993 -45.849 -14.076  1.00  0.00     0.000 C 
BRANCH  19  20
ATOM     20  C   UNL     1      -5.022 -45.337 -12.624  1.00  0.00     0.000 C 
BRANCH  20  21
ATOM     21  C   UNL     1      -6.267 -45.745 -11.803  1.00  0.00     0.000 C 
BRANCH  21  22
ATOM     22  C   UNL     1      -6.471 -44.970 -10.488  1.00  0.00     0.000 C 
BRANCH  22  23
ATOM     23  C   UNL     1      -7.931 -44.553 -10.271  1.00  0.00     0.000 C 
BRANCH  23  24
ATOM     24  C   UNL     1      -8.023 -43.107  -9.760  1.00  0.00    -0.000 C 
BRANCH  24  25
ATOM     25  C   UNL     1      -6.669 -42.561  -9.265  1.00  0.00    -0.000 C 
BRANCH  25  26
ATOM     26  C   UNL     1      -6.650 -41.039  -9.015  1.00  0.00    -0.000 C 
BRANCH  26  27
ATOM     27  C   UNL     1      -7.574 -40.205  -9.919  1.00  0.00    -0.000 C 
BRANCH  27  28
ATOM     28  C   UNL     1      -6.829 -39.095 -10.680  1.00  0.00    -0.000 C 
BRANCH  28  29
ATOM     29  C   UNL     1      -5.362 -39.005 -10.234  1.00  0.00    -0.000 C 
BRANCH  29  30
ATOM     30  C   UNL     1      -4.966 -37.594  -9.753  1.00  0.00    -0.000 C 
BRANCH  30  31
ATOM     31  C   UNL     1      -6.116 -36.781  -9.135  1.00  0.00    -0.003 C 
ATOM     32  C   UNL     1      -5.628 -35.600  -8.295  1.00  0.00     0.004 C 
ENDBRANCH  30  31
ENDBRANCH  29  30
ENDBRANCH  28  29
ENDBRANCH  27  28
ENDBRANCH  26  27
ENDBRANCH  25  26
ENDBRANCH  24  25
ENDBRANCH  23  24
ENDBRANCH  22  23
ENDBRANCH  21  22
ENDBRANCH  20  21
ENDBRANCH  19  20
ENDBRANCH  18  19
ENDBRANCH   1  18
TORSDOF 28
ENDMDL
