MODEL 1
REMARK VINA RESULT:     0.892      0.000      0.000
REMARK INTER + INTRA:           1.408
REMARK INTER:                   1.622
REMARK INTRA:                  -0.214
REMARK UNBOUND:                -0.214
REMARK SMILES CCCCCCCCCCCCCCCC(=O)[O-]
REMARK SMILES IDX 9 1 10 2 11 3 12 4 13 5 14 6 15 7 16 8 17 9 18 10 8 11 7 12
REMARK SMILES IDX 6 13 5 14 4 15 3 16 2 17 1 18
REMARK H PARENT
REMARK Flexibility Score: inf
ROOT
ATOM      1  C   UNL     1     -14.425  -2.390 -13.531  1.00  0.00     0.000 C 
ENDROOT
BRANCH   1   2
ATOM      2  C   UNL     1     -14.428  -3.274 -12.273  1.00  0.00     0.000 C 
BRANCH   2   3
ATOM      3  C   UNL     1     -13.118  -4.064 -12.105  1.00  0.00     0.000 C 
BRANCH   3   4
ATOM      4  C   UNL     1     -11.981  -3.203 -11.530  1.00  0.00     0.000 C 
BRANCH   4   5
ATOM      5  C   UNL     1     -12.385  -2.470 -10.240  1.00  0.00     0.000 C 
BRANCH   5   6
ATOM      6  C   UNL     1     -12.462  -3.410  -9.026  1.00  0.00     0.006 C 
BRANCH   6   7
ATOM      7  C   UNL     1     -13.841  -4.066  -8.875  1.00  0.00     0.053 C 
BRANCH   7   8
ATOM      8  C   UNL     1     -13.724  -5.554  -8.974  1.00  0.00     0.041 C 
ATOM      9  O   UNL     1     -14.758  -6.271  -9.002  1.00  0.00    -0.550 OA
ATOM     10  O   UNL     1     -12.471  -6.154  -8.988  1.00  0.00    -0.550 OA
ENDBRANCH   7   8
ENDBRANCH   6   7
ENDBRANCH   5   6
ENDBRANCH   4   5
ENDBRANCH   3   4
ENDBRANCH   2   3
ENDBRANCH   1   2
BRANCH   1  11
ATOM     11  C   UNL     1     -13.072  -2.403 -14.263  1.00  0.00     0.000 C 
BRANCH  11  12
ATOM     12  C   UNL     1     -13.101  -1.591 -15.568  1.00  0.00    -0.000 C 
BRANCH  12  13
ATOM     13  C   UNL     1     -14.066  -2.183 -16.610  1.00  0.00    -0.000 C 
BRANCH  13  14
ATOM     14  C   UNL     1     -14.417  -3.653 -16.327  1.00  0.00    -0.000 C 
BRANCH  14  15
ATOM     15  C   UNL     1     -14.443  -4.510 -17.604  1.00  0.00    -0.000 C 
BRANCH  15  16
ATOM     16  C   UNL     1     -14.077  -5.978 -17.336  1.00  0.00    -0.000 C 
BRANCH  16  17
ATOM     17  C   UNL     1     -13.987  -6.304 -15.838  1.00  0.00    -0.003 C 
ATOM     18  C   UNL     1     -13.705  -7.787 -15.615  1.00  0.00     0.004 C 
ENDBRANCH  16  17
ENDBRANCH  15  16
ENDBRANCH  14  15
ENDBRANCH  13  14
ENDBRANCH  12  13
ENDBRANCH  11  12
ENDBRANCH   1  11
TORSDOF 14
ENDMDL
MODEL 2
REMARK VINA RESULT:     0.955      1.153      1.983
REMARK INTER + INTRA:           1.523
REMARK INTER:                   2.293
REMARK INTRA:                  -0.769
REMARK UNBOUND:                -0.214
REMARK SMILES CCCCCCCCCCCCCCCC(=O)[O-]
REMARK SMILES IDX 9 1 10 2 11 3 12 4 13 5 14 6 15 7 16 8 17 9 18 10 8 11 7 12
REMARK SMILES IDX 6 13 5 14 4 15 3 16 2 17 1 18
REMARK H PARENT
REMARK Flexibility Score: inf
ROOT
ATOM      1  C   UNL     1     -13.287  -1.336 -14.651  1.00  0.00     0.000 C 
ENDROOT
BRANCH   1   2
ATOM      2  C   UNL     1     -12.095  -2.142 -14.108  1.00  0.00     0.000 C 
BRANCH   2   3
ATOM      3  C   UNL     1     -12.101  -2.240 -12.573  1.00  0.00     0.000 C 
BRANCH   3   4
ATOM      4  C   UNL     1     -12.524  -3.632 -12.073  1.00  0.00     0.000 C 
BRANCH   4   5
ATOM      5  C   UNL     1     -13.861  -3.607 -11.313  1.00  0.00     0.000 C 
BRANCH   5   6
ATOM      6  C   UNL     1     -13.701  -3.161  -9.851  1.00  0.00     0.006 C 
BRANCH   6   7
ATOM      7  C   UNL     1     -14.486  -4.048  -8.875  1.00  0.00     0.053 C 
BRANCH   7   8
ATOM      8  C   UNL     1     -13.953  -5.445  -8.896  1.00  0.00     0.041 C 
ATOM      9  O   UNL     1     -14.742  -6.426  -8.879  1.00  0.00    -0.550 OA
ATOM     10  O   UNL     1     -12.581  -5.667  -8.886  1.00  0.00    -0.550 OA
ENDBRANCH   7   8
ENDBRANCH   6   7
ENDBRANCH   5   6
ENDBRANCH   4   5
ENDBRANCH   3   4
ENDBRANCH   2   3
ENDBRANCH   1   2
BRANCH   1  11
ATOM     11  C   UNL     1     -13.536  -1.580 -16.149  1.00  0.00     0.000 C 
BRANCH  11  12
ATOM     12  C   UNL     1     -14.383  -2.837 -16.407  1.00  0.00    -0.000 C 
BRANCH  12  13
ATOM     13  C   UNL     1     -14.365  -3.815 -15.219  1.00  0.00    -0.000 C 
BRANCH  13  14
ATOM     14  C   UNL     1     -13.992  -5.247 -15.633  1.00  0.00    -0.000 C 
BRANCH  14  15
ATOM     15  C   UNL     1     -14.376  -6.288 -14.567  1.00  0.00    -0.000 C 
BRANCH  15  16
ATOM     16  C   UNL     1     -13.906  -7.705 -14.932  1.00  0.00    -0.000 C 
BRANCH  16  17
ATOM     17  C   UNL     1     -13.837  -7.935 -16.449  1.00  0.00    -0.003 C 
ATOM     18  C   UNL     1     -12.390  -8.053 -16.920  1.00  0.00     0.004 C 
ENDBRANCH  16  17
ENDBRANCH  15  16
ENDBRANCH  14  15
ENDBRANCH  13  14
ENDBRANCH  12  13
ENDBRANCH  11  12
ENDBRANCH   1  11
TORSDOF 14
ENDMDL
MODEL 3
REMARK VINA RESULT:     1.169      2.375      6.381
REMARK INTER + INTRA:           1.912
REMARK INTER:                   3.283
REMARK INTRA:                  -1.372
REMARK UNBOUND:                -0.214
REMARK SMILES CCCCCCCCCCCCCCCC(=O)[O-]
REMARK SMILES IDX 9 1 10 2 11 3 12 4 13 5 14 6 15 7 16 8 17 9 18 10 8 11 7 12
REMARK SMILES IDX 6 13 5 14 4 15 3 16 2 17 1 18
REMARK H PARENT
REMARK Flexibility Score: inf
ROOT
ATOM      1  C   UNL     1     -14.027  -2.524 -13.790  1.00  0.00     0.000 C 
ENDROOT
BRANCH   1   2
ATOM      2  C   UNL     1     -13.170  -1.760 -14.811  1.00  0.00     0.000 C 
BRANCH   2   3
ATOM      3  C   UNL     1     -13.559  -2.083 -16.265  1.00  0.00     0.000 C 
BRANCH   3   4
ATOM      4  C   UNL     1     -14.537  -3.266 -16.364  1.00  0.00     0.000 C 
BRANCH   4   5
ATOM      5  C   UNL     1     -14.328  -4.102 -17.638  1.00  0.00     0.000 C 
BRANCH   5   6
ATOM      6  C   UNL     1     -14.235  -5.608 -17.347  1.00  0.00     0.006 C 
BRANCH   6   7
ATOM      7  C   UNL     1     -13.947  -5.906 -15.870  1.00  0.00     0.053 C 
BRANCH   7   8
ATOM      8  C   UNL     1     -13.825  -7.380 -15.649  1.00  0.00     0.041 C 
ATOM      9  O   UNL     1     -14.624  -7.974 -14.877  1.00  0.00    -0.550 OA
ATOM     10  O   UNL     1     -12.800  -8.093 -16.258  1.00  0.00    -0.550 OA
ENDBRANCH   7   8
ENDBRANCH   6   7
ENDBRANCH   5   6
ENDBRANCH   4   5
ENDBRANCH   3   4
ENDBRANCH   2   3
ENDBRANCH   1   2
BRANCH   1  11
ATOM     11  C   UNL     1     -13.228  -3.595 -13.026  1.00  0.00     0.000 C 
BRANCH  11  12
ATOM     12  C   UNL     1     -12.036  -3.003 -12.257  1.00  0.00    -0.000 C 
BRANCH  12  13
ATOM     13  C   UNL     1     -12.465  -1.929 -11.241  1.00  0.00    -0.000 C 
BRANCH  13  14
ATOM     14  C   UNL     1     -11.875  -2.166  -9.842  1.00  0.00    -0.000 C 
BRANCH  14  15
ATOM     15  C   UNL     1     -12.147  -3.588  -9.320  1.00  0.00    -0.000 C 
BRANCH  15  16
ATOM     16  C   UNL     1     -13.606  -3.785  -8.879  1.00  0.00    -0.000 C 
BRANCH  16  17
ATOM     17  C   UNL     1     -14.266  -5.005  -9.538  1.00  0.00    -0.003 C 
ATOM     18  C   UNL     1     -13.703  -6.306  -8.971  1.00  0.00     0.004 C 
ENDBRANCH  16  17
ENDBRANCH  15  16
ENDBRANCH  14  15
ENDBRANCH  13  14
ENDBRANCH  12  13
ENDBRANCH  11  12
ENDBRANCH   1  11
TORSDOF 14
ENDMDL
MODEL 4
REMARK VINA RESULT:     1.919      1.599      2.338
REMARK INTER + INTRA:           3.275
REMARK INTER:                   3.493
REMARK INTRA:                  -0.218
REMARK UNBOUND:                -0.214
REMARK SMILES CCCCCCCCCCCCCCCC(=O)[O-]
REMARK SMILES IDX 9 1 10 2 11 3 12 4 13 5 14 6 15 7 16 8 17 9 18 10 8 11 7 12
REMARK SMILES IDX 6 13 5 14 4 15 3 16 2 17 1 18
REMARK H PARENT
REMARK Flexibility Score: inf
ROOT
ATOM      1  C   UNL     1     -13.362  -2.557 -13.887  1.00  0.00     0.000 C 
ENDROOT
BRANCH   1   2
ATOM      2  C   UNL     1     -11.967  -2.889 -13.335  1.00  0.00     0.000 C 
BRANCH   2   3
ATOM      3  C   UNL     1     -12.007  -3.344 -11.866  1.00  0.00     0.000 C 
BRANCH   3   4
ATOM      4  C   UNL     1     -13.363  -3.957 -11.476  1.00  0.00     0.000 C 
BRANCH   4   5
ATOM      5  C   UNL     1     -14.022  -3.233 -10.289  1.00  0.00     0.000 C 
BRANCH   5   6
ATOM      6  C   UNL     1     -13.422  -3.650  -8.937  1.00  0.00     0.006 C 
BRANCH   6   7
ATOM      7  C   UNL     1     -12.484  -4.858  -9.055  1.00  0.00     0.053 C 
BRANCH   7   8
ATOM      8  C   UNL     1     -13.260  -6.133  -8.950  1.00  0.00     0.041 C 
ATOM      9  O   UNL     1     -14.517  -6.106  -8.884  1.00  0.00    -0.550 OA
ATOM     10  O   UNL     1     -12.593  -7.349  -8.875  1.00  0.00    -0.550 OA
ENDBRANCH   7   8
ENDBRANCH   6   7
ENDBRANCH   5   6
ENDBRANCH   4   5
ENDBRANCH   3   4
ENDBRANCH   2   3
ENDBRANCH   1   2
BRANCH   1  11
ATOM     11  C   UNL     1     -13.347  -1.372 -14.868  1.00  0.00     0.000 C 
BRANCH  11  12
ATOM     12  C   UNL     1     -13.750  -1.783 -16.293  1.00  0.00    -0.000 C 
BRANCH  12  13
ATOM     13  C   UNL     1     -14.415  -3.170 -16.341  1.00  0.00    -0.000 C 
BRANCH  13  14
ATOM     14  C   UNL     1     -13.837  -4.069 -17.445  1.00  0.00    -0.000 C 
BRANCH  14  15
ATOM     15  C   UNL     1     -14.840  -5.132 -17.926  1.00  0.00    -0.000 C 
BRANCH  15  16
ATOM     16  C   UNL     1     -15.652  -4.668 -19.146  1.00  0.00    -0.000 C 
BRANCH  16  17
ATOM     17  C   UNL     1     -16.903  -5.526 -19.388  1.00  0.00    -0.003 C 
ATOM     18  C   UNL     1     -16.986  -5.975 -20.844  1.00  0.00     0.004 C 
ENDBRANCH  16  17
ENDBRANCH  15  16
ENDBRANCH  14  15
ENDBRANCH  13  14
ENDBRANCH  12  13
ENDBRANCH  11  12
ENDBRANCH   1  11
TORSDOF 14
ENDMDL
MODEL 5
REMARK VINA RESULT:     2.197     19.600     21.847
REMARK INTER + INTRA:           3.781
REMARK INTER:                   3.962
REMARK INTRA:                  -0.182
REMARK UNBOUND:                -0.214
REMARK SMILES CCCCCCCCCCCCCCCC(=O)[O-]
REMARK SMILES IDX 9 1 10 2 11 3 12 4 13 5 14 6 15 7 16 8 17 9 18 10 8 11 7 12
REMARK SMILES IDX 6 13 5 14 4 15 3 16 2 17 1 18
REMARK H PARENT
REMARK Flexibility Score: inf
ROOT
ATOM      1  C   UNL     1     -29.785   3.235 -25.195  1.00  0.00     0.000 C 
ENDROOT
BRANCH   1   2
ATOM      2  C   UNL     1     -31.154   3.317 -24.501  1.00  0.00     0.000 C 
BRANCH   2   3
ATOM      3  C   UNL     1     -31.888   1.966 -24.485  1.00  0.00     0.000 C 
BRANCH   3   4
ATOM      4  C   UNL     1     -31.014   0.814 -25.008  1.00  0.00     0.000 C 
BRANCH   4   5
ATOM      5  C   UNL     1     -30.970  -0.383 -24.041  1.00  0.00     0.000 C 
BRANCH   5   6
ATOM      6  C   UNL     1     -30.727   0.043 -22.585  1.00  0.00     0.006 C 
BRANCH   6   7
ATOM      7  C   UNL     1     -30.825  -1.132 -21.603  1.00  0.00     0.053 C 
BRANCH   7   8
ATOM      8  C   UNL     1     -29.460  -1.606 -21.219  1.00  0.00     0.041 C 
ATOM      9  O   UNL     1     -29.175  -1.807 -20.009  1.00  0.00    -0.550 OA
ATOM     10  O   UNL     1     -28.484  -1.780 -22.193  1.00  0.00    -0.550 OA
ENDBRANCH   7   8
ENDBRANCH   6   7
ENDBRANCH   5   6
ENDBRANCH   4   5
ENDBRANCH   3   4
ENDBRANCH   2   3
ENDBRANCH   1   2
BRANCH   1  11
ATOM     11  C   UNL     1     -29.878   3.426 -26.718  1.00  0.00     0.000 C 
BRANCH  11  12
ATOM     12  C   UNL     1     -31.213   4.053 -27.152  1.00  0.00    -0.000 C 
BRANCH  12  13
ATOM     13  C   UNL     1     -31.455   3.935 -28.667  1.00  0.00    -0.000 C 
BRANCH  13  14
ATOM     14  C   UNL     1     -32.082   2.589 -29.065  1.00  0.00    -0.000 C 
BRANCH  14  15
ATOM     15  C   UNL     1     -32.077   1.571 -27.912  1.00  0.00    -0.000 C 
BRANCH  15  16
ATOM     16  C   UNL     1     -32.125   0.118 -28.409  1.00  0.00    -0.000 C 
BRANCH  16  17
ATOM     17  C   UNL     1     -31.268  -0.829 -27.555  1.00  0.00    -0.003 C 
ATOM     18  C   UNL     1     -31.922  -2.203 -27.435  1.00  0.00     0.004 C 
ENDBRANCH  16  17
ENDBRANCH  15  16
ENDBRANCH  14  15
ENDBRANCH  13  14
ENDBRANCH  12  13
ENDBRANCH  11  12
ENDBRANCH   1  11
TORSDOF 14
ENDMDL
MODEL 6
REMARK VINA RESULT:     2.427      2.043      2.484
REMARK INTER + INTRA:           4.199
REMARK INTER:                   5.166
REMARK INTRA:                  -0.967
REMARK UNBOUND:                -0.214
REMARK SMILES CCCCCCCCCCCCCCCC(=O)[O-]
REMARK SMILES IDX 9 1 10 2 11 3 12 4 13 5 14 6 15 7 16 8 17 9 18 10 8 11 7 12
REMARK SMILES IDX 6 13 5 14 4 15 3 16 2 17 1 18
REMARK H PARENT
REMARK Flexibility Score: inf
ROOT
ATOM      1  C   UNL     1     -14.851  -3.107 -13.451  1.00  0.00     0.000 C 
ENDROOT
BRANCH   1   2
ATOM      2  C   UNL     1     -14.054  -3.280 -12.148  1.00  0.00     0.000 C 
BRANCH   2   3
ATOM      3  C   UNL     1     -12.555  -3.518 -12.401  1.00  0.00     0.000 C 
BRANCH   3   4
ATOM      4  C   UNL     1     -11.887  -4.318 -11.271  1.00  0.00     0.000 C 
BRANCH   4   5
ATOM      5  C   UNL     1     -12.906  -4.927 -10.292  1.00  0.00     0.000 C 
BRANCH   5   6
ATOM      6  C   UNL     1     -12.951  -4.183  -8.948  1.00  0.00     0.006 C 
BRANCH   6   7
ATOM      7  C   UNL     1     -11.935  -3.037  -8.875  1.00  0.00     0.053 C 
BRANCH   7   8
ATOM      8  C   UNL     1     -12.635  -1.715  -8.931  1.00  0.00     0.041 C 
ATOM      9  O   UNL     1     -13.891  -1.665  -8.990  1.00  0.00    -0.550 OA
ATOM     10  O   UNL     1     -11.897  -0.539  -8.966  1.00  0.00    -0.550 OA
ENDBRANCH   7   8
ENDBRANCH   6   7
ENDBRANCH   5   6
ENDBRANCH   4   5
ENDBRANCH   3   4
ENDBRANCH   2   3
ENDBRANCH   1   2
BRANCH   1  11
ATOM     11  C   UNL     1     -14.213  -2.082 -14.405  1.00  0.00     0.000 C 
BRANCH  11  12
ATOM     12  C   UNL     1     -13.848  -2.693 -15.767  1.00  0.00    -0.000 C 
BRANCH  12  13
ATOM     13  C   UNL     1     -14.501  -4.069 -15.990  1.00  0.00    -0.000 C 
BRANCH  13  14
ATOM     14  C   UNL     1     -14.212  -4.644 -17.386  1.00  0.00    -0.000 C 
BRANCH  14  15
ATOM     15  C   UNL     1     -14.397  -6.171 -17.445  1.00  0.00    -0.000 C 
BRANCH  15  16
ATOM     16  C   UNL     1     -13.459  -6.916 -16.483  1.00  0.00    -0.000 C 
BRANCH  16  17
ATOM     17  C   UNL     1     -13.464  -8.435 -16.708  1.00  0.00    -0.003 C 
ATOM     18  C   UNL     1     -12.195  -8.887 -17.427  1.00  0.00     0.004 C 
ENDBRANCH  16  17
ENDBRANCH  15  16
ENDBRANCH  14  15
ENDBRANCH  13  14
ENDBRANCH  12  13
ENDBRANCH  11  12
ENDBRANCH   1  11
TORSDOF 14
ENDMDL
MODEL 7
REMARK VINA RESULT:     2.653      4.418      7.902
REMARK INTER + INTRA:           4.610
REMARK INTER:                   5.412
REMARK INTRA:                  -0.802
REMARK UNBOUND:                -0.214
REMARK SMILES CCCCCCCCCCCCCCCC(=O)[O-]
REMARK SMILES IDX 9 1 10 2 11 3 12 4 13 5 14 6 15 7 16 8 17 9 18 10 8 11 7 12
REMARK SMILES IDX 6 13 5 14 4 15 3 16 2 17 1 18
REMARK H PARENT
REMARK Flexibility Score: inf
ROOT
ATOM      1  C   UNL     1     -13.759  -2.200 -14.476  1.00  0.00     0.000 C 
ENDROOT
BRANCH   1   2
ATOM      2  C   UNL     1     -13.961  -1.586 -15.870  1.00  0.00     0.000 C 
BRANCH   2   3
ATOM      3  C   UNL     1     -14.089  -2.653 -16.971  1.00  0.00     0.000 C 
BRANCH   3   4
ATOM      4  C   UNL     1     -14.512  -4.024 -16.417  1.00  0.00     0.000 C 
BRANCH   4   5
ATOM      5  C   UNL     1     -14.460  -5.135 -17.480  1.00  0.00     0.000 C 
BRANCH   5   6
ATOM      6  C   UNL     1     -15.122  -4.718 -18.803  1.00  0.00     0.006 C 
BRANCH   6   7
ATOM      7  C   UNL     1     -16.377  -5.542 -19.119  1.00  0.00     0.053 C 
BRANCH   7   8
ATOM      8  C   UNL     1     -16.635  -5.554 -20.593  1.00  0.00     0.041 C 
ATOM      9  O   UNL     1     -16.095  -4.694 -21.338  1.00  0.00    -0.550 OA
ATOM     10  O   UNL     1     -17.510  -6.485 -21.138  1.00  0.00    -0.550 OA
ENDBRANCH   7   8
ENDBRANCH   6   7
ENDBRANCH   5   6
ENDBRANCH   4   5
ENDBRANCH   3   4
ENDBRANCH   2   3
ENDBRANCH   1   2
BRANCH   1  11
ATOM     11  C   UNL     1     -12.277  -2.283 -14.072  1.00  0.00     0.000 C 
BRANCH  11  12
ATOM     12  C   UNL     1     -12.085  -2.838 -12.651  1.00  0.00    -0.000 C 
BRANCH  12  13
ATOM     13  C   UNL     1     -13.145  -3.891 -12.281  1.00  0.00    -0.000 C 
BRANCH  13  14
ATOM     14  C   UNL     1     -14.149  -3.380 -11.236  1.00  0.00    -0.000 C 
BRANCH  14  15
ATOM     15  C   UNL     1     -13.634  -3.538  -9.795  1.00  0.00    -0.000 C 
BRANCH  15  16
ATOM     16  C   UNL     1     -14.642  -4.254  -8.883  1.00  0.00    -0.000 C 
BRANCH  16  17
ATOM     17  C   UNL     1     -14.463  -5.779  -8.882  1.00  0.00    -0.003 C 
ATOM     18  C   UNL     1     -12.986  -6.158  -8.944  1.00  0.00     0.004 C 
ENDBRANCH  16  17
ENDBRANCH  15  16
ENDBRANCH  14  15
ENDBRANCH  13  14
ENDBRANCH  12  13
ENDBRANCH  11  12
ENDBRANCH   1  11
TORSDOF 14
ENDMDL
MODEL 8
REMARK VINA RESULT:     2.839      3.127      4.800
REMARK INTER + INTRA:           4.948
REMARK INTER:                   5.603
REMARK INTRA:                  -0.654
REMARK UNBOUND:                -0.214
REMARK SMILES CCCCCCCCCCCCCCCC(=O)[O-]
REMARK SMILES IDX 9 1 10 2 11 3 12 4 13 5 14 6 15 7 16 8 17 9 18 10 8 11 7 12
REMARK SMILES IDX 6 13 5 14 4 15 3 16 2 17 1 18
REMARK H PARENT
REMARK Flexibility Score: inf
ROOT
ATOM      1  C   UNL     1     -14.376  -5.243 -15.414  1.00  0.00     0.000 C 
ENDROOT
BRANCH   1   2
ATOM      2  C   UNL     1     -14.205  -3.726 -15.590  1.00  0.00     0.000 C 
BRANCH   2   3
ATOM      3  C   UNL     1     -14.152  -2.978 -14.247  1.00  0.00     0.000 C 
BRANCH   3   4
ATOM      4  C   UNL     1     -12.962  -2.008 -14.159  1.00  0.00     0.000 C 
BRANCH   4   5
ATOM      5  C   UNL     1     -12.067  -2.276 -12.936  1.00  0.00     0.000 C 
BRANCH   5   6
ATOM      6  C   UNL     1     -12.155  -3.730 -12.448  1.00  0.00     0.006 C 
BRANCH   6   7
ATOM      7  C   UNL     1     -11.896  -3.862 -10.941  1.00  0.00     0.053 C 
BRANCH   7   8
ATOM      8  C   UNL     1     -13.187  -4.024 -10.203  1.00  0.00     0.041 C 
ATOM      9  O   UNL     1     -13.232  -4.704  -9.144  1.00  0.00    -0.550 OA
ATOM     10  O   UNL     1     -14.353  -3.465 -10.710  1.00  0.00    -0.550 OA
ENDBRANCH   7   8
ENDBRANCH   6   7
ENDBRANCH   5   6
ENDBRANCH   4   5
ENDBRANCH   3   4
ENDBRANCH   2   3
ENDBRANCH   1   2
BRANCH   1  11
ATOM     11  C   UNL     1     -13.256  -6.050 -16.093  1.00  0.00     0.000 C 
BRANCH  11  12
ATOM     12  C   UNL     1     -13.698  -7.477 -16.459  1.00  0.00    -0.000 C 
BRANCH  12  13
ATOM     13  C   UNL     1     -12.513  -8.383 -16.835  1.00  0.00    -0.000 C 
BRANCH  13  14
ATOM     14  C   UNL     1     -12.959  -9.735 -17.413  1.00  0.00    -0.000 C 
BRANCH  14  15
ATOM     15  C   UNL     1     -11.895 -10.365 -18.329  1.00  0.00    -0.000 C 
BRANCH  15  16
ATOM     16  C   UNL     1     -12.034 -11.893 -18.430  1.00  0.00    -0.000 C 
BRANCH  16  17
ATOM     17  C   UNL     1     -11.877 -12.408 -19.869  1.00  0.00    -0.003 C 
ATOM     18  C   UNL     1     -13.066 -13.277 -20.272  1.00  0.00     0.004 C 
ENDBRANCH  16  17
ENDBRANCH  15  16
ENDBRANCH  14  15
ENDBRANCH  13  14
ENDBRANCH  12  13
ENDBRANCH  11  12
ENDBRANCH   1  11
TORSDOF 14
ENDMDL
MODEL 9
REMARK VINA RESULT:     3.165      2.743      3.861
REMARK INTER + INTRA:           5.542
REMARK INTER:                   5.966
REMARK INTRA:                  -0.424
REMARK UNBOUND:                -0.214
REMARK SMILES CCCCCCCCCCCCCCCC(=O)[O-]
REMARK SMILES IDX 9 1 10 2 11 3 12 4 13 5 14 6 15 7 16 8 17 9 18 10 8 11 7 12
REMARK SMILES IDX 6 13 5 14 4 15 3 16 2 17 1 18
REMARK H PARENT
REMARK Flexibility Score: inf
ROOT
ATOM      1  C   UNL     1     -14.232  -2.693 -15.301  1.00  0.00     0.000 C 
ENDROOT
BRANCH   1   2
ATOM      2  C   UNL     1     -13.113  -1.693 -14.971  1.00  0.00     0.000 C 
BRANCH   2   3
ATOM      3  C   UNL     1     -12.259  -2.139 -13.772  1.00  0.00     0.000 C 
BRANCH   3   4
ATOM      4  C   UNL     1     -12.944  -3.231 -12.934  1.00  0.00     0.000 C 
BRANCH   4   5
ATOM      5  C   UNL     1     -12.035  -3.785 -11.823  1.00  0.00     0.000 C 
BRANCH   5   6
ATOM      6  C   UNL     1     -11.899  -2.819 -10.635  1.00  0.00     0.006 C 
BRANCH   6   7
ATOM      7  C   UNL     1     -12.177  -3.499  -9.288  1.00  0.00     0.053 C 
BRANCH   7   8
ATOM      8  C   UNL     1     -13.546  -4.103  -9.282  1.00  0.00     0.041 C 
ATOM      9  O   UNL     1     -13.713  -5.299  -9.640  1.00  0.00    -0.550 OA
ATOM     10  O   UNL     1     -14.645  -3.331  -8.928  1.00  0.00    -0.550 OA
ENDBRANCH   7   8
ENDBRANCH   6   7
ENDBRANCH   5   6
ENDBRANCH   4   5
ENDBRANCH   3   4
ENDBRANCH   2   3
ENDBRANCH   1   2
BRANCH   1  11
ATOM     11  C   UNL     1     -14.143  -3.230 -16.740  1.00  0.00     0.000 C 
BRANCH  11  12
ATOM     12  C   UNL     1     -14.503  -4.721 -16.835  1.00  0.00    -0.000 C 
BRANCH  12  13
ATOM     13  C   UNL     1     -14.623  -5.207 -18.291  1.00  0.00    -0.000 C 
BRANCH  13  14
ATOM     14  C   UNL     1     -15.978  -4.857 -18.924  1.00  0.00    -0.000 C 
BRANCH  14  15
ATOM     15  C   UNL     1     -16.385  -5.844 -20.032  1.00  0.00    -0.000 C 
BRANCH  15  16
ATOM     16  C   UNL     1     -16.801  -5.135 -21.330  1.00  0.00    -0.000 C 
BRANCH  16  17
ATOM     17  C   UNL     1     -17.634  -6.034 -22.257  1.00  0.00    -0.003 C 
ATOM     18  C   UNL     1     -17.159  -5.919 -23.703  1.00  0.00     0.004 C 
ENDBRANCH  16  17
ENDBRANCH  15  16
ENDBRANCH  14  15
ENDBRANCH  13  14
ENDBRANCH  12  13
ENDBRANCH  11  12
ENDBRANCH   1  11
TORSDOF 14
ENDMDL
