MODEL 1
REMARK VINA RESULT:    -1.612      0.000      0.000
REMARK INTER + INTRA:          -3.006
REMARK INTER:                  -2.554
REMARK INTRA:                  -0.452
REMARK UNBOUND:                -0.452
REMARK SMILES CCCCCCCCCCCC(=O)[O-]
REMARK SMILES IDX 7 1 8 2 9 3 10 4 11 5 12 6 13 7 14 8 6 9 5 10 4 11 3 12 2 13
REMARK SMILES IDX 1 14
REMARK H PARENT
REMARK Flexibility Score: inf
ROOT
ATOM      1  C   UNL     1     -27.541   8.266  -1.178  1.00  0.00     0.000 C 
ENDROOT
BRANCH   1   2
ATOM      2  C   UNL     1     -28.811   7.530  -0.735  1.00  0.00     0.000 C 
BRANCH   2   3
ATOM      3  C   UNL     1     -28.905   7.469   0.796  1.00  0.00     0.000 C 
BRANCH   3   4
ATOM      4  C   UNL     1     -30.316   7.106   1.290  1.00  0.00     0.006 C 
BRANCH   4   5
ATOM      5  C   UNL     1     -31.291   6.830   0.138  1.00  0.00     0.053 C 
BRANCH   5   6
ATOM      6  C   UNL     1     -32.354   7.881   0.094  1.00  0.00     0.041 C 
ATOM      7  O   UNL     1     -32.888   8.198  -1.002  1.00  0.00    -0.550 OA
ATOM      8  O   UNL     1     -32.723   8.547   1.256  1.00  0.00    -0.550 OA
ENDBRANCH   5   6
ENDBRANCH   4   5
ENDBRANCH   3   4
ENDBRANCH   2   3
ENDBRANCH   1   2
BRANCH   1   9
ATOM      9  C   UNL     1     -27.182   7.921  -2.629  1.00  0.00     0.000 C 
BRANCH   9  10
ATOM     10  C   UNL     1     -28.403   8.057  -3.545  1.00  0.00    -0.000 C 
BRANCH  10  11
ATOM     11  C   UNL     1     -28.037   8.783  -4.846  1.00  0.00    -0.000 C 
BRANCH  11  12
ATOM     12  C   UNL     1     -26.924   8.036  -5.597  1.00  0.00    -0.000 C 
BRANCH  12  13
ATOM     13  C   UNL     1     -26.356   8.849  -6.770  1.00  0.00    -0.003 C 
ATOM     14  C   UNL     1     -24.891   8.522  -7.062  1.00  0.00     0.004 C 
ENDBRANCH  12  13
ENDBRANCH  11  12
ENDBRANCH  10  11
ENDBRANCH   9  10
ENDBRANCH   1   9
TORSDOF 10
ENDMDL
MODEL 2
REMARK VINA RESULT:    -1.431      3.692      7.378
REMARK INTER + INTRA:          -2.720
REMARK INTER:                  -2.174
REMARK INTRA:                  -0.546
REMARK UNBOUND:                -0.452
REMARK SMILES CCCCCCCCCCCC(=O)[O-]
REMARK SMILES IDX 7 1 8 2 9 3 10 4 11 5 12 6 13 7 14 8 6 9 5 10 4 11 3 12 2 13
REMARK SMILES IDX 1 14
REMARK H PARENT
REMARK Flexibility Score: inf
ROOT
ATOM      1  C   UNL     1     -27.666   8.169  -1.185  1.00  0.00     0.000 C 
ENDROOT
BRANCH   1   2
ATOM      2  C   UNL     1     -27.283   7.905  -2.646  1.00  0.00     0.000 C 
BRANCH   2   3
ATOM      3  C   UNL     1     -28.437   8.266  -3.591  1.00  0.00     0.000 C 
BRANCH   3   4
ATOM      4  C   UNL     1     -27.958   8.585  -5.017  1.00  0.00     0.006 C 
BRANCH   4   5
ATOM      5  C   UNL     1     -26.585   7.976  -5.329  1.00  0.00     0.053 C 
BRANCH   5   6
ATOM      6  C   UNL     1     -26.004   8.605  -6.555  1.00  0.00     0.041 C 
ATOM      7  O   UNL     1     -24.935   8.159  -7.051  1.00  0.00    -0.550 OA
ATOM      8  O   UNL     1     -26.615   9.715  -7.124  1.00  0.00    -0.550 OA
ENDBRANCH   5   6
ENDBRANCH   4   5
ENDBRANCH   3   4
ENDBRANCH   2   3
ENDBRANCH   1   2
BRANCH   1   9
ATOM      9  C   UNL     1     -28.949   7.418  -0.807  1.00  0.00     0.000 C 
BRANCH   9  10
ATOM     10  C   UNL     1     -29.189   7.465   0.706  1.00  0.00    -0.000 C 
BRANCH  10  11
ATOM     11  C   UNL     1     -30.632   7.075   1.047  1.00  0.00    -0.000 C 
BRANCH  11  12
ATOM     12  C   UNL     1     -31.522   7.114  -0.205  1.00  0.00    -0.000 C 
BRANCH  12  13
ATOM     13  C   UNL     1     -32.746   8.026  -0.031  1.00  0.00    -0.003 C 
ATOM     14  C   UNL     1     -32.790   8.702   1.340  1.00  0.00     0.004 C 
ENDBRANCH  12  13
ENDBRANCH  11  12
ENDBRANCH  10  11
ENDBRANCH   9  10
ENDBRANCH   1   9
TORSDOF 10
ENDMDL
