MODEL 1
REMARK VINA RESULT:    -6.313      0.000      0.000
REMARK INTER + INTRA:          -6.313
REMARK INTER:                  -6.313
REMARK INTRA:                   0.000
REMARK UNBOUND:                 0.000
REMARK SMILES C=C1CC[C@@H]2C[C@H]1C2(C)C
REMARK SMILES IDX 9 1 8 2 5 3 4 4 3 5 2 6 1 7 7 8 6 9 10 10
REMARK H PARENT
REMARK Flexibility Score: inf
ROOT
ATOM      1  C   UNL     1      -4.116 -16.137  10.629  1.00  0.00     0.012 C 
ATOM      2  C   UNL     1      -3.041 -15.538   9.682  1.00  0.00    -0.026 C 
ATOM      3  C   UNL     1      -3.508 -14.722   8.449  1.00  0.00    -0.004 C 
ATOM      4  C   UNL     1      -4.808 -15.331   7.834  1.00  0.00     0.008 C 
ATOM      5  C   UNL     1      -4.680 -16.878   7.557  1.00  0.00     0.031 C 
ATOM      6  C   UNL     1      -3.373 -17.464   8.112  1.00  0.00    -0.074 C 
ATOM      7  C   UNL     1      -3.141 -18.781   8.103  1.00  0.00     0.008 C 
ATOM      8  C   UNL     1      -2.350 -16.478   8.667  1.00  0.00     0.021 C 
ATOM      9  C   UNL     1      -2.329 -15.317   7.659  1.00  0.00     0.012 C 
ATOM     10  C   UNL     1      -2.016 -14.754  10.539  1.00  0.00     0.012 C 
ENDROOT
TORSDOF 0
ENDMDL
MODEL 2
REMARK VINA RESULT:    -6.184      1.181      3.200
REMARK INTER + INTRA:          -6.184
REMARK INTER:                  -6.184
REMARK INTRA:                   0.000
REMARK UNBOUND:                 0.000
REMARK SMILES C=C1CC[C@@H]2C[C@H]1C2(C)C
REMARK SMILES IDX 9 1 8 2 5 3 4 4 3 5 2 6 1 7 7 8 6 9 10 10
REMARK H PARENT
REMARK Flexibility Score: inf
ROOT
ATOM      1  C   UNL     1      -4.571 -13.974   7.679  1.00  0.00     0.012 C 
ATOM      2  C   UNL     1      -4.564 -15.461   7.230  1.00  0.00    -0.026 C 
ATOM      3  C   UNL     1      -5.146 -16.531   8.189  1.00  0.00    -0.004 C 
ATOM      4  C   UNL     1      -4.820 -16.186   9.677  1.00  0.00     0.008 C 
ATOM      5  C   UNL     1      -3.288 -15.894   9.910  1.00  0.00     0.031 C 
ATOM      6  C   UNL     1      -2.497 -15.847   8.594  1.00  0.00    -0.074 C 
ATOM      7  C   UNL     1      -1.212 -15.475   8.567  1.00  0.00     0.008 C 
ATOM      8  C   UNL     1      -3.238 -16.251   7.323  1.00  0.00     0.021 C 
ATOM      9  C   UNL     1      -4.048 -17.498   7.713  1.00  0.00     0.012 C 
ATOM     10  C   UNL     1      -5.194 -15.547   5.817  1.00  0.00     0.012 C 
ENDROOT
TORSDOF 0
ENDMDL
MODEL 3
REMARK VINA RESULT:    -6.172      1.147      2.394
REMARK INTER + INTRA:          -6.172
REMARK INTER:                  -6.172
REMARK INTRA:                   0.000
REMARK UNBOUND:                 0.000
REMARK SMILES C=C1CC[C@@H]2C[C@H]1C2(C)C
REMARK SMILES IDX 9 1 8 2 5 3 4 4 3 5 2 6 1 7 7 8 6 9 10 10
REMARK H PARENT
REMARK Flexibility Score: inf
ROOT
ATOM      1  C   UNL     1      -3.344 -14.290   8.664  1.00  0.00     0.012 C 
ATOM      2  C   UNL     1      -2.772 -15.725   8.502  1.00  0.00    -0.026 C 
ATOM      3  C   UNL     1      -3.405 -16.662   7.443  1.00  0.00    -0.004 C 
ATOM      4  C   UNL     1      -4.950 -16.446   7.354  1.00  0.00     0.008 C 
ATOM      5  C   UNL     1      -5.653 -16.517   8.763  1.00  0.00     0.031 C 
ATOM      6  C   UNL     1      -4.643 -16.612   9.916  1.00  0.00    -0.074 C 
ATOM      7  C   UNL     1      -5.034 -16.543  11.193  1.00  0.00     0.008 C 
ATOM      8  C   UNL     1      -3.176 -16.798   9.540  1.00  0.00     0.021 C 
ATOM      9  C   UNL     1      -3.184 -17.839   8.408  1.00  0.00     0.012 C 
ATOM     10  C   UNL     1      -1.235 -15.623   8.339  1.00  0.00     0.012 C 
ENDROOT
TORSDOF 0
ENDMDL
MODEL 4
REMARK VINA RESULT:    -6.145      0.976      3.270
REMARK INTER + INTRA:          -6.145
REMARK INTER:                  -6.145
REMARK INTRA:                   0.000
REMARK UNBOUND:                 0.000
REMARK SMILES C=C1CC[C@@H]2C[C@H]1C2(C)C
REMARK SMILES IDX 9 1 8 2 5 3 4 4 3 5 2 6 1 7 7 8 6 9 10 10
REMARK H PARENT
REMARK Flexibility Score: inf
ROOT
ATOM      1  C   UNL     1      -2.917 -17.725   8.626  1.00  0.00     0.012 C 
ATOM      2  C   UNL     1      -3.520 -16.344   8.247  1.00  0.00    -0.026 C 
ATOM      3  C   UNL     1      -2.634 -15.331   7.480  1.00  0.00    -0.004 C 
ATOM      4  C   UNL     1      -1.151 -15.403   7.965  1.00  0.00     0.008 C 
ATOM      5  C   UNL     1      -1.020 -15.299   9.532  1.00  0.00     0.031 C 
ATOM      6  C   UNL     1      -2.387 -15.321  10.235  1.00  0.00    -0.074 C 
ATOM      7  C   UNL     1      -2.484 -15.383  11.567  1.00  0.00     0.008 C 
ATOM      8  C   UNL     1      -3.625 -15.262   9.346  1.00  0.00     0.021 C 
ATOM      9  C   UNL     1      -3.302 -14.200   8.282  1.00  0.00     0.012 C 
ATOM     10  C   UNL     1      -4.876 -16.583   7.534  1.00  0.00     0.012 C 
ENDROOT
TORSDOF 0
ENDMDL
MODEL 5
REMARK VINA RESULT:    -6.125      1.017      2.725
REMARK INTER + INTRA:          -6.125
REMARK INTER:                  -6.125
REMARK INTRA:                   0.000
REMARK UNBOUND:                 0.000
REMARK SMILES C=C1CC[C@@H]2C[C@H]1C2(C)C
REMARK SMILES IDX 9 1 8 2 5 3 4 4 3 5 2 6 1 7 7 8 6 9 10 10
REMARK H PARENT
REMARK Flexibility Score: inf
ROOT
ATOM      1  C   UNL     1      -1.681 -15.980   8.699  1.00  0.00     0.012 C 
ATOM      2  C   UNL     1      -2.772 -16.128   9.795  1.00  0.00    -0.026 C 
ATOM      3  C   UNL     1      -3.369 -17.533  10.064  1.00  0.00    -0.004 C 
ATOM      4  C   UNL     1      -3.509 -18.346   8.738  1.00  0.00     0.008 C 
ATOM      5  C   UNL     1      -4.266 -17.543   7.612  1.00  0.00     0.031 C 
ATOM      6  C   UNL     1      -4.540 -16.087   8.017  1.00  0.00    -0.074 C 
ATOM      7  C   UNL     1      -5.046 -15.205   7.148  1.00  0.00     0.008 C 
ATOM      8  C   UNL     1      -4.217 -15.694   9.456  1.00  0.00     0.021 C 
ATOM      9  C   UNL     1      -4.732 -16.863  10.312  1.00  0.00     0.012 C 
ATOM     10  C   UNL     1      -2.254 -15.461  11.093  1.00  0.00     0.012 C 
ENDROOT
TORSDOF 0
ENDMDL
MODEL 6
REMARK VINA RESULT:    -6.108      0.998      2.830
REMARK INTER + INTRA:          -6.108
REMARK INTER:                  -6.108
REMARK INTRA:                   0.000
REMARK UNBOUND:                 0.000
REMARK SMILES C=C1CC[C@@H]2C[C@H]1C2(C)C
REMARK SMILES IDX 9 1 8 2 5 3 4 4 3 5 2 6 1 7 7 8 6 9 10 10
REMARK H PARENT
REMARK Flexibility Score: inf
ROOT
ATOM      1  C   UNL     1      -2.559 -15.254   7.280  1.00  0.00     0.012 C 
ATOM      2  C   UNL     1      -4.045 -15.568   7.605  1.00  0.00    -0.026 C 
ATOM      3  C   UNL     1      -4.529 -15.443   9.071  1.00  0.00    -0.004 C 
ATOM      4  C   UNL     1      -3.420 -15.906  10.069  1.00  0.00     0.008 C 
ATOM      5  C   UNL     1      -2.840 -17.328   9.714  1.00  0.00     0.031 C 
ATOM      6  C   UNL     1      -3.375 -17.858   8.375  1.00  0.00    -0.074 C 
ATOM      7  C   UNL     1      -2.898 -18.983   7.830  1.00  0.00     0.008 C 
ATOM      8  C   UNL     1      -4.479 -17.050   7.699  1.00  0.00     0.021 C 
ATOM      9  C   UNL     1      -5.439 -16.660   8.834  1.00  0.00     0.012 C 
ATOM     10  C   UNL     1      -4.939 -14.762   6.629  1.00  0.00     0.012 C 
ENDROOT
TORSDOF 0
ENDMDL
MODEL 7
REMARK VINA RESULT:    -6.086      1.122      2.349
REMARK INTER + INTRA:          -6.086
REMARK INTER:                  -6.086
REMARK INTRA:                   0.000
REMARK UNBOUND:                 0.000
REMARK SMILES C=C1CC[C@@H]2C[C@H]1C2(C)C
REMARK SMILES IDX 9 1 8 2 5 3 4 4 3 5 2 6 1 7 7 8 6 9 10 10
REMARK H PARENT
REMARK Flexibility Score: inf
ROOT
ATOM      1  C   UNL     1      -2.072 -17.358   8.366  1.00  0.00     0.012 C 
ATOM      2  C   UNL     1      -2.062 -15.818   8.569  1.00  0.00    -0.026 C 
ATOM      3  C   UNL     1      -2.914 -15.213   9.713  1.00  0.00    -0.004 C 
ATOM      4  C   UNL     1      -4.258 -15.991   9.883  1.00  0.00     0.008 C 
ATOM      5  C   UNL     1      -5.042 -16.149   8.524  1.00  0.00     0.031 C 
ATOM      6  C   UNL     1      -4.228 -15.654   7.319  1.00  0.00    -0.074 C 
ATOM      7  C   UNL     1      -4.661 -15.830   6.066  1.00  0.00     0.008 C 
ATOM      8  C   UNL     1      -2.910 -14.945   7.616  1.00  0.00     0.021 C 
ATOM      9  C   UNL     1      -3.217 -14.012   8.799  1.00  0.00     0.012 C 
ATOM     10  C   UNL     1      -0.588 -15.344   8.634  1.00  0.00     0.012 C 
ENDROOT
TORSDOF 0
ENDMDL
MODEL 8
REMARK VINA RESULT:    -6.062      1.071      2.973
REMARK INTER + INTRA:          -6.062
REMARK INTER:                  -6.062
REMARK INTRA:                   0.000
REMARK UNBOUND:                 0.000
REMARK SMILES C=C1CC[C@@H]2C[C@H]1C2(C)C
REMARK SMILES IDX 9 1 8 2 5 3 4 4 3 5 2 6 1 7 7 8 6 9 10 10
REMARK H PARENT
REMARK Flexibility Score: inf
ROOT
ATOM      1  C   UNL     1      -5.555 -16.208   8.421  1.00  0.00     0.012 C 
ATOM      2  C   UNL     1      -4.066 -15.958   8.055  1.00  0.00    -0.026 C 
ATOM      3  C   UNL     1      -3.143 -17.180   7.819  1.00  0.00    -0.004 C 
ATOM      4  C   UNL     1      -3.499 -18.348   8.792  1.00  0.00     0.008 C 
ATOM      5  C   UNL     1      -3.562 -17.885  10.298  1.00  0.00     0.031 C 
ATOM      6  C   UNL     1      -3.428 -16.362  10.445  1.00  0.00    -0.074 C 
ATOM      7  C   UNL     1      -3.595 -15.759  11.627  1.00  0.00     0.008 C 
ATOM      8  C   UNL     1      -3.087 -15.569   9.187  1.00  0.00     0.021 C 
ATOM      9  C   UNL     1      -1.998 -16.393   8.480  1.00  0.00     0.012 C 
ATOM     10  C   UNL     1      -4.015 -14.957   6.873  1.00  0.00     0.012 C 
ENDROOT
TORSDOF 0
ENDMDL
MODEL 9
REMARK VINA RESULT:    -6.009      0.990      2.905
REMARK INTER + INTRA:          -6.009
REMARK INTER:                  -6.009
REMARK INTRA:                   0.000
REMARK UNBOUND:                 0.000
REMARK SMILES C=C1CC[C@@H]2C[C@H]1C2(C)C
REMARK SMILES IDX 9 1 8 2 5 3 4 4 3 5 2 6 1 7 7 8 6 9 10 10
REMARK H PARENT
REMARK Flexibility Score: inf
ROOT
ATOM      1  C   UNL     1      -3.331 -15.378  10.577  1.00  0.00     0.012 C 
ATOM      2  C   UNL     1      -3.615 -16.644   9.724  1.00  0.00    -0.026 C 
ATOM      3  C   UNL     1      -2.463 -17.249   8.883  1.00  0.00    -0.004 C 
ATOM      4  C   UNL     1      -1.549 -16.127   8.295  1.00  0.00     0.008 C 
ATOM      5  C   UNL     1      -2.369 -15.014   7.536  1.00  0.00     0.031 C 
ATOM      6  C   UNL     1      -3.886 -15.197   7.695  1.00  0.00    -0.074 C 
ATOM      7  C   UNL     1      -4.750 -14.280   7.244  1.00  0.00     0.008 C 
ATOM      8  C   UNL     1      -4.364 -16.473   8.382  1.00  0.00     0.021 C 
ATOM      9  C   UNL     1      -3.491 -17.593   7.792  1.00  0.00     0.012 C 
ATOM     10  C   UNL     1      -4.287 -17.705  10.633  1.00  0.00     0.012 C 
ENDROOT
TORSDOF 0
ENDMDL
