MODEL 1
REMARK VINA RESULT:    -5.310      0.000      0.000
REMARK INTER + INTRA:          -6.936
REMARK INTER:                  -6.552
REMARK INTRA:                  -0.384
REMARK UNBOUND:                -0.384
REMARK SMILES Oc1cc(O)c2cc(O)c(-c3cc(O)c(O)c(O)c3)[o+]c2c1
REMARK SMILES IDX 10 1 20 2 21 3 22 4 2 5 3 6 4 7 6 8 7 9 8 10 11 11 12 12
REMARK SMILES IDX 13 13 19 14 15 15 17 16 14 17 16 19 18 21 9 23 1 25 5 27
REMARK H PARENT 14 18 16 20 18 22 9 24 1 26 5 28
REMARK Flexibility Score: inf
ROOT
ATOM      1  C   UNL     1      23.936 -13.170  54.555  1.00  0.00     0.402 A 
ATOM      2  O   UNL     1      24.759 -12.957  55.579  1.00  0.00    -0.202 OA
ATOM      3  C   UNL     1      24.467 -12.148  56.594  1.00  0.00     0.368 A 
ATOM      4  C   UNL     1      25.398 -11.987  57.623  1.00  0.00     0.162 A 
ATOM      5  C   UNL     1      25.118 -11.140  58.700  1.00  0.00     0.128 A 
ATOM      6  C   UNL     1      23.903 -10.453  58.747  1.00  0.00     0.093 A 
ATOM      7  C   UNL     1      22.954 -10.599  57.728  1.00  0.00     0.136 A 
ATOM      8  C   UNL     1      23.231 -11.458  56.634  1.00  0.00     0.125 A 
ATOM      9  C   UNL     1      22.334 -11.676  55.575  1.00  0.00     0.078 A 
ATOM     10  C   UNL     1      22.677 -12.543  54.533  1.00  0.00     0.223 A 
ENDROOT
BRANCH   1  11
ATOM     11  C   UNL     1      24.380 -14.086  53.480  1.00  0.00     0.091 A 
ATOM     12  C   UNL     1      25.038 -13.605  52.335  1.00  0.00     0.068 A 
ATOM     13  C   UNL     1      25.470 -14.491  51.339  1.00  0.00     0.162 A 
ATOM     14  C   UNL     1      24.194 -15.469  53.630  1.00  0.00     0.068 A 
ATOM     15  C   UNL     1      25.260 -15.867  51.485  1.00  0.00     0.200 A 
ATOM     16  C   UNL     1      24.624 -16.359  52.636  1.00  0.00     0.162 A 
BRANCH  13  17
ATOM     17  O   UNL     1      26.116 -14.009  50.201  1.00  0.00    -0.504 OA
ATOM     18  H   UNL     1      25.667 -13.352  49.573  1.00  0.00     0.293 HD
ENDBRANCH  13  17
BRANCH  15  19
ATOM     19  O   UNL     1      25.694 -16.734  50.480  1.00  0.00    -0.502 OA
ATOM     20  H   UNL     1      25.683 -17.741  50.595  1.00  0.00     0.293 HD
ENDBRANCH  15  19
BRANCH  16  21
ATOM     21  O   UNL     1      24.419 -17.730  52.790  1.00  0.00    -0.504 OA
ATOM     22  H   UNL     1      23.888 -18.267  52.114  1.00  0.00     0.293 HD
ENDBRANCH  16  21
ENDBRANCH   1  11
BRANCH  10  23
ATOM     23  O   UNL     1      21.767 -12.797  53.507  1.00  0.00    -0.500 OA
ATOM     24  H   UNL     1      21.086 -12.106  53.215  1.00  0.00     0.294 HD
ENDBRANCH  10  23
BRANCH   5  25
ATOM     25  O   UNL     1      26.041 -10.973  59.730  1.00  0.00    -0.507 OA
ATOM     26  H   UNL     1      26.847 -10.365  59.626  1.00  0.00     0.293 HD
ENDBRANCH   5  25
BRANCH   7  27
ATOM     27  O   UNL     1      21.763  -9.875  57.849  1.00  0.00    -0.507 OA
ATOM     28  H   UNL     1      21.132  -9.684  57.085  1.00  0.00     0.293 HD
ENDBRANCH   7  27
TORSDOF 7
ENDMDL
MODEL 2
REMARK VINA RESULT:    -2.525      1.132      7.218
REMARK INTER + INTRA:          -3.499
REMARK INTER:                  -3.140
REMARK INTRA:                  -0.359
REMARK UNBOUND:                -0.384
REMARK SMILES Oc1cc(O)c2cc(O)c(-c3cc(O)c(O)c(O)c3)[o+]c2c1
REMARK SMILES IDX 10 1 20 2 21 3 22 4 2 5 3 6 4 7 6 8 7 9 8 10 11 11 12 12
REMARK SMILES IDX 13 13 19 14 15 15 17 16 14 17 16 19 18 21 9 23 1 25 5 27
REMARK H PARENT 14 18 16 20 18 22 9 24 1 26 5 28
REMARK Flexibility Score: inf
ROOT
ATOM      1  C   UNL     1      24.770 -12.463  55.144  1.00  0.00     0.402 A 
ATOM      2  O   UNL     1      24.313 -13.702  54.982  1.00  0.00    -0.202 OA
ATOM      3  C   UNL     1      24.510 -14.414  53.877  1.00  0.00     0.368 A 
ATOM      4  C   UNL     1      23.987 -15.707  53.799  1.00  0.00     0.162 A 
ATOM      5  C   UNL     1      24.176 -16.476  52.647  1.00  0.00     0.128 A 
ATOM      6  C   UNL     1      24.891 -15.950  51.569  1.00  0.00     0.093 A 
ATOM      7  C   UNL     1      25.425 -14.656  51.622  1.00  0.00     0.136 A 
ATOM      8  C   UNL     1      25.238 -13.872  52.790  1.00  0.00     0.125 A 
ATOM      9  C   UNL     1      25.748 -12.572  52.938  1.00  0.00     0.078 A 
ATOM     10  C   UNL     1      25.526 -11.862  54.122  1.00  0.00     0.223 A 
ENDROOT
BRANCH   1  11
ATOM     11  C   UNL     1      24.476 -11.770  56.420  1.00  0.00     0.091 A 
ATOM     12  C   UNL     1      23.240 -11.139  56.641  1.00  0.00     0.068 A 
ATOM     13  C   UNL     1      22.973 -10.508  57.863  1.00  0.00     0.162 A 
ATOM     14  C   UNL     1      25.427 -11.790  57.452  1.00  0.00     0.068 A 
ATOM     15  C   UNL     1      23.936 -10.513  58.880  1.00  0.00     0.200 A 
ATOM     16  C   UNL     1      25.165 -11.159  58.676  1.00  0.00     0.162 A 
BRANCH  13  17
ATOM     17  O   UNL     1      21.748  -9.877  58.076  1.00  0.00    -0.504 OA
ATOM     18  H   UNL     1      20.933 -10.392  58.389  1.00  0.00     0.293 HD
ENDBRANCH  13  17
BRANCH  15  19
ATOM     19  O   UNL     1      23.653  -9.875  60.089  1.00  0.00    -0.502 OA
ATOM     20  H   UNL     1      23.833  -8.889  60.233  1.00  0.00     0.293 HD
ENDBRANCH  15  19
BRANCH  16  21
ATOM     21  O   UNL     1      26.124 -11.173  59.689  1.00  0.00    -0.504 OA
ATOM     22  H   UNL     1      27.016 -11.639  59.569  1.00  0.00     0.293 HD
ENDBRANCH  16  21
ENDBRANCH   1  11
BRANCH  10  23
ATOM     23  O   UNL     1      26.075 -10.590  54.288  1.00  0.00    -0.500 OA
ATOM     24  H   UNL     1      25.873  -9.834  53.644  1.00  0.00     0.294 HD
ENDBRANCH  10  23
BRANCH   5  25
ATOM     25  O   UNL     1      23.658 -17.767  52.562  1.00  0.00    -0.507 OA
ATOM     26  H   UNL     1      24.092 -18.475  51.980  1.00  0.00     0.293 HD
ENDBRANCH   5  25
BRANCH   7  27
ATOM     27  O   UNL     1      26.125 -14.202  50.500  1.00  0.00    -0.507 OA
ATOM     28  H   UNL     1      27.103 -14.379  50.328  1.00  0.00     0.293 HD
ENDBRANCH   7  27
TORSDOF 7
ENDMDL
