MODEL 1
REMARK VINA RESULT:    -3.530      0.000      0.000
REMARK INTER + INTRA:         -11.505
REMARK INTER:                  -8.071
REMARK INTRA:                  -3.434
REMARK UNBOUND:                -3.434
REMARK SMILES CCCCCCCCCCCCCCCCCCCCCCCC(=O)[O-]
REMARK SMILES IDX 13 1 14 2 15 3 16 4 17 5 18 6 19 7 20 8 21 9 22 10 23 11
REMARK SMILES IDX 24 12 25 13 26 14 12 15 11 16 10 17 9 18 8 19 7 20 6 21 5 22
REMARK SMILES IDX 4 23 3 24 2 25 1 26
REMARK H PARENT
REMARK Flexibility Score: inf
ROOT
ATOM      1  C   UNL     1      64.269  36.279  61.361  1.00  0.00     0.000 C 
ENDROOT
BRANCH   1   2
ATOM      2  C   UNL     1      65.212  35.146  60.903  1.00  0.00     0.000 C 
BRANCH   2   3
ATOM      3  C   UNL     1      65.222  34.964  59.378  1.00  0.00     0.000 C 
BRANCH   3   4
ATOM      4  C   UNL     1      64.915  33.511  58.994  1.00  0.00     0.000 C 
BRANCH   4   5
ATOM      5  C   UNL     1      64.605  32.667  60.240  1.00  0.00     0.000 C 
BRANCH   5   6
ATOM      6  C   UNL     1      64.819  31.161  60.008  1.00  0.00     0.000 C 
BRANCH   6   7
ATOM      7  C   UNL     1      65.767  30.811  58.844  1.00  0.00     0.000 C 
BRANCH   7   8
ATOM      8  C   UNL     1      66.550  29.494  59.010  1.00  0.00     0.000 C 
BRANCH   8   9
ATOM      9  C   UNL     1      66.461  28.860  60.410  1.00  0.00     0.000 C 
BRANCH   9  10
ATOM     10  C   UNL     1      67.638  27.917  60.713  1.00  0.00     0.006 C 
BRANCH  10  11
ATOM     11  C   UNL     1      68.761  28.622  61.484  1.00  0.00     0.053 C 
BRANCH  11  12
ATOM     12  C   UNL     1      70.041  28.644  60.703  1.00  0.00     0.041 C 
ATOM     13  O   UNL     1      70.143  27.986  59.635  1.00  0.00    -0.550 OA
ATOM     14  O   UNL     1      71.131  29.366  61.174  1.00  0.00    -0.550 OA
ENDBRANCH  11  12
ENDBRANCH  10  11
ENDBRANCH   9  10
ENDBRANCH   8   9
ENDBRANCH   7   8
ENDBRANCH   6   7
ENDBRANCH   5   6
ENDBRANCH   4   5
ENDBRANCH   3   4
ENDBRANCH   2   3
ENDBRANCH   1   2
BRANCH   1  15
ATOM     15  C   UNL     1      63.228  36.690  60.303  1.00  0.00     0.000 C 
BRANCH  15  16
ATOM     16  C   UNL     1      61.844  36.033  60.461  1.00  0.00     0.000 C 
BRANCH  16  17
ATOM     17  C   UNL     1      61.475  35.009  59.368  1.00  0.00     0.000 C 
BRANCH  17  18
ATOM     18  C   UNL     1      61.236  33.575  59.874  1.00  0.00    -0.000 C 
BRANCH  18  19
ATOM     19  C   UNL     1      61.352  32.521  58.759  1.00  0.00    -0.000 C 
BRANCH  19  20
ATOM     20  C   UNL     1      61.019  31.104  59.253  1.00  0.00    -0.000 C 
BRANCH  20  21
ATOM     21  C   UNL     1      60.892  31.029  60.785  1.00  0.00    -0.000 C 
BRANCH  21  22
ATOM     22  C   UNL     1      61.997  30.177  61.429  1.00  0.00    -0.000 C 
BRANCH  22  23
ATOM     23  C   UNL     1      61.814  28.675  61.163  1.00  0.00    -0.000 C 
BRANCH  23  24
ATOM     24  C   UNL     1      63.119  28.044  60.652  1.00  0.00    -0.000 C 
BRANCH  24  25
ATOM     25  C   UNL     1      63.103  27.803  59.134  1.00  0.00    -0.003 C 
ATOM     26  C   UNL     1      61.691  27.606  58.583  1.00  0.00     0.004 C 
ENDBRANCH  24  25
ENDBRANCH  23  24
ENDBRANCH  22  23
ENDBRANCH  21  22
ENDBRANCH  20  21
ENDBRANCH  19  20
ENDBRANCH  18  19
ENDBRANCH  17  18
ENDBRANCH  16  17
ENDBRANCH  15  16
ENDBRANCH   1  15
TORSDOF 22
ENDMDL
MODEL 2
REMARK VINA RESULT:    -3.440      2.078      3.923
REMARK INTER + INTRA:         -11.298
REMARK INTER:                  -8.354
REMARK INTRA:                  -2.944
REMARK UNBOUND:                -3.434
REMARK SMILES CCCCCCCCCCCCCCCCCCCCCCCC(=O)[O-]
REMARK SMILES IDX 13 1 14 2 15 3 16 4 17 5 18 6 19 7 20 8 21 9 22 10 23 11
REMARK SMILES IDX 24 12 25 13 26 14 12 15 11 16 10 17 9 18 8 19 7 20 6 21 5 22
REMARK SMILES IDX 4 23 3 24 2 25 1 26
REMARK H PARENT
REMARK Flexibility Score: inf
ROOT
ATOM      1  C   UNL     1      64.957  32.225  58.764  1.00  0.00     0.000 C 
ENDROOT
BRANCH   1   2
ATOM      2  C   UNL     1      64.908  31.220  59.934  1.00  0.00     0.000 C 
BRANCH   2   3
ATOM      3  C   UNL     1      65.190  29.777  59.488  1.00  0.00     0.000 C 
BRANCH   3   4
ATOM      4  C   UNL     1      65.914  28.992  60.589  1.00  0.00     0.000 C 
BRANCH   4   5
ATOM      5  C   UNL     1      67.304  28.537  60.117  1.00  0.00     0.000 C 
BRANCH   5   6
ATOM      6  C   UNL     1      68.288  28.325  61.281  1.00  0.00     0.000 C 
BRANCH   6   7
ATOM      7  C   UNL     1      69.613  27.638  60.895  1.00  0.00     0.000 C 
BRANCH   7   8
ATOM      8  C   UNL     1      70.335  28.247  59.676  1.00  0.00     0.000 C 
BRANCH   8   9
ATOM      9  C   UNL     1      71.480  29.216  60.020  1.00  0.00     0.000 C 
BRANCH   9  10
ATOM     10  C   UNL     1      71.276  30.617  59.419  1.00  0.00     0.006 C 
BRANCH  10  11
ATOM     11  C   UNL     1      71.748  31.728  60.366  1.00  0.00     0.053 C 
BRANCH  11  12
ATOM     12  C   UNL     1      71.632  33.082  59.735  1.00  0.00     0.041 C 
ATOM     13  O   UNL     1      71.591  34.115  60.453  1.00  0.00    -0.550 OA
ATOM     14  O   UNL     1      71.534  33.200  58.353  1.00  0.00    -0.550 OA
ENDBRANCH  11  12
ENDBRANCH  10  11
ENDBRANCH   9  10
ENDBRANCH   8   9
ENDBRANCH   7   8
ENDBRANCH   6   7
ENDBRANCH   5   6
ENDBRANCH   4   5
ENDBRANCH   3   4
ENDBRANCH   2   3
ENDBRANCH   1   2
BRANCH   1  15
ATOM     15  C   UNL     1      64.931  33.700  59.207  1.00  0.00     0.000 C 
BRANCH  15  16
ATOM     16  C   UNL     1      64.358  33.947  60.615  1.00  0.00     0.000 C 
BRANCH  16  17
ATOM     17  C   UNL     1      63.247  35.016  60.693  1.00  0.00     0.000 C 
BRANCH  17  18
ATOM     18  C   UNL     1      62.333  35.096  59.458  1.00  0.00    -0.000 C 
BRANCH  18  19
ATOM     19  C   UNL     1      61.135  34.134  59.538  1.00  0.00    -0.000 C 
BRANCH  19  20
ATOM     20  C   UNL     1      61.258  32.958  58.555  1.00  0.00    -0.000 C 
BRANCH  20  21
ATOM     21  C   UNL     1      61.307  31.596  59.270  1.00  0.00    -0.000 C 
BRANCH  21  22
ATOM     22  C   UNL     1      61.314  31.732  60.800  1.00  0.00    -0.000 C 
BRANCH  22  23
ATOM     23  C   UNL     1      61.565  30.394  61.511  1.00  0.00    -0.000 C 
BRANCH  23  24
ATOM     24  C   UNL     1      61.552  29.228  60.510  1.00  0.00    -0.000 C 
BRANCH  24  25
ATOM     25  C   UNL     1      62.344  28.011  61.011  1.00  0.00    -0.003 C 
ATOM     26  C   UNL     1      61.487  26.749  61.112  1.00  0.00     0.004 C 
ENDBRANCH  24  25
ENDBRANCH  23  24
ENDBRANCH  22  23
ENDBRANCH  21  22
ENDBRANCH  20  21
ENDBRANCH  19  20
ENDBRANCH  18  19
ENDBRANCH  17  18
ENDBRANCH  16  17
ENDBRANCH  15  16
ENDBRANCH   1  15
TORSDOF 22
ENDMDL
MODEL 3
REMARK VINA RESULT:    -3.397      3.196      6.365
REMARK INTER + INTRA:         -11.201
REMARK INTER:                  -8.788
REMARK INTRA:                  -2.413
REMARK UNBOUND:                -3.434
REMARK SMILES CCCCCCCCCCCCCCCCCCCCCCCC(=O)[O-]
REMARK SMILES IDX 13 1 14 2 15 3 16 4 17 5 18 6 19 7 20 8 21 9 22 10 23 11
REMARK SMILES IDX 24 12 25 13 26 14 12 15 11 16 10 17 9 18 8 19 7 20 6 21 5 22
REMARK SMILES IDX 4 23 3 24 2 25 1 26
REMARK H PARENT
REMARK Flexibility Score: inf
ROOT
ATOM      1  C   UNL     1      65.914  28.468  59.219  1.00  0.00     0.000 C 
ENDROOT
BRANCH   1   2
ATOM      2  C   UNL     1      66.503  28.231  60.626  1.00  0.00     0.000 C 
BRANCH   2   3
ATOM      3  C   UNL     1      68.024  28.443  60.675  1.00  0.00     0.000 C 
BRANCH   3   4
ATOM      4  C   UNL     1      68.584  28.741  59.279  1.00  0.00     0.000 C 
BRANCH   4   5
ATOM      5  C   UNL     1      70.023  29.272  59.364  1.00  0.00     0.000 C 
BRANCH   5   6
ATOM      6  C   UNL     1      70.591  29.226  60.794  1.00  0.00     0.000 C 
BRANCH   6   7
ATOM      7  C   UNL     1      71.588  30.351  61.134  1.00  0.00     0.000 C 
BRANCH   7   8
ATOM      8  C   UNL     1      72.279  31.003  59.919  1.00  0.00     0.000 C 
BRANCH   8   9
ATOM      9  C   UNL     1      71.941  32.488  59.702  1.00  0.00     0.000 C 
BRANCH   9  10
ATOM     10  C   UNL     1      71.045  32.722  58.474  1.00  0.00     0.006 C 
BRANCH  10  11
ATOM     11  C   UNL     1      71.621  33.786  57.531  1.00  0.00     0.053 C 
BRANCH  11  12
ATOM     12  C   UNL     1      70.816  35.051  57.563  1.00  0.00     0.041 C 
ATOM     13  O   UNL     1      69.680  35.065  58.105  1.00  0.00    -0.550 OA
ATOM     14  O   UNL     1      71.309  36.204  56.965  1.00  0.00    -0.550 OA
ENDBRANCH  11  12
ENDBRANCH  10  11
ENDBRANCH   9  10
ENDBRANCH   8   9
ENDBRANCH   7   8
ENDBRANCH   6   7
ENDBRANCH   5   6
ENDBRANCH   4   5
ENDBRANCH   3   4
ENDBRANCH   2   3
ENDBRANCH   1   2
BRANCH   1  15
ATOM     15  C   UNL     1      64.635  29.326  59.215  1.00  0.00     0.000 C 
BRANCH  15  16
ATOM     16  C   UNL     1      64.592  30.435  60.283  1.00  0.00     0.000 C 
BRANCH  16  17
ATOM     17  C   UNL     1      63.486  30.279  61.347  1.00  0.00     0.000 C 
BRANCH  17  18
ATOM     18  C   UNL     1      62.417  29.220  61.024  1.00  0.00    -0.000 C 
BRANCH  18  19
ATOM     19  C   UNL     1      61.018  29.826  60.820  1.00  0.00    -0.000 C 
BRANCH  19  20
ATOM     20  C   UNL     1      61.055  31.357  60.689  1.00  0.00    -0.000 C 
BRANCH  20  21
ATOM     21  C   UNL     1      61.048  31.823  59.221  1.00  0.00    -0.000 C 
BRANCH  21  22
ATOM     22  C   UNL     1      62.037  32.971  58.962  1.00  0.00    -0.000 C 
BRANCH  22  23
ATOM     23  C   UNL     1      62.539  33.621  60.260  1.00  0.00    -0.000 C 
BRANCH  23  24
ATOM     24  C   UNL     1      63.748  34.529  59.988  1.00  0.00    -0.000 C 
BRANCH  24  25
ATOM     25  C   UNL     1      64.704  34.614  61.189  1.00  0.00    -0.003 C 
ATOM     26  C   UNL     1      65.681  35.784  61.083  1.00  0.00     0.004 C 
ENDBRANCH  24  25
ENDBRANCH  23  24
ENDBRANCH  22  23
ENDBRANCH  21  22
ENDBRANCH  20  21
ENDBRANCH  19  20
ENDBRANCH  18  19
ENDBRANCH  17  18
ENDBRANCH  16  17
ENDBRANCH  15  16
ENDBRANCH   1  15
TORSDOF 22
ENDMDL
MODEL 4
REMARK VINA RESULT:    -3.378      2.923      4.462
REMARK INTER + INTRA:         -11.158
REMARK INTER:                  -9.153
REMARK INTRA:                  -2.005
REMARK UNBOUND:                -3.434
REMARK SMILES CCCCCCCCCCCCCCCCCCCCCCCC(=O)[O-]
REMARK SMILES IDX 13 1 14 2 15 3 16 4 17 5 18 6 19 7 20 8 21 9 22 10 23 11
REMARK SMILES IDX 24 12 25 13 26 14 12 15 11 16 10 17 9 18 8 19 7 20 6 21 5 22
REMARK SMILES IDX 4 23 3 24 2 25 1 26
REMARK H PARENT
REMARK Flexibility Score: inf
ROOT
ATOM      1  C   UNL     1      63.273  35.747  60.684  1.00  0.00     0.000 C 
ENDROOT
BRANCH   1   2
ATOM      2  C   UNL     1      64.559  34.973  61.045  1.00  0.00     0.000 C 
BRANCH   2   3
ATOM      3  C   UNL     1      65.831  35.666  60.533  1.00  0.00     0.000 C 
BRANCH   3   4
ATOM      4  C   UNL     1      65.656  36.141  59.086  1.00  0.00     0.000 C 
BRANCH   4   5
ATOM      5  C   UNL     1      66.132  35.068  58.094  1.00  0.00     0.000 C 
BRANCH   5   6
ATOM      6  C   UNL     1      67.339  35.526  57.255  1.00  0.00     0.000 C 
BRANCH   6   7
ATOM      7  C   UNL     1      68.644  35.727  58.050  1.00  0.00     0.000 C 
BRANCH   7   8
ATOM      8  C   UNL     1      69.875  36.107  57.203  1.00  0.00     0.000 C 
BRANCH   8   9
ATOM      9  C   UNL     1      70.877  34.962  56.969  1.00  0.00     0.000 C 
BRANCH   9  10
ATOM     10  C   UNL     1      70.443  33.645  57.634  1.00  0.00     0.006 C 
BRANCH  10  11
ATOM     11  C   UNL     1      71.622  32.904  58.279  1.00  0.00     0.053 C 
BRANCH  11  12
ATOM     12  C   UNL     1      71.605  33.028  59.772  1.00  0.00     0.041 C 
ATOM     13  O   UNL     1      71.928  32.047  60.493  1.00  0.00    -0.550 OA
ATOM     14  O   UNL     1      71.200  34.216  60.368  1.00  0.00    -0.550 OA
ENDBRANCH  11  12
ENDBRANCH  10  11
ENDBRANCH   9  10
ENDBRANCH   8   9
ENDBRANCH   7   8
ENDBRANCH   6   7
ENDBRANCH   5   6
ENDBRANCH   4   5
ENDBRANCH   3   4
ENDBRANCH   2   3
ENDBRANCH   1   2
BRANCH   1  15
ATOM     15  C   UNL     1      62.145  34.858  60.129  1.00  0.00     0.000 C 
BRANCH  15  16
ATOM     16  C   UNL     1      62.601  33.494  59.580  1.00  0.00     0.000 C 
BRANCH  16  17
ATOM     17  C   UNL     1      62.200  32.274  60.436  1.00  0.00     0.000 C 
BRANCH  17  18
ATOM     18  C   UNL     1      60.986  31.485  59.915  1.00  0.00    -0.000 C 
BRANCH  18  19
ATOM     19  C   UNL     1      60.843  30.103  60.576  1.00  0.00    -0.000 C 
BRANCH  19  20
ATOM     20  C   UNL     1      62.097  29.698  61.368  1.00  0.00    -0.000 C 
BRANCH  20  21
ATOM     21  C   UNL     1      62.519  28.242  61.100  1.00  0.00    -0.000 C 
BRANCH  21  22
ATOM     22  C   UNL     1      63.991  28.123  60.677  1.00  0.00    -0.000 C 
BRANCH  22  23
ATOM     23  C   UNL     1      64.535  29.422  60.062  1.00  0.00    -0.000 C 
BRANCH  23  24
ATOM     24  C   UNL     1      66.069  29.466  60.140  1.00  0.00    -0.000 C 
BRANCH  24  25
ATOM     25  C   UNL     1      66.668  28.178  60.726  1.00  0.00    -0.003 C 
ATOM     26  C   UNL     1      68.102  28.366  61.221  1.00  0.00     0.004 C 
ENDBRANCH  24  25
ENDBRANCH  23  24
ENDBRANCH  22  23
ENDBRANCH  21  22
ENDBRANCH  20  21
ENDBRANCH  19  20
ENDBRANCH  18  19
ENDBRANCH  17  18
ENDBRANCH  16  17
ENDBRANCH  15  16
ENDBRANCH   1  15
TORSDOF 22
ENDMDL
MODEL 5
REMARK VINA RESULT:    -3.356     10.907     12.580
REMARK INTER + INTRA:         -11.106
REMARK INTER:                  -7.821
REMARK INTRA:                  -3.284
REMARK UNBOUND:                -3.434
REMARK SMILES CCCCCCCCCCCCCCCCCCCCCCCC(=O)[O-]
REMARK SMILES IDX 13 1 14 2 15 3 16 4 17 5 18 6 19 7 20 8 21 9 22 10 23 11
REMARK SMILES IDX 24 12 25 13 26 14 12 15 11 16 10 17 9 18 8 19 7 20 6 21 5 22
REMARK SMILES IDX 4 23 3 24 2 25 1 26
REMARK H PARENT
REMARK Flexibility Score: inf
ROOT
ATOM      1  C   UNL     1      60.557  28.089  49.218  1.00  0.00     0.000 C 
ENDROOT
BRANCH   1   2
ATOM      2  C   UNL     1      59.827  26.730  49.254  1.00  0.00     0.000 C 
BRANCH   2   3
ATOM      3  C   UNL     1      60.322  25.821  50.390  1.00  0.00     0.000 C 
BRANCH   3   4
ATOM      4  C   UNL     1      61.704  26.262  50.885  1.00  0.00     0.000 C 
BRANCH   4   5
ATOM      5  C   UNL     1      62.751  25.163  50.645  1.00  0.00     0.000 C 
BRANCH   5   6
ATOM      6  C   UNL     1      64.088  25.718  50.121  1.00  0.00     0.000 C 
BRANCH   6   7
ATOM      7  C   UNL     1      64.125  27.247  49.927  1.00  0.00     0.000 C 
BRANCH   7   8
ATOM      8  C   UNL     1      64.223  27.719  48.462  1.00  0.00     0.000 C 
BRANCH   8   9
ATOM      9  C   UNL     1      64.565  29.209  48.284  1.00  0.00     0.000 C 
BRANCH   9  10
ATOM     10  C   UNL     1      64.625  29.970  49.620  1.00  0.00     0.006 C 
BRANCH  10  11
ATOM     11  C   UNL     1      64.875  31.470  49.421  1.00  0.00     0.053 C 
BRANCH  11  12
ATOM     12  C   UNL     1      63.594  32.226  49.236  1.00  0.00     0.041 C 
ATOM     13  O   UNL     1      63.613  33.413  48.814  1.00  0.00    -0.550 OA
ATOM     14  O   UNL     1      62.381  31.631  49.561  1.00  0.00    -0.550 OA
ENDBRANCH  11  12
ENDBRANCH  10  11
ENDBRANCH   9  10
ENDBRANCH   8   9
ENDBRANCH   7   8
ENDBRANCH   6   7
ENDBRANCH   5   6
ENDBRANCH   4   5
ENDBRANCH   3   4
ENDBRANCH   2   3
ENDBRANCH   1   2
BRANCH   1  15
ATOM     15  C   UNL     1      59.646  29.294  49.519  1.00  0.00     0.000 C 
BRANCH  15  16
ATOM     16  C   UNL     1      58.198  28.937  49.899  1.00  0.00     0.000 C 
BRANCH  16  17
ATOM     17  C   UNL     1      57.853  29.099  51.394  1.00  0.00     0.000 C 
BRANCH  17  18
ATOM     18  C   UNL     1      56.409  29.546  51.684  1.00  0.00    -0.000 C 
BRANCH  18  19
ATOM     19  C   UNL     1      55.513  29.519  50.433  1.00  0.00    -0.000 C 
BRANCH  19  20
ATOM     20  C   UNL     1      54.021  29.651  50.776  1.00  0.00    -0.000 C 
BRANCH  20  21
ATOM     21  C   UNL     1      53.257  28.326  50.602  1.00  0.00    -0.000 C 
BRANCH  21  22
ATOM     22  C   UNL     1      53.663  27.575  49.324  1.00  0.00    -0.000 C 
BRANCH  22  23
ATOM     23  C   UNL     1      54.210  26.169  49.614  1.00  0.00    -0.000 C 
BRANCH  23  24
ATOM     24  C   UNL     1      55.725  26.107  49.364  1.00  0.00    -0.000 C 
BRANCH  24  25
ATOM     25  C   UNL     1      56.521  25.782  50.637  1.00  0.00    -0.003 C 
ATOM     26  C   UNL     1      55.661  25.834  51.900  1.00  0.00     0.004 C 
ENDBRANCH  24  25
ENDBRANCH  23  24
ENDBRANCH  22  23
ENDBRANCH  21  22
ENDBRANCH  20  21
ENDBRANCH  19  20
ENDBRANCH  18  19
ENDBRANCH  17  18
ENDBRANCH  16  17
ENDBRANCH  15  16
ENDBRANCH   1  15
TORSDOF 22
ENDMDL
MODEL 6
REMARK VINA RESULT:    -3.331      2.922      8.281
REMARK INTER + INTRA:         -11.049
REMARK INTER:                  -8.576
REMARK INTRA:                  -2.473
REMARK UNBOUND:                -3.434
REMARK SMILES CCCCCCCCCCCCCCCCCCCCCCCC(=O)[O-]
REMARK SMILES IDX 13 1 14 2 15 3 16 4 17 5 18 6 19 7 20 8 21 9 22 10 23 11
REMARK SMILES IDX 24 12 25 13 26 14 12 15 11 16 10 17 9 18 8 19 7 20 6 21 5 22
REMARK SMILES IDX 4 23 3 24 2 25 1 26
REMARK H PARENT
REMARK Flexibility Score: inf
ROOT
ATOM      1  C   UNL     1      65.146  30.037  60.277  1.00  0.00     0.000 C 
ENDROOT
BRANCH   1   2
ATOM      2  C   UNL     1      64.000  30.871  60.889  1.00  0.00     0.000 C 
BRANCH   2   3
ATOM      3  C   UNL     1      62.820  30.003  61.354  1.00  0.00     0.000 C 
BRANCH   3   4
ATOM      4  C   UNL     1      61.486  30.734  61.153  1.00  0.00     0.000 C 
BRANCH   4   5
ATOM      5  C   UNL     1      60.747  30.199  59.917  1.00  0.00     0.000 C 
BRANCH   5   6
ATOM      6  C   UNL     1      61.272  30.803  58.602  1.00  0.00     0.000 C 
BRANCH   6   7
ATOM      7  C   UNL     1      60.945  32.295  58.396  1.00  0.00     0.000 C 
BRANCH   7   8
ATOM      8  C   UNL     1      62.097  33.268  58.717  1.00  0.00     0.000 C 
BRANCH   8   9
ATOM      9  C   UNL     1      61.752  34.364  59.742  1.00  0.00     0.000 C 
BRANCH   9  10
ATOM     10  C   UNL     1      62.952  34.759  60.619  1.00  0.00     0.006 C 
BRANCH  10  11
ATOM     11  C   UNL     1      63.746  35.928  60.022  1.00  0.00     0.053 C 
BRANCH  11  12
ATOM     12  C   UNL     1      65.190  35.576  59.826  1.00  0.00     0.041 C 
ATOM     13  O   UNL     1      65.588  35.130  58.718  1.00  0.00    -0.550 OA
ATOM     14  O   UNL     1      66.088  35.710  60.877  1.00  0.00    -0.550 OA
ENDBRANCH  11  12
ENDBRANCH  10  11
ENDBRANCH   9  10
ENDBRANCH   8   9
ENDBRANCH   7   8
ENDBRANCH   6   7
ENDBRANCH   5   6
ENDBRANCH   4   5
ENDBRANCH   3   4
ENDBRANCH   2   3
ENDBRANCH   1   2
BRANCH   1  15
ATOM     15  C   UNL     1      64.923  28.516  60.359  1.00  0.00     0.000 C 
BRANCH  15  16
ATOM     16  C   UNL     1      66.180  27.659  60.121  1.00  0.00     0.000 C 
BRANCH  16  17
ATOM     17  C   UNL     1      67.508  28.444  60.065  1.00  0.00     0.000 C 
BRANCH  17  18
ATOM     18  C   UNL     1      68.329  28.427  61.366  1.00  0.00    -0.000 C 
BRANCH  18  19
ATOM     19  C   UNL     1      69.747  28.996  61.184  1.00  0.00    -0.000 C 
BRANCH  19  20
ATOM     20  C   UNL     1      70.694  28.005  60.488  1.00  0.00    -0.000 C 
BRANCH  20  21
ATOM     21  C   UNL     1      72.158  28.479  60.505  1.00  0.00    -0.000 C 
BRANCH  21  22
ATOM     22  C   UNL     1      72.366  29.723  61.383  1.00  0.00    -0.000 C 
BRANCH  22  23
ATOM     23  C   UNL     1      73.094  30.854  60.641  1.00  0.00    -0.000 C 
BRANCH  23  24
ATOM     24  C   UNL     1      72.595  30.972  59.193  1.00  0.00    -0.000 C 
BRANCH  24  25
ATOM     25  C   UNL     1      71.327  31.832  59.073  1.00  0.00    -0.003 C 
ATOM     26  C   UNL     1      70.251  31.180  58.205  1.00  0.00     0.004 C 
ENDBRANCH  24  25
ENDBRANCH  23  24
ENDBRANCH  22  23
ENDBRANCH  21  22
ENDBRANCH  20  21
ENDBRANCH  19  20
ENDBRANCH  18  19
ENDBRANCH  17  18
ENDBRANCH  16  17
ENDBRANCH  15  16
ENDBRANCH   1  15
TORSDOF 22
ENDMDL
MODEL 7
REMARK VINA RESULT:    -3.289      2.755      5.459
REMARK INTER + INTRA:         -10.954
REMARK INTER:                  -6.678
REMARK INTRA:                  -4.276
REMARK UNBOUND:                -3.434
REMARK SMILES CCCCCCCCCCCCCCCCCCCCCCCC(=O)[O-]
REMARK SMILES IDX 13 1 14 2 15 3 16 4 17 5 18 6 19 7 20 8 21 9 22 10 23 11
REMARK SMILES IDX 24 12 25 13 26 14 12 15 11 16 10 17 9 18 8 19 7 20 6 21 5 22
REMARK SMILES IDX 4 23 3 24 2 25 1 26
REMARK H PARENT
REMARK Flexibility Score: inf
ROOT
ATOM      1  C   UNL     1      61.094  31.223  60.066  1.00  0.00     0.000 C 
ENDROOT
BRANCH   1   2
ATOM      2  C   UNL     1      61.198  32.763  60.040  1.00  0.00     0.000 C 
BRANCH   2   3
ATOM      3  C   UNL     1      61.200  33.332  58.612  1.00  0.00     0.000 C 
BRANCH   3   4
ATOM      4  C   UNL     1      61.479  34.840  58.621  1.00  0.00     0.000 C 
BRANCH   4   5
ATOM      5  C   UNL     1      61.133  35.456  59.986  1.00  0.00     0.000 C 
BRANCH   5   6
ATOM      6  C   UNL     1      62.320  36.198  60.623  1.00  0.00     0.000 C 
BRANCH   6   7
ATOM      7  C   UNL     1      63.517  36.439  59.682  1.00  0.00     0.000 C 
BRANCH   7   8
ATOM      8  C   UNL     1      64.776  35.607  59.997  1.00  0.00     0.000 C 
BRANCH   8   9
ATOM      9  C   UNL     1      64.565  34.475  61.018  1.00  0.00     0.000 C 
BRANCH   9  10
ATOM     10  C   UNL     1      64.611  33.078  60.377  1.00  0.00     0.006 C 
BRANCH  10  11
ATOM     11  C   UNL     1      64.883  33.142  58.868  1.00  0.00     0.053 C 
BRANCH  11  12
ATOM     12  C   UNL     1      65.270  31.802  58.317  1.00  0.00     0.041 C 
ATOM     13  O   UNL     1      65.228  31.592  57.076  1.00  0.00    -0.550 OA
ATOM     14  O   UNL     1      65.643  30.777  59.177  1.00  0.00    -0.550 OA
ENDBRANCH  11  12
ENDBRANCH  10  11
ENDBRANCH   9  10
ENDBRANCH   8   9
ENDBRANCH   7   8
ENDBRANCH   6   7
ENDBRANCH   5   6
ENDBRANCH   4   5
ENDBRANCH   3   4
ENDBRANCH   2   3
ENDBRANCH   1   2
BRANCH   1  15
ATOM     15  C   UNL     1      61.555  30.590  61.392  1.00  0.00     0.000 C 
BRANCH  15  16
ATOM     16  C   UNL     1      62.966  29.975  61.365  1.00  0.00     0.000 C 
BRANCH  16  17
ATOM     17  C   UNL     1      63.105  28.688  60.524  1.00  0.00     0.000 C 
BRANCH  17  18
ATOM     18  C   UNL     1      62.400  27.451  61.106  1.00  0.00    -0.000 C 
BRANCH  18  19
ATOM     19  C   UNL     1      61.374  26.837  60.139  1.00  0.00    -0.000 C 
BRANCH  19  20
ATOM     20  C   UNL     1      59.941  26.885  60.694  1.00  0.00    -0.000 C 
BRANCH  20  21
ATOM     21  C   UNL     1      59.117  28.042  60.100  1.00  0.00    -0.000 C 
BRANCH  21  22
ATOM     22  C   UNL     1      58.993  27.952  58.570  1.00  0.00    -0.000 C 
BRANCH  22  23
ATOM     23  C   UNL     1      58.622  29.298  57.929  1.00  0.00    -0.000 C 
BRANCH  23  24
ATOM     24  C   UNL     1      59.790  29.852  57.099  1.00  0.00    -0.000 C 
BRANCH  24  25
ATOM     25  C   UNL     1      60.982  28.885  57.039  1.00  0.00    -0.003 C 
ATOM     26  C   UNL     1      62.330  29.606  57.055  1.00  0.00     0.004 C 
ENDBRANCH  24  25
ENDBRANCH  23  24
ENDBRANCH  22  23
ENDBRANCH  21  22
ENDBRANCH  20  21
ENDBRANCH  19  20
ENDBRANCH  18  19
ENDBRANCH  17  18
ENDBRANCH  16  17
ENDBRANCH  15  16
ENDBRANCH   1  15
TORSDOF 22
ENDMDL
MODEL 8
REMARK VINA RESULT:    -3.279      2.869      6.124
REMARK INTER + INTRA:         -10.932
REMARK INTER:                  -6.039
REMARK INTRA:                  -4.893
REMARK UNBOUND:                -3.434
REMARK SMILES CCCCCCCCCCCCCCCCCCCCCCCC(=O)[O-]
REMARK SMILES IDX 13 1 14 2 15 3 16 4 17 5 18 6 19 7 20 8 21 9 22 10 23 11
REMARK SMILES IDX 24 12 25 13 26 14 12 15 11 16 10 17 9 18 8 19 7 20 6 21 5 22
REMARK SMILES IDX 4 23 3 24 2 25 1 26
REMARK H PARENT
REMARK Flexibility Score: inf
ROOT
ATOM      1  C   UNL     1      65.086  29.979  59.080  1.00  0.00     0.000 C 
ENDROOT
BRANCH   1   2
ATOM      2  C   UNL     1      64.498  29.328  60.350  1.00  0.00     0.000 C 
BRANCH   2   3
ATOM      3  C   UNL     1      63.663  30.310  61.187  1.00  0.00     0.000 C 
BRANCH   3   4
ATOM      4  C   UNL     1      62.273  29.735  61.484  1.00  0.00     0.000 C 
BRANCH   4   5
ATOM      5  C   UNL     1      61.177  30.779  61.220  1.00  0.00     0.000 C 
BRANCH   5   6
ATOM      6  C   UNL     1      61.528  31.730  60.062  1.00  0.00     0.000 C 
BRANCH   6   7
ATOM      7  C   UNL     1      60.440  31.863  58.978  1.00  0.00     0.000 C 
BRANCH   7   8
ATOM      8  C   UNL     1      60.788  31.226  57.618  1.00  0.00     0.000 C 
BRANCH   8   9
ATOM      9  C   UNL     1      61.758  30.033  57.693  1.00  0.00     0.000 C 
BRANCH   9  10
ATOM     10  C   UNL     1      62.582  29.853  56.406  1.00  0.00     0.006 C 
BRANCH  10  11
ATOM     11  C   UNL     1      62.668  28.384  55.974  1.00  0.00     0.053 C 
BRANCH  11  12
ATOM     12  C   UNL     1      63.989  27.775  56.337  1.00  0.00     0.041 C 
ATOM     13  O   UNL     1      64.064  26.931  57.267  1.00  0.00    -0.550 OA
ATOM     14  O   UNL     1      65.143  28.167  55.669  1.00  0.00    -0.550 OA
ENDBRANCH  11  12
ENDBRANCH  10  11
ENDBRANCH   9  10
ENDBRANCH   8   9
ENDBRANCH   7   8
ENDBRANCH   6   7
ENDBRANCH   5   6
ENDBRANCH   4   5
ENDBRANCH   3   4
ENDBRANCH   2   3
ENDBRANCH   1   2
BRANCH   1  15
ATOM     15  C   UNL     1      65.166  31.516  59.147  1.00  0.00     0.000 C 
BRANCH  15  16
ATOM     16  C   UNL     1      65.127  32.230  57.783  1.00  0.00     0.000 C 
BRANCH  16  17
ATOM     17  C   UNL     1      63.930  33.182  57.574  1.00  0.00     0.000 C 
BRANCH  17  18
ATOM     18  C   UNL     1      64.275  34.522  56.901  1.00  0.00    -0.000 C 
BRANCH  18  19
ATOM     19  C   UNL     1      63.094  35.508  56.896  1.00  0.00    -0.000 C 
BRANCH  19  20
ATOM     20  C   UNL     1      61.829  34.914  57.535  1.00  0.00    -0.000 C 
BRANCH  20  21
ATOM     21  C   UNL     1      61.190  35.860  58.567  1.00  0.00    -0.000 C 
BRANCH  21  22
ATOM     22  C   UNL     1      61.397  35.383  60.013  1.00  0.00    -0.000 C 
BRANCH  22  23
ATOM     23  C   UNL     1      62.754  35.816  60.589  1.00  0.00    -0.000 C 
BRANCH  23  24
ATOM     24  C   UNL     1      63.676  34.604  60.796  1.00  0.00    -0.000 C 
BRANCH  24  25
ATOM     25  C   UNL     1      65.149  35.005  60.969  1.00  0.00    -0.003 C 
ATOM     26  C   UNL     1      65.594  36.065  59.962  1.00  0.00     0.004 C 
ENDBRANCH  24  25
ENDBRANCH  23  24
ENDBRANCH  22  23
ENDBRANCH  21  22
ENDBRANCH  20  21
ENDBRANCH  19  20
ENDBRANCH  18  19
ENDBRANCH  17  18
ENDBRANCH  16  17
ENDBRANCH  15  16
ENDBRANCH   1  15
TORSDOF 22
ENDMDL
MODEL 9
REMARK VINA RESULT:    -3.260      1.963      3.581
REMARK INTER + INTRA:         -10.886
REMARK INTER:                  -7.004
REMARK INTRA:                  -3.883
REMARK UNBOUND:                -3.434
REMARK SMILES CCCCCCCCCCCCCCCCCCCCCCCC(=O)[O-]
REMARK SMILES IDX 13 1 14 2 15 3 16 4 17 5 18 6 19 7 20 8 21 9 22 10 23 11
REMARK SMILES IDX 24 12 25 13 26 14 12 15 11 16 10 17 9 18 8 19 7 20 6 21 5 22
REMARK SMILES IDX 4 23 3 24 2 25 1 26
REMARK H PARENT
REMARK Flexibility Score: inf
ROOT
ATOM      1  C   UNL     1      64.478  34.329  60.842  1.00  0.00     0.000 C 
ENDROOT
BRANCH   1   2
ATOM      2  C   UNL     1      64.208  32.842  60.524  1.00  0.00     0.000 C 
BRANCH   2   3
ATOM      3  C   UNL     1      63.629  32.634  59.116  1.00  0.00     0.000 C 
BRANCH   3   4
ATOM      4  C   UNL     1      62.345  31.797  59.167  1.00  0.00     0.000 C 
BRANCH   4   5
ATOM      5  C   UNL     1      61.585  32.036  60.481  1.00  0.00     0.000 C 
BRANCH   5   6
ATOM      6  C   UNL     1      61.419  30.752  61.315  1.00  0.00     0.000 C 
BRANCH   6   7
ATOM      7  C   UNL     1      61.198  29.468  60.492  1.00  0.00     0.000 C 
BRANCH   7   8
ATOM      8  C   UNL     1      62.280  28.384  60.666  1.00  0.00     0.000 C 
BRANCH   8   9
ATOM      9  C   UNL     1      63.445  28.467  59.663  1.00  0.00     0.000 C 
BRANCH   9  10
ATOM     10  C   UNL     1      64.704  29.115  60.264  1.00  0.00     0.006 C 
BRANCH  10  11
ATOM     11  C   UNL     1      65.765  28.076  60.647  1.00  0.00     0.053 C 
BRANCH  11  12
ATOM     12  C   UNL     1      67.155  28.607  60.460  1.00  0.00     0.041 C 
ATOM     13  O   UNL     1      67.467  29.207  59.398  1.00  0.00    -0.550 OA
ATOM     14  O   UNL     1      68.114  28.409  61.446  1.00  0.00    -0.550 OA
ENDBRANCH  11  12
ENDBRANCH  10  11
ENDBRANCH   9  10
ENDBRANCH   8   9
ENDBRANCH   7   8
ENDBRANCH   6   7
ENDBRANCH   5   6
ENDBRANCH   4   5
ENDBRANCH   3   4
ENDBRANCH   2   3
ENDBRANCH   1   2
BRANCH   1  15
ATOM     15  C   UNL     1      63.665  35.309  59.976  1.00  0.00     0.000 C 
BRANCH  15  16
ATOM     16  C   UNL     1      62.447  35.940  60.676  1.00  0.00     0.000 C 
BRANCH  16  17
ATOM     17  C   UNL     1      61.087  35.666  60.000  1.00  0.00     0.000 C 
BRANCH  17  18
ATOM     18  C   UNL     1      61.165  35.298  58.508  1.00  0.00    -0.000 C 
BRANCH  18  19
ATOM     19  C   UNL     1      59.977  35.842  57.696  1.00  0.00    -0.000 C 
BRANCH  19  20
ATOM     20  C   UNL     1      59.013  34.731  57.249  1.00  0.00    -0.000 C 
BRANCH  20  21
ATOM     21  C   UNL     1      59.683  33.345  57.223  1.00  0.00    -0.000 C 
BRANCH  21  22
ATOM     22  C   UNL     1      58.669  32.203  57.046  1.00  0.00    -0.000 C 
BRANCH  22  23
ATOM     23  C   UNL     1      59.020  30.968  57.889  1.00  0.00    -0.000 C 
BRANCH  23  24
ATOM     24  C   UNL     1      58.856  29.678  57.069  1.00  0.00    -0.000 C 
BRANCH  24  25
ATOM     25  C   UNL     1      60.126  28.814  57.069  1.00  0.00    -0.003 C 
ATOM     26  C   UNL     1      61.347  29.558  56.529  1.00  0.00     0.004 C 
ENDBRANCH  24  25
ENDBRANCH  23  24
ENDBRANCH  22  23
ENDBRANCH  21  22
ENDBRANCH  20  21
ENDBRANCH  19  20
ENDBRANCH  18  19
ENDBRANCH  17  18
ENDBRANCH  16  17
ENDBRANCH  15  16
ENDBRANCH   1  15
TORSDOF 22
ENDMDL
