MODEL 1
REMARK VINA RESULT:    -4.623      0.000      0.000
REMARK INTER + INTRA:          -5.735
REMARK INTER:                  -5.434
REMARK INTRA:                  -0.300
REMARK UNBOUND:                -0.300
REMARK SMILES O=c1c(O)c(-c2ccc(O)cc2)oc2cc(O)cc(O)c12
REMARK SMILES IDX 5 1 3 2 2 3 1 4 21 5 19 6 18 7 16 8 15 9 14 10 13 11 6 12
REMARK SMILES IDX 7 13 8 14 9 15 12 16 11 17 10 18 4 20 20 22 17 24
REMARK H PARENT 10 19 4 21 20 23 17 25
REMARK Flexibility Score: inf
ROOT
ATOM      1  C   UNL     1     171.544 175.222 149.756  1.00  0.00     0.180 A 
ATOM      2  C   UNL     1     171.489 176.390 150.537  1.00  0.00     0.208 A 
ATOM      3  C   UNL     1     170.247 177.008 150.753  1.00  0.00     0.238 A 
ATOM      4  O   UNL     1     170.197 178.021 151.496  1.00  0.00    -0.285 OA
ATOM      5  C   UNL     1     169.077 176.460 150.171  1.00  0.00     0.111 A 
ATOM      6  C   UNL     1     167.772 177.026 150.290  1.00  0.00     0.134 A 
ATOM      7  C   UNL     1     166.668 176.328 149.784  1.00  0.00     0.093 A 
ATOM      8  C   UNL     1     166.829 175.120 149.107  1.00  0.00     0.123 A 
ATOM      9  C   UNL     1     168.107 174.587 148.933  1.00  0.00     0.094 A 
ATOM     10  C   UNL     1     169.223 175.242 149.458  1.00  0.00     0.146 A 
ATOM     11  O   UNL     1     170.421 174.696 149.280  1.00  0.00    -0.452 OA
ENDROOT
BRANCH   1  12
ATOM     12  C   UNL     1     172.819 174.528 149.464  1.00  0.00     0.021 A 
ATOM     13  C   UNL     1     173.234 173.468 150.288  1.00  0.00     0.016 A 
ATOM     14  C   UNL     1     174.423 172.785 150.017  1.00  0.00     0.047 A 
ATOM     15  C   UNL     1     175.203 173.141 148.913  1.00  0.00     0.115 A 
ATOM     16  C   UNL     1     173.597 174.868 148.342  1.00  0.00     0.016 A 
ATOM     17  C   UNL     1     174.786 174.181 148.073  1.00  0.00     0.047 A 
BRANCH  15  18
ATOM     18  O   UNL     1     176.386 172.450 148.655  1.00  0.00    -0.508 OA
ATOM     19  H   UNL     1     176.385 171.457 148.453  1.00  0.00     0.293 HD
ENDBRANCH  15  18
ENDBRANCH   1  12
BRANCH   2  20
ATOM     20  O   UNL     1     172.652 176.901 151.119  1.00  0.00    -0.502 OA
ATOM     21  H   UNL     1     172.654 177.348 152.028  1.00  0.00     0.293 HD
ENDBRANCH   2  20
BRANCH   6  22
ATOM     22  O   UNL     1     167.511 178.272 150.867  1.00  0.00    -0.507 OA
ATOM     23  H   UNL     1     167.100 178.410 151.778  1.00  0.00     0.293 HD
ENDBRANCH   6  22
BRANCH   8  24
ATOM     24  O   UNL     1     165.710 174.461 148.602  1.00  0.00    -0.508 OA
ATOM     25  H   UNL     1     165.742 173.960 147.722  1.00  0.00     0.293 HD
ENDBRANCH   8  24
TORSDOF 5
ENDMDL
MODEL 2
REMARK VINA RESULT:    -4.621      4.470      6.881
REMARK INTER + INTRA:          -5.731
REMARK INTER:                  -5.431
REMARK INTRA:                  -0.300
REMARK UNBOUND:                -0.300
REMARK SMILES O=c1c(O)c(-c2ccc(O)cc2)oc2cc(O)cc(O)c12
REMARK SMILES IDX 5 1 3 2 2 3 1 4 21 5 19 6 18 7 16 8 15 9 14 10 13 11 6 12
REMARK SMILES IDX 7 13 8 14 9 15 12 16 11 17 10 18 4 20 20 22 17 24
REMARK H PARENT 10 19 4 21 20 23 17 25
REMARK Flexibility Score: inf
ROOT
ATOM      1  C   UNL     1     172.940 171.553 149.756  1.00  0.00     0.180 A 
ATOM      2  C   UNL     1     171.771 171.499 150.535  1.00  0.00     0.208 A 
ATOM      3  C   UNL     1     171.152 170.257 150.749  1.00  0.00     0.238 A 
ATOM      4  O   UNL     1     170.137 170.208 151.491  1.00  0.00    -0.285 OA
ATOM      5  C   UNL     1     171.699 169.087 150.168  1.00  0.00     0.111 A 
ATOM      6  C   UNL     1     171.131 167.782 150.285  1.00  0.00     0.134 A 
ATOM      7  C   UNL     1     171.828 166.679 149.779  1.00  0.00     0.093 A 
ATOM      8  C   UNL     1     173.037 166.838 149.103  1.00  0.00     0.123 A 
ATOM      9  C   UNL     1     173.572 168.116 148.931  1.00  0.00     0.094 A 
ATOM     10  C   UNL     1     172.918 169.233 149.456  1.00  0.00     0.146 A 
ATOM     11  O   UNL     1     173.465 170.429 149.280  1.00  0.00    -0.452 OA
ENDROOT
BRANCH   1  12
ATOM     12  C   UNL     1     173.636 172.827 149.466  1.00  0.00     0.021 A 
ATOM     13  C   UNL     1     174.696 173.239 150.291  1.00  0.00     0.016 A 
ATOM     14  C   UNL     1     175.381 174.428 150.022  1.00  0.00     0.047 A 
ATOM     15  C   UNL     1     175.027 175.210 148.918  1.00  0.00     0.115 A 
ATOM     16  C   UNL     1     173.297 173.608 148.346  1.00  0.00     0.016 A 
ATOM     17  C   UNL     1     173.986 174.796 148.078  1.00  0.00     0.047 A 
BRANCH  15  18
ATOM     18  O   UNL     1     175.719 176.392 148.662  1.00  0.00    -0.508 OA
ATOM     19  H   UNL     1     176.413 176.450 147.926  1.00  0.00     0.293 HD
ENDBRANCH  15  18
ENDBRANCH   1  12
BRANCH   2  20
ATOM     20  O   UNL     1     171.260 172.661 151.117  1.00  0.00    -0.502 OA
ATOM     21  H   UNL     1     170.398 172.670 151.649  1.00  0.00     0.293 HD
ENDBRANCH   2  20
BRANCH   6  22
ATOM     22  O   UNL     1     169.884 167.523 150.860  1.00  0.00    -0.507 OA
ATOM     23  H   UNL     1     169.731 166.921 151.654  1.00  0.00     0.293 HD
ENDBRANCH   6  22
BRANCH   8  24
ATOM     24  O   UNL     1     173.696 165.719 148.598  1.00  0.00    -0.508 OA
ATOM     25  H   UNL     1     174.707 165.669 148.564  1.00  0.00     0.293 HD
ENDBRANCH   8  24
TORSDOF 5
ENDMDL
MODEL 3
REMARK VINA RESULT:    -4.617      4.472      6.887
REMARK INTER + INTRA:          -5.727
REMARK INTER:                  -5.427
REMARK INTRA:                  -0.300
REMARK UNBOUND:                -0.300
REMARK SMILES O=c1c(O)c(-c2ccc(O)cc2)oc2cc(O)cc(O)c12
REMARK SMILES IDX 5 1 3 2 2 3 1 4 21 5 19 6 18 7 16 8 15 9 14 10 13 11 6 12
REMARK SMILES IDX 7 13 8 14 9 15 12 16 11 17 10 18 4 20 20 22 17 24
REMARK H PARENT 10 19 4 21 20 23 17 25
REMARK Flexibility Score: inf
ROOT
ATOM      1  C   UNL     1     175.201 176.634 149.743  1.00  0.00     0.180 A 
ATOM      2  C   UNL     1     176.369 176.681 150.524  1.00  0.00     0.208 A 
ATOM      3  C   UNL     1     176.990 177.921 150.746  1.00  0.00     0.238 A 
ATOM      4  O   UNL     1     178.004 177.963 151.490  1.00  0.00    -0.285 OA
ATOM      5  C   UNL     1     176.446 179.095 150.171  1.00  0.00     0.111 A 
ATOM      6  C   UNL     1     177.015 180.398 150.297  1.00  0.00     0.134 A 
ATOM      7  C   UNL     1     176.321 181.506 149.797  1.00  0.00     0.093 A 
ATOM      8  C   UNL     1     175.112 181.352 149.119  1.00  0.00     0.123 A 
ATOM      9  C   UNL     1     174.576 180.077 148.938  1.00  0.00     0.094 A 
ATOM     10  C   UNL     1     175.228 178.955 149.457  1.00  0.00     0.146 A 
ATOM     11  O   UNL     1     174.678 177.761 149.273  1.00  0.00    -0.452 OA
ENDROOT
BRANCH   1  12
ATOM     12  C   UNL     1     174.504 175.362 149.444  1.00  0.00     0.021 A 
ATOM     13  C   UNL     1     173.432 174.954 150.256  1.00  0.00     0.016 A 
ATOM     14  C   UNL     1     172.745 173.768 149.978  1.00  0.00     0.047 A 
ATOM     15  C   UNL     1     173.110 172.985 148.879  1.00  0.00     0.115 A 
ATOM     16  C   UNL     1     174.852 174.581 148.328  1.00  0.00     0.016 A 
ATOM     17  C   UNL     1     174.162 173.396 148.052  1.00  0.00     0.047 A 
BRANCH  15  18
ATOM     18  O   UNL     1     172.416 171.806 148.614  1.00  0.00    -0.508 OA
ATOM     19  H   UNL     1     171.403 171.771 148.639  1.00  0.00     0.293 HD
ENDBRANCH  15  18
ENDBRANCH   1  12
BRANCH   2  20
ATOM     20  O   UNL     1     176.877 175.514 151.099  1.00  0.00    -0.502 OA
ATOM     21  H   UNL     1     177.410 175.519 151.961  1.00  0.00     0.293 HD
ENDBRANCH   2  20
BRANCH   6  22
ATOM     22  O   UNL     1     178.262 180.652 150.875  1.00  0.00    -0.507 OA
ATOM     23  H   UNL     1     178.835 181.458 150.678  1.00  0.00     0.293 HD
ENDBRANCH   6  22
BRANCH   8  24
ATOM     24  O   UNL     1     174.456 182.476 148.620  1.00  0.00    -0.508 OA
ATOM     25  H   UNL     1     174.164 183.232 149.228  1.00  0.00     0.293 HD
ENDBRANCH   8  24
TORSDOF 5
ENDMDL
MODEL 4
REMARK VINA RESULT:    -4.613      3.801      9.711
REMARK INTER + INTRA:          -5.723
REMARK INTER:                  -5.430
REMARK INTRA:                  -0.293
REMARK UNBOUND:                -0.300
REMARK SMILES O=c1c(O)c(-c2ccc(O)cc2)oc2cc(O)cc(O)c12
REMARK SMILES IDX 5 1 3 2 2 3 1 4 21 5 19 6 18 7 16 8 15 9 14 10 13 11 6 12
REMARK SMILES IDX 7 13 8 14 9 15 12 16 11 17 10 18 4 20 20 22 17 24
REMARK H PARENT 10 19 4 21 20 23 17 25
REMARK Flexibility Score: inf
ROOT
ATOM      1  C   UNL     1     176.590 173.004 149.710  1.00  0.00     0.180 A 
ATOM      2  C   UNL     1     176.621 171.832 150.486  1.00  0.00     0.208 A 
ATOM      3  C   UNL     1     177.854 171.198 150.714  1.00  0.00     0.238 A 
ATOM      4  O   UNL     1     177.883 170.181 151.453  1.00  0.00    -0.285 OA
ATOM      5  C   UNL     1     179.037 171.735 150.149  1.00  0.00     0.111 A 
ATOM      6  C   UNL     1     180.334 171.153 150.281  1.00  0.00     0.134 A 
ATOM      7  C   UNL     1     181.451 171.839 149.791  1.00  0.00     0.093 A 
ATOM      8  C   UNL     1     181.314 173.052 149.117  1.00  0.00     0.123 A 
ATOM      9  C   UNL     1     180.044 173.601 148.931  1.00  0.00     0.094 A 
ATOM     10  C   UNL     1     178.914 172.957 149.439  1.00  0.00     0.146 A 
ATOM     11  O   UNL     1     177.725 173.518 149.250  1.00  0.00    -0.452 OA
ENDROOT
BRANCH   1  12
ATOM     12  C   UNL     1     175.327 173.714 149.406  1.00  0.00     0.021 A 
ATOM     13  C   UNL     1     174.965 174.837 150.169  1.00  0.00     0.016 A 
ATOM     14  C   UNL     1     173.788 175.536 149.884  1.00  0.00     0.047 A 
ATOM     15  C   UNL     1     172.968 175.132 148.827  1.00  0.00     0.115 A 
ATOM     16  C   UNL     1     174.509 173.325 148.330  1.00  0.00     0.016 A 
ATOM     17  C   UNL     1     173.332 174.027 148.047  1.00  0.00     0.047 A 
BRANCH  15  18
ATOM     18  O   UNL     1     171.798 175.839 148.555  1.00  0.00    -0.508 OA
ATOM     19  H   UNL     1     171.156 176.103 149.293  1.00  0.00     0.293 HD
ENDBRANCH  15  18
ENDBRANCH   1  12
BRANCH   2  20
ATOM     20  O   UNL     1     175.446 171.332 151.052  1.00  0.00    -0.502 OA
ATOM     21  H   UNL     1     175.260 170.340 151.132  1.00  0.00     0.293 HD
ENDBRANCH   2  20
BRANCH   6  22
ATOM     22  O   UNL     1     180.572 169.901 150.855  1.00  0.00    -0.507 OA
ATOM     23  H   UNL     1     179.856 169.237 151.105  1.00  0.00     0.293 HD
ENDBRANCH   6  22
BRANCH   8  24
ATOM     24  O   UNL     1     182.446 173.700 148.629  1.00  0.00    -0.508 OA
ATOM     25  H   UNL     1     183.020 174.286 149.224  1.00  0.00     0.293 HD
ENDBRANCH   8  24
TORSDOF 5
ENDMDL
MODEL 5
REMARK VINA RESULT:    -4.255      3.896      6.024
REMARK INTER + INTRA:          -5.302
REMARK INTER:                  -5.002
REMARK INTRA:                  -0.300
REMARK UNBOUND:                -0.300
REMARK SMILES O=c1c(O)c(-c2ccc(O)cc2)oc2cc(O)cc(O)c12
REMARK SMILES IDX 5 1 3 2 2 3 1 4 21 5 19 6 18 7 16 8 15 9 14 10 13 11 6 12
REMARK SMILES IDX 7 13 8 14 9 15 12 16 11 17 10 18 4 20 20 22 17 24
REMARK H PARENT 10 19 4 21 20 23 17 25
REMARK Flexibility Score: inf
ROOT
ATOM      1  C   UNL     1     174.976 177.228 149.863  1.00  0.00     0.180 A 
ATOM      2  C   UNL     1     173.689 177.361 150.410  1.00  0.00     0.208 A 
ATOM      3  C   UNL     1     172.794 176.282 150.318  1.00  0.00     0.238 A 
ATOM      4  O   UNL     1     171.663 176.388 150.858  1.00  0.00    -0.285 OA
ATOM      5  C   UNL     1     173.193 175.090 149.665  1.00  0.00     0.111 A 
ATOM      6  C   UNL     1     172.356 173.950 149.478  1.00  0.00     0.134 A 
ATOM      7  C   UNL     1     172.896 172.778 148.934  1.00  0.00     0.093 A 
ATOM      8  C   UNL     1     174.223 172.726 148.510  1.00  0.00     0.123 A 
ATOM      9  C   UNL     1     175.035 173.855 148.634  1.00  0.00     0.094 A 
ATOM     10  C   UNL     1     174.534 175.027 149.206  1.00  0.00     0.146 A 
ATOM     11  O   UNL     1     175.342 176.074 149.316  1.00  0.00    -0.452 OA
ENDROOT
BRANCH   1  12
ATOM     12  C   UNL     1     175.966 178.329 149.900  1.00  0.00     0.021 A 
ATOM     13  C   UNL     1     176.900 178.385 150.948  1.00  0.00     0.016 A 
ATOM     14  C   UNL     1     177.857 179.403 150.989  1.00  0.00     0.047 A 
ATOM     15  C   UNL     1     177.903 180.368 149.978  1.00  0.00     0.115 A 
ATOM     16  C   UNL     1     176.030 179.290 148.874  1.00  0.00     0.016 A 
ATOM     17  C   UNL     1     176.990 180.307 148.918  1.00  0.00     0.047 A 
BRANCH  15  18
ATOM     18  O   UNL     1     178.863 181.376 150.033  1.00  0.00    -0.508 OA
ATOM     19  H   UNL     1     179.419 181.533 150.865  1.00  0.00     0.293 HD
ENDBRANCH  15  18
ENDBRANCH   1  12
BRANCH   2  20
ATOM     20  O   UNL     1     173.323 178.537 151.070  1.00  0.00    -0.502 OA
ATOM     21  H   UNL     1     172.568 178.571 151.745  1.00  0.00     0.293 HD
ENDBRANCH   2  20
BRANCH   6  22
ATOM     22  O   UNL     1     170.991 173.925 149.781  1.00  0.00    -0.507 OA
ATOM     23  H   UNL     1     170.282 174.443 149.285  1.00  0.00     0.293 HD
ENDBRANCH   6  22
BRANCH   8  24
ATOM     24  O   UNL     1     174.723 171.549 147.958  1.00  0.00    -0.508 OA
ATOM     25  H   UNL     1     175.653 171.212 148.180  1.00  0.00     0.293 HD
ENDBRANCH   8  24
TORSDOF 5
ENDMDL
MODEL 6
REMARK VINA RESULT:    -4.242      3.729      6.139
REMARK INTER + INTRA:          -5.286
REMARK INTER:                  -4.987
REMARK INTRA:                  -0.300
REMARK UNBOUND:                -0.300
REMARK SMILES O=c1c(O)c(-c2ccc(O)cc2)oc2cc(O)cc(O)c12
REMARK SMILES IDX 5 1 3 2 2 3 1 4 21 5 19 6 18 7 16 8 15 9 14 10 13 11 6 12
REMARK SMILES IDX 7 13 8 14 9 15 12 16 11 17 10 18 4 20 20 22 17 24
REMARK H PARENT 10 19 4 21 20 23 17 25
REMARK Flexibility Score: inf
ROOT
ATOM      1  C   UNL     1     177.225 173.140 149.886  1.00  0.00     0.180 A 
ATOM      2  C   UNL     1     177.362 174.427 150.434  1.00  0.00     0.208 A 
ATOM      3  C   UNL     1     176.287 175.326 150.339  1.00  0.00     0.238 A 
ATOM      4  O   UNL     1     176.395 176.457 150.880  1.00  0.00    -0.285 OA
ATOM      5  C   UNL     1     175.095 174.932 149.682  1.00  0.00     0.111 A 
ATOM      6  C   UNL     1     173.959 175.775 149.492  1.00  0.00     0.134 A 
ATOM      7  C   UNL     1     172.787 175.240 148.944  1.00  0.00     0.093 A 
ATOM      8  C   UNL     1     172.731 173.913 148.520  1.00  0.00     0.123 A 
ATOM      9  C   UNL     1     173.855 173.096 148.646  1.00  0.00     0.094 A 
ATOM     10  C   UNL     1     175.028 173.592 149.222  1.00  0.00     0.146 A 
ATOM     11  O   UNL     1     176.071 172.779 149.334  1.00  0.00    -0.452 OA
ENDROOT
BRANCH   1  12
ATOM     12  C   UNL     1     178.322 172.146 149.925  1.00  0.00     0.021 A 
ATOM     13  C   UNL     1     178.361 171.200 150.963  1.00  0.00     0.016 A 
ATOM     14  C   UNL     1     179.375 170.238 151.007  1.00  0.00     0.047 A 
ATOM     15  C   UNL     1     180.352 170.200 150.007  1.00  0.00     0.115 A 
ATOM     16  C   UNL     1     179.295 172.089 148.911  1.00  0.00     0.016 A 
ATOM     17  C   UNL     1     180.308 171.125 148.957  1.00  0.00     0.047 A 
BRANCH  15  18
ATOM     18  O   UNL     1     181.356 169.236 150.064  1.00  0.00    -0.508 OA
ATOM     19  H   UNL     1     181.301 168.382 149.521  1.00  0.00     0.293 HD
ENDBRANCH  15  18
ENDBRANCH   1  12
BRANCH   2  20
ATOM     20  O   UNL     1     178.537 174.787 151.097  1.00  0.00    -0.502 OA
ATOM     21  H   UNL     1     178.703 175.726 151.440  1.00  0.00     0.293 HD
ENDBRANCH   2  20
BRANCH   6  22
ATOM     22  O   UNL     1     173.939 177.139 149.796  1.00  0.00    -0.507 OA
ATOM     23  H   UNL     1     174.326 177.864 149.212  1.00  0.00     0.293 HD
ENDBRANCH   6  22
BRANCH   8  24
ATOM     24  O   UNL     1     171.553 173.418 147.964  1.00  0.00    -0.508 OA
ATOM     25  H   UNL     1     170.713 173.299 148.519  1.00  0.00     0.293 HD
ENDBRANCH   8  24
TORSDOF 5
ENDMDL
MODEL 7
REMARK VINA RESULT:    -4.239      1.854      6.947
REMARK INTER + INTRA:          -5.283
REMARK INTER:                  -4.988
REMARK INTRA:                  -0.296
REMARK UNBOUND:                -0.300
REMARK SMILES O=c1c(O)c(-c2ccc(O)cc2)oc2cc(O)cc(O)c12
REMARK SMILES IDX 5 1 3 2 2 3 1 4 21 5 19 6 18 7 16 8 15 9 14 10 13 11 6 12
REMARK SMILES IDX 7 13 8 14 9 15 12 16 11 17 10 18 4 20 20 22 17 24
REMARK H PARENT 10 19 4 21 20 23 17 25
REMARK Flexibility Score: inf
ROOT
ATOM      1  C   UNL     1     170.957 174.983 149.883  1.00  0.00     0.180 A 
ATOM      2  C   UNL     1     170.835 173.705 150.455  1.00  0.00     0.208 A 
ATOM      3  C   UNL     1     171.920 172.817 150.376  1.00  0.00     0.238 A 
ATOM      4  O   UNL     1     171.825 171.695 150.937  1.00  0.00    -0.285 OA
ATOM      5  C   UNL     1     173.106 173.212 149.710  1.00  0.00     0.111 A 
ATOM      6  C   UNL     1     174.252 172.379 149.534  1.00  0.00     0.134 A 
ATOM      7  C   UNL     1     175.417 172.917 148.975  1.00  0.00     0.093 A 
ATOM      8  C   UNL     1     175.458 174.237 148.526  1.00  0.00     0.123 A 
ATOM      9  C   UNL     1     174.324 175.043 148.639  1.00  0.00     0.094 A 
ATOM     10  C   UNL     1     173.158 174.545 149.225  1.00  0.00     0.146 A 
ATOM     11  O   UNL     1     172.105 175.347 149.324  1.00  0.00    -0.452 OA
ENDROOT
BRANCH   1  12
ATOM     12  C   UNL     1     169.849 175.966 149.906  1.00  0.00     0.021 A 
ATOM     13  C   UNL     1     169.766 176.891 150.959  1.00  0.00     0.016 A 
ATOM     14  C   UNL     1     168.741 177.841 150.988  1.00  0.00     0.047 A 
ATOM     15  C   UNL     1     167.796 177.889 149.959  1.00  0.00     0.115 A 
ATOM     16  C   UNL     1     168.907 176.032 148.862  1.00  0.00     0.016 A 
ATOM     17  C   UNL     1     167.884 176.985 148.893  1.00  0.00     0.047 A 
BRANCH  15  18
ATOM     18  O   UNL     1     166.780 178.842 150.001  1.00  0.00    -0.508 OA
ATOM     19  H   UNL     1     166.615 179.402 150.829  1.00  0.00     0.293 HD
ENDBRANCH  15  18
ENDBRANCH   1  12
BRANCH   2  20
ATOM     20  O   UNL     1     169.665 173.344 151.127  1.00  0.00    -0.502 OA
ATOM     21  H   UNL     1     169.531 173.512 152.117  1.00  0.00     0.293 HD
ENDBRANCH   2  20
BRANCH   6  22
ATOM     22  O   UNL     1     174.287 171.021 149.863  1.00  0.00    -0.507 OA
ATOM     23  H   UNL     1     173.805 170.606 150.646  1.00  0.00     0.293 HD
ENDBRANCH   6  22
BRANCH   8  24
ATOM     24  O   UNL     1     176.630 174.734 147.959  1.00  0.00    -0.508 OA
ATOM     25  H   UNL     1     177.529 174.615 148.410  1.00  0.00     0.293 HD
ENDBRANCH   8  24
TORSDOF 5
ENDMDL
MODEL 8
REMARK VINA RESULT:    -4.199      4.340      7.143
REMARK INTER + INTRA:          -5.236
REMARK INTER:                  -4.948
REMARK INTRA:                  -0.288
REMARK UNBOUND:                -0.300
REMARK SMILES O=c1c(O)c(-c2ccc(O)cc2)oc2cc(O)cc(O)c12
REMARK SMILES IDX 5 1 3 2 2 3 1 4 21 5 19 6 18 7 16 8 15 9 14 10 13 11 6 12
REMARK SMILES IDX 7 13 8 14 9 15 12 16 11 17 10 18 4 20 20 22 17 24
REMARK H PARENT 10 19 4 21 20 23 17 25
REMARK Flexibility Score: inf
ROOT
ATOM      1  C   UNL     1     173.148 170.941 149.905  1.00  0.00     0.180 A 
ATOM      2  C   UNL     1     174.433 170.746 150.438  1.00  0.00     0.208 A 
ATOM      3  C   UNL     1     175.372 171.788 150.351  1.00  0.00     0.238 A 
ATOM      4  O   UNL     1     176.503 171.627 150.878  1.00  0.00    -0.285 OA
ATOM      5  C   UNL     1     175.018 173.004 149.718  1.00  0.00     0.111 A 
ATOM      6  C   UNL     1     175.902 174.111 149.538  1.00  0.00     0.134 A 
ATOM      7  C   UNL     1     175.406 175.311 149.015  1.00  0.00     0.093 A 
ATOM      8  C   UNL     1     174.079 175.425 148.605  1.00  0.00     0.123 A 
ATOM      9  C   UNL     1     173.221 174.330 148.722  1.00  0.00     0.094 A 
ATOM     10  C   UNL     1     173.677 173.130 149.273  1.00  0.00     0.146 A 
ATOM     11  O   UNL     1     172.826 172.117 149.376  1.00  0.00    -0.452 OA
ENDROOT
BRANCH   1  12
ATOM     12  C   UNL     1     172.113 169.882 149.936  1.00  0.00     0.021 A 
ATOM     13  C   UNL     1     172.071 168.925 148.909  1.00  0.00     0.016 A 
ATOM     14  C   UNL     1     171.116 167.904 148.932  1.00  0.00     0.047 A 
ATOM     15  C   UNL     1     170.203 167.817 149.987  1.00  0.00     0.115 A 
ATOM     16  C   UNL     1     171.205 169.778 151.006  1.00  0.00     0.016 A 
ATOM     17  C   UNL     1     170.252 168.754 151.026  1.00  0.00     0.047 A 
BRANCH  15  18
ATOM     18  O   UNL     1     169.257 166.794 149.996  1.00  0.00    -0.508 OA
ATOM     19  H   UNL     1     168.273 166.984 150.147  1.00  0.00     0.293 HD
ENDBRANCH  15  18
ENDBRANCH   1  12
BRANCH   2  20
ATOM     20  O   UNL     1     174.755 169.547 151.078  1.00  0.00    -0.502 OA
ATOM     21  H   UNL     1     174.419 168.648 150.751  1.00  0.00     0.293 HD
ENDBRANCH   2  20
BRANCH   6  22
ATOM     22  O   UNL     1     177.268 174.073 149.828  1.00  0.00    -0.507 OA
ATOM     23  H   UNL     1     177.661 173.779 150.710  1.00  0.00     0.293 HD
ENDBRANCH   6  22
BRANCH   8  24
ATOM     24  O   UNL     1     173.624 176.630 148.074  1.00  0.00    -0.508 OA
ATOM     25  H   UNL     1     172.890 177.165 148.524  1.00  0.00     0.293 HD
ENDBRANCH   8  24
TORSDOF 5
ENDMDL
MODEL 9
REMARK VINA RESULT:    -4.155      3.403      5.373
REMARK INTER + INTRA:          -5.184
REMARK INTER:                  -4.944
REMARK INTRA:                  -0.240
REMARK UNBOUND:                -0.300
REMARK SMILES O=c1c(O)c(-c2ccc(O)cc2)oc2cc(O)cc(O)c12
REMARK SMILES IDX 5 1 3 2 2 3 1 4 21 5 19 6 18 7 16 8 15 9 14 10 13 11 6 12
REMARK SMILES IDX 7 13 8 14 9 15 12 16 11 17 10 18 4 20 20 22 17 24
REMARK H PARENT 10 19 4 21 20 23 17 25
REMARK Flexibility Score: inf
ROOT
ATOM      1  C   UNL     1     172.780 171.511 149.426  1.00  0.00     0.180 A 
ATOM      2  C   UNL     1     173.789 172.226 148.758  1.00  0.00     0.208 A 
ATOM      3  C   UNL     1     173.783 173.630 148.818  1.00  0.00     0.238 A 
ATOM      4  O   UNL     1     174.720 174.262 148.264  1.00  0.00    -0.285 OA
ATOM      5  C   UNL     1     172.759 174.300 149.530  1.00  0.00     0.111 A 
ATOM      6  C   UNL     1     172.632 175.719 149.623  1.00  0.00     0.134 A 
ATOM      7  C   UNL     1     171.656 176.271 150.461  1.00  0.00     0.093 A 
ATOM      8  C   UNL     1     170.762 175.460 151.158  1.00  0.00     0.123 A 
ATOM      9  C   UNL     1     170.840 174.072 151.029  1.00  0.00     0.094 A 
ATOM     10  C   UNL     1     171.825 173.491 150.228  1.00  0.00     0.146 A 
ATOM     11  O   UNL     1     171.872 172.167 150.140  1.00  0.00    -0.452 OA
ENDROOT
BRANCH   1  12
ATOM     12  C   UNL     1     172.706 170.033 149.389  1.00  0.00     0.021 A 
ATOM     13  C   UNL     1     171.797 169.407 148.519  1.00  0.00     0.016 A 
ATOM     14  C   UNL     1     171.727 168.013 148.452  1.00  0.00     0.047 A 
ATOM     15  C   UNL     1     172.572 167.227 149.241  1.00  0.00     0.115 A 
ATOM     16  C   UNL     1     173.568 169.237 150.165  1.00  0.00     0.016 A 
ATOM     17  C   UNL     1     173.496 167.842 150.095  1.00  0.00     0.047 A 
BRANCH  15  18
ATOM     18  O   UNL     1     172.491 165.838 149.164  1.00  0.00    -0.508 OA
ATOM     19  H   UNL     1     171.669 165.338 149.480  1.00  0.00     0.293 HD
ENDBRANCH  15  18
ENDBRANCH   1  12
BRANCH   2  20
ATOM     20  O   UNL     1     174.803 171.545 148.081  1.00  0.00    -0.502 OA
ATOM     21  H   UNL     1     175.685 171.980 147.840  1.00  0.00     0.293 HD
ENDBRANCH   2  20
BRANCH   6  22
ATOM     22  O   UNL     1     173.414 176.621 148.896  1.00  0.00    -0.507 OA
ATOM     23  H   UNL     1     173.190 177.595 148.757  1.00  0.00     0.293 HD
ENDBRANCH   6  22
BRANCH   8  24
ATOM     24  O   UNL     1     169.793 176.044 151.971  1.00  0.00    -0.508 OA
ATOM     25  H   UNL     1     169.803 177.036 152.178  1.00  0.00     0.293 HD
ENDBRANCH   8  24
TORSDOF 5
ENDMDL
