MODEL 1
REMARK VINA RESULT:    -6.489      0.000      0.000
REMARK INTER + INTRA:          -8.135
REMARK INTER:                  -7.817
REMARK INTRA:                  -0.318
REMARK UNBOUND:                -0.318
REMARK SMILES O=c1c(O)c(-c2ccc(O)c(O)c2)oc2cc(O)cc(O)c12
REMARK SMILES IDX 5 1 3 2 2 3 1 4 22 5 20 6 19 7 17 8 16 9 15 10 14 11 6 12
REMARK SMILES IDX 7 13 8 14 9 15 13 16 11 17 10 18 12 20 4 22 21 24 18 26
REMARK H PARENT 10 19 12 21 4 23 21 25 18 27
REMARK Flexibility Score: inf
ROOT
ATOM      1  C   UNL     1      21.896  33.124   6.078  1.00  0.00     0.180 A 
ATOM      2  C   UNL     1      22.327  32.787   7.373  1.00  0.00     0.208 A 
ATOM      3  C   UNL     1      22.926  31.535   7.587  1.00  0.00     0.238 A 
ATOM      4  O   UNL     1      23.260  31.217   8.757  1.00  0.00    -0.285 OA
ATOM      5  C   UNL     1      23.100  30.642   6.501  1.00  0.00     0.111 A 
ATOM      6  C   UNL     1      23.729  29.364   6.595  1.00  0.00     0.134 A 
ATOM      7  C   UNL     1      23.729  28.510   5.485  1.00  0.00     0.093 A 
ATOM      8  C   UNL     1      23.181  28.913   4.268  1.00  0.00     0.123 A 
ATOM      9  C   UNL     1      22.616  30.183   4.148  1.00  0.00     0.094 A 
ATOM     10  C   UNL     1      22.568  31.043   5.248  1.00  0.00     0.146 A 
ATOM     11  O   UNL     1      22.013  32.239   5.094  1.00  0.00    -0.452 OA
ENDROOT
BRANCH   1  12
ATOM     12  C   UNL     1      21.279  34.434   5.769  1.00  0.00     0.025 A 
ATOM     13  C   UNL     1      22.041  35.499   5.259  1.00  0.00     0.016 A 
ATOM     14  C   UNL     1      21.434  36.719   4.951  1.00  0.00     0.051 A 
ATOM     15  C   UNL     1      20.059  36.891   5.136  1.00  0.00     0.157 A 
ATOM     16  C   UNL     1      19.895  34.603   5.934  1.00  0.00     0.062 A 
ATOM     17  C   UNL     1      19.283  35.828   5.627  1.00  0.00     0.158 A 
BRANCH  15  18
ATOM     18  O   UNL     1      19.481  38.121   4.823  1.00  0.00    -0.504 OA
ATOM     19  H   UNL     1      19.592  38.934   5.417  1.00  0.00     0.293 HD
ENDBRANCH  15  18
BRANCH  17  20
ATOM     20  O   UNL     1      17.910  35.989   5.808  1.00  0.00    -0.504 OA
ATOM     21  H   UNL     1      17.487  35.957   6.727  1.00  0.00     0.293 HD
ENDBRANCH  17  20
ENDBRANCH   1  12
BRANCH   2  22
ATOM     22  O   UNL     1      22.127  33.674   8.434  1.00  0.00    -0.502 OA
ATOM     23  H   UNL     1      21.973  33.360   9.384  1.00  0.00     0.293 HD
ENDBRANCH   2  22
BRANCH   6  24
ATOM     24  O   UNL     1      24.387  28.901   7.739  1.00  0.00    -0.507 OA
ATOM     25  H   UNL     1      25.388  28.820   7.833  1.00  0.00     0.293 HD
ENDBRANCH   6  24
BRANCH   8  26
ATOM     26  O   UNL     1      23.213  28.043   3.180  1.00  0.00    -0.508 OA
ATOM     27  H   UNL     1      22.499  27.335   3.048  1.00  0.00     0.293 HD
ENDBRANCH   8  26
TORSDOF 6
ENDMDL
MODEL 2
REMARK VINA RESULT:    -6.084      1.353      2.847
REMARK INTER + INTRA:          -7.647
REMARK INTER:                  -7.392
REMARK INTRA:                  -0.255
REMARK UNBOUND:                -0.318
REMARK SMILES O=c1c(O)c(-c2ccc(O)c(O)c2)oc2cc(O)cc(O)c12
REMARK SMILES IDX 5 1 3 2 2 3 1 4 22 5 20 6 19 7 17 8 16 9 15 10 14 11 6 12
REMARK SMILES IDX 7 13 8 14 9 15 13 16 11 17 10 18 12 20 4 22 21 24 18 26
REMARK H PARENT 10 19 12 21 4 23 21 25 18 27
REMARK Flexibility Score: inf
ROOT
ATOM      1  C   UNL     1      22.222  32.684   5.379  1.00  0.00     0.180 A 
ATOM      2  C   UNL     1      21.921  31.741   4.381  1.00  0.00     0.208 A 
ATOM      3  C   UNL     1      22.512  30.468   4.446  1.00  0.00     0.238 A 
ATOM      4  O   UNL     1      22.282  29.648   3.521  1.00  0.00    -0.285 OA
ATOM      5  C   UNL     1      23.383  30.149   5.516  1.00  0.00     0.111 A 
ATOM      6  C   UNL     1      24.005  28.879   5.704  1.00  0.00     0.134 A 
ATOM      7  C   UNL     1      24.950  28.716   6.724  1.00  0.00     0.093 A 
ATOM      8  C   UNL     1      25.246  29.756   7.604  1.00  0.00     0.123 A 
ATOM      9  C   UNL     1      24.600  30.986   7.467  1.00  0.00     0.094 A 
ATOM     10  C   UNL     1      23.679  31.189   6.435  1.00  0.00     0.146 A 
ATOM     11  O   UNL     1      23.093  32.376   6.334  1.00  0.00    -0.452 OA
ENDROOT
BRANCH   1  12
ATOM     12  C   UNL     1      21.619  34.036   5.393  1.00  0.00     0.025 A 
ATOM     13  C   UNL     1      22.353  35.169   5.000  1.00  0.00     0.016 A 
ATOM     14  C   UNL     1      21.756  36.432   4.998  1.00  0.00     0.051 A 
ATOM     15  C   UNL     1      20.418  36.583   5.374  1.00  0.00     0.157 A 
ATOM     16  C   UNL     1      20.269  34.188   5.750  1.00  0.00     0.062 A 
ATOM     17  C   UNL     1      19.668  35.455   5.750  1.00  0.00     0.158 A 
BRANCH  15  18
ATOM     18  O   UNL     1      19.850  37.856   5.364  1.00  0.00    -0.504 OA
ATOM     19  H   UNL     1      20.108  38.566   6.040  1.00  0.00     0.293 HD
ENDBRANCH  15  18
BRANCH  17  20
ATOM     20  O   UNL     1      18.331  35.597   6.119  1.00  0.00    -0.504 OA
ATOM     21  H   UNL     1      17.604  35.752   5.432  1.00  0.00     0.293 HD
ENDBRANCH  17  20
ENDBRANCH   1  12
BRANCH   2  22
ATOM     22  O   UNL     1      21.076  32.084   3.322  1.00  0.00    -0.502 OA
ATOM     23  H   UNL     1      20.134  32.424   3.466  1.00  0.00     0.293 HD
ENDBRANCH   2  22
BRANCH   6  24
ATOM     24  O   UNL     1      23.712  27.746   4.938  1.00  0.00    -0.507 OA
ATOM     25  H   UNL     1      22.781  27.418   4.729  1.00  0.00     0.293 HD
ENDBRANCH   6  24
BRANCH   8  26
ATOM     26  O   UNL     1      26.180  29.554   8.617  1.00  0.00    -0.508 OA
ATOM     27  H   UNL     1      26.138  28.741   9.222  1.00  0.00     0.293 HD
ENDBRANCH   8  26
TORSDOF 6
ENDMDL
MODEL 3
REMARK VINA RESULT:    -6.038      0.599      1.440
REMARK INTER + INTRA:          -7.592
REMARK INTER:                  -7.269
REMARK INTRA:                  -0.323
REMARK UNBOUND:                -0.318
REMARK SMILES O=c1c(O)c(-c2ccc(O)c(O)c2)oc2cc(O)cc(O)c12
REMARK SMILES IDX 5 1 3 2 2 3 1 4 22 5 20 6 19 7 17 8 16 9 15 10 14 11 6 12
REMARK SMILES IDX 7 13 8 14 9 15 13 16 11 17 10 18 12 20 4 22 21 24 18 26
REMARK H PARENT 10 19 12 21 4 23 21 25 18 27
REMARK Flexibility Score: inf
ROOT
ATOM      1  C   UNL     1      21.730  33.168   6.043  1.00  0.00     0.180 A 
ATOM      2  C   UNL     1      22.157  32.856   7.345  1.00  0.00     0.208 A 
ATOM      3  C   UNL     1      22.808  31.633   7.574  1.00  0.00     0.238 A 
ATOM      4  O   UNL     1      23.138  31.335   8.751  1.00  0.00    -0.285 OA
ATOM      5  C   UNL     1      23.038  30.744   6.496  1.00  0.00     0.111 A 
ATOM      6  C   UNL     1      23.722  29.496   6.605  1.00  0.00     0.134 A 
ATOM      7  C   UNL     1      23.777  28.639   5.500  1.00  0.00     0.093 A 
ATOM      8  C   UNL     1      23.231  29.011   4.272  1.00  0.00     0.123 A 
ATOM      9  C   UNL     1      22.611  30.254   4.137  1.00  0.00     0.094 A 
ATOM     10  C   UNL     1      22.508  31.116   5.233  1.00  0.00     0.146 A 
ATOM     11  O   UNL     1      21.903  32.285   5.065  1.00  0.00    -0.452 OA
ENDROOT
BRANCH   1  12
ATOM     12  C   UNL     1      21.061  34.448   5.718  1.00  0.00     0.025 A 
ATOM     13  C   UNL     1      19.663  34.579   5.780  1.00  0.00     0.016 A 
ATOM     14  C   UNL     1      19.055  35.804   5.493  1.00  0.00     0.051 A 
ATOM     15  C   UNL     1      19.830  36.916   5.153  1.00  0.00     0.157 A 
ATOM     16  C   UNL     1      21.839  35.573   5.397  1.00  0.00     0.062 A 
ATOM     17  C   UNL     1      21.230  36.803   5.107  1.00  0.00     0.158 A 
BRANCH  15  18
ATOM     18  O   UNL     1      19.195  38.125   4.870  1.00  0.00    -0.504 OA
ATOM     19  H   UNL     1      18.499  38.209   4.137  1.00  0.00     0.293 HD
ENDBRANCH  15  18
BRANCH  17  20
ATOM     20  O   UNL     1      22.010  37.910   4.777  1.00  0.00    -0.504 OA
ATOM     21  H   UNL     1      22.953  37.808   4.420  1.00  0.00     0.293 HD
ENDBRANCH  17  20
ENDBRANCH   1  12
BRANCH   2  22
ATOM     22  O   UNL     1      21.900  33.738   8.399  1.00  0.00    -0.502 OA
ATOM     23  H   UNL     1      22.253  33.583   9.335  1.00  0.00     0.293 HD
ENDBRANCH   2  22
BRANCH   6  24
ATOM     24  O   UNL     1      24.383  29.068   7.761  1.00  0.00    -0.507 OA
ATOM     25  H   UNL     1      23.954  28.543   8.508  1.00  0.00     0.293 HD
ENDBRANCH   6  24
BRANCH   8  26
ATOM     26  O   UNL     1      23.318  28.139   3.189  1.00  0.00    -0.508 OA
ATOM     27  H   UNL     1      23.290  27.134   3.316  1.00  0.00     0.293 HD
ENDBRANCH   8  26
TORSDOF 6
ENDMDL
MODEL 4
REMARK VINA RESULT:    -5.946      1.123      1.278
REMARK INTER + INTRA:          -7.480
REMARK INTER:                  -7.189
REMARK INTRA:                  -0.291
REMARK UNBOUND:                -0.318
REMARK SMILES O=c1c(O)c(-c2ccc(O)c(O)c2)oc2cc(O)cc(O)c12
REMARK SMILES IDX 5 1 3 2 2 3 1 4 22 5 20 6 19 7 17 8 16 9 15 10 14 11 6 12
REMARK SMILES IDX 7 13 8 14 9 15 13 16 11 17 10 18 12 20 4 22 21 24 18 26
REMARK H PARENT 10 19 12 21 4 23 21 25 18 27
REMARK Flexibility Score: inf
ROOT
ATOM      1  C   UNL     1      22.272  32.512   6.654  1.00  0.00     0.180 A 
ATOM      2  C   UNL     1      23.105  32.491   7.785  1.00  0.00     0.208 A 
ATOM      3  C   UNL     1      23.950  31.388   7.989  1.00  0.00     0.238 A 
ATOM      4  O   UNL     1      24.653  31.349   9.032  1.00  0.00    -0.285 OA
ATOM      5  C   UNL     1      23.962  30.327   7.051  1.00  0.00     0.111 A 
ATOM      6  C   UNL     1      24.807  29.179   7.136  1.00  0.00     0.134 A 
ATOM      7  C   UNL     1      24.642  28.131   6.223  1.00  0.00     0.093 A 
ATOM      8  C   UNL     1      23.710  28.216   5.190  1.00  0.00     0.123 A 
ATOM      9  C   UNL     1      22.919  29.359   5.061  1.00  0.00     0.094 A 
ATOM     10  C   UNL     1      23.036  30.406   5.979  1.00  0.00     0.146 A 
ATOM     11  O   UNL     1      22.259  31.471   5.827  1.00  0.00    -0.452 OA
ENDROOT
BRANCH   1  12
ATOM     12  C   UNL     1      21.373  33.651   6.358  1.00  0.00     0.025 A 
ATOM     13  C   UNL     1      21.708  34.615   5.392  1.00  0.00     0.016 A 
ATOM     14  C   UNL     1      20.833  35.668   5.112  1.00  0.00     0.051 A 
ATOM     15  C   UNL     1      19.609  35.767   5.779  1.00  0.00     0.157 A 
ATOM     16  C   UNL     1      20.133  33.741   7.012  1.00  0.00     0.062 A 
ATOM     17  C   UNL     1      19.254  34.798   6.733  1.00  0.00     0.158 A 
BRANCH  15  18
ATOM     18  O   UNL     1      18.758  36.831   5.480  1.00  0.00    -0.504 OA
ATOM     19  H   UNL     1      19.003  37.791   5.688  1.00  0.00     0.293 HD
ENDBRANCH  15  18
BRANCH  17  20
ATOM     20  O   UNL     1      18.032  34.886   7.397  1.00  0.00    -0.504 OA
ATOM     21  H   UNL     1      17.871  34.415   8.280  1.00  0.00     0.293 HD
ENDBRANCH  17  20
ENDBRANCH   1  12
BRANCH   2  22
ATOM     22  O   UNL     1      23.061  33.538   8.710  1.00  0.00    -0.502 OA
ATOM     23  H   UNL     1      22.217  34.065   8.895  1.00  0.00     0.293 HD
ENDBRANCH   2  22
BRANCH   6  24
ATOM     24  O   UNL     1      25.833  29.034   8.075  1.00  0.00    -0.507 OA
ATOM     25  H   UNL     1      26.618  29.660   8.170  1.00  0.00     0.293 HD
ENDBRANCH   6  24
BRANCH   8  26
ATOM     26  O   UNL     1      23.583  27.160   4.290  1.00  0.00    -0.508 OA
ATOM     27  H   UNL     1      24.255  26.401   4.267  1.00  0.00     0.293 HD
ENDBRANCH   8  26
TORSDOF 6
ENDMDL
MODEL 5
REMARK VINA RESULT:    -5.910      2.226      3.489
REMARK INTER + INTRA:          -7.438
REMARK INTER:                  -7.186
REMARK INTRA:                  -0.252
REMARK UNBOUND:                -0.318
REMARK SMILES O=c1c(O)c(-c2ccc(O)c(O)c2)oc2cc(O)cc(O)c12
REMARK SMILES IDX 5 1 3 2 2 3 1 4 22 5 20 6 19 7 17 8 16 9 15 10 14 11 6 12
REMARK SMILES IDX 7 13 8 14 9 15 13 16 11 17 10 18 12 20 4 22 21 24 18 26
REMARK H PARENT 10 19 12 21 4 23 21 25 18 27
REMARK Flexibility Score: inf
ROOT
ATOM      1  C   UNL     1      22.308  33.108   6.049  1.00  0.00     0.180 A 
ATOM      2  C   UNL     1      22.740  33.065   4.712  1.00  0.00     0.208 A 
ATOM      3  C   UNL     1      23.806  32.218   4.368  1.00  0.00     0.238 A 
ATOM      4  O   UNL     1      24.224  32.224   3.181  1.00  0.00    -0.285 OA
ATOM      5  C   UNL     1      24.417  31.414   5.361  1.00  0.00     0.111 A 
ATOM      6  C   UNL     1      25.478  30.490   5.117  1.00  0.00     0.134 A 
ATOM      7  C   UNL     1      26.093  29.844   6.197  1.00  0.00     0.093 A 
ATOM      8  C   UNL     1      25.643  30.037   7.503  1.00  0.00     0.123 A 
ATOM      9  C   UNL     1      24.568  30.892   7.746  1.00  0.00     0.094 A 
ATOM     10  C   UNL     1      23.958  31.580   6.693  1.00  0.00     0.146 A 
ATOM     11  O   UNL     1      22.944  32.391   6.969  1.00  0.00    -0.452 OA
ENDROOT
BRANCH   1  12
ATOM     12  C   UNL     1      21.175  33.956   6.484  1.00  0.00     0.025 A 
ATOM     13  C   UNL     1      19.851  33.645   6.130  1.00  0.00     0.016 A 
ATOM     14  C   UNL     1      18.795  34.447   6.573  1.00  0.00     0.051 A 
ATOM     15  C   UNL     1      19.042  35.558   7.382  1.00  0.00     0.157 A 
ATOM     16  C   UNL     1      21.418  35.062   7.315  1.00  0.00     0.062 A 
ATOM     17  C   UNL     1      20.359  35.868   7.759  1.00  0.00     0.158 A 
BRANCH  15  18
ATOM     18  O   UNL     1      17.968  36.341   7.806  1.00  0.00    -0.504 OA
ATOM     19  H   UNL     1      17.823  36.572   8.782  1.00  0.00     0.293 HD
ENDBRANCH  15  18
BRANCH  17  20
ATOM     20  O   UNL     1      20.613  36.972   8.572  1.00  0.00    -0.504 OA
ATOM     21  H   UNL     1      21.378  36.978   9.235  1.00  0.00     0.293 HD
ENDBRANCH  17  20
ENDBRANCH   1  12
BRANCH   2  22
ATOM     22  O   UNL     1      22.138  33.883   3.752  1.00  0.00    -0.502 OA
ATOM     23  H   UNL     1      22.478  33.944   2.800  1.00  0.00     0.293 HD
ENDBRANCH   2  22
BRANCH   6  24
ATOM     24  O   UNL     1      25.942  30.155   3.842  1.00  0.00    -0.507 OA
ATOM     25  H   UNL     1      26.682  29.495   3.654  1.00  0.00     0.293 HD
ENDBRANCH   6  24
BRANCH   8  26
ATOM     26  O   UNL     1      26.269  29.366   8.550  1.00  0.00    -0.508 OA
ATOM     27  H   UNL     1      26.105  29.623   9.517  1.00  0.00     0.293 HD
ENDBRANCH   8  26
TORSDOF 6
ENDMDL
MODEL 6
REMARK VINA RESULT:    -5.848      1.812      7.217
REMARK INTER + INTRA:          -7.362
REMARK INTER:                  -7.089
REMARK INTRA:                  -0.273
REMARK UNBOUND:                -0.318
REMARK SMILES O=c1c(O)c(-c2ccc(O)c(O)c2)oc2cc(O)cc(O)c12
REMARK SMILES IDX 5 1 3 2 2 3 1 4 22 5 20 6 19 7 17 8 16 9 15 10 14 11 6 12
REMARK SMILES IDX 7 13 8 14 9 15 13 16 11 17 10 18 12 20 4 22 21 24 18 26
REMARK H PARENT 10 19 12 21 4 23 21 25 18 27
REMARK Flexibility Score: inf
ROOT
ATOM      1  C   UNL     1      22.309  32.868   6.424  1.00  0.00     0.180 A 
ATOM      2  C   UNL     1      22.568  33.816   5.420  1.00  0.00     0.208 A 
ATOM      3  C   UNL     1      21.837  35.016   5.412  1.00  0.00     0.238 A 
ATOM      4  O   UNL     1      22.034  35.837   4.479  1.00  0.00    -0.285 OA
ATOM      5  C   UNL     1      20.869  35.258   6.417  1.00  0.00     0.111 A 
ATOM      6  C   UNL     1      20.099  36.455   6.529  1.00  0.00     0.134 A 
ATOM      7  C   UNL     1      19.078  36.533   7.484  1.00  0.00     0.093 A 
ATOM      8  C   UNL     1      18.843  35.485   8.374  1.00  0.00     0.123 A 
ATOM      9  C   UNL     1      19.629  34.333   8.312  1.00  0.00     0.094 A 
ATOM     10  C   UNL     1      20.631  34.212   7.345  1.00  0.00     0.146 A 
ATOM     11  O   UNL     1      21.350  33.096   7.314  1.00  0.00    -0.452 OA
ENDROOT
BRANCH   1  12
ATOM     12  C   UNL     1      23.056  31.592   6.514  1.00  0.00     0.025 A 
ATOM     13  C   UNL     1      22.786  30.523   5.642  1.00  0.00     0.016 A 
ATOM     14  C   UNL     1      23.520  29.337   5.729  1.00  0.00     0.051 A 
ATOM     15  C   UNL     1      24.539  29.204   6.676  1.00  0.00     0.157 A 
ATOM     16  C   UNL     1      24.095  31.463   7.450  1.00  0.00     0.062 A 
ATOM     17  C   UNL     1      24.832  30.273   7.540  1.00  0.00     0.158 A 
BRANCH  15  18
ATOM     18  O   UNL     1      25.253  28.008   6.741  1.00  0.00    -0.504 OA
ATOM     19  H   UNL     1      26.245  27.962   6.542  1.00  0.00     0.293 HD
ENDBRANCH  15  18
BRANCH  17  20
ATOM     20  O   UNL     1      25.852  30.151   8.483  1.00  0.00    -0.504 OA
ATOM     21  H   UNL     1      26.396  30.950   8.783  1.00  0.00     0.293 HD
ENDBRANCH  17  20
ENDBRANCH   1  12
BRANCH   2  22
ATOM     22  O   UNL     1      23.512  33.548   4.425  1.00  0.00    -0.502 OA
ATOM     23  H   UNL     1      23.393  32.804   3.749  1.00  0.00     0.293 HD
ENDBRANCH   2  22
BRANCH   6  24
ATOM     24  O   UNL     1      20.314  37.596   5.750  1.00  0.00    -0.507 OA
ATOM     25  H   UNL     1      20.156  37.652   4.756  1.00  0.00     0.293 HD
ENDBRANCH   6  24
BRANCH   8  26
ATOM     26  O   UNL     1      17.829  35.603   9.321  1.00  0.00    -0.508 OA
ATOM     27  H   UNL     1      17.003  35.015   9.289  1.00  0.00     0.293 HD
ENDBRANCH   8  26
TORSDOF 6
ENDMDL
MODEL 7
REMARK VINA RESULT:    -5.544      2.125      7.152
REMARK INTER + INTRA:          -6.996
REMARK INTER:                  -6.945
REMARK INTRA:                  -0.051
REMARK UNBOUND:                -0.318
REMARK SMILES O=c1c(O)c(-c2ccc(O)c(O)c2)oc2cc(O)cc(O)c12
REMARK SMILES IDX 5 1 3 2 2 3 1 4 22 5 20 6 19 7 17 8 16 9 15 10 14 11 6 12
REMARK SMILES IDX 7 13 8 14 9 15 13 16 11 17 10 18 12 20 4 22 21 24 18 26
REMARK H PARENT 10 19 12 21 4 23 21 25 18 27
REMARK Flexibility Score: inf
ROOT
ATOM      1  C   UNL     1      23.036  31.924   6.202  1.00  0.00     0.180 A 
ATOM      2  C   UNL     1      22.023  31.755   5.243  1.00  0.00     0.208 A 
ATOM      3  C   UNL     1      20.886  32.579   5.301  1.00  0.00     0.238 A 
ATOM      4  O   UNL     1      19.958  32.387   4.474  1.00  0.00    -0.285 OA
ATOM      5  C   UNL     1      20.785  33.570   6.307  1.00  0.00     0.111 A 
ATOM      6  C   UNL     1      19.698  34.486   6.437  1.00  0.00     0.134 A 
ATOM      7  C   UNL     1      19.641  35.338   7.547  1.00  0.00     0.093 A 
ATOM      8  C   UNL     1      20.662  35.353   8.496  1.00  0.00     0.123 A 
ATOM      9  C   UNL     1      21.759  34.503   8.349  1.00  0.00     0.094 A 
ATOM     10  C   UNL     1      21.827  33.616   7.270  1.00  0.00     0.146 A 
ATOM     11  O   UNL     1      22.882  32.818   7.172  1.00  0.00    -0.452 OA
ENDROOT
BRANCH   1  12
ATOM     12  C   UNL     1      24.275  31.112   6.190  1.00  0.00     0.025 A 
ATOM     13  C   UNL     1      25.065  30.999   5.033  1.00  0.00     0.016 A 
ATOM     14  C   UNL     1      26.243  30.247   5.053  1.00  0.00     0.051 A 
ATOM     15  C   UNL     1      26.655  29.609   6.226  1.00  0.00     0.157 A 
ATOM     16  C   UNL     1      24.702  30.486   7.373  1.00  0.00     0.062 A 
ATOM     17  C   UNL     1      25.883  29.730   7.393  1.00  0.00     0.158 A 
BRANCH  15  18
ATOM     18  O   UNL     1      27.833  28.863   6.214  1.00  0.00    -0.504 OA
ATOM     19  H   UNL     1      27.838  27.867   6.029  1.00  0.00     0.293 HD
ENDBRANCH  15  18
BRANCH  17  20
ATOM     20  O   UNL     1      26.292  29.101   8.569  1.00  0.00    -0.504 OA
ATOM     21  H   UNL     1      27.200  28.662   8.649  1.00  0.00     0.293 HD
ENDBRANCH  17  20
ENDBRANCH   1  12
BRANCH   2  22
ATOM     22  O   UNL     1      22.132  30.756   4.272  1.00  0.00    -0.502 OA
ATOM     23  H   UNL     1      22.612  29.881   4.443  1.00  0.00     0.293 HD
ENDBRANCH   2  22
BRANCH   6  24
ATOM     24  O   UNL     1      18.672  34.617   5.496  1.00  0.00    -0.507 OA
ATOM     25  H   UNL     1      18.509  35.438   4.933  1.00  0.00     0.293 HD
ENDBRANCH   6  24
BRANCH   8  26
ATOM     26  O   UNL     1      20.579  36.224   9.580  1.00  0.00    -0.508 OA
ATOM     27  H   UNL     1      19.925  37.000   9.587  1.00  0.00     0.293 HD
ENDBRANCH   8  26
TORSDOF 6
ENDMDL
MODEL 8
REMARK VINA RESULT:    -5.407      2.117      3.796
REMARK INTER + INTRA:          -6.831
REMARK INTER:                  -6.545
REMARK INTRA:                  -0.286
REMARK UNBOUND:                -0.318
REMARK SMILES O=c1c(O)c(-c2ccc(O)c(O)c2)oc2cc(O)cc(O)c12
REMARK SMILES IDX 5 1 3 2 2 3 1 4 22 5 20 6 19 7 17 8 16 9 15 10 14 11 6 12
REMARK SMILES IDX 7 13 8 14 9 15 13 16 11 17 10 18 12 20 4 22 21 24 18 26
REMARK H PARENT 10 19 12 21 4 23 21 25 18 27
REMARK Flexibility Score: inf
ROOT
ATOM      1  C   UNL     1      23.308  31.059   5.995  1.00  0.00     0.180 A 
ATOM      2  C   UNL     1      22.908  29.998   5.166  1.00  0.00     0.208 A 
ATOM      3  C   UNL     1      23.615  28.786   5.222  1.00  0.00     0.238 A 
ATOM      4  O   UNL     1      23.287  27.858   4.438  1.00  0.00    -0.285 OA
ATOM      5  C   UNL     1      24.702  28.645   6.118  1.00  0.00     0.111 A 
ATOM      6  C   UNL     1      25.464  27.449   6.287  1.00  0.00     0.134 A 
ATOM      7  C   UNL     1      26.600  27.464   7.106  1.00  0.00     0.093 A 
ATOM      8  C   UNL     1      26.963  28.610   7.813  1.00  0.00     0.123 A 
ATOM      9  C   UNL     1      26.192  29.767   7.701  1.00  0.00     0.094 A 
ATOM     10  C   UNL     1      25.074  29.794   6.863  1.00  0.00     0.146 A 
ATOM     11  O   UNL     1      24.373  30.918   6.778  1.00  0.00    -0.452 OA
ENDROOT
BRANCH   1  12
ATOM     12  C   UNL     1      22.597  32.358   6.011  1.00  0.00     0.025 A 
ATOM     13  C   UNL     1      22.809  33.321   5.009  1.00  0.00     0.016 A 
ATOM     14  C   UNL     1      22.108  34.530   5.032  1.00  0.00     0.051 A 
ATOM     15  C   UNL     1      21.180  34.791   6.043  1.00  0.00     0.157 A 
ATOM     16  C   UNL     1      21.648  32.615   7.015  1.00  0.00     0.062 A 
ATOM     17  C   UNL     1      20.945  33.829   7.039  1.00  0.00     0.158 A 
BRANCH  15  18
ATOM     18  O   UNL     1      20.498  36.007   6.040  1.00  0.00    -0.504 OA
ATOM     19  H   UNL     1      19.488  36.058   5.984  1.00  0.00     0.293 HD
ENDBRANCH  15  18
BRANCH  17  20
ATOM     20  O   UNL     1      20.015  34.079   8.048  1.00  0.00    -0.504 OA
ATOM     21  H   UNL     1      19.047  33.797   7.959  1.00  0.00     0.293 HD
ENDBRANCH  17  20
ENDBRANCH   1  12
BRANCH   2  22
ATOM     22  O   UNL     1      21.845  30.165   4.273  1.00  0.00    -0.502 OA
ATOM     23  H   UNL     1      21.349  31.042   4.176  1.00  0.00     0.293 HD
ENDBRANCH   2  22
BRANCH   6  24
ATOM     24  O   UNL     1      25.134  26.225   5.699  1.00  0.00    -0.507 OA
ATOM     25  H   UNL     1      24.646  26.121   4.822  1.00  0.00     0.293 HD
ENDBRANCH   6  24
BRANCH   8  26
ATOM     26  O   UNL     1      28.090  28.583   8.630  1.00  0.00    -0.508 OA
ATOM     27  H   UNL     1      28.805  29.300   8.570  1.00  0.00     0.293 HD
ENDBRANCH   8  26
TORSDOF 6
ENDMDL
MODEL 9
REMARK VINA RESULT:    -5.168      1.778      6.735
REMARK INTER + INTRA:          -6.544
REMARK INTER:                  -6.214
REMARK INTRA:                  -0.330
REMARK UNBOUND:                -0.318
REMARK SMILES O=c1c(O)c(-c2ccc(O)c(O)c2)oc2cc(O)cc(O)c12
REMARK SMILES IDX 5 1 3 2 2 3 1 4 22 5 20 6 19 7 17 8 16 9 15 10 14 11 6 12
REMARK SMILES IDX 7 13 8 14 9 15 13 16 11 17 10 18 12 20 4 22 21 24 18 26
REMARK H PARENT 10 19 12 21 4 23 21 25 18 27
REMARK Flexibility Score: inf
ROOT
ATOM      1  C   UNL     1      22.747  32.256   5.872  1.00  0.00     0.180 A 
ATOM      2  C   UNL     1      22.350  32.080   7.209  1.00  0.00     0.208 A 
ATOM      3  C   UNL     1      21.679  33.125   7.864  1.00  0.00     0.238 A 
ATOM      4  O   UNL     1      21.375  32.982   9.076  1.00  0.00    -0.285 OA
ATOM      5  C   UNL     1      21.400  34.328   7.170  1.00  0.00     0.111 A 
ATOM      6  C   UNL     1      20.692  35.437   7.723  1.00  0.00     0.134 A 
ATOM      7  C   UNL     1      20.588  36.625   6.989  1.00  0.00     0.093 A 
ATOM      8  C   UNL     1      21.107  36.723   5.699  1.00  0.00     0.123 A 
ATOM      9  C   UNL     1      21.751  35.625   5.126  1.00  0.00     0.094 A 
ATOM     10  C   UNL     1      21.902  34.437   5.848  1.00  0.00     0.146 A 
ATOM     11  O   UNL     1      22.529  33.420   5.269  1.00  0.00    -0.452 OA
ENDROOT
BRANCH   1  12
ATOM     12  C   UNL     1      23.435  31.191   5.107  1.00  0.00     0.025 A 
ATOM     13  C   UNL     1      22.715  30.256   4.344  1.00  0.00     0.016 A 
ATOM     14  C   UNL     1      23.387  29.275   3.611  1.00  0.00     0.051 A 
ATOM     15  C   UNL     1      24.783  29.220   3.617  1.00  0.00     0.157 A 
ATOM     16  C   UNL     1      24.839  31.146   5.095  1.00  0.00     0.062 A 
ATOM     17  C   UNL     1      25.515  30.161   4.360  1.00  0.00     0.158 A 
BRANCH  15  18
ATOM     18  O   UNL     1      25.426  28.228   2.877  1.00  0.00    -0.504 OA
ATOM     19  H   UNL     1      25.096  27.270   2.861  1.00  0.00     0.293 HD
ENDBRANCH  15  18
BRANCH  17  20
ATOM     20  O   UNL     1      26.909  30.117   4.365  1.00  0.00    -0.504 OA
ATOM     21  H   UNL     1      27.425  29.556   3.698  1.00  0.00     0.293 HD
ENDBRANCH  17  20
ENDBRANCH   1  12
BRANCH   2  22
ATOM     22  O   UNL     1      22.655  30.893   7.882  1.00  0.00    -0.502 OA
ATOM     23  H   UNL     1      23.365  30.843   8.601  1.00  0.00     0.293 HD
ENDBRANCH   2  22
BRANCH   6  24
ATOM     24  O   UNL     1      20.054  35.413   8.967  1.00  0.00    -0.507 OA
ATOM     25  H   UNL     1      19.054  35.425   9.101  1.00  0.00     0.293 HD
ENDBRANCH   6  24
BRANCH   8  26
ATOM     26  O   UNL     1      20.972  37.915   4.993  1.00  0.00    -0.508 OA
ATOM     27  H   UNL     1      20.103  38.439   4.999  1.00  0.00     0.293 HD
ENDBRANCH   8  26
TORSDOF 6
ENDMDL
