MODEL 1
REMARK VINA RESULT:    -7.304      0.000      0.000
REMARK INTER + INTRA:          -9.082
REMARK INTER:                  -8.799
REMARK INTRA:                  -0.283
REMARK UNBOUND:                -0.283
REMARK SMILES Oc1cc(O)c2cc(O)c(-c3ccc(O)c(O)c3)[o+]c2c1
REMARK SMILES IDX 10 1 19 2 20 3 21 4 2 5 3 6 4 7 6 8 7 9 8 10 11 11 12 12
REMARK SMILES IDX 13 13 14 14 18 15 16 16 15 17 17 19 9 21 1 23 5 25
REMARK H PARENT 15 18 17 20 9 22 1 24 5 26
REMARK Flexibility Score: inf
ROOT
ATOM      1  C   UNL     1     -20.557  54.883  -1.032  1.00  0.00     0.402 A 
ATOM      2  O   UNL     1     -19.970  55.876  -0.368  1.00  0.00    -0.202 OA
ATOM      3  C   UNL     1     -18.663  55.925  -0.133  1.00  0.00     0.368 A 
ATOM      4  C   UNL     1     -18.140  57.011   0.573  1.00  0.00     0.162 A 
ATOM      5  C   UNL     1     -16.771  57.091   0.830  1.00  0.00     0.128 A 
ATOM      6  C   UNL     1     -15.917  56.079   0.379  1.00  0.00     0.093 A 
ATOM      7  C   UNL     1     -16.417  54.979  -0.331  1.00  0.00     0.136 A 
ATOM      8  C   UNL     1     -17.809  54.894  -0.592  1.00  0.00     0.125 A 
ATOM      9  C   UNL     1     -18.401  53.824  -1.284  1.00  0.00     0.078 A 
ATOM     10  C   UNL     1     -19.782  53.807  -1.500  1.00  0.00     0.223 A 
ENDROOT
BRANCH   1  11
ATOM     11  C   UNL     1     -22.022  54.948  -1.238  1.00  0.00     0.087 A 
ATOM     12  C   UNL     1     -22.574  55.195  -2.507  1.00  0.00     0.022 A 
ATOM     13  C   UNL     1     -23.959  55.274  -2.672  1.00  0.00     0.051 A 
ATOM     14  C   UNL     1     -24.812  55.122  -1.571  1.00  0.00     0.157 A 
ATOM     15  C   UNL     1     -22.881  54.816  -0.134  1.00  0.00     0.068 A 
ATOM     16  C   UNL     1     -24.269  54.894  -0.295  1.00  0.00     0.158 A 
BRANCH  14  17
ATOM     17  O   UNL     1     -26.194  55.199  -1.739  1.00  0.00    -0.504 OA
ATOM     18  H   UNL     1     -26.797  54.406  -1.553  1.00  0.00     0.293 HD
ENDBRANCH  14  17
BRANCH  16  19
ATOM     19  O   UNL     1     -25.091  54.745   0.821  1.00  0.00    -0.504 OA
ATOM     20  H   UNL     1     -25.989  54.278   0.770  1.00  0.00     0.293 HD
ENDBRANCH  16  19
ENDBRANCH   1  11
BRANCH  10  21
ATOM     21  O   UNL     1     -20.376  52.720  -2.142  1.00  0.00    -0.500 OA
ATOM     22  H   UNL     1     -20.805  52.810  -3.055  1.00  0.00     0.294 HD
ENDBRANCH  10  21
BRANCH   5  23
ATOM     23  O   UNL     1     -16.267  58.182   1.536  1.00  0.00    -0.507 OA
ATOM     24  H   UNL     1     -16.439  59.134   1.233  1.00  0.00     0.293 HD
ENDBRANCH   5  23
BRANCH   7  25
ATOM     25  O   UNL     1     -15.499  54.013  -0.750  1.00  0.00    -0.507 OA
ATOM     26  H   UNL     1     -15.601  53.454  -1.585  1.00  0.00     0.293 HD
ENDBRANCH   7  25
TORSDOF 6
ENDMDL
MODEL 2
REMARK VINA RESULT:    -7.081      2.027      6.683
REMARK INTER + INTRA:          -8.813
REMARK INTER:                  -8.478
REMARK INTRA:                  -0.334
REMARK UNBOUND:                -0.283
REMARK SMILES Oc1cc(O)c2cc(O)c(-c3ccc(O)c(O)c3)[o+]c2c1
REMARK SMILES IDX 10 1 19 2 20 3 21 4 2 5 3 6 4 7 6 8 7 9 8 10 11 11 12 12
REMARK SMILES IDX 13 13 14 14 18 15 16 16 15 17 17 19 9 21 1 23 5 25
REMARK H PARENT 15 18 17 20 9 22 1 24 5 26
REMARK Flexibility Score: inf
ROOT
ATOM      1  C   UNL     1     -20.835  55.271  -1.144  1.00  0.00     0.402 A 
ATOM      2  O   UNL     1     -21.847  56.124  -1.287  1.00  0.00    -0.202 OA
ATOM      3  C   UNL     1     -23.035  55.948  -0.720  1.00  0.00     0.368 A 
ATOM      4  C   UNL     1     -24.035  56.902  -0.927  1.00  0.00     0.162 A 
ATOM      5  C   UNL     1     -25.291  56.746  -0.342  1.00  0.00     0.128 A 
ATOM      6  C   UNL     1     -25.552  55.628   0.459  1.00  0.00     0.093 A 
ATOM      7  C   UNL     1     -24.567  54.658   0.683  1.00  0.00     0.136 A 
ATOM      8  C   UNL     1     -23.289  54.812   0.086  1.00  0.00     0.125 A 
ATOM      9  C   UNL     1     -22.246  53.885   0.244  1.00  0.00     0.078 A 
ATOM     10  C   UNL     1     -21.014  54.104  -0.380  1.00  0.00     0.223 A 
ENDROOT
BRANCH   1  11
ATOM     11  C   UNL     1     -19.555  55.583  -1.820  1.00  0.00     0.087 A 
ATOM     12  C   UNL     1     -19.339  55.253  -3.169  1.00  0.00     0.022 A 
ATOM     13  C   UNL     1     -18.114  55.537  -3.779  1.00  0.00     0.051 A 
ATOM     14  C   UNL     1     -17.083  56.141  -3.046  1.00  0.00     0.157 A 
ATOM     15  C   UNL     1     -18.512  56.170  -1.085  1.00  0.00     0.068 A 
ATOM     16  C   UNL     1     -17.284  56.457  -1.692  1.00  0.00     0.158 A 
BRANCH  14  17
ATOM     17  O   UNL     1     -15.863  56.426  -3.657  1.00  0.00    -0.504 OA
ATOM     18  H   UNL     1     -15.344  57.269  -3.440  1.00  0.00     0.293 HD
ENDBRANCH  14  17
BRANCH  16  19
ATOM     19  O   UNL     1     -16.276  57.052  -0.934  1.00  0.00    -0.504 OA
ATOM     20  H   UNL     1     -16.403  57.286   0.043  1.00  0.00     0.293 HD
ENDBRANCH  16  19
ENDBRANCH   1  11
BRANCH  10  21
ATOM     21  O   UNL     1     -19.994  53.158  -0.264  1.00  0.00    -0.500 OA
ATOM     22  H   UNL     1     -20.029  52.275  -0.759  1.00  0.00     0.294 HD
ENDBRANCH  10  21
BRANCH   5  23
ATOM     23  O   UNL     1     -26.276  57.708  -0.560  1.00  0.00    -0.507 OA
ATOM     24  H   UNL     1     -26.910  57.993   0.177  1.00  0.00     0.293 HD
ENDBRANCH   5  23
BRANCH   7  25
ATOM     25  O   UNL     1     -24.906  53.574   1.497  1.00  0.00    -0.507 OA
ATOM     26  H   UNL     1     -25.267  52.695   1.156  1.00  0.00     0.293 HD
ENDBRANCH   7  25
TORSDOF 6
ENDMDL
MODEL 3
REMARK VINA RESULT:    -6.920      1.517      7.142
REMARK INTER + INTRA:          -8.619
REMARK INTER:                  -8.390
REMARK INTRA:                  -0.229
REMARK UNBOUND:                -0.283
REMARK SMILES Oc1cc(O)c2cc(O)c(-c3ccc(O)c(O)c3)[o+]c2c1
REMARK SMILES IDX 10 1 19 2 20 3 21 4 2 5 3 6 4 7 6 8 7 9 8 10 11 11 12 12
REMARK SMILES IDX 13 13 14 14 18 15 16 16 15 17 17 19 9 21 1 23 5 25
REMARK H PARENT 15 18 17 20 9 22 1 24 5 26
REMARK Flexibility Score: inf
ROOT
ATOM      1  C   UNL     1     -21.025  55.872  -1.076  1.00  0.00     0.402 A 
ATOM      2  O   UNL     1     -21.854  55.325  -0.190  1.00  0.00    -0.202 OA
ATOM      3  C   UNL     1     -23.163  55.210  -0.390  1.00  0.00     0.368 A 
ATOM      4  C   UNL     1     -23.952  54.619   0.599  1.00  0.00     0.162 A 
ATOM      5  C   UNL     1     -25.328  54.481   0.416  1.00  0.00     0.128 A 
ATOM      6  C   UNL     1     -25.921  54.937  -0.767  1.00  0.00     0.093 A 
ATOM      7  C   UNL     1     -25.153  55.533  -1.775  1.00  0.00     0.136 A 
ATOM      8  C   UNL     1     -23.753  55.677  -1.590  1.00  0.00     0.125 A 
ATOM      9  C   UNL     1     -22.906  56.273  -2.538  1.00  0.00     0.078 A 
ATOM     10  C   UNL     1     -21.536  56.383  -2.283  1.00  0.00     0.223 A 
ENDROOT
BRANCH   1  11
ATOM     11  C   UNL     1     -19.584  55.934  -0.741  1.00  0.00     0.087 A 
ATOM     12  C   UNL     1     -19.104  56.779   0.275  1.00  0.00     0.022 A 
ATOM     13  C   UNL     1     -17.736  56.837   0.558  1.00  0.00     0.051 A 
ATOM     14  C   UNL     1     -16.829  56.063  -0.177  1.00  0.00     0.157 A 
ATOM     15  C   UNL     1     -18.668  55.176  -1.488  1.00  0.00     0.068 A 
ATOM     16  C   UNL     1     -17.298  55.230  -1.207  1.00  0.00     0.158 A 
BRANCH  14  17
ATOM     17  O   UNL     1     -15.466  56.122   0.108  1.00  0.00    -0.504 OA
ATOM     18  H   UNL     1     -15.109  56.663   0.888  1.00  0.00     0.293 HD
ENDBRANCH  14  17
BRANCH  16  19
ATOM     19  O   UNL     1     -16.419  54.453  -1.961  1.00  0.00    -0.504 OA
ATOM     20  H   UNL     1     -16.691  53.559  -2.352  1.00  0.00     0.293 HD
ENDBRANCH  16  19
ENDBRANCH   1  11
BRANCH  10  21
ATOM     21  O   UNL     1     -20.702  57.021  -3.203  1.00  0.00    -0.500 OA
ATOM     22  H   UNL     1     -20.015  57.705  -2.914  1.00  0.00     0.294 HD
ENDBRANCH  10  21
BRANCH   5  23
ATOM     23  O   UNL     1     -26.099  53.889   1.414  1.00  0.00    -0.507 OA
ATOM     24  H   UNL     1     -25.676  53.495   2.247  1.00  0.00     0.293 HD
ENDBRANCH   5  23
BRANCH   7  25
ATOM     25  O   UNL     1     -25.820  55.958  -2.927  1.00  0.00    -0.507 OA
ATOM     26  H   UNL     1     -25.419  56.566  -3.626  1.00  0.00     0.293 HD
ENDBRANCH   7  25
TORSDOF 6
ENDMDL
MODEL 4
REMARK VINA RESULT:    -6.878      1.935      7.209
REMARK INTER + INTRA:          -8.569
REMARK INTER:                  -8.225
REMARK INTRA:                  -0.344
REMARK UNBOUND:                -0.283
REMARK SMILES Oc1cc(O)c2cc(O)c(-c3ccc(O)c(O)c3)[o+]c2c1
REMARK SMILES IDX 10 1 19 2 20 3 21 4 2 5 3 6 4 7 6 8 7 9 8 10 11 11 12 12
REMARK SMILES IDX 13 13 14 14 18 15 16 16 15 17 17 19 9 21 1 23 5 25
REMARK H PARENT 15 18 17 20 9 22 1 24 5 26
REMARK Flexibility Score: inf
ROOT
ATOM      1  C   UNL     1     -20.674  55.931  -0.310  1.00  0.00     0.402 A 
ATOM      2  O   UNL     1     -21.734  55.333  -0.850  1.00  0.00    -0.202 OA
ATOM      3  C   UNL     1     -22.985  55.710  -0.611  1.00  0.00     0.368 A 
ATOM      4  C   UNL     1     -24.032  55.021  -1.227  1.00  0.00     0.162 A 
ATOM      5  C   UNL     1     -25.356  55.397  -0.999  1.00  0.00     0.128 A 
ATOM      6  C   UNL     1     -25.637  56.471  -0.147  1.00  0.00     0.093 A 
ATOM      7  C   UNL     1     -24.605  57.179   0.483  1.00  0.00     0.136 A 
ATOM      8  C   UNL     1     -23.258  56.797   0.254  1.00  0.00     0.125 A 
ATOM      9  C   UNL     1     -22.161  57.439   0.852  1.00  0.00     0.078 A 
ATOM     10  C   UNL     1     -20.861  57.003   0.581  1.00  0.00     0.223 A 
ENDROOT
BRANCH   1  11
ATOM     11  C   UNL     1     -19.328  55.423  -0.662  1.00  0.00     0.087 A 
ATOM     12  C   UNL     1     -18.738  54.361   0.044  1.00  0.00     0.022 A 
ATOM     13  C   UNL     1     -17.457  53.914  -0.292  1.00  0.00     0.051 A 
ATOM     14  C   UNL     1     -16.743  54.530  -1.328  1.00  0.00     0.157 A 
ATOM     15  C   UNL     1     -18.600  56.049  -1.687  1.00  0.00     0.068 A 
ATOM     16  C   UNL     1     -17.318  55.605  -2.027  1.00  0.00     0.158 A 
BRANCH  14  17
ATOM     17  O   UNL     1     -15.467  54.080  -1.663  1.00  0.00    -0.504 OA
ATOM     18  H   UNL     1     -14.866  54.605  -2.289  1.00  0.00     0.293 HD
ENDBRANCH  14  17
BRANCH  16  19
ATOM     19  O   UNL     1     -16.631  56.242  -3.059  1.00  0.00    -0.504 OA
ATOM     20  H   UNL     1     -16.299  57.196  -2.977  1.00  0.00     0.293 HD
ENDBRANCH  16  19
ENDBRANCH   1  11
BRANCH  10  21
ATOM     21  O   UNL     1     -19.774  57.608   1.214  1.00  0.00    -0.500 OA
ATOM     22  H   UNL     1     -19.510  57.371   2.161  1.00  0.00     0.294 HD
ENDBRANCH  10  21
BRANCH   5  23
ATOM     23  O   UNL     1     -26.387  54.697  -1.622  1.00  0.00    -0.507 OA
ATOM     24  H   UNL     1     -27.291  54.578  -1.179  1.00  0.00     0.293 HD
ENDBRANCH   5  23
BRANCH   7  25
ATOM     25  O   UNL     1     -24.969  58.241   1.315  1.00  0.00    -0.507 OA
ATOM     26  H   UNL     1     -25.920  58.544   1.471  1.00  0.00     0.293 HD
ENDBRANCH   7  25
TORSDOF 6
ENDMDL
MODEL 5
REMARK VINA RESULT:    -6.874      1.951      6.735
REMARK INTER + INTRA:          -8.564
REMARK INTER:                  -8.227
REMARK INTRA:                  -0.337
REMARK UNBOUND:                -0.283
REMARK SMILES Oc1cc(O)c2cc(O)c(-c3ccc(O)c(O)c3)[o+]c2c1
REMARK SMILES IDX 10 1 19 2 20 3 21 4 2 5 3 6 4 7 6 8 7 9 8 10 11 11 12 12
REMARK SMILES IDX 13 13 14 14 18 15 16 16 15 17 17 19 9 21 1 23 5 25
REMARK H PARENT 15 18 17 20 9 22 1 24 5 26
REMARK Flexibility Score: inf
ROOT
ATOM      1  C   UNL     1     -21.082  55.122  -1.621  1.00  0.00     0.402 A 
ATOM      2  O   UNL     1     -21.507  56.371  -1.796  1.00  0.00    -0.202 OA
ATOM      3  C   UNL     1     -22.791  56.697  -1.907  1.00  0.00     0.368 A 
ATOM      4  C   UNL     1     -23.139  58.038  -2.087  1.00  0.00     0.162 A 
ATOM      5  C   UNL     1     -24.478  58.409  -2.204  1.00  0.00     0.128 A 
ATOM      6  C   UNL     1     -25.479  57.434  -2.140  1.00  0.00     0.093 A 
ATOM      7  C   UNL     1     -25.157  56.082  -1.961  1.00  0.00     0.136 A 
ATOM      8  C   UNL     1     -23.796  55.701  -1.844  1.00  0.00     0.125 A 
ATOM      9  C   UNL     1     -23.378  54.370  -1.676  1.00  0.00     0.078 A 
ATOM     10  C   UNL     1     -22.016  54.071  -1.573  1.00  0.00     0.223 A 
ENDROOT
BRANCH   1  11
ATOM     11  C   UNL     1     -19.625  54.888  -1.500  1.00  0.00     0.087 A 
ATOM     12  C   UNL     1     -18.809  54.749  -2.636  1.00  0.00     0.022 A 
ATOM     13  C   UNL     1     -17.440  54.506  -2.497  1.00  0.00     0.051 A 
ATOM     14  C   UNL     1     -16.869  54.386  -1.223  1.00  0.00     0.157 A 
ATOM     15  C   UNL     1     -19.052  54.747  -0.226  1.00  0.00     0.068 A 
ATOM     16  C   UNL     1     -17.681  54.505  -0.082  1.00  0.00     0.158 A 
BRANCH  14  17
ATOM     17  O   UNL     1     -15.503  54.146  -1.087  1.00  0.00    -0.504 OA
ATOM     18  H   UNL     1     -14.825  54.565  -1.714  1.00  0.00     0.293 HD
ENDBRANCH  14  17
BRANCH  16  19
ATOM     19  O   UNL     1     -17.144  54.384   1.199  1.00  0.00    -0.504 OA
ATOM     20  H   UNL     1     -16.156  54.513   1.383  1.00  0.00     0.293 HD
ENDBRANCH  16  19
ENDBRANCH   1  11
BRANCH  10  21
ATOM     21  O   UNL     1     -21.599  52.744  -1.456  1.00  0.00    -0.500 OA
ATOM     22  H   UNL     1     -21.955  52.019  -2.066  1.00  0.00     0.294 HD
ENDBRANCH  10  21
BRANCH   5  23
ATOM     23  O   UNL     1     -24.806  59.752  -2.383  1.00  0.00    -0.507 OA
ATOM     24  H   UNL     1     -24.091  60.464  -2.472  1.00  0.00     0.293 HD
ENDBRANCH   5  23
BRANCH   7  25
ATOM     25  O   UNL     1     -26.215  55.171  -1.904  1.00  0.00    -0.507 OA
ATOM     26  H   UNL     1     -26.216  54.333  -1.341  1.00  0.00     0.293 HD
ENDBRANCH   7  25
TORSDOF 6
ENDMDL
MODEL 6
REMARK VINA RESULT:    -6.687      1.105      2.698
REMARK INTER + INTRA:          -8.338
REMARK INTER:                  -8.106
REMARK INTRA:                  -0.232
REMARK UNBOUND:                -0.283
REMARK SMILES Oc1cc(O)c2cc(O)c(-c3ccc(O)c(O)c3)[o+]c2c1
REMARK SMILES IDX 10 1 19 2 20 3 21 4 2 5 3 6 4 7 6 8 7 9 8 10 11 11 12 12
REMARK SMILES IDX 13 13 14 14 18 15 16 16 15 17 17 19 9 21 1 23 5 25
REMARK H PARENT 15 18 17 20 9 22 1 24 5 26
REMARK Flexibility Score: inf
ROOT
ATOM      1  C   UNL     1     -21.014  56.042  -0.186  1.00  0.00     0.402 A 
ATOM      2  O   UNL     1     -20.022  55.265  -0.616  1.00  0.00    -0.202 OA
ATOM      3  C   UNL     1     -18.749  55.456  -0.286  1.00  0.00     0.368 A 
ATOM      4  C   UNL     1     -17.778  54.585  -0.787  1.00  0.00     0.162 A 
ATOM      5  C   UNL     1     -16.435  54.759  -0.455  1.00  0.00     0.128 A 
ATOM      6  C   UNL     1     -16.057  55.812   0.386  1.00  0.00     0.093 A 
ATOM      7  C   UNL     1     -17.010  56.700   0.902  1.00  0.00     0.136 A 
ATOM      8  C   UNL     1     -18.377  56.527   0.563  1.00  0.00     0.125 A 
ATOM      9  C   UNL     1     -19.400  57.374   1.022  1.00  0.00     0.078 A 
ATOM     10  C   UNL     1     -20.725  57.142   0.641  1.00  0.00     0.223 A 
ENDROOT
BRANCH   1  11
ATOM     11  C   UNL     1     -22.393  55.719  -0.617  1.00  0.00     0.087 A 
ATOM     12  C   UNL     1     -22.803  55.890  -1.951  1.00  0.00     0.022 A 
ATOM     13  C   UNL     1     -24.117  55.600  -2.329  1.00  0.00     0.051 A 
ATOM     14  C   UNL     1     -25.042  55.150  -1.379  1.00  0.00     0.157 A 
ATOM     15  C   UNL     1     -23.330  55.287   0.335  1.00  0.00     0.068 A 
ATOM     16  C   UNL     1     -24.647  54.995  -0.039  1.00  0.00     0.158 A 
BRANCH  14  17
ATOM     17  O   UNL     1     -26.352  54.860  -1.759  1.00  0.00    -0.504 OA
ATOM     18  H   UNL     1     -26.601  53.964  -2.164  1.00  0.00     0.293 HD
ENDBRANCH  14  17
BRANCH  16  19
ATOM     19  O   UNL     1     -25.546  54.554   0.931  1.00  0.00    -0.504 OA
ATOM     20  H   UNL     1     -26.549  54.632   0.810  1.00  0.00     0.293 HD
ENDBRANCH  16  19
ENDBRANCH   1  11
BRANCH  10  21
ATOM     21  O   UNL     1     -21.733  58.013   1.056  1.00  0.00    -0.500 OA
ATOM     22  H   UNL     1     -22.009  58.812   0.499  1.00  0.00     0.294 HD
ENDBRANCH  10  21
BRANCH   5  23
ATOM     23  O   UNL     1     -15.482  53.881  -0.964  1.00  0.00    -0.507 OA
ATOM     24  H   UNL     1     -15.087  53.140  -0.396  1.00  0.00     0.293 HD
ENDBRANCH   5  23
BRANCH   7  25
ATOM     25  O   UNL     1     -16.552  57.722   1.737  1.00  0.00    -0.507 OA
ATOM     26  H   UNL     1     -16.323  58.654   1.424  1.00  0.00     0.293 HD
ENDBRANCH   7  25
TORSDOF 6
ENDMDL
MODEL 7
REMARK VINA RESULT:    -6.678      1.939      2.903
REMARK INTER + INTRA:          -8.327
REMARK INTER:                  -8.252
REMARK INTRA:                  -0.076
REMARK UNBOUND:                -0.283
REMARK SMILES Oc1cc(O)c2cc(O)c(-c3ccc(O)c(O)c3)[o+]c2c1
REMARK SMILES IDX 10 1 19 2 20 3 21 4 2 5 3 6 4 7 6 8 7 9 8 10 11 11 12 12
REMARK SMILES IDX 13 13 14 14 18 15 16 16 15 17 17 19 9 21 1 23 5 25
REMARK H PARENT 15 18 17 20 9 22 1 24 5 26
REMARK Flexibility Score: inf
ROOT
ATOM      1  C   UNL     1     -21.218  55.745  -1.579  1.00  0.00     0.402 A 
ATOM      2  O   UNL     1     -20.282  55.080  -0.906  1.00  0.00    -0.202 OA
ATOM      3  C   UNL     1     -19.016  55.000  -1.302  1.00  0.00     0.368 A 
ATOM      4  C   UNL     1     -18.105  54.279  -0.525  1.00  0.00     0.162 A 
ATOM      5  C   UNL     1     -16.769  54.181  -0.914  1.00  0.00     0.128 A 
ATOM      6  C   UNL     1     -16.338  54.808  -2.088  1.00  0.00     0.093 A 
ATOM      7  C   UNL     1     -17.231  55.537  -2.884  1.00  0.00     0.136 A 
ATOM      8  C   UNL     1     -18.591  55.637  -2.493  1.00  0.00     0.125 A 
ATOM      9  C   UNL     1     -19.559  56.334  -3.234  1.00  0.00     0.078 A 
ATOM     10  C   UNL     1     -20.883  56.384  -2.786  1.00  0.00     0.223 A 
ENDROOT
BRANCH   1  11
ATOM     11  C   UNL     1     -22.592  55.769  -1.028  1.00  0.00     0.087 A 
ATOM     12  C   UNL     1     -22.849  56.209   0.282  1.00  0.00     0.022 A 
ATOM     13  C   UNL     1     -24.152  56.201   0.787  1.00  0.00     0.051 A 
ATOM     14  C   UNL     1     -25.214  55.741  -0.003  1.00  0.00     0.157 A 
ATOM     15  C   UNL     1     -23.657  55.290  -1.809  1.00  0.00     0.068 A 
ATOM     16  C   UNL     1     -24.963  55.281  -1.307  1.00  0.00     0.158 A 
BRANCH  14  17
ATOM     17  O   UNL     1     -26.513  55.736   0.502  1.00  0.00    -0.504 OA
ATOM     18  H   UNL     1     -26.696  55.822   1.496  1.00  0.00     0.293 HD
ENDBRANCH  14  17
BRANCH  16  19
ATOM     19  O   UNL     1     -25.997  54.811  -2.116  1.00  0.00    -0.504 OA
ATOM     20  H   UNL     1     -26.214  55.232  -3.012  1.00  0.00     0.293 HD
ENDBRANCH  16  19
ENDBRANCH   1  11
BRANCH  10  21
ATOM     21  O   UNL     1     -21.854  57.034  -3.548  1.00  0.00    -0.500 OA
ATOM     22  H   UNL     1     -21.687  57.945  -3.959  1.00  0.00     0.294 HD
ENDBRANCH  10  21
BRANCH   5  23
ATOM     23  O   UNL     1     -15.875  53.457  -0.127  1.00  0.00    -0.507 OA
ATOM     24  H   UNL     1     -15.648  53.745   0.818  1.00  0.00     0.293 HD
ENDBRANCH   5  23
BRANCH   7  25
ATOM     25  O   UNL     1     -16.721  56.137  -4.039  1.00  0.00    -0.507 OA
ATOM     26  H   UNL     1     -17.140  56.930  -4.502  1.00  0.00     0.293 HD
ENDBRANCH   7  25
TORSDOF 6
ENDMDL
MODEL 8
REMARK VINA RESULT:    -6.571      3.117      4.360
REMARK INTER + INTRA:          -8.199
REMARK INTER:                  -7.901
REMARK INTRA:                  -0.298
REMARK UNBOUND:                -0.283
REMARK SMILES Oc1cc(O)c2cc(O)c(-c3ccc(O)c(O)c3)[o+]c2c1
REMARK SMILES IDX 10 1 19 2 20 3 21 4 2 5 3 6 4 7 6 8 7 9 8 10 11 11 12 12
REMARK SMILES IDX 13 13 14 14 18 15 16 16 15 17 17 19 9 21 1 23 5 25
REMARK H PARENT 15 18 17 20 9 22 1 24 5 26
REMARK Flexibility Score: inf
ROOT
ATOM      1  C   UNL     1     -22.434  55.965  -0.041  1.00  0.00     0.402 A 
ATOM      2  O   UNL     1     -21.529  56.410  -0.909  1.00  0.00    -0.202 OA
ATOM      3  C   UNL     1     -20.743  55.608  -1.620  1.00  0.00     0.368 A 
ATOM      4  C   UNL     1     -19.823  56.171  -2.509  1.00  0.00     0.162 A 
ATOM      5  C   UNL     1     -18.988  55.354  -3.271  1.00  0.00     0.128 A 
ATOM      6  C   UNL     1     -19.071  53.963  -3.144  1.00  0.00     0.093 A 
ATOM      7  C   UNL     1     -19.984  53.373  -2.260  1.00  0.00     0.136 A 
ATOM      8  C   UNL     1     -20.834  54.202  -1.482  1.00  0.00     0.125 A 
ATOM      9  C   UNL     1     -21.769  53.701  -0.562  1.00  0.00     0.078 A 
ATOM     10  C   UNL     1     -22.569  54.581   0.173  1.00  0.00     0.223 A 
ENDROOT
BRANCH   1  11
ATOM     11  C   UNL     1     -23.258  56.959   0.684  1.00  0.00     0.087 A 
ATOM     12  C   UNL     1     -24.319  57.631   0.052  1.00  0.00     0.022 A 
ATOM     13  C   UNL     1     -25.068  58.583   0.750  1.00  0.00     0.051 A 
ATOM     14  C   UNL     1     -24.759  58.886   2.083  1.00  0.00     0.157 A 
ATOM     15  C   UNL     1     -22.940  57.282   2.013  1.00  0.00     0.068 A 
ATOM     16  C   UNL     1     -23.688  58.233   2.716  1.00  0.00     0.158 A 
BRANCH  14  17
ATOM     17  O   UNL     1     -25.509  59.834   2.777  1.00  0.00    -0.504 OA
ATOM     18  H   UNL     1     -26.518  59.880   2.690  1.00  0.00     0.293 HD
ENDBRANCH  14  17
BRANCH  16  19
ATOM     19  O   UNL     1     -23.352  58.518   4.039  1.00  0.00    -0.504 OA
ATOM     20  H   UNL     1     -22.717  57.935   4.571  1.00  0.00     0.293 HD
ENDBRANCH  16  19
ENDBRANCH   1  11
BRANCH  10  21
ATOM     21  O   UNL     1     -23.463  54.085   1.123  1.00  0.00    -0.500 OA
ATOM     22  H   UNL     1     -23.858  54.678   1.843  1.00  0.00     0.294 HD
ENDBRANCH  10  21
BRANCH   5  23
ATOM     23  O   UNL     1     -18.077  55.933  -4.152  1.00  0.00    -0.507 OA
ATOM     24  H   UNL     1     -18.183  55.847  -5.156  1.00  0.00     0.293 HD
ENDBRANCH   5  23
BRANCH   7  25
ATOM     25  O   UNL     1     -20.008  51.977  -2.196  1.00  0.00    -0.507 OA
ATOM     26  H   UNL     1     -19.186  51.392  -2.220  1.00  0.00     0.293 HD
ENDBRANCH   7  25
TORSDOF 6
ENDMDL
MODEL 9
REMARK VINA RESULT:    -6.497      2.949      6.506
REMARK INTER + INTRA:          -8.109
REMARK INTER:                  -7.757
REMARK INTRA:                  -0.352
REMARK UNBOUND:                -0.283
REMARK SMILES Oc1cc(O)c2cc(O)c(-c3ccc(O)c(O)c3)[o+]c2c1
REMARK SMILES IDX 10 1 19 2 20 3 21 4 2 5 3 6 4 7 6 8 7 9 8 10 11 11 12 12
REMARK SMILES IDX 13 13 14 14 18 15 16 16 15 17 17 19 9 21 1 23 5 25
REMARK H PARENT 15 18 17 20 9 22 1 24 5 26
REMARK Flexibility Score: inf
ROOT
ATOM      1  C   UNL     1     -20.500  56.097  -0.113  1.00  0.00     0.402 A 
ATOM      2  O   UNL     1     -20.503  56.981   0.882  1.00  0.00    -0.202 OA
ATOM      3  C   UNL     1     -21.611  57.532   1.366  1.00  0.00     0.368 A 
ATOM      4  C   UNL     1     -21.511  58.450   2.414  1.00  0.00     0.162 A 
ATOM      5  C   UNL     1     -22.658  59.042   2.945  1.00  0.00     0.128 A 
ATOM      6  C   UNL     1     -23.914  58.715   2.424  1.00  0.00     0.093 A 
ATOM      7  C   UNL     1     -24.042  57.798   1.372  1.00  0.00     0.136 A 
ATOM      8  C   UNL     1     -22.877  57.196   0.829  1.00  0.00     0.125 A 
ATOM      9  C   UNL     1     -22.906  56.277  -0.233  1.00  0.00     0.078 A 
ATOM     10  C   UNL     1     -21.715  55.729  -0.718  1.00  0.00     0.223 A 
ENDROOT
BRANCH   1  11
ATOM     11  C   UNL     1     -19.199  55.546  -0.557  1.00  0.00     0.087 A 
ATOM     12  C   UNL     1     -18.660  54.384   0.022  1.00  0.00     0.022 A 
ATOM     13  C   UNL     1     -17.420  53.895  -0.398  1.00  0.00     0.051 A 
ATOM     14  C   UNL     1     -16.695  54.567  -1.391  1.00  0.00     0.157 A 
ATOM     15  C   UNL     1     -18.459  56.227  -1.537  1.00  0.00     0.068 A 
ATOM     16  C   UNL     1     -17.217  55.741  -1.961  1.00  0.00     0.158 A 
BRANCH  14  17
ATOM     17  O   UNL     1     -15.459  54.077  -1.809  1.00  0.00    -0.504 OA
ATOM     18  H   UNL     1     -15.387  53.342  -2.504  1.00  0.00     0.293 HD
ENDBRANCH  14  17
BRANCH  16  19
ATOM     19  O   UNL     1     -16.517  56.436  -2.946  1.00  0.00    -0.504 OA
ATOM     20  H   UNL     1     -16.401  57.442  -2.917  1.00  0.00     0.293 HD
ENDBRANCH  16  19
ENDBRANCH   1  11
BRANCH  10  21
ATOM     21  O   UNL     1     -21.741  54.855  -1.806  1.00  0.00    -0.500 OA
ATOM     22  H   UNL     1     -22.501  54.858  -2.474  1.00  0.00     0.294 HD
ENDBRANCH  10  21
BRANCH   5  23
ATOM     23  O   UNL     1     -22.539  59.954   3.991  1.00  0.00    -0.507 OA
ATOM     24  H   UNL     1     -22.388  60.942   3.818  1.00  0.00     0.293 HD
ENDBRANCH   5  23
BRANCH   7  25
ATOM     25  O   UNL     1     -25.332  57.522   0.911  1.00  0.00    -0.507 OA
ATOM     26  H   UNL     1     -25.841  58.103   0.260  1.00  0.00     0.293 HD
ENDBRANCH   7  25
TORSDOF 6
ENDMDL
