MODEL 1
REMARK VINA RESULT:     0.287      0.000      0.000
REMARK INTER + INTRA:           0.183
REMARK INTER:                   0.304
REMARK INTRA:                  -0.120
REMARK UNBOUND:                -0.120
REMARK SMILES CC1=CC[C@H](C(C)C)C=C1
REMARK SMILES IDX 1 1 2 2 3 3 4 4 5 5 9 6 10 7 6 8 7 9 8 10
REMARK H PARENT
REMARK Flexibility Score: inf
ROOT
ATOM      1  C   UNL     1       0.614   6.905  -6.943  1.00  0.00     0.044 C 
ATOM      2  C   UNL     1       0.100   6.360  -8.243  1.00  0.00    -0.055 C 
ATOM      3  C   UNL     1      -1.164   6.595  -8.623  1.00  0.00    -0.023 C 
ATOM      4  C   UNL     1      -1.705   5.998  -9.896  1.00  0.00     0.035 C 
ATOM      5  C   UNL     1      -0.616   5.947 -10.998  1.00  0.00     0.018 C 
ATOM      6  C   UNL     1       0.659   5.365 -10.410  1.00  0.00    -0.023 C 
ATOM      7  C   UNL     1       1.008   5.617  -9.143  1.00  0.00    -0.001 C 
ENDROOT
BRANCH   5   8
ATOM      8  C   UNL     1      -1.069   5.159 -12.269  1.00  0.00    -0.010 C 
ATOM      9  C   UNL     1      -2.581   5.282 -12.531  1.00  0.00     0.008 C 
ATOM     10  C   UNL     1      -0.315   5.642 -13.523  1.00  0.00     0.008 C 
ENDBRANCH   5   8
TORSDOF 1
ENDMDL
MODEL 2
REMARK VINA RESULT:     1.693      0.609      1.994
REMARK INTER + INTRA:           1.672
REMARK INTER:                   1.790
REMARK INTRA:                  -0.118
REMARK UNBOUND:                -0.120
REMARK SMILES CC1=CC[C@H](C(C)C)C=C1
REMARK SMILES IDX 1 1 2 2 3 3 4 4 5 5 9 6 10 7 6 8 7 9 8 10
REMARK H PARENT
REMARK Flexibility Score: inf
ROOT
ATOM      1  C   UNL     1       0.739   6.216  -7.238  1.00  0.00     0.044 C 
ATOM      2  C   UNL     1       0.221   6.199  -8.646  1.00  0.00    -0.055 C 
ATOM      3  C   UNL     1       1.049   5.945  -9.669  1.00  0.00    -0.023 C 
ATOM      4  C   UNL     1       0.550   5.987 -11.089  1.00  0.00     0.035 C 
ATOM      5  C   UNL     1      -0.904   5.459 -11.188  1.00  0.00     0.018 C 
ATOM      6  C   UNL     1      -1.745   6.114 -10.103  1.00  0.00    -0.023 C 
ATOM      7  C   UNL     1      -1.221   6.396  -8.905  1.00  0.00    -0.001 C 
ENDROOT
BRANCH   5   8
ATOM      8  C   UNL     1      -1.536   5.666 -12.601  1.00  0.00    -0.010 C 
ATOM      9  C   UNL     1      -0.583   5.255 -13.739  1.00  0.00     0.008 C 
ATOM     10  C   UNL     1      -2.847   4.870 -12.749  1.00  0.00     0.008 C 
ENDBRANCH   5   8
TORSDOF 1
ENDMDL
MODEL 3
REMARK VINA RESULT:     2.385      8.940     11.141
REMARK INTER + INTRA:           2.404
REMARK INTER:                   2.535
REMARK INTRA:                  -0.131
REMARK UNBOUND:                -0.120
REMARK SMILES CC1=CC[C@H](C(C)C)C=C1
REMARK SMILES IDX 1 1 2 2 3 3 4 4 5 5 9 6 10 7 6 8 7 9 8 10
REMARK H PARENT
REMARK Flexibility Score: inf
ROOT
ATOM      1  C   UNL     1       5.937   9.707  -5.986  1.00  0.00     0.044 C 
ATOM      2  C   UNL     1       7.222   9.028  -6.356  1.00  0.00    -0.055 C 
ATOM      3  C   UNL     1       8.154   9.682  -7.063  1.00  0.00    -0.023 C 
ATOM      4  C   UNL     1       9.419   8.988  -7.493  1.00  0.00     0.035 C 
ATOM      5  C   UNL     1       9.903   7.986  -6.413  1.00  0.00     0.018 C 
ATOM      6  C   UNL     1       8.726   7.135  -5.963  1.00  0.00    -0.023 C 
ATOM      7  C   UNL     1       7.495   7.653  -5.884  1.00  0.00    -0.001 C 
ENDROOT
BRANCH   5   8
ATOM      8  C   UNL     1      11.096   7.100  -6.892  1.00  0.00    -0.010 C 
ATOM      9  C   UNL     1      11.642   7.536  -8.264  1.00  0.00     0.008 C 
ATOM     10  C   UNL     1      12.254   7.125  -5.875  1.00  0.00     0.008 C 
ENDBRANCH   5   8
TORSDOF 1
ENDMDL
MODEL 4
REMARK VINA RESULT:     2.552      1.009      4.603
REMARK INTER + INTRA:           2.581
REMARK INTER:                   2.706
REMARK INTRA:                  -0.125
REMARK UNBOUND:                -0.120
REMARK SMILES CC1=CC[C@H](C(C)C)C=C1
REMARK SMILES IDX 1 1 2 2 3 3 4 4 5 5 9 6 10 7 6 8 7 9 8 10
REMARK H PARENT
REMARK Flexibility Score: inf
ROOT
ATOM      1  C   UNL     1      -0.929   5.331 -13.672  1.00  0.00     0.044 C 
ATOM      2  C   UNL     1      -0.741   5.493 -12.193  1.00  0.00    -0.055 C 
ATOM      3  C   UNL     1       0.490   5.615 -11.675  1.00  0.00    -0.023 C 
ATOM      4  C   UNL     1       0.690   5.714 -10.186  1.00  0.00     0.035 C 
ATOM      5  C   UNL     1      -0.456   6.516  -9.519  1.00  0.00     0.018 C 
ATOM      6  C   UNL     1      -1.790   6.002 -10.039  1.00  0.00    -0.023 C 
ATOM      7  C   UNL     1      -1.919   5.586 -11.303  1.00  0.00    -0.001 C 
ENDROOT
BRANCH   5   8
ATOM      8  C   UNL     1      -0.400   6.480  -7.958  1.00  0.00    -0.010 C 
ATOM      9  C   UNL     1       0.995   6.106  -7.427  1.00  0.00     0.008 C 
ATOM     10  C   UNL     1      -0.807   7.838  -7.354  1.00  0.00     0.008 C 
ENDBRANCH   5   8
TORSDOF 1
ENDMDL
MODEL 5
REMARK VINA RESULT:     3.173      0.969      4.328
REMARK INTER + INTRA:           3.238
REMARK INTER:                   3.437
REMARK INTRA:                  -0.199
REMARK UNBOUND:                -0.120
REMARK SMILES CC1=CC[C@H](C(C)C)C=C1
REMARK SMILES IDX 1 1 2 2 3 3 4 4 5 5 9 6 10 7 6 8 7 9 8 10
REMARK H PARENT
REMARK Flexibility Score: inf
ROOT
ATOM      1  C   UNL     1      -0.759   5.234 -13.127  1.00  0.00     0.044 C 
ATOM      2  C   UNL     1      -0.688   5.685 -11.699  1.00  0.00    -0.055 C 
ATOM      3  C   UNL     1      -1.811   5.846 -10.983  1.00  0.00    -0.023 C 
ATOM      4  C   UNL     1      -1.751   6.359  -9.568  1.00  0.00     0.035 C 
ATOM      5  C   UNL     1      -0.495   5.828  -8.832  1.00  0.00     0.018 C 
ATOM      6  C   UNL     1       0.722   6.019  -9.724  1.00  0.00    -0.023 C 
ATOM      7  C   UNL     1       0.626   5.889 -11.052  1.00  0.00    -0.001 C 
ENDROOT
BRANCH   5   8
ATOM      8  C   UNL     1      -0.283   6.485  -7.431  1.00  0.00    -0.010 C 
ATOM      9  C   UNL     1       1.203   6.587  -7.045  1.00  0.00     0.008 C 
ATOM     10  C   UNL     1      -0.900   7.897  -7.378  1.00  0.00     0.008 C 
ENDBRANCH   5   8
TORSDOF 1
ENDMDL
