MODEL 1
REMARK VINA RESULT:    -3.431      0.000      0.000
REMARK INTER + INTRA:         -11.240
REMARK INTER:                  -7.844
REMARK INTRA:                  -3.397
REMARK UNBOUND:                -3.397
REMARK SMILES CCCCCCCCCCCCCCCCCCCCCCCC(=O)[O-]
REMARK SMILES IDX 13 1 14 2 15 3 16 4 17 5 18 6 19 7 20 8 21 9 22 10 23 11
REMARK SMILES IDX 24 12 25 13 26 14 12 15 11 16 10 17 9 18 8 19 7 20 6 21 5 22
REMARK SMILES IDX 4 23 3 24 2 25 1 26
REMARK H PARENT
REMARK Flexibility Score: inf
ROOT
ATOM      1  C   UNL     1     -46.057 -47.050  70.430  1.00  0.00     0.000 C 
ENDROOT
BRANCH   1   2
ATOM      2  C   UNL     1     -45.048 -46.629  71.513  1.00  0.00     0.000 C 
BRANCH   2   3
ATOM      3  C   UNL     1     -43.615 -47.091  71.205  1.00  0.00     0.000 C 
BRANCH   3   4
ATOM      4  C   UNL     1     -43.516 -47.648  69.780  1.00  0.00     0.000 C 
BRANCH   4   5
ATOM      5  C   UNL     1     -42.287 -47.086  69.051  1.00  0.00     0.000 C 
BRANCH   5   6
ATOM      6  C   UNL     1     -42.636 -46.461  67.691  1.00  0.00     0.000 C 
BRANCH   6   7
ATOM      7  C   UNL     1     -42.333 -44.956  67.632  1.00  0.00     0.000 C 
BRANCH   7   8
ATOM      8  C   UNL     1     -42.020 -44.401  69.030  1.00  0.00     0.000 C 
BRANCH   8   9
ATOM      9  C   UNL     1     -43.262 -43.783  69.710  1.00  0.00     0.000 C 
BRANCH   9  10
ATOM     10  C   UNL     1     -43.580 -42.351  69.237  1.00  0.00     0.006 C 
BRANCH  10  11
ATOM     11  C   UNL     1     -42.445 -41.343  69.472  1.00  0.00     0.053 C 
BRANCH  11  12
ATOM     12  C   UNL     1     -42.831 -40.281  70.457  1.00  0.00     0.041 C 
ATOM     13  O   UNL     1     -42.391 -39.108  70.326  1.00  0.00    -0.550 OA
ATOM     14  O   UNL     1     -43.659 -40.588  71.529  1.00  0.00    -0.550 OA
ENDBRANCH  11  12
ENDBRANCH  10  11
ENDBRANCH   9  10
ENDBRANCH   8   9
ENDBRANCH   7   8
ENDBRANCH   6   7
ENDBRANCH   5   6
ENDBRANCH   4   5
ENDBRANCH   3   4
ENDBRANCH   2   3
ENDBRANCH   1   2
BRANCH   1  15
ATOM     15  C   UNL     1     -47.475 -47.381  70.944  1.00  0.00     0.000 C 
BRANCH  15  16
ATOM     16  C   UNL     1     -47.914 -48.848  70.778  1.00  0.00     0.000 C 
BRANCH  16  17
ATOM     17  C   UNL     1     -46.730 -49.816  70.621  1.00  0.00     0.000 C 
BRANCH  17  18
ATOM     18  C   UNL     1     -47.136 -51.158  69.990  1.00  0.00    -0.000 C 
BRANCH  18  19
ATOM     19  C   UNL     1     -46.117 -51.697  68.963  1.00  0.00    -0.000 C 
BRANCH  19  20
ATOM     20  C   UNL     1     -44.990 -50.685  68.678  1.00  0.00    -0.000 C 
BRANCH  20  21
ATOM     21  C   UNL     1     -45.078 -50.099  67.253  1.00  0.00    -0.000 C 
BRANCH  21  22
ATOM     22  C   UNL     1     -45.909 -48.807  67.168  1.00  0.00    -0.000 C 
BRANCH  22  23
ATOM     23  C   UNL     1     -47.327 -49.046  66.628  1.00  0.00    -0.000 C 
BRANCH  23  24
ATOM     24  C   UNL     1     -48.314 -48.016  67.196  1.00  0.00    -0.000 C 
BRANCH  24  25
ATOM     25  C   UNL     1     -49.265 -47.456  66.127  1.00  0.00    -0.003 C 
ATOM     26  C   UNL     1     -50.517 -46.812  66.719  1.00  0.00     0.004 C 
ENDBRANCH  24  25
ENDBRANCH  23  24
ENDBRANCH  22  23
ENDBRANCH  21  22
ENDBRANCH  20  21
ENDBRANCH  19  20
ENDBRANCH  18  19
ENDBRANCH  17  18
ENDBRANCH  16  17
ENDBRANCH  15  16
ENDBRANCH   1  15
TORSDOF 22
ENDMDL
MODEL 2
REMARK VINA RESULT:    -3.423      2.231      3.842
REMARK INTER + INTRA:         -11.222
REMARK INTER:                  -7.968
REMARK INTRA:                  -3.255
REMARK UNBOUND:                -3.397
REMARK SMILES CCCCCCCCCCCCCCCCCCCCCCCC(=O)[O-]
REMARK SMILES IDX 13 1 14 2 15 3 16 4 17 5 18 6 19 7 20 8 21 9 22 10 23 11
REMARK SMILES IDX 24 12 25 13 26 14 12 15 11 16 10 17 9 18 8 19 7 20 6 21 5 22
REMARK SMILES IDX 4 23 3 24 2 25 1 26
REMARK H PARENT
REMARK Flexibility Score: inf
ROOT
ATOM      1  C   UNL     1     -44.880 -46.340  70.789  1.00  0.00     0.000 C 
ENDROOT
BRANCH   1   2
ATOM      2  C   UNL     1     -43.678 -46.312  71.749  1.00  0.00     0.000 C 
BRANCH   2   3
ATOM      3  C   UNL     1     -42.888 -44.996  71.676  1.00  0.00     0.000 C 
BRANCH   3   4
ATOM      4  C   UNL     1     -41.739 -45.104  70.667  1.00  0.00     0.000 C 
BRANCH   4   5
ATOM      5  C   UNL     1     -41.698 -43.879  69.742  1.00  0.00     0.000 C 
BRANCH   5   6
ATOM      6  C   UNL     1     -43.034 -43.630  69.025  1.00  0.00     0.000 C 
BRANCH   6   7
ATOM      7  C   UNL     1     -43.652 -42.267  69.373  1.00  0.00     0.000 C 
BRANCH   7   8
ATOM      8  C   UNL     1     -42.597 -41.314  69.953  1.00  0.00     0.000 C 
BRANCH   8   9
ATOM      9  C   UNL     1     -43.228 -40.102  70.673  1.00  0.00     0.000 C 
BRANCH   9  10
ATOM     10  C   UNL     1     -44.028 -40.479  71.935  1.00  0.00     0.006 C 
BRANCH  10  11
ATOM     11  C   UNL     1     -45.359 -39.728  72.086  1.00  0.00     0.053 C 
BRANCH  11  12
ATOM     12  C   UNL     1     -45.848 -39.729  73.503  1.00  0.00     0.041 C 
ATOM     13  O   UNL     1     -45.734 -40.765  74.210  1.00  0.00    -0.550 OA
ATOM     14  O   UNL     1     -46.446 -38.595  74.038  1.00  0.00    -0.550 OA
ENDBRANCH  11  12
ENDBRANCH  10  11
ENDBRANCH   9  10
ENDBRANCH   8   9
ENDBRANCH   7   8
ENDBRANCH   6   7
ENDBRANCH   5   6
ENDBRANCH   4   5
ENDBRANCH   3   4
ENDBRANCH   2   3
ENDBRANCH   1   2
BRANCH   1  15
ATOM     15  C   UNL     1     -46.116 -47.111  71.302  1.00  0.00     0.000 C 
BRANCH  15  16
ATOM     16  C   UNL     1     -47.336 -47.107  70.362  1.00  0.00     0.000 C 
BRANCH  16  17
ATOM     17  C   UNL     1     -48.399 -48.148  70.752  1.00  0.00     0.000 C 
BRANCH  17  18
ATOM     18  C   UNL     1     -47.877 -49.592  70.672  1.00  0.00    -0.000 C 
BRANCH  18  19
ATOM     19  C   UNL     1     -47.750 -50.129  69.231  1.00  0.00    -0.000 C 
BRANCH  19  20
ATOM     20  C   UNL     1     -46.384 -50.795  68.978  1.00  0.00    -0.000 C 
BRANCH  20  21
ATOM     21  C   UNL     1     -45.462 -50.724  70.214  1.00  0.00    -0.000 C 
BRANCH  21  22
ATOM     22  C   UNL     1     -44.180 -49.907  69.981  1.00  0.00    -0.000 C 
BRANCH  22  23
ATOM     23  C   UNL     1     -44.222 -49.095  68.678  1.00  0.00    -0.000 C 
BRANCH  23  24
ATOM     24  C   UNL     1     -42.842 -48.504  68.351  1.00  0.00    -0.000 C 
BRANCH  24  25
ATOM     25  C   UNL     1     -42.934 -47.197  67.549  1.00  0.00    -0.003 C 
ATOM     26  C   UNL     1     -41.566 -46.596  67.228  1.00  0.00     0.004 C 
ENDBRANCH  24  25
ENDBRANCH  23  24
ENDBRANCH  22  23
ENDBRANCH  21  22
ENDBRANCH  20  21
ENDBRANCH  19  20
ENDBRANCH  18  19
ENDBRANCH  17  18
ENDBRANCH  16  17
ENDBRANCH  15  16
ENDBRANCH   1  15
TORSDOF 22
ENDMDL
MODEL 3
REMARK VINA RESULT:    -3.421      3.217      7.966
REMARK INTER + INTRA:         -11.218
REMARK INTER:                  -7.377
REMARK INTRA:                  -3.841
REMARK UNBOUND:                -3.397
REMARK SMILES CCCCCCCCCCCCCCCCCCCCCCCC(=O)[O-]
REMARK SMILES IDX 13 1 14 2 15 3 16 4 17 5 18 6 19 7 20 8 21 9 22 10 23 11
REMARK SMILES IDX 24 12 25 13 26 14 12 15 11 16 10 17 9 18 8 19 7 20 6 21 5 22
REMARK SMILES IDX 4 23 3 24 2 25 1 26
REMARK H PARENT
REMARK Flexibility Score: inf
ROOT
ATOM      1  C   UNL     1     -43.844 -47.207  70.265  1.00  0.00     0.000 C 
ENDROOT
BRANCH   1   2
ATOM      2  C   UNL     1     -44.300 -48.664  70.458  1.00  0.00     0.000 C 
BRANCH   2   3
ATOM      3  C   UNL     1     -45.796 -48.782  70.784  1.00  0.00     0.000 C 
BRANCH   3   4
ATOM      4  C   UNL     1     -46.397 -47.407  71.099  1.00  0.00     0.000 C 
BRANCH   4   5
ATOM      5  C   UNL     1     -47.681 -47.166  70.294  1.00  0.00     0.000 C 
BRANCH   5   6
ATOM      6  C   UNL     1     -48.631 -48.375  70.313  1.00  0.00     0.000 C 
BRANCH   6   7
ATOM      7  C   UNL     1     -49.067 -48.812  68.906  1.00  0.00     0.000 C 
BRANCH   7   8
ATOM      8  C   UNL     1     -48.424 -47.926  67.828  1.00  0.00     0.000 C 
BRANCH   8   9
ATOM      9  C   UNL     1     -47.486 -48.721  66.893  1.00  0.00     0.000 C 
BRANCH   9  10
ATOM     10  C   UNL     1     -45.990 -48.518  67.199  1.00  0.00     0.006 C 
BRANCH  10  11
ATOM     11  C   UNL     1     -45.124 -49.766  66.968  1.00  0.00     0.053 C 
BRANCH  11  12
ATOM     12  C   UNL     1     -43.724 -49.412  66.566  1.00  0.00     0.041 C 
ATOM     13  O   UNL     1     -43.212 -48.325  66.947  1.00  0.00    -0.550 OA
ATOM     14  O   UNL     1     -42.990 -50.269  65.756  1.00  0.00    -0.550 OA
ENDBRANCH  11  12
ENDBRANCH  10  11
ENDBRANCH   9  10
ENDBRANCH   8   9
ENDBRANCH   7   8
ENDBRANCH   6   7
ENDBRANCH   5   6
ENDBRANCH   4   5
ENDBRANCH   3   4
ENDBRANCH   2   3
ENDBRANCH   1   2
BRANCH   1  15
ATOM     15  C   UNL     1     -42.879 -46.670  71.345  1.00  0.00     0.000 C 
BRANCH  15  16
ATOM     16  C   UNL     1     -43.407 -45.484  72.173  1.00  0.00     0.000 C 
BRANCH  16  17
ATOM     17  C   UNL     1     -42.317 -44.452  72.509  1.00  0.00     0.000 C 
BRANCH  17  18
ATOM     18  C   UNL     1     -42.893 -43.073  72.870  1.00  0.00    -0.000 C 
BRANCH  18  19
ATOM     19  C   UNL     1     -42.171 -41.897  72.179  1.00  0.00    -0.000 C 
BRANCH  19  20
ATOM     20  C   UNL     1     -43.097 -41.133  71.215  1.00  0.00    -0.000 C 
BRANCH  20  21
ATOM     21  C   UNL     1     -42.832 -41.496  69.738  1.00  0.00    -0.000 C 
BRANCH  21  22
ATOM     22  C   UNL     1     -43.677 -42.678  69.234  1.00  0.00    -0.000 C 
BRANCH  22  23
ATOM     23  C   UNL     1     -42.822 -43.880  68.804  1.00  0.00    -0.000 C 
BRANCH  23  24
ATOM     24  C   UNL     1     -41.357 -43.468  68.598  1.00  0.00    -0.000 C 
BRANCH  24  25
ATOM     25  C   UNL     1     -40.374 -44.390  69.338  1.00  0.00    -0.003 C 
ATOM     26  C   UNL     1     -39.457 -43.636  70.300  1.00  0.00     0.004 C 
ENDBRANCH  24  25
ENDBRANCH  23  24
ENDBRANCH  22  23
ENDBRANCH  21  22
ENDBRANCH  20  21
ENDBRANCH  19  20
ENDBRANCH  18  19
ENDBRANCH  17  18
ENDBRANCH  16  17
ENDBRANCH  15  16
ENDBRANCH   1  15
TORSDOF 22
ENDMDL
MODEL 4
REMARK VINA RESULT:    -3.420      2.498      4.043
REMARK INTER + INTRA:         -11.215
REMARK INTER:                  -7.157
REMARK INTRA:                  -4.058
REMARK UNBOUND:                -3.397
REMARK SMILES CCCCCCCCCCCCCCCCCCCCCCCC(=O)[O-]
REMARK SMILES IDX 13 1 14 2 15 3 16 4 17 5 18 6 19 7 20 8 21 9 22 10 23 11
REMARK SMILES IDX 24 12 25 13 26 14 12 15 11 16 10 17 9 18 8 19 7 20 6 21 5 22
REMARK SMILES IDX 4 23 3 24 2 25 1 26
REMARK H PARENT
REMARK Flexibility Score: inf
ROOT
ATOM      1  C   UNL     1     -43.446 -47.734  69.688  1.00  0.00     0.000 C 
ENDROOT
BRANCH   1   2
ATOM      2  C   UNL     1     -41.911 -47.670  69.770  1.00  0.00     0.000 C 
BRANCH   2   3
ATOM      3  C   UNL     1     -41.256 -47.332  68.422  1.00  0.00     0.000 C 
BRANCH   3   4
ATOM      4  C   UNL     1     -42.318 -47.129  67.335  1.00  0.00     0.000 C 
BRANCH   4   5
ATOM      5  C   UNL     1     -42.333 -45.674  66.842  1.00  0.00     0.000 C 
BRANCH   5   6
ATOM      6  C   UNL     1     -41.460 -44.746  67.700  1.00  0.00     0.000 C 
BRANCH   6   7
ATOM      7  C   UNL     1     -42.258 -43.602  68.343  1.00  0.00     0.000 C 
BRANCH   7   8
ATOM      8  C   UNL     1     -41.986 -43.520  69.852  1.00  0.00     0.000 C 
BRANCH   8   9
ATOM      9  C   UNL     1     -43.067 -44.242  70.687  1.00  0.00     0.000 C 
BRANCH   9  10
ATOM     10  C   UNL     1     -42.560 -44.751  72.050  1.00  0.00     0.006 C 
BRANCH  10  11
ATOM     11  C   UNL     1     -43.586 -45.582  72.834  1.00  0.00     0.053 C 
BRANCH  11  12
ATOM     12  C   UNL     1     -43.502 -45.331  74.310  1.00  0.00     0.041 C 
ATOM     13  O   UNL     1     -44.555 -45.232  74.994  1.00  0.00    -0.550 OA
ATOM     14  O   UNL     1     -42.267 -45.189  74.927  1.00  0.00    -0.550 OA
ENDBRANCH  11  12
ENDBRANCH  10  11
ENDBRANCH   9  10
ENDBRANCH   8   9
ENDBRANCH   7   8
ENDBRANCH   6   7
ENDBRANCH   5   6
ENDBRANCH   4   5
ENDBRANCH   3   4
ENDBRANCH   2   3
ENDBRANCH   1   2
BRANCH   1  15
ATOM     15  C   UNL     1     -44.103 -48.872  70.500  1.00  0.00     0.000 C 
BRANCH  15  16
ATOM     16  C   UNL     1     -45.632 -48.775  70.659  1.00  0.00     0.000 C 
BRANCH  16  17
ATOM     17  C   UNL     1     -46.158 -47.334  70.551  1.00  0.00     0.000 C 
BRANCH  17  18
ATOM     18  C   UNL     1     -47.691 -47.263  70.468  1.00  0.00    -0.000 C 
BRANCH  18  19
ATOM     19  C   UNL     1     -48.403 -48.508  71.040  1.00  0.00    -0.000 C 
BRANCH  19  20
ATOM     20  C   UNL     1     -49.669 -48.871  70.240  1.00  0.00    -0.000 C 
BRANCH  20  21
ATOM     21  C   UNL     1     -49.381 -49.033  68.732  1.00  0.00    -0.000 C 
BRANCH  21  22
ATOM     22  C   UNL     1     -48.516 -50.260  68.399  1.00  0.00    -0.000 C 
BRANCH  22  23
ATOM     23  C   UNL     1     -47.700 -50.080  67.110  1.00  0.00    -0.000 C 
BRANCH  23  24
ATOM     24  C   UNL     1     -47.101 -48.668  67.029  1.00  0.00    -0.000 C 
BRANCH  24  25
ATOM     25  C   UNL     1     -45.582 -48.683  66.798  1.00  0.00    -0.003 C 
ATOM     26  C   UNL     1     -44.945 -50.039  67.099  1.00  0.00     0.004 C 
ENDBRANCH  24  25
ENDBRANCH  23  24
ENDBRANCH  22  23
ENDBRANCH  21  22
ENDBRANCH  20  21
ENDBRANCH  19  20
ENDBRANCH  18  19
ENDBRANCH  17  18
ENDBRANCH  16  17
ENDBRANCH  15  16
ENDBRANCH   1  15
TORSDOF 22
ENDMDL
MODEL 5
REMARK VINA RESULT:    -3.416      3.564      7.798
REMARK INTER + INTRA:         -11.206
REMARK INTER:                  -8.042
REMARK INTRA:                  -3.164
REMARK UNBOUND:                -3.397
REMARK SMILES CCCCCCCCCCCCCCCCCCCCCCCC(=O)[O-]
REMARK SMILES IDX 13 1 14 2 15 3 16 4 17 5 18 6 19 7 20 8 21 9 22 10 23 11
REMARK SMILES IDX 24 12 25 13 26 14 12 15 11 16 10 17 9 18 8 19 7 20 6 21 5 22
REMARK SMILES IDX 4 23 3 24 2 25 1 26
REMARK H PARENT
REMARK Flexibility Score: inf
ROOT
ATOM      1  C   UNL     1     -44.518 -48.234  68.089  1.00  0.00     0.000 C 
ENDROOT
BRANCH   1   2
ATOM      2  C   UNL     1     -44.518 -49.395  69.098  1.00  0.00     0.000 C 
BRANCH   2   3
ATOM      3  C   UNL     1     -44.756 -48.929  70.543  1.00  0.00     0.000 C 
BRANCH   3   4
ATOM      4  C   UNL     1     -45.015 -47.419  70.593  1.00  0.00     0.000 C 
BRANCH   4   5
ATOM      5  C   UNL     1     -46.320 -47.106  71.341  1.00  0.00     0.000 C 
BRANCH   5   6
ATOM      6  C   UNL     1     -47.541 -47.057  70.410  1.00  0.00     0.000 C 
BRANCH   6   7
ATOM      7  C   UNL     1     -48.401 -48.328  70.487  1.00  0.00     0.000 C 
BRANCH   7   8
ATOM      8  C   UNL     1     -48.831 -48.790  69.086  1.00  0.00     0.000 C 
BRANCH   8   9
ATOM      9  C   UNL     1     -48.535 -47.732  68.000  1.00  0.00     0.000 C 
BRANCH   9  10
ATOM     10  C   UNL     1     -47.922 -48.319  66.714  1.00  0.00     0.006 C 
BRANCH  10  11
ATOM     11  C   UNL     1     -48.916 -48.470  65.553  1.00  0.00     0.053 C 
BRANCH  11  12
ATOM     12  C   UNL     1     -49.344 -47.143  65.003  1.00  0.00     0.041 C 
ATOM     13  O   UNL     1     -50.280 -46.504  65.552  1.00  0.00    -0.550 OA
ATOM     14  O   UNL     1     -48.725 -46.621  63.875  1.00  0.00    -0.550 OA
ENDBRANCH  11  12
ENDBRANCH  10  11
ENDBRANCH   9  10
ENDBRANCH   8   9
ENDBRANCH   7   8
ENDBRANCH   6   7
ENDBRANCH   5   6
ENDBRANCH   4   5
ENDBRANCH   3   4
ENDBRANCH   2   3
ENDBRANCH   1   2
BRANCH   1  15
ATOM     15  C   UNL     1     -43.561 -48.404  66.889  1.00  0.00     0.000 C 
BRANCH  15  16
ATOM     16  C   UNL     1     -42.454 -47.340  66.769  1.00  0.00     0.000 C 
BRANCH  16  17
ATOM     17  C   UNL     1     -42.458 -46.334  67.932  1.00  0.00     0.000 C 
BRANCH  17  18
ATOM     18  C   UNL     1     -42.356 -44.874  67.458  1.00  0.00    -0.000 C 
BRANCH  18  19
ATOM     19  C   UNL     1     -42.609 -43.839  68.575  1.00  0.00    -0.000 C 
BRANCH  19  20
ATOM     20  C   UNL     1     -43.098 -44.498  69.878  1.00  0.00    -0.000 C 
BRANCH  20  21
ATOM     21  C   UNL     1     -42.103 -44.302  71.042  1.00  0.00    -0.000 C 
BRANCH  21  22
ATOM     22  C   UNL     1     -41.444 -45.608  71.515  1.00  0.00    -0.000 C 
BRANCH  22  23
ATOM     23  C   UNL     1     -42.324 -46.396  72.497  1.00  0.00    -0.000 C 
BRANCH  23  24
ATOM     24  C   UNL     1     -41.903 -46.130  73.950  1.00  0.00    -0.000 C 
BRANCH  24  25
ATOM     25  C   UNL     1     -42.972 -45.364  74.745  1.00  0.00    -0.003 C 
ATOM     26  C   UNL     1     -44.274 -45.178  73.968  1.00  0.00     0.004 C 
ENDBRANCH  24  25
ENDBRANCH  23  24
ENDBRANCH  22  23
ENDBRANCH  21  22
ENDBRANCH  20  21
ENDBRANCH  19  20
ENDBRANCH  18  19
ENDBRANCH  17  18
ENDBRANCH  16  17
ENDBRANCH  15  16
ENDBRANCH   1  15
TORSDOF 22
ENDMDL
MODEL 6
REMARK VINA RESULT:    -3.396      2.384      4.708
REMARK INTER + INTRA:         -11.160
REMARK INTER:                  -7.641
REMARK INTRA:                  -3.519
REMARK UNBOUND:                -3.397
REMARK SMILES CCCCCCCCCCCCCCCCCCCCCCCC(=O)[O-]
REMARK SMILES IDX 13 1 14 2 15 3 16 4 17 5 18 6 19 7 20 8 21 9 22 10 23 11
REMARK SMILES IDX 24 12 25 13 26 14 12 15 11 16 10 17 9 18 8 19 7 20 6 21 5 22
REMARK SMILES IDX 4 23 3 24 2 25 1 26
REMARK H PARENT
REMARK Flexibility Score: inf
ROOT
ATOM      1  C   UNL     1     -41.333 -46.843  69.284  1.00  0.00     0.000 C 
ENDROOT
BRANCH   1   2
ATOM      2  C   UNL     1     -42.078 -46.555  67.969  1.00  0.00     0.000 C 
BRANCH   2   3
ATOM      3  C   UNL     1     -42.197 -45.054  67.667  1.00  0.00     0.000 C 
BRANCH   3   4
ATOM      4  C   UNL     1     -40.929 -44.308  68.099  1.00  0.00     0.000 C 
BRANCH   4   5
ATOM      5  C   UNL     1     -41.241 -42.847  68.456  1.00  0.00     0.000 C 
BRANCH   5   6
ATOM      6  C   UNL     1     -42.636 -42.671  69.075  1.00  0.00     0.000 C 
BRANCH   6   7
ATOM      7  C   UNL     1     -42.601 -42.588  70.609  1.00  0.00     0.000 C 
BRANCH   7   8
ATOM      8  C   UNL     1     -42.970 -43.938  71.242  1.00  0.00     0.000 C 
BRANCH   8   9
ATOM      9  C   UNL     1     -41.956 -44.379  72.321  1.00  0.00     0.000 C 
BRANCH   9  10
ATOM     10  C   UNL     1     -42.496 -45.466  73.271  1.00  0.00     0.006 C 
BRANCH  10  11
ATOM     11  C   UNL     1     -43.914 -45.195  73.798  1.00  0.00     0.053 C 
BRANCH  11  12
ATOM     12  C   UNL     1     -43.928 -44.963  75.279  1.00  0.00     0.041 C 
ATOM     13  O   UNL     1     -44.262 -43.840  75.740  1.00  0.00    -0.550 OA
ATOM     14  O   UNL     1     -43.555 -45.979  76.150  1.00  0.00    -0.550 OA
ENDBRANCH  11  12
ENDBRANCH  10  11
ENDBRANCH   9  10
ENDBRANCH   8   9
ENDBRANCH   7   8
ENDBRANCH   6   7
ENDBRANCH   5   6
ENDBRANCH   4   5
ENDBRANCH   3   4
ENDBRANCH   2   3
ENDBRANCH   1   2
BRANCH   1  15
ATOM     15  C   UNL     1     -42.156 -47.585  70.359  1.00  0.00     0.000 C 
BRANCH  15  16
ATOM     16  C   UNL     1     -43.603 -47.932  69.962  1.00  0.00     0.000 C 
BRANCH  16  17
ATOM     17  C   UNL     1     -44.651 -47.083  70.702  1.00  0.00     0.000 C 
BRANCH  17  18
ATOM     18  C   UNL     1     -45.939 -47.863  71.013  1.00  0.00    -0.000 C 
BRANCH  18  19
ATOM     19  C   UNL     1     -47.230 -47.122  70.605  1.00  0.00    -0.000 C 
BRANCH  19  20
ATOM     20  C   UNL     1     -48.497 -47.908  70.990  1.00  0.00    -0.000 C 
BRANCH  20  21
ATOM     21  C   UNL     1     -48.967 -48.848  69.859  1.00  0.00    -0.000 C 
BRANCH  21  22
ATOM     22  C   UNL     1     -48.903 -48.210  68.462  1.00  0.00    -0.000 C 
BRANCH  22  23
ATOM     23  C   UNL     1     -48.469 -49.203  67.374  1.00  0.00    -0.000 C 
BRANCH  23  24
ATOM     24  C   UNL     1     -47.318 -48.632  66.533  1.00  0.00    -0.000 C 
BRANCH  24  25
ATOM     25  C   UNL     1     -45.962 -48.712  67.252  1.00  0.00    -0.003 C 
ATOM     26  C   UNL     1     -45.647 -50.113  67.776  1.00  0.00     0.004 C 
ENDBRANCH  24  25
ENDBRANCH  23  24
ENDBRANCH  22  23
ENDBRANCH  21  22
ENDBRANCH  20  21
ENDBRANCH  19  20
ENDBRANCH  18  19
ENDBRANCH  17  18
ENDBRANCH  16  17
ENDBRANCH  15  16
ENDBRANCH   1  15
TORSDOF 22
ENDMDL
MODEL 7
REMARK VINA RESULT:    -3.370      2.466      4.602
REMARK INTER + INTRA:         -11.101
REMARK INTER:                  -8.012
REMARK INTRA:                  -3.089
REMARK UNBOUND:                -3.397
REMARK SMILES CCCCCCCCCCCCCCCCCCCCCCCC(=O)[O-]
REMARK SMILES IDX 13 1 14 2 15 3 16 4 17 5 18 6 19 7 20 8 21 9 22 10 23 11
REMARK SMILES IDX 24 12 25 13 26 14 12 15 11 16 10 17 9 18 8 19 7 20 6 21 5 22
REMARK SMILES IDX 4 23 3 24 2 25 1 26
REMARK H PARENT
REMARK Flexibility Score: inf
ROOT
ATOM      1  C   UNL     1     -42.391 -45.618  67.990  1.00  0.00     0.000 C 
ENDROOT
BRANCH   1   2
ATOM      2  C   UNL     1     -42.312 -44.120  68.335  1.00  0.00     0.000 C 
BRANCH   2   3
ATOM      3  C   UNL     1     -43.455 -43.659  69.252  1.00  0.00     0.000 C 
BRANCH   3   4
ATOM      4  C   UNL     1     -43.082 -42.362  69.979  1.00  0.00     0.000 C 
BRANCH   4   5
ATOM      5  C   UNL     1     -41.681 -42.460  70.602  1.00  0.00     0.000 C 
BRANCH   5   6
ATOM      6  C   UNL     1     -41.688 -43.145  71.977  1.00  0.00     0.000 C 
BRANCH   6   7
ATOM      7  C   UNL     1     -41.149 -44.583  71.930  1.00  0.00     0.000 C 
BRANCH   7   8
ATOM      8  C   UNL     1     -41.930 -45.496  72.888  1.00  0.00     0.000 C 
BRANCH   8   9
ATOM      9  C   UNL     1     -43.444 -45.515  72.583  1.00  0.00     0.000 C 
BRANCH   9  10
ATOM     10  C   UNL     1     -44.328 -45.258  73.819  1.00  0.00     0.006 C 
BRANCH  10  11
ATOM     11  C   UNL     1     -43.555 -45.197  75.145  1.00  0.00     0.053 C 
BRANCH  11  12
ATOM     12  C   UNL     1     -43.563 -43.821  75.738  1.00  0.00     0.041 C 
ATOM     13  O   UNL     1     -44.560 -43.421  76.395  1.00  0.00    -0.550 OA
ATOM     14  O   UNL     1     -42.480 -42.972  75.550  1.00  0.00    -0.550 OA
ENDBRANCH  11  12
ENDBRANCH  10  11
ENDBRANCH   9  10
ENDBRANCH   8   9
ENDBRANCH   7   8
ENDBRANCH   6   7
ENDBRANCH   5   6
ENDBRANCH   4   5
ENDBRANCH   3   4
ENDBRANCH   2   3
ENDBRANCH   1   2
BRANCH   1  15
ATOM     15  C   UNL     1     -42.678 -46.555  69.184  1.00  0.00     0.000 C 
BRANCH  15  16
ATOM     16  C   UNL     1     -43.863 -47.521  68.997  1.00  0.00     0.000 C 
BRANCH  16  17
ATOM     17  C   UNL     1     -43.974 -48.562  70.123  1.00  0.00     0.000 C 
BRANCH  17  18
ATOM     18  C   UNL     1     -45.359 -48.574  70.791  1.00  0.00    -0.000 C 
BRANCH  18  19
ATOM     19  C   UNL     1     -46.005 -47.177  70.908  1.00  0.00    -0.000 C 
BRANCH  19  20
ATOM     20  C   UNL     1     -47.488 -47.187  70.491  1.00  0.00    -0.000 C 
BRANCH  20  21
ATOM     21  C   UNL     1     -48.051 -48.619  70.367  1.00  0.00    -0.000 C 
BRANCH  21  22
ATOM     22  C   UNL     1     -48.287 -49.064  68.914  1.00  0.00    -0.000 C 
BRANCH  22  23
ATOM     23  C   UNL     1     -48.116 -47.918  67.906  1.00  0.00    -0.000 C 
BRANCH  23  24
ATOM     24  C   UNL     1     -49.478 -47.405  67.417  1.00  0.00    -0.000 C 
BRANCH  24  25
ATOM     25  C   UNL     1     -49.511 -47.166  65.899  1.00  0.00    -0.003 C 
ATOM     26  C   UNL     1     -48.505 -48.028  65.138  1.00  0.00     0.004 C 
ENDBRANCH  24  25
ENDBRANCH  23  24
ENDBRANCH  22  23
ENDBRANCH  21  22
ENDBRANCH  20  21
ENDBRANCH  19  20
ENDBRANCH  18  19
ENDBRANCH  17  18
ENDBRANCH  16  17
ENDBRANCH  15  16
ENDBRANCH   1  15
TORSDOF 22
ENDMDL
MODEL 8
REMARK VINA RESULT:    -3.326      3.218      5.452
REMARK INTER + INTRA:         -11.001
REMARK INTER:                  -6.759
REMARK INTRA:                  -4.242
REMARK UNBOUND:                -3.397
REMARK SMILES CCCCCCCCCCCCCCCCCCCCCCCC(=O)[O-]
REMARK SMILES IDX 13 1 14 2 15 3 16 4 17 5 18 6 19 7 20 8 21 9 22 10 23 11
REMARK SMILES IDX 24 12 25 13 26 14 12 15 11 16 10 17 9 18 8 19 7 20 6 21 5 22
REMARK SMILES IDX 4 23 3 24 2 25 1 26
REMARK H PARENT
REMARK Flexibility Score: inf
ROOT
ATOM      1  C   UNL     1     -43.247 -46.368  71.792  1.00  0.00     0.000 C 
ENDROOT
BRANCH   1   2
ATOM      2  C   UNL     1     -42.027 -47.263  71.515  1.00  0.00     0.000 C 
BRANCH   2   3
ATOM      3  C   UNL     1     -40.943 -47.145  72.597  1.00  0.00     0.000 C 
BRANCH   3   4
ATOM      4  C   UNL     1     -41.496 -46.458  73.851  1.00  0.00     0.000 C 
BRANCH   4   5
ATOM      5  C   UNL     1     -40.610 -45.276  74.271  1.00  0.00     0.000 C 
BRANCH   5   6
ATOM      6  C   UNL     1     -40.341 -44.295  73.119  1.00  0.00     0.000 C 
BRANCH   6   7
ATOM      7  C   UNL     1     -40.288 -42.831  73.582  1.00  0.00     0.000 C 
BRANCH   7   8
ATOM      8  C   UNL     1     -41.205 -41.947  72.724  1.00  0.00     0.000 C 
BRANCH   8   9
ATOM      9  C   UNL     1     -42.651 -42.486  72.659  1.00  0.00     0.000 C 
BRANCH   9  10
ATOM     10  C   UNL     1     -43.434 -42.322  73.977  1.00  0.00     0.006 C 
BRANCH  10  11
ATOM     11  C   UNL     1     -43.975 -43.638  74.556  1.00  0.00     0.053 C 
BRANCH  11  12
ATOM     12  C   UNL     1     -43.407 -43.930  75.912  1.00  0.00     0.041 C 
ATOM     13  O   UNL     1     -43.739 -44.981  76.523  1.00  0.00    -0.550 OA
ATOM     14  O   UNL     1     -42.528 -43.037  76.511  1.00  0.00    -0.550 OA
ENDBRANCH  11  12
ENDBRANCH  10  11
ENDBRANCH   9  10
ENDBRANCH   8   9
ENDBRANCH   7   8
ENDBRANCH   6   7
ENDBRANCH   5   6
ENDBRANCH   4   5
ENDBRANCH   3   4
ENDBRANCH   2   3
ENDBRANCH   1   2
BRANCH   1  15
ATOM     15  C   UNL     1     -43.531 -45.291  70.721  1.00  0.00     0.000 C 
BRANCH  15  16
ATOM     16  C   UNL     1     -42.299 -44.791  69.943  1.00  0.00     0.000 C 
BRANCH  16  17
ATOM     17  C   UNL     1     -42.665 -44.094  68.622  1.00  0.00     0.000 C 
BRANCH  17  18
ATOM     18  C   UNL     1     -42.078 -44.804  67.391  1.00  0.00    -0.000 C 
BRANCH  18  19
ATOM     19  C   UNL     1     -41.785 -46.302  67.617  1.00  0.00    -0.000 C 
BRANCH  19  20
ATOM     20  C   UNL     1     -42.964 -47.195  67.188  1.00  0.00    -0.000 C 
BRANCH  20  21
ATOM     21  C   UNL     1     -43.194 -48.368  68.166  1.00  0.00    -0.000 C 
BRANCH  21  22
ATOM     22  C   UNL     1     -44.591 -48.368  68.810  1.00  0.00    -0.000 C 
BRANCH  22  23
ATOM     23  C   UNL     1     -44.693 -49.323  70.008  1.00  0.00    -0.000 C 
BRANCH  23  24
ATOM     24  C   UNL     1     -46.026 -49.139  70.749  1.00  0.00    -0.000 C 
BRANCH  24  25
ATOM     25  C   UNL     1     -46.450 -47.665  70.845  1.00  0.00    -0.003 C 
ATOM     26  C   UNL     1     -47.960 -47.487  70.998  1.00  0.00     0.004 C 
ENDBRANCH  24  25
ENDBRANCH  23  24
ENDBRANCH  22  23
ENDBRANCH  21  22
ENDBRANCH  20  21
ENDBRANCH  19  20
ENDBRANCH  18  19
ENDBRANCH  17  18
ENDBRANCH  16  17
ENDBRANCH  15  16
ENDBRANCH   1  15
TORSDOF 22
ENDMDL
MODEL 9
REMARK VINA RESULT:    -3.315      2.541      4.969
REMARK INTER + INTRA:         -10.976
REMARK INTER:                  -7.043
REMARK INTRA:                  -3.933
REMARK UNBOUND:                -3.397
REMARK SMILES CCCCCCCCCCCCCCCCCCCCCCCC(=O)[O-]
REMARK SMILES IDX 13 1 14 2 15 3 16 4 17 5 18 6 19 7 20 8 21 9 22 10 23 11
REMARK SMILES IDX 24 12 25 13 26 14 12 15 11 16 10 17 9 18 8 19 7 20 6 21 5 22
REMARK SMILES IDX 4 23 3 24 2 25 1 26
REMARK H PARENT
REMARK Flexibility Score: inf
ROOT
ATOM      1  C   UNL     1     -45.760 -49.846  66.557  1.00  0.00     0.000 C 
ENDROOT
BRANCH   1   2
ATOM      2  C   UNL     1     -44.241 -49.610  66.619  1.00  0.00     0.000 C 
BRANCH   2   3
ATOM      3  C   UNL     1     -43.876 -48.138  66.868  1.00  0.00     0.000 C 
BRANCH   3   4
ATOM      4  C   UNL     1     -42.674 -47.721  66.013  1.00  0.00     0.000 C 
BRANCH   4   5
ATOM      5  C   UNL     1     -42.279 -46.263  66.288  1.00  0.00     0.000 C 
BRANCH   5   6
ATOM      6  C   UNL     1     -42.406 -45.882  67.772  1.00  0.00     0.000 C 
BRANCH   6   7
ATOM      7  C   UNL     1     -41.740 -44.537  68.102  1.00  0.00     0.000 C 
BRANCH   7   8
ATOM      8  C   UNL     1     -42.695 -43.627  68.888  1.00  0.00     0.000 C 
BRANCH   8   9
ATOM      9  C   UNL     1     -43.492 -44.398  69.964  1.00  0.00     0.000 C 
BRANCH   9  10
ATOM     10  C   UNL     1     -42.631 -44.880  71.147  1.00  0.00     0.006 C 
BRANCH  10  11
ATOM     11  C   UNL     1     -42.933 -44.173  72.477  1.00  0.00     0.053 C 
BRANCH  11  12
ATOM     12  C   UNL     1     -43.215 -45.147  73.580  1.00  0.00     0.041 C 
ATOM     13  O   UNL     1     -42.334 -45.977  73.931  1.00  0.00    -0.550 OA
ATOM     14  O   UNL     1     -44.454 -45.155  74.208  1.00  0.00    -0.550 OA
ENDBRANCH  11  12
ENDBRANCH  10  11
ENDBRANCH   9  10
ENDBRANCH   8   9
ENDBRANCH   7   8
ENDBRANCH   6   7
ENDBRANCH   5   6
ENDBRANCH   4   5
ENDBRANCH   3   4
ENDBRANCH   2   3
ENDBRANCH   1   2
BRANCH   1  15
ATOM     15  C   UNL     1     -46.630 -48.678  67.070  1.00  0.00     0.000 C 
BRANCH  15  16
ATOM     16  C   UNL     1     -48.000 -49.078  67.651  1.00  0.00     0.000 C 
BRANCH  16  17
ATOM     17  C   UNL     1     -48.689 -47.932  68.410  1.00  0.00     0.000 C 
BRANCH  17  18
ATOM     18  C   UNL     1     -48.310 -47.890  69.899  1.00  0.00    -0.000 C 
BRANCH  18  19
ATOM     19  C   UNL     1     -47.234 -46.837  70.238  1.00  0.00    -0.000 C 
BRANCH  19  20
ATOM     20  C   UNL     1     -46.202 -47.365  71.252  1.00  0.00    -0.000 C 
BRANCH  20  21
ATOM     21  C   UNL     1     -44.874 -47.769  70.578  1.00  0.00    -0.000 C 
BRANCH  21  22
ATOM     22  C   UNL     1     -44.707 -49.289  70.407  1.00  0.00    -0.000 C 
BRANCH  22  23
ATOM     23  C   UNL     1     -43.236 -49.716  70.289  1.00  0.00    -0.000 C 
BRANCH  23  24
ATOM     24  C   UNL     1     -42.296 -48.517  70.487  1.00  0.00    -0.000 C 
BRANCH  24  25
ATOM     25  C   UNL     1     -41.003 -48.638  69.667  1.00  0.00    -0.003 C 
ATOM     26  C   UNL     1     -41.023 -49.813  68.690  1.00  0.00     0.004 C 
ENDBRANCH  24  25
ENDBRANCH  23  24
ENDBRANCH  22  23
ENDBRANCH  21  22
ENDBRANCH  20  21
ENDBRANCH  19  20
ENDBRANCH  18  19
ENDBRANCH  17  18
ENDBRANCH  16  17
ENDBRANCH  15  16
ENDBRANCH   1  15
TORSDOF 22
ENDMDL
