MODEL 1
REMARK VINA RESULT:    25.572      0.000      0.000
REMARK INTER + INTRA:          30.560
REMARK INTER:                  30.805
REMARK INTRA:                  -0.244
REMARK UNBOUND:                -0.244
REMARK SMILES O=c1c(O)c(-c2ccc(O)c(O)c2)oc2cc(O)cc(O)c12
REMARK SMILES IDX 5 1 3 2 2 3 1 4 22 5 20 6 19 7 17 8 16 9 15 10 14 11 6 12
REMARK SMILES IDX 7 13 8 14 9 15 13 16 11 17 10 18 12 20 4 22 21 24 18 26
REMARK H PARENT 10 19 12 21 4 23 21 25 18 27
REMARK Flexibility Score: inf
ROOT
ATOM      1  C   UNL     1      14.443  50.149  24.133  1.00  0.00     0.180 A 
ATOM      2  C   UNL     1      14.913  51.474  24.047  1.00  0.00     0.208 A 
ATOM      3  C   UNL     1      15.958  51.878  24.892  1.00  0.00     0.238 A 
ATOM      4  O   UNL     1      16.379  53.066  24.832  1.00  0.00    -0.285 OA
ATOM      5  C   UNL     1      16.529  50.952  25.789  1.00  0.00     0.111 A 
ATOM      6  C   UNL     1      17.587  51.278  26.670  1.00  0.00     0.134 A 
ATOM      7  C   UNL     1      18.106  50.296  27.527  1.00  0.00     0.093 A 
ATOM      8  C   UNL     1      17.590  48.998  27.519  1.00  0.00     0.123 A 
ATOM      9  C   UNL     1      16.544  48.670  26.651  1.00  0.00     0.094 A 
ATOM     10  C   UNL     1      16.011  49.634  25.790  1.00  0.00     0.146 A 
ATOM     11  O   UNL     1      15.015  49.298  24.980  1.00  0.00    -0.452 OA
ENDROOT
BRANCH   1  12
ATOM     12  C   UNL     1      13.332  49.652  23.290  1.00  0.00     0.025 A 
ATOM     13  C   UNL     1      13.591  48.687  22.303  1.00  0.00     0.016 A 
ATOM     14  C   UNL     1      12.554  48.189  21.510  1.00  0.00     0.051 A 
ATOM     15  C   UNL     1      11.243  48.634  21.700  1.00  0.00     0.157 A 
ATOM     16  C   UNL     1      12.008  50.083  23.493  1.00  0.00     0.062 A 
ATOM     17  C   UNL     1      10.966  49.583  22.698  1.00  0.00     0.158 A 
BRANCH  15  18
ATOM     18  O   UNL     1      10.229  48.121  20.891  1.00  0.00    -0.504 OA
ATOM     19  H   UNL     1       9.831  47.202  21.046  1.00  0.00     0.293 HD
ENDBRANCH  15  18
BRANCH  17  20
ATOM     20  O   UNL     1       9.659  50.021  22.902  1.00  0.00    -0.504 OA
ATOM     21  H   UNL     1       8.877  49.378  22.905  1.00  0.00     0.293 HD
ENDBRANCH  17  20
ENDBRANCH   1  12
BRANCH   2  22
ATOM     22  O   UNL     1      14.365  52.358  23.115  1.00  0.00    -0.502 OA
ATOM     23  H   UNL     1      13.764  52.049  22.360  1.00  0.00     0.293 HD
ENDBRANCH   2  22
BRANCH   6  24
ATOM     24  O   UNL     1      18.125  52.565  26.701  1.00  0.00    -0.507 OA
ATOM     25  H   UNL     1      17.831  53.249  27.389  1.00  0.00     0.293 HD
ENDBRANCH   6  24
BRANCH   8  26
ATOM     26  O   UNL     1      18.125  48.042  28.379  1.00  0.00    -0.508 OA
ATOM     27  H   UNL     1      18.374  47.116  28.052  1.00  0.00     0.293 HD
ENDBRANCH   8  26
TORSDOF 6
ENDMDL
