MODEL 1
REMARK VINA RESULT:    -4.869      0.000      0.000
REMARK INTER + INTRA:          -9.796
REMARK INTER:                  -8.285
REMARK INTRA:                  -1.511
REMARK UNBOUND:                -1.511
REMARK SMILES CCCCCCCCCCCCCC(=O)[O-]
REMARK SMILES IDX 8 1 9 2 10 3 11 4 12 5 13 6 14 7 15 8 16 9 7 10 6 11 5 12
REMARK SMILES IDX 4 13 3 14 2 15 1 16
REMARK H PARENT
REMARK Flexibility Score: inf
ROOT
ATOM      1  C   UNL     1      76.308  11.670  20.363  1.00  0.00     0.000 C 
ENDROOT
BRANCH   1   2
ATOM      2  C   UNL     1      75.513  11.381  19.081  1.00  0.00     0.000 C 
BRANCH   2   3
ATOM      3  C   UNL     1      74.142  12.078  19.062  1.00  0.00     0.000 C 
BRANCH   3   4
ATOM      4  C   UNL     1      74.239  13.558  18.654  1.00  0.00     0.000 C 
BRANCH   4   5
ATOM      5  C   UNL     1      74.677  13.745  17.188  1.00  0.00     0.006 C 
BRANCH   5   6
ATOM      6  C   UNL     1      74.921  15.214  16.792  1.00  0.00     0.053 C 
BRANCH   6   7
ATOM      7  C   UNL     1      75.316  15.366  15.354  1.00  0.00     0.041 C 
ATOM      8  O   UNL     1      75.324  16.507  14.814  1.00  0.00    -0.550 OA
ATOM      9  O   UNL     1      75.674  14.248  14.608  1.00  0.00    -0.550 OA
ENDBRANCH   6   7
ENDBRANCH   5   6
ENDBRANCH   4   5
ENDBRANCH   3   4
ENDBRANCH   2   3
ENDBRANCH   1   2
BRANCH   1  10
ATOM     10  C   UNL     1      77.601  12.436  20.044  1.00  0.00     0.000 C 
BRANCH  10  11
ATOM     11  C   UNL     1      77.935  12.430  18.543  1.00  0.00    -0.000 C 
BRANCH  11  12
ATOM     12  C   UNL     1      78.339  13.820  18.021  1.00  0.00    -0.000 C 
BRANCH  12  13
ATOM     13  C   UNL     1      78.324  14.891  19.125  1.00  0.00    -0.000 C 
BRANCH  13  14
ATOM     14  C   UNL     1      79.734  15.370  19.502  1.00  0.00    -0.000 C 
BRANCH  14  15
ATOM     15  C   UNL     1      80.165  14.793  20.855  1.00  0.00    -0.003 C 
ATOM     16  C   UNL     1      81.604  14.289  20.807  1.00  0.00     0.004 C 
ENDBRANCH  14  15
ENDBRANCH  13  14
ENDBRANCH  12  13
ENDBRANCH  11  12
ENDBRANCH  10  11
ENDBRANCH   1  10
TORSDOF 12
ENDMDL
MODEL 2
REMARK VINA RESULT:    -4.807      1.301      2.114
REMARK INTER + INTRA:          -9.690
REMARK INTER:                  -8.507
REMARK INTRA:                  -1.183
REMARK UNBOUND:                -1.511
REMARK SMILES CCCCCCCCCCCCCC(=O)[O-]
REMARK SMILES IDX 8 1 9 2 10 3 11 4 12 5 13 6 14 7 15 8 16 9 7 10 6 11 5 12
REMARK SMILES IDX 4 13 3 14 2 15 1 16
REMARK H PARENT
REMARK Flexibility Score: inf
ROOT
ATOM      1  C   UNL     1      75.018  11.703  18.786  1.00  0.00     0.000 C 
ENDROOT
BRANCH   1   2
ATOM      2  C   UNL     1      73.996  12.844  18.665  1.00  0.00     0.000 C 
BRANCH   2   3
ATOM      3  C   UNL     1      74.415  13.911  17.639  1.00  0.00     0.000 C 
BRANCH   3   4
ATOM      4  C   UNL     1      75.411  14.929  18.221  1.00  0.00     0.000 C 
BRANCH   4   5
ATOM      5  C   UNL     1      76.549  15.277  17.240  1.00  0.00     0.006 C 
BRANCH   5   6
ATOM      6  C   UNL     1      76.131  15.232  15.758  1.00  0.00     0.053 C 
BRANCH   6   7
ATOM      7  C   UNL     1      75.675  16.565  15.246  1.00  0.00     0.041 C 
ATOM      8  O   UNL     1      74.472  16.737  14.906  1.00  0.00    -0.550 OA
ATOM      9  O   UNL     1      76.578  17.617  15.143  1.00  0.00    -0.550 OA
ENDBRANCH   6   7
ENDBRANCH   5   6
ENDBRANCH   4   5
ENDBRANCH   3   4
ENDBRANCH   2   3
ENDBRANCH   1   2
BRANCH   1  10
ATOM     10  C   UNL     1      75.713  11.735  20.156  1.00  0.00     0.000 C 
BRANCH  10  11
ATOM     11  C   UNL     1      76.994  10.883  20.188  1.00  0.00    -0.000 C 
BRANCH  11  12
ATOM     12  C   UNL     1      78.187  11.585  19.515  1.00  0.00    -0.000 C 
BRANCH  12  13
ATOM     13  C   UNL     1      78.196  13.102  19.764  1.00  0.00    -0.000 C 
BRANCH  13  14
ATOM     14  C   UNL     1      79.549  13.747  19.427  1.00  0.00    -0.000 C 
BRANCH  14  15
ATOM     15  C   UNL     1      80.000  14.693  20.546  1.00  0.00    -0.003 C 
ATOM     16  C   UNL     1      79.893  16.152  20.111  1.00  0.00     0.004 C 
ENDBRANCH  14  15
ENDBRANCH  13  14
ENDBRANCH  12  13
ENDBRANCH  11  12
ENDBRANCH  10  11
ENDBRANCH   1  10
TORSDOF 12
ENDMDL
MODEL 3
REMARK VINA RESULT:    -4.802      2.135      4.455
REMARK INTER + INTRA:          -9.683
REMARK INTER:                  -8.328
REMARK INTRA:                  -1.355
REMARK UNBOUND:                -1.511
REMARK SMILES CCCCCCCCCCCCCC(=O)[O-]
REMARK SMILES IDX 8 1 9 2 10 3 11 4 12 5 13 6 14 7 15 8 16 9 7 10 6 11 5 12
REMARK SMILES IDX 4 13 3 14 2 15 1 16
REMARK H PARENT
REMARK Flexibility Score: inf
ROOT
ATOM      1  C   UNL     1      75.433  14.481  16.953  1.00  0.00     0.000 C 
ENDROOT
BRANCH   1   2
ATOM      2  C   UNL     1      75.267  14.877  15.478  1.00  0.00     0.000 C 
BRANCH   2   3
ATOM      3  C   UNL     1      74.565  16.235  15.303  1.00  0.00     0.000 C 
BRANCH   3   4
ATOM      4  C   UNL     1      75.251  17.360  16.097  1.00  0.00     0.000 C 
BRANCH   4   5
ATOM      5  C   UNL     1      76.339  18.087  15.281  1.00  0.00     0.006 C 
BRANCH   5   6
ATOM      6  C   UNL     1      77.690  18.208  16.012  1.00  0.00     0.053 C 
BRANCH   6   7
ATOM      7  C   UNL     1      78.297  16.875  16.329  1.00  0.00     0.041 C 
ATOM      8  O   UNL     1      78.472  16.526  17.529  1.00  0.00    -0.550 OA
ATOM      9  O   UNL     1      78.669  16.016  15.300  1.00  0.00    -0.550 OA
ENDBRANCH   6   7
ENDBRANCH   5   6
ENDBRANCH   4   5
ENDBRANCH   3   4
ENDBRANCH   2   3
ENDBRANCH   1   2
BRANCH   1  10
ATOM     10  C   UNL     1      74.655  13.192  17.263  1.00  0.00     0.000 C 
BRANCH  10  11
ATOM     11  C   UNL     1      73.816  13.304  18.548  1.00  0.00    -0.000 C 
BRANCH  11  12
ATOM     12  C   UNL     1      74.055  12.129  19.512  1.00  0.00    -0.000 C 
BRANCH  12  13
ATOM     13  C   UNL     1      75.407  11.435  19.275  1.00  0.00    -0.000 C 
BRANCH  13  14
ATOM     14  C   UNL     1      76.419  11.717  20.395  1.00  0.00    -0.000 C 
BRANCH  14  15
ATOM     15  C   UNL     1      77.816  11.978  19.820  1.00  0.00    -0.003 C 
ATOM     16  C   UNL     1      77.986  13.444  19.429  1.00  0.00     0.004 C 
ENDBRANCH  14  15
ENDBRANCH  13  14
ENDBRANCH  12  13
ENDBRANCH  11  12
ENDBRANCH  10  11
ENDBRANCH   1  10
TORSDOF 12
ENDMDL
MODEL 4
REMARK VINA RESULT:    -4.710      3.123      5.916
REMARK INTER + INTRA:          -9.525
REMARK INTER:                  -7.736
REMARK INTRA:                  -1.789
REMARK UNBOUND:                -1.511
REMARK SMILES CCCCCCCCCCCCCC(=O)[O-]
REMARK SMILES IDX 8 1 9 2 10 3 11 4 12 5 13 6 14 7 15 8 16 9 7 10 6 11 5 12
REMARK SMILES IDX 4 13 3 14 2 15 1 16
REMARK H PARENT
REMARK Flexibility Score: inf
ROOT
ATOM      1  C   UNL     1      77.743  12.526  20.127  1.00  0.00     0.000 C 
ENDROOT
BRANCH   1   2
ATOM      2  C   UNL     1      78.159  12.576  18.649  1.00  0.00     0.000 C 
BRANCH   2   3
ATOM      3  C   UNL     1      78.507  13.998  18.177  1.00  0.00     0.000 C 
BRANCH   3   4
ATOM      4  C   UNL     1      78.529  15.013  19.333  1.00  0.00     0.000 C 
BRANCH   4   5
ATOM      5  C   UNL     1      79.955  15.473  19.696  1.00  0.00     0.006 C 
BRANCH   5   6
ATOM      6  C   UNL     1      80.638  14.602  20.767  1.00  0.00     0.053 C 
BRANCH   6   7
ATOM      7  C   UNL     1      81.819  13.849  20.232  1.00  0.00     0.041 C 
ATOM      8  O   UNL     1      81.663  12.709  19.713  1.00  0.00    -0.550 OA
ATOM      9  O   UNL     1      83.091  14.404  20.307  1.00  0.00    -0.550 OA
ENDBRANCH   6   7
ENDBRANCH   5   6
ENDBRANCH   4   5
ENDBRANCH   3   4
ENDBRANCH   2   3
ENDBRANCH   1   2
BRANCH   1  10
ATOM     10  C   UNL     1      76.657  11.462  20.353  1.00  0.00     0.000 C 
BRANCH  10  11
ATOM     11  C   UNL     1      75.663  11.374  19.182  1.00  0.00    -0.000 C 
BRANCH  11  12
ATOM     12  C   UNL     1      74.309  12.029  19.507  1.00  0.00    -0.000 C 
BRANCH  12  13
ATOM     13  C   UNL     1      73.979  13.199  18.566  1.00  0.00    -0.000 C 
BRANCH  13  14
ATOM     14  C   UNL     1      74.650  13.060  17.192  1.00  0.00    -0.000 C 
BRANCH  14  15
ATOM     15  C   UNL     1      75.166  14.414  16.693  1.00  0.00    -0.003 C 
ATOM     16  C   UNL     1      75.145  15.457  17.806  1.00  0.00     0.004 C 
ENDBRANCH  14  15
ENDBRANCH  13  14
ENDBRANCH  12  13
ENDBRANCH  11  12
ENDBRANCH  10  11
ENDBRANCH   1  10
TORSDOF 12
ENDMDL
MODEL 5
REMARK VINA RESULT:    -4.696      2.408      4.848
REMARK INTER + INTRA:          -9.501
REMARK INTER:                  -8.291
REMARK INTRA:                  -1.210
REMARK UNBOUND:                -1.511
REMARK SMILES CCCCCCCCCCCCCC(=O)[O-]
REMARK SMILES IDX 8 1 9 2 10 3 11 4 12 5 13 6 14 7 15 8 16 9 7 10 6 11 5 12
REMARK SMILES IDX 4 13 3 14 2 15 1 16
REMARK H PARENT
REMARK Flexibility Score: inf
ROOT
ATOM      1  C   UNL     1      74.646  13.316  17.331  1.00  0.00     0.000 C 
ENDROOT
BRANCH   1   2
ATOM      2  C   UNL     1      73.810  13.316  18.620  1.00  0.00     0.000 C 
BRANCH   2   3
ATOM      3  C   UNL     1      74.021  12.049  19.466  1.00  0.00     0.000 C 
BRANCH   3   4
ATOM      4  C   UNL     1      75.410  11.422  19.252  1.00  0.00     0.000 C 
BRANCH   4   5
ATOM      5  C   UNL     1      76.426  11.841  20.333  1.00  0.00     0.006 C 
BRANCH   5   6
ATOM      6  C   UNL     1      77.865  12.002  19.809  1.00  0.00     0.053 C 
BRANCH   6   7
ATOM      7  C   UNL     1      77.989  13.091  18.787  1.00  0.00     0.041 C 
ATOM      8  O   UNL     1      78.196  12.806  17.575  1.00  0.00    -0.550 OA
ATOM      9  O   UNL     1      77.877  14.423  19.172  1.00  0.00    -0.550 OA
ENDBRANCH   6   7
ENDBRANCH   5   6
ENDBRANCH   4   5
ENDBRANCH   3   4
ENDBRANCH   2   3
ENDBRANCH   1   2
BRANCH   1  10
ATOM     10  C   UNL     1      75.094  14.741  16.970  1.00  0.00     0.000 C 
BRANCH  10  11
ATOM     11  C   UNL     1      75.024  15.017  15.459  1.00  0.00    -0.000 C 
BRANCH  11  12
ATOM     12  C   UNL     1      74.544  16.444  15.140  1.00  0.00    -0.000 C 
BRANCH  12  13
ATOM     13  C   UNL     1      75.354  17.519  15.884  1.00  0.00    -0.000 C 
BRANCH  13  14
ATOM     14  C   UNL     1      76.405  18.191  14.988  1.00  0.00    -0.000 C 
BRANCH  14  15
ATOM     15  C   UNL     1      77.765  18.256  15.693  1.00  0.00    -0.003 C 
ATOM     16  C   UNL     1      78.032  16.987  16.497  1.00  0.00     0.004 C 
ENDBRANCH  14  15
ENDBRANCH  13  14
ENDBRANCH  12  13
ENDBRANCH  11  12
ENDBRANCH  10  11
ENDBRANCH   1  10
TORSDOF 12
ENDMDL
MODEL 6
REMARK VINA RESULT:    -4.695      3.118      5.786
REMARK INTER + INTRA:          -9.500
REMARK INTER:                  -8.490
REMARK INTRA:                  -1.011
REMARK UNBOUND:                -1.511
REMARK SMILES CCCCCCCCCCCCCC(=O)[O-]
REMARK SMILES IDX 8 1 9 2 10 3 11 4 12 5 13 6 14 7 15 8 16 9 7 10 6 11 5 12
REMARK SMILES IDX 4 13 3 14 2 15 1 16
REMARK H PARENT
REMARK Flexibility Score: inf
ROOT
ATOM      1  C   UNL     1      75.284  11.530  19.110  1.00  0.00     0.000 C 
ENDROOT
BRANCH   1   2
ATOM      2  C   UNL     1      76.236  11.647  20.311  1.00  0.00     0.000 C 
BRANCH   2   3
ATOM      3  C   UNL     1      77.717  11.573  19.904  1.00  0.00     0.000 C 
BRANCH   3   4
ATOM      4  C   UNL     1      78.105  12.663  18.889  1.00  0.00     0.000 C 
BRANCH   4   5
ATOM      5  C   UNL     1      79.527  13.213  19.119  1.00  0.00     0.006 C 
BRANCH   5   6
ATOM      6  C   UNL     1      79.626  14.218  20.283  1.00  0.00     0.053 C 
BRANCH   6   7
ATOM      7  C   UNL     1      80.997  14.808  20.421  1.00  0.00     0.041 C 
ATOM      8  O   UNL     1      81.833  14.293  21.213  1.00  0.00    -0.550 OA
ATOM      9  O   UNL     1      81.353  15.926  19.674  1.00  0.00    -0.550 OA
ENDBRANCH   6   7
ENDBRANCH   5   6
ENDBRANCH   4   5
ENDBRANCH   3   4
ENDBRANCH   2   3
ENDBRANCH   1   2
BRANCH   1  10
ATOM     10  C   UNL     1      74.013  12.364  19.336  1.00  0.00     0.000 C 
BRANCH  10  11
ATOM     11  C   UNL     1      73.953  13.607  18.432  1.00  0.00    -0.000 C 
BRANCH  11  12
ATOM     12  C   UNL     1      74.725  13.416  17.115  1.00  0.00    -0.000 C 
BRANCH  12  13
ATOM     13  C   UNL     1      75.620  14.620  16.776  1.00  0.00    -0.000 C 
BRANCH  13  14
ATOM     14  C   UNL     1      75.392  15.141  15.349  1.00  0.00    -0.000 C 
BRANCH  14  15
ATOM     15  C   UNL     1      74.513  16.397  15.358  1.00  0.00    -0.003 C 
ATOM     16  C   UNL     1      74.968  17.381  16.431  1.00  0.00     0.004 C 
ENDBRANCH  14  15
ENDBRANCH  13  14
ENDBRANCH  12  13
ENDBRANCH  11  12
ENDBRANCH  10  11
ENDBRANCH   1  10
TORSDOF 12
ENDMDL
MODEL 7
REMARK VINA RESULT:    -4.689      2.219      4.722
REMARK INTER + INTRA:          -9.489
REMARK INTER:                  -8.233
REMARK INTRA:                  -1.256
REMARK UNBOUND:                -1.511
REMARK SMILES CCCCCCCCCCCCCC(=O)[O-]
REMARK SMILES IDX 8 1 9 2 10 3 11 4 12 5 13 6 14 7 15 8 16 9 7 10 6 11 5 12
REMARK SMILES IDX 4 13 3 14 2 15 1 16
REMARK H PARENT
REMARK Flexibility Score: inf
ROOT
ATOM      1  C   UNL     1      73.557  12.972  18.492  1.00  0.00     0.000 C 
ENDROOT
BRANCH   1   2
ATOM      2  C   UNL     1      74.155  12.162  19.653  1.00  0.00     0.000 C 
BRANCH   2   3
ATOM      3  C   UNL     1      75.506  11.519  19.296  1.00  0.00     0.000 C 
BRANCH   3   4
ATOM      4  C   UNL     1      76.553  11.691  20.409  1.00  0.00     0.000 C 
BRANCH   4   5
ATOM      5  C   UNL     1      77.917  12.173  19.876  1.00  0.00     0.006 C 
BRANCH   5   6
ATOM      6  C   UNL     1      77.877  13.572  19.232  1.00  0.00     0.053 C 
BRANCH   6   7
ATOM      7  C   UNL     1      78.363  13.569  17.814  1.00  0.00     0.041 C 
ATOM      8  O   UNL     1      78.808  14.628  17.293  1.00  0.00    -0.550 OA
ATOM      9  O   UNL     1      78.323  12.397  17.067  1.00  0.00    -0.550 OA
ENDBRANCH   6   7
ENDBRANCH   5   6
ENDBRANCH   4   5
ENDBRANCH   3   4
ENDBRANCH   2   3
ENDBRANCH   1   2
BRANCH   1  10
ATOM     10  C   UNL     1      74.654  13.742  17.741  1.00  0.00     0.000 C 
BRANCH  10  11
ATOM     11  C   UNL     1      74.920  13.173  16.337  1.00  0.00    -0.000 C 
BRANCH  11  12
ATOM     12  C   UNL     1      75.549  14.209  15.389  1.00  0.00    -0.000 C 
BRANCH  12  13
ATOM     13  C   UNL     1      75.596  15.618  16.003  1.00  0.00    -0.000 C 
BRANCH  13  14
ATOM     14  C   UNL     1      74.855  16.659  15.150  1.00  0.00    -0.000 C 
BRANCH  14  15
ATOM     15  C   UNL     1      75.695  17.930  14.984  1.00  0.00    -0.003 C 
ATOM     16  C   UNL     1      77.156  17.678  15.344  1.00  0.00     0.004 C 
ENDBRANCH  14  15
ENDBRANCH  13  14
ENDBRANCH  12  13
ENDBRANCH  11  12
ENDBRANCH  10  11
ENDBRANCH   1  10
TORSDOF 12
ENDMDL
MODEL 8
REMARK VINA RESULT:    -4.683      3.159      4.971
REMARK INTER + INTRA:          -9.479
REMARK INTER:                  -8.397
REMARK INTRA:                  -1.082
REMARK UNBOUND:                -1.511
REMARK SMILES CCCCCCCCCCCCCC(=O)[O-]
REMARK SMILES IDX 8 1 9 2 10 3 11 4 12 5 13 6 14 7 15 8 16 9 7 10 6 11 5 12
REMARK SMILES IDX 4 13 3 14 2 15 1 16
REMARK H PARENT
REMARK Flexibility Score: inf
ROOT
ATOM      1  C   UNL     1      74.417  11.804  19.394  1.00  0.00     0.000 C 
ENDROOT
BRANCH   1   2
ATOM      2  C   UNL     1      75.770  12.062  20.074  1.00  0.00     0.000 C 
BRANCH   2   3
ATOM      3  C   UNL     1      76.774  10.917  19.856  1.00  0.00     0.000 C 
BRANCH   3   4
ATOM      4  C   UNL     1      76.221   9.817  18.933  1.00  0.00     0.000 C 
BRANCH   4   5
ATOM      5  C   UNL     1      77.122   9.556  17.710  1.00  0.00     0.006 C 
BRANCH   5   6
ATOM      6  C   UNL     1      77.604  10.839  17.005  1.00  0.00     0.053 C 
BRANCH   6   7
ATOM      7  C   UNL     1      77.424  10.781  15.517  1.00  0.00     0.041 C 
ATOM      8  O   UNL     1      76.894  11.748  14.904  1.00  0.00    -0.550 OA
ATOM      9  O   UNL     1      77.843   9.661  14.808  1.00  0.00    -0.550 OA
ENDBRANCH   6   7
ENDBRANCH   5   6
ENDBRANCH   4   5
ENDBRANCH   3   4
ENDBRANCH   2   3
ENDBRANCH   1   2
BRANCH   1  10
ATOM     10  C   UNL     1      73.961  13.037  18.599  1.00  0.00     0.000 C 
BRANCH  10  11
ATOM     11  C   UNL     1      74.800  13.264  17.330  1.00  0.00    -0.000 C 
BRANCH  11  12
ATOM     12  C   UNL     1      75.069  14.755  17.059  1.00  0.00    -0.000 C 
BRANCH  12  13
ATOM     13  C   UNL     1      75.065  15.092  15.559  1.00  0.00    -0.000 C 
BRANCH  13  14
ATOM     14  C   UNL     1      74.593  16.527  15.277  1.00  0.00    -0.000 C 
BRANCH  14  15
ATOM     15  C   UNL     1      75.491  17.548  15.985  1.00  0.00    -0.003 C 
ATOM     16  C   UNL     1      76.542  18.111  15.034  1.00  0.00     0.004 C 
ENDBRANCH  14  15
ENDBRANCH  13  14
ENDBRANCH  12  13
ENDBRANCH  11  12
ENDBRANCH  10  11
ENDBRANCH   1  10
TORSDOF 12
ENDMDL
MODEL 9
REMARK VINA RESULT:    -4.601      2.147      3.553
REMARK INTER + INTRA:          -9.339
REMARK INTER:                  -7.830
REMARK INTRA:                  -1.509
REMARK UNBOUND:                -1.511
REMARK SMILES CCCCCCCCCCCCCC(=O)[O-]
REMARK SMILES IDX 8 1 9 2 10 3 11 4 12 5 13 6 14 7 15 8 16 9 7 10 6 11 5 12
REMARK SMILES IDX 4 13 3 14 2 15 1 16
REMARK H PARENT
REMARK Flexibility Score: inf
ROOT
ATOM      1  C   UNL     1      74.059  12.581  19.368  1.00  0.00     0.000 C 
ENDROOT
BRANCH   1   2
ATOM      2  C   UNL     1      73.686  13.083  17.965  1.00  0.00     0.000 C 
BRANCH   2   3
ATOM      3  C   UNL     1      74.823  13.875  17.296  1.00  0.00     0.000 C 
BRANCH   3   4
ATOM      4  C   UNL     1      75.187  13.322  15.907  1.00  0.00     0.000 C 
BRANCH   4   5
ATOM      5  C   UNL     1      76.102  14.272  15.109  1.00  0.00     0.006 C 
BRANCH   5   6
ATOM      6  C   UNL     1      76.366  15.619  15.808  1.00  0.00     0.053 C 
BRANCH   6   7
ATOM      7  C   UNL     1      75.611  16.753  15.181  1.00  0.00     0.041 C 
ATOM      8  O   UNL     1      74.367  16.661  14.994  1.00  0.00    -0.550 OA
ATOM      9  O   UNL     1      76.282  17.911  14.803  1.00  0.00    -0.550 OA
ENDBRANCH   6   7
ENDBRANCH   5   6
ENDBRANCH   4   5
ENDBRANCH   3   4
ENDBRANCH   2   3
ENDBRANCH   1   2
BRANCH   1  10
ATOM     10  C   UNL     1      75.117  11.469  19.287  1.00  0.00     0.000 C 
BRANCH  10  11
ATOM     11  C   UNL     1      76.242  11.648  20.321  1.00  0.00    -0.000 C 
BRANCH  11  12
ATOM     12  C   UNL     1      77.370  12.562  19.813  1.00  0.00    -0.000 C 
BRANCH  12  13
ATOM     13  C   UNL     1      78.049  12.016  18.546  1.00  0.00    -0.000 C 
BRANCH  13  14
ATOM     14  C   UNL     1      78.608  10.599  18.741  1.00  0.00    -0.000 C 
BRANCH  14  15
ATOM     15  C   UNL     1      77.995   9.623  17.729  1.00  0.00    -0.003 C 
ATOM     16  C   UNL     1      77.478  10.360  16.497  1.00  0.00     0.004 C 
ENDBRANCH  14  15
ENDBRANCH  13  14
ENDBRANCH  12  13
ENDBRANCH  11  12
ENDBRANCH  10  11
ENDBRANCH   1  10
TORSDOF 12
ENDMDL
