MODEL 1
REMARK VINA RESULT:     6.642      0.000      0.000
REMARK INTER + INTRA:          13.928
REMARK INTER:                  15.184
REMARK INTRA:                  -1.256
REMARK UNBOUND:                -1.256
REMARK SMILES CCCCCCCCCCCCCCCCCCCCCCCC(=O)[O-]
REMARK SMILES IDX 13 1 14 2 15 3 16 4 17 5 18 6 19 7 20 8 21 9 22 10 23 11
REMARK SMILES IDX 24 12 25 13 26 14 12 15 11 16 10 17 9 18 8 19 7 20 6 21 5 22
REMARK SMILES IDX 4 23 3 24 2 25 1 26
REMARK H PARENT
REMARK Flexibility Score: inf
ROOT
ATOM      1  C   UNL     1      23.839  39.851  24.818  1.00  0.00     0.000 C 
ENDROOT
BRANCH   1   2
ATOM      2  C   UNL     1      23.621  40.233  23.344  1.00  0.00     0.000 C 
BRANCH   2   3
ATOM      3  C   UNL     1      23.913  39.071  22.380  1.00  0.00     0.000 C 
BRANCH   3   4
ATOM      4  C   UNL     1      22.654  38.512  21.684  1.00  0.00     0.000 C 
BRANCH   4   5
ATOM      5  C   UNL     1      22.835  37.052  21.228  1.00  0.00     0.000 C 
BRANCH   5   6
ATOM      6  C   UNL     1      23.264  36.952  19.748  1.00  0.00     0.000 C 
BRANCH   6   7
ATOM      7  C   UNL     1      23.984  35.635  19.397  1.00  0.00     0.000 C 
BRANCH   7   8
ATOM      8  C   UNL     1      24.502  35.542  17.952  1.00  0.00     0.000 C 
BRANCH   8   9
ATOM      9  C   UNL     1      25.989  35.155  17.875  1.00  0.00     0.000 C 
BRANCH   9  10
ATOM     10  C   UNL     1      26.925  36.379  17.878  1.00  0.00     0.006 C 
BRANCH  10  11
ATOM     11  C   UNL     1      28.401  36.053  18.163  1.00  0.00     0.053 C 
BRANCH  11  12
ATOM     12  C   UNL     1      29.009  37.006  19.145  1.00  0.00     0.041 C 
ATOM     13  O   UNL     1      28.934  38.248  18.953  1.00  0.00    -0.550 OA
ATOM     14  O   UNL     1      29.700  36.521  20.247  1.00  0.00    -0.550 OA
ENDBRANCH  11  12
ENDBRANCH  10  11
ENDBRANCH   9  10
ENDBRANCH   8   9
ENDBRANCH   7   8
ENDBRANCH   6   7
ENDBRANCH   5   6
ENDBRANCH   4   5
ENDBRANCH   3   4
ENDBRANCH   2   3
ENDBRANCH   1   2
BRANCH   1  15
ATOM     15  C   UNL     1      24.607  38.530  24.980  1.00  0.00     0.000 C 
BRANCH  15  16
ATOM     16  C   UNL     1      23.790  37.464  25.728  1.00  0.00     0.000 C 
BRANCH  16  17
ATOM     17  C   UNL     1      22.275  37.603  25.501  1.00  0.00     0.000 C 
BRANCH  17  18
ATOM     18  C   UNL     1      21.524  38.016  26.776  1.00  0.00    -0.000 C 
BRANCH  18  19
ATOM     19  C   UNL     1      22.436  38.780  27.745  1.00  0.00    -0.000 C 
BRANCH  19  20
ATOM     20  C   UNL     1      21.745  39.124  29.078  1.00  0.00    -0.000 C 
BRANCH  20  21
ATOM     21  C   UNL     1      22.152  38.215  30.259  1.00  0.00    -0.000 C 
BRANCH  21  22
ATOM     22  C   UNL     1      21.112  38.144  31.393  1.00  0.00    -0.000 C 
BRANCH  22  23
ATOM     23  C   UNL     1      21.722  38.315  32.805  1.00  0.00    -0.000 C 
BRANCH  23  24
ATOM     24  C   UNL     1      21.749  39.781  33.273  1.00  0.00    -0.000 C 
BRANCH  24  25
ATOM     25  C   UNL     1      22.479  39.950  34.614  1.00  0.00    -0.003 C 
ATOM     26  C   UNL     1      23.314  41.227  34.628  1.00  0.00     0.004 C 
ENDBRANCH  24  25
ENDBRANCH  23  24
ENDBRANCH  22  23
ENDBRANCH  21  22
ENDBRANCH  20  21
ENDBRANCH  19  20
ENDBRANCH  18  19
ENDBRANCH  17  18
ENDBRANCH  16  17
ENDBRANCH  15  16
ENDBRANCH   1  15
TORSDOF 22
ENDMDL
MODEL 2
REMARK VINA RESULT:     7.923      4.665     12.177
REMARK INTER + INTRA:          16.856
REMARK INTER:                  18.062
REMARK INTRA:                  -1.206
REMARK UNBOUND:                -1.256
REMARK SMILES CCCCCCCCCCCCCCCCCCCCCCCC(=O)[O-]
REMARK SMILES IDX 13 1 14 2 15 3 16 4 17 5 18 6 19 7 20 8 21 9 22 10 23 11
REMARK SMILES IDX 24 12 25 13 26 14 12 15 11 16 10 17 9 18 8 19 7 20 6 21 5 22
REMARK SMILES IDX 4 23 3 24 2 25 1 26
REMARK H PARENT
REMARK Flexibility Score: inf
ROOT
ATOM      1  C   UNL     1      23.873  39.364  24.599  1.00  0.00     0.000 C 
ENDROOT
BRANCH   1   2
ATOM      2  C   UNL     1      24.322  37.954  25.021  1.00  0.00     0.000 C 
BRANCH   2   3
ATOM      3  C   UNL     1      23.276  37.230  25.884  1.00  0.00     0.000 C 
BRANCH   3   4
ATOM      4  C   UNL     1      21.878  37.882  25.841  1.00  0.00     0.000 C 
BRANCH   4   5
ATOM      5  C   UNL     1      21.645  38.849  27.017  1.00  0.00     0.000 C 
BRANCH   5   6
ATOM      6  C   UNL     1      22.606  38.578  28.194  1.00  0.00     0.000 C 
BRANCH   6   7
ATOM      7  C   UNL     1      22.198  39.280  29.504  1.00  0.00     0.000 C 
BRANCH   7   8
ATOM      8  C   UNL     1      22.308  38.412  30.769  1.00  0.00     0.000 C 
BRANCH   8   9
ATOM      9  C   UNL     1      20.970  38.277  31.517  1.00  0.00     0.000 C 
BRANCH   9  10
ATOM     10  C   UNL     1      20.961  39.025  32.863  1.00  0.00     0.006 C 
BRANCH  10  11
ATOM     11  C   UNL     1      22.303  39.006  33.614  1.00  0.00     0.053 C 
BRANCH  11  12
ATOM     12  C   UNL     1      22.609  40.322  34.259  1.00  0.00     0.041 C 
ATOM     13  O   UNL     1      23.580  41.014  33.857  1.00  0.00    -0.550 OA
ATOM     14  O   UNL     1      21.849  40.762  35.335  1.00  0.00    -0.550 OA
ENDBRANCH  11  12
ENDBRANCH  10  11
ENDBRANCH   9  10
ENDBRANCH   8   9
ENDBRANCH   7   8
ENDBRANCH   6   7
ENDBRANCH   5   6
ENDBRANCH   4   5
ENDBRANCH   3   4
ENDBRANCH   2   3
ENDBRANCH   1   2
BRANCH   1  15
ATOM     15  C   UNL     1      23.887  39.557  23.075  1.00  0.00     0.000 C 
BRANCH  15  16
ATOM     16  C   UNL     1      22.747  38.795  22.376  1.00  0.00     0.000 C 
BRANCH  16  17
ATOM     17  C   UNL     1      23.247  37.872  21.252  1.00  0.00     0.000 C 
BRANCH  17  18
ATOM     18  C   UNL     1      22.321  36.668  21.024  1.00  0.00    -0.000 C 
BRANCH  18  19
ATOM     19  C   UNL     1      23.072  35.494  20.381  1.00  0.00    -0.000 C 
BRANCH  19  20
ATOM     20  C   UNL     1      23.909  35.911  19.157  1.00  0.00    -0.000 C 
BRANCH  20  21
ATOM     21  C   UNL     1      25.130  35.005  18.883  1.00  0.00    -0.000 C 
BRANCH  21  22
ATOM     22  C   UNL     1      26.139  35.587  17.875  1.00  0.00    -0.000 C 
BRANCH  22  23
ATOM     23  C   UNL     1      27.354  36.275  18.542  1.00  0.00    -0.000 C 
BRANCH  23  24
ATOM     24  C   UNL     1      28.702  35.713  18.056  1.00  0.00    -0.000 C 
BRANCH  24  25
ATOM     25  C   UNL     1      29.897  36.496  18.621  1.00  0.00    -0.003 C 
ATOM     26  C   UNL     1      29.664  38.000  18.523  1.00  0.00     0.004 C 
ENDBRANCH  24  25
ENDBRANCH  23  24
ENDBRANCH  22  23
ENDBRANCH  21  22
ENDBRANCH  20  21
ENDBRANCH  19  20
ENDBRANCH  18  19
ENDBRANCH  17  18
ENDBRANCH  16  17
ENDBRANCH  15  16
ENDBRANCH   1  15
TORSDOF 22
ENDMDL
MODEL 3
REMARK VINA RESULT:     9.335      5.554     13.484
REMARK INTER + INTRA:          20.084
REMARK INTER:                  20.940
REMARK INTRA:                  -0.855
REMARK UNBOUND:                -1.256
REMARK SMILES CCCCCCCCCCCCCCCCCCCCCCCC(=O)[O-]
REMARK SMILES IDX 13 1 14 2 15 3 16 4 17 5 18 6 19 7 20 8 21 9 22 10 23 11
REMARK SMILES IDX 24 12 25 13 26 14 12 15 11 16 10 17 9 18 8 19 7 20 6 21 5 22
REMARK SMILES IDX 4 23 3 24 2 25 1 26
REMARK H PARENT
REMARK Flexibility Score: inf
ROOT
ATOM      1  C   UNL     1      23.117  38.988  27.407  1.00  0.00     0.000 C 
ENDROOT
BRANCH   1   2
ATOM      2  C   UNL     1      22.568  39.385  28.788  1.00  0.00     0.000 C 
BRANCH   2   3
ATOM      3  C   UNL     1      22.496  38.198  29.764  1.00  0.00     0.000 C 
BRANCH   3   4
ATOM      4  C   UNL     1      21.542  38.432  30.954  1.00  0.00     0.000 C 
BRANCH   4   5
ATOM      5  C   UNL     1      21.759  37.412  32.088  1.00  0.00     0.000 C 
BRANCH   5   6
ATOM      6  C   UNL     1      22.383  38.060  33.343  1.00  0.00     0.000 C 
BRANCH   6   7
ATOM      7  C   UNL     1      21.742  39.407  33.731  1.00  0.00     0.000 C 
BRANCH   7   8
ATOM      8  C   UNL     1      22.570  40.266  34.702  1.00  0.00     0.000 C 
BRANCH   8   9
ATOM      9  C   UNL     1      23.038  41.591  34.076  1.00  0.00     0.000 C 
BRANCH   9  10
ATOM     10  C   UNL     1      22.000  42.719  34.221  1.00  0.00     0.006 C 
BRANCH  10  11
ATOM     11  C   UNL     1      22.406  43.840  35.193  1.00  0.00     0.053 C 
BRANCH  11  12
ATOM     12  C   UNL     1      21.465  45.003  35.138  1.00  0.00     0.041 C 
ATOM     13  O   UNL     1      21.003  45.393  34.033  1.00  0.00    -0.550 OA
ATOM     14  O   UNL     1      21.135  45.687  36.301  1.00  0.00    -0.550 OA
ENDBRANCH  11  12
ENDBRANCH  10  11
ENDBRANCH   9  10
ENDBRANCH   8   9
ENDBRANCH   7   8
ENDBRANCH   6   7
ENDBRANCH   5   6
ENDBRANCH   4   5
ENDBRANCH   3   4
ENDBRANCH   2   3
ENDBRANCH   1   2
BRANCH   1  15
ATOM     15  C   UNL     1      22.060  38.305  26.525  1.00  0.00     0.000 C 
BRANCH  15  16
ATOM     16  C   UNL     1      22.687  37.379  25.468  1.00  0.00     0.000 C 
BRANCH  16  17
ATOM     17  C   UNL     1      23.233  38.145  24.252  1.00  0.00     0.000 C 
BRANCH  17  18
ATOM     18  C   UNL     1      22.169  38.360  23.165  1.00  0.00    -0.000 C 
BRANCH  18  19
ATOM     19  C   UNL     1      22.802  38.487  21.773  1.00  0.00    -0.000 C 
BRANCH  19  20
ATOM     20  C   UNL     1      22.595  37.234  20.901  1.00  0.00    -0.000 C 
BRANCH  20  21
ATOM     21  C   UNL     1      23.662  37.042  19.801  1.00  0.00    -0.000 C 
BRANCH  21  22
ATOM     22  C   UNL     1      23.770  35.601  19.266  1.00  0.00    -0.000 C 
BRANCH  22  23
ATOM     23  C   UNL     1      24.614  35.481  17.975  1.00  0.00    -0.000 C 
BRANCH  23  24
ATOM     24  C   UNL     1      26.059  35.980  18.155  1.00  0.00    -0.000 C 
BRANCH  24  25
ATOM     25  C   UNL     1      27.093  34.875  17.888  1.00  0.00    -0.003 C 
ATOM     26  C   UNL     1      28.213  34.910  18.924  1.00  0.00     0.004 C 
ENDBRANCH  24  25
ENDBRANCH  23  24
ENDBRANCH  22  23
ENDBRANCH  21  22
ENDBRANCH  20  21
ENDBRANCH  19  20
ENDBRANCH  18  19
ENDBRANCH  17  18
ENDBRANCH  16  17
ENDBRANCH  15  16
ENDBRANCH   1  15
TORSDOF 22
ENDMDL
MODEL 4
REMARK VINA RESULT:     9.484      1.178      1.795
REMARK INTER + INTRA:          20.425
REMARK INTER:                  21.336
REMARK INTRA:                  -0.911
REMARK UNBOUND:                -1.256
REMARK SMILES CCCCCCCCCCCCCCCCCCCCCCCC(=O)[O-]
REMARK SMILES IDX 13 1 14 2 15 3 16 4 17 5 18 6 19 7 20 8 21 9 22 10 23 11
REMARK SMILES IDX 24 12 25 13 26 14 12 15 11 16 10 17 9 18 8 19 7 20 6 21 5 22
REMARK SMILES IDX 4 23 3 24 2 25 1 26
REMARK H PARENT
REMARK Flexibility Score: inf
ROOT
ATOM      1  C   UNL     1      23.139  39.026  24.228  1.00  0.00     0.000 C 
ENDROOT
BRANCH   1   2
ATOM      2  C   UNL     1      24.233  38.968  23.148  1.00  0.00     0.000 C 
BRANCH   2   3
ATOM      3  C   UNL     1      23.666  39.059  21.721  1.00  0.00     0.000 C 
BRANCH   3   4
ATOM      4  C   UNL     1      22.629  37.963  21.395  1.00  0.00     0.000 C 
BRANCH   4   5
ATOM      5  C   UNL     1      23.273  36.721  20.752  1.00  0.00     0.000 C 
BRANCH   5   6
ATOM      6  C   UNL     1      23.813  37.011  19.335  1.00  0.00     0.000 C 
BRANCH   6   7
ATOM      7  C   UNL     1      23.998  35.749  18.469  1.00  0.00     0.000 C 
BRANCH   7   8
ATOM      8  C   UNL     1      25.207  34.875  18.844  1.00  0.00     0.000 C 
BRANCH   8   9
ATOM      9  C   UNL     1      26.450  35.181  17.991  1.00  0.00     0.000 C 
BRANCH   9  10
ATOM     10  C   UNL     1      27.252  36.388  18.515  1.00  0.00     0.006 C 
BRANCH  10  11
ATOM     11  C   UNL     1      28.551  36.021  19.252  1.00  0.00     0.053 C 
BRANCH  11  12
ATOM     12  C   UNL     1      29.763  36.231  18.399  1.00  0.00     0.041 C 
ATOM     13  O   UNL     1      30.348  35.247  17.875  1.00  0.00    -0.550 OA
ATOM     14  O   UNL     1      30.274  37.510  18.221  1.00  0.00    -0.550 OA
ENDBRANCH  11  12
ENDBRANCH  10  11
ENDBRANCH   9  10
ENDBRANCH   8   9
ENDBRANCH   7   8
ENDBRANCH   6   7
ENDBRANCH   5   6
ENDBRANCH   4   5
ENDBRANCH   3   4
ENDBRANCH   2   3
ENDBRANCH   1   2
BRANCH   1  15
ATOM     15  C   UNL     1      23.251  37.880  25.245  1.00  0.00     0.000 C 
BRANCH  15  16
ATOM     16  C   UNL     1      22.291  38.055  26.435  1.00  0.00     0.000 C 
BRANCH  16  17
ATOM     17  C   UNL     1      22.824  39.035  27.493  1.00  0.00     0.000 C 
BRANCH  17  18
ATOM     18  C   UNL     1      21.788  39.343  28.584  1.00  0.00    -0.000 C 
BRANCH  18  19
ATOM     19  C   UNL     1      22.388  39.196  29.989  1.00  0.00    -0.000 C 
BRANCH  19  20
ATOM     20  C   UNL     1      21.759  38.045  30.796  1.00  0.00    -0.000 C 
BRANCH  20  21
ATOM     21  C   UNL     1      20.741  38.500  31.865  1.00  0.00    -0.000 C 
BRANCH  21  22
ATOM     22  C   UNL     1      21.370  38.885  33.217  1.00  0.00    -0.000 C 
BRANCH  22  23
ATOM     23  C   UNL     1      22.720  39.628  33.084  1.00  0.00    -0.000 C 
BRANCH  23  24
ATOM     24  C   UNL     1      22.841  40.827  34.041  1.00  0.00    -0.000 C 
BRANCH  24  25
ATOM     25  C   UNL     1      23.934  41.814  33.602  1.00  0.00    -0.003 C 
ATOM     26  C   UNL     1      24.005  41.914  32.081  1.00  0.00     0.004 C 
ENDBRANCH  24  25
ENDBRANCH  23  24
ENDBRANCH  22  23
ENDBRANCH  21  22
ENDBRANCH  20  21
ENDBRANCH  19  20
ENDBRANCH  18  19
ENDBRANCH  17  18
ENDBRANCH  16  17
ENDBRANCH  15  16
ENDBRANCH   1  15
TORSDOF 22
ENDMDL
MODEL 5
REMARK VINA RESULT:     9.556      1.333      2.686
REMARK INTER + INTRA:          20.591
REMARK INTER:                  21.640
REMARK INTRA:                  -1.049
REMARK UNBOUND:                -1.256
REMARK SMILES CCCCCCCCCCCCCCCCCCCCCCCC(=O)[O-]
REMARK SMILES IDX 13 1 14 2 15 3 16 4 17 5 18 6 19 7 20 8 21 9 22 10 23 11
REMARK SMILES IDX 24 12 25 13 26 14 12 15 11 16 10 17 9 18 8 19 7 20 6 21 5 22
REMARK SMILES IDX 4 23 3 24 2 25 1 26
REMARK H PARENT
REMARK Flexibility Score: inf
ROOT
ATOM      1  C   UNL     1      23.043  37.857  25.801  1.00  0.00     0.000 C 
ENDROOT
BRANCH   1   2
ATOM      2  C   UNL     1      23.925  38.974  25.219  1.00  0.00     0.000 C 
BRANCH   2   3
ATOM      3  C   UNL     1      23.616  39.266  23.741  1.00  0.00     0.000 C 
BRANCH   3   4
ATOM      4  C   UNL     1      22.519  38.359  23.146  1.00  0.00     0.000 C 
BRANCH   4   5
ATOM      5  C   UNL     1      22.771  38.029  21.663  1.00  0.00     0.000 C 
BRANCH   5   6
ATOM      6  C   UNL     1      22.693  36.513  21.381  1.00  0.00     0.000 C 
BRANCH   6   7
ATOM      7  C   UNL     1      22.748  36.156  19.882  1.00  0.00     0.000 C 
BRANCH   7   8
ATOM      8  C   UNL     1      23.784  35.084  19.507  1.00  0.00     0.000 C 
BRANCH   8   9
ATOM      9  C   UNL     1      24.225  35.171  18.035  1.00  0.00     0.000 C 
BRANCH   9  10
ATOM     10  C   UNL     1      25.753  35.293  17.876  1.00  0.00     0.006 C 
BRANCH  10  11
ATOM     11  C   UNL     1      26.289  36.733  17.946  1.00  0.00     0.053 C 
BRANCH  11  12
ATOM     12  C   UNL     1      27.777  36.774  18.103  1.00  0.00     0.041 C 
ATOM     13  O   UNL     1      28.395  37.866  17.997  1.00  0.00    -0.550 OA
ATOM     14  O   UNL     1      28.487  35.600  18.319  1.00  0.00    -0.550 OA
ENDBRANCH  11  12
ENDBRANCH  10  11
ENDBRANCH   9  10
ENDBRANCH   8   9
ENDBRANCH   7   8
ENDBRANCH   6   7
ENDBRANCH   5   6
ENDBRANCH   4   5
ENDBRANCH   3   4
ENDBRANCH   2   3
ENDBRANCH   1   2
BRANCH   1  15
ATOM     15  C   UNL     1      21.922  38.398  26.702  1.00  0.00     0.000 C 
BRANCH  15  16
ATOM     16  C   UNL     1      22.419  39.489  27.666  1.00  0.00     0.000 C 
BRANCH  16  17
ATOM     17  C   UNL     1      22.795  38.935  29.051  1.00  0.00     0.000 C 
BRANCH  17  18
ATOM     18  C   UNL     1      21.643  38.163  29.710  1.00  0.00    -0.000 C 
BRANCH  18  19
ATOM     19  C   UNL     1      21.128  38.881  30.965  1.00  0.00    -0.000 C 
BRANCH  19  20
ATOM     20  C   UNL     1      21.949  38.551  32.226  1.00  0.00    -0.000 C 
BRANCH  20  21
ATOM     21  C   UNL     1      21.534  39.350  33.482  1.00  0.00    -0.000 C 
BRANCH  21  22
ATOM     22  C   UNL     1      22.709  39.759  34.391  1.00  0.00    -0.000 C 
BRANCH  22  23
ATOM     23  C   UNL     1      22.464  41.077  35.164  1.00  0.00    -0.000 C 
BRANCH  23  24
ATOM     24  C   UNL     1      22.273  42.289  34.237  1.00  0.00    -0.000 C 
BRANCH  24  25
ATOM     25  C   UNL     1      22.108  43.601  35.020  1.00  0.00    -0.003 C 
ATOM     26  C   UNL     1      21.278  44.610  34.233  1.00  0.00     0.004 C 
ENDBRANCH  24  25
ENDBRANCH  23  24
ENDBRANCH  22  23
ENDBRANCH  21  22
ENDBRANCH  20  21
ENDBRANCH  19  20
ENDBRANCH  18  19
ENDBRANCH  17  18
ENDBRANCH  16  17
ENDBRANCH  15  16
ENDBRANCH   1  15
TORSDOF 22
ENDMDL
MODEL 6
REMARK VINA RESULT:     9.631      2.206      4.792
REMARK INTER + INTRA:          20.761
REMARK INTER:                  21.616
REMARK INTRA:                  -0.855
REMARK UNBOUND:                -1.256
REMARK SMILES CCCCCCCCCCCCCCCCCCCCCCCC(=O)[O-]
REMARK SMILES IDX 13 1 14 2 15 3 16 4 17 5 18 6 19 7 20 8 21 9 22 10 23 11
REMARK SMILES IDX 24 12 25 13 26 14 12 15 11 16 10 17 9 18 8 19 7 20 6 21 5 22
REMARK SMILES IDX 4 23 3 24 2 25 1 26
REMARK H PARENT
REMARK Flexibility Score: inf
ROOT
ATOM      1  C   UNL     1      22.268  39.246  28.516  1.00  0.00     0.000 C 
ENDROOT
BRANCH   1   2
ATOM      2  C   UNL     1      22.441  38.777  27.061  1.00  0.00     0.000 C 
BRANCH   2   3
ATOM      3  C   UNL     1      23.683  39.382  26.385  1.00  0.00     0.000 C 
BRANCH   3   4
ATOM      4  C   UNL     1      24.131  38.624  25.118  1.00  0.00     0.000 C 
BRANCH   4   5
ATOM      5  C   UNL     1      22.984  38.444  24.106  1.00  0.00     0.000 C 
BRANCH   5   6
ATOM      6  C   UNL     1      23.445  38.685  22.653  1.00  0.00     0.000 C 
BRANCH   6   7
ATOM      7  C   UNL     1      22.486  38.108  21.593  1.00  0.00     0.000 C 
BRANCH   7   8
ATOM      8  C   UNL     1      23.167  37.323  20.459  1.00  0.00     0.000 C 
BRANCH   8   9
ATOM      9  C   UNL     1      22.885  35.811  20.529  1.00  0.00     0.000 C 
BRANCH   9  10
ATOM     10  C   UNL     1      23.638  35.013  19.448  1.00  0.00     0.006 C 
BRANCH  10  11
ATOM     11  C   UNL     1      23.978  35.817  18.181  1.00  0.00     0.053 C 
BRANCH  11  12
ATOM     12  C   UNL     1      25.452  36.017  18.018  1.00  0.00     0.041 C 
ATOM     13  O   UNL     1      25.927  37.178  17.913  1.00  0.00    -0.550 OA
ATOM     14  O   UNL     1      26.299  34.918  17.935  1.00  0.00    -0.550 OA
ENDBRANCH  11  12
ENDBRANCH  10  11
ENDBRANCH   9  10
ENDBRANCH   8   9
ENDBRANCH   7   8
ENDBRANCH   6   7
ENDBRANCH   5   6
ENDBRANCH   4   5
ENDBRANCH   3   4
ENDBRANCH   2   3
ENDBRANCH   1   2
BRANCH   1  15
ATOM     15  C   UNL     1      22.333  38.087  29.522  1.00  0.00     0.000 C 
BRANCH  15  16
ATOM     16  C   UNL     1      21.458  38.337  30.763  1.00  0.00     0.000 C 
BRANCH  16  17
ATOM     17  C   UNL     1      21.717  37.324  31.890  1.00  0.00     0.000 C 
BRANCH  17  18
ATOM     18  C   UNL     1      22.415  37.958  33.103  1.00  0.00    -0.000 C 
BRANCH  18  19
ATOM     19  C   UNL     1      21.744  39.275  33.515  1.00  0.00    -0.000 C 
BRANCH  19  20
ATOM     20  C   UNL     1      22.328  39.871  34.809  1.00  0.00    -0.000 C 
BRANCH  20  21
ATOM     21  C   UNL     1      23.089  41.201  34.610  1.00  0.00    -0.000 C 
BRANCH  21  22
ATOM     22  C   UNL     1      22.192  42.396  34.235  1.00  0.00    -0.000 C 
BRANCH  22  23
ATOM     23  C   UNL     1      22.439  43.653  35.102  1.00  0.00    -0.000 C 
BRANCH  23  24
ATOM     24  C   UNL     1      21.155  44.457  35.372  1.00  0.00    -0.000 C 
BRANCH  24  25
ATOM     25  C   UNL     1      21.122  45.780  34.593  1.00  0.00    -0.003 C 
ATOM     26  C   UNL     1      20.446  45.603  33.237  1.00  0.00     0.004 C 
ENDBRANCH  24  25
ENDBRANCH  23  24
ENDBRANCH  22  23
ENDBRANCH  21  22
ENDBRANCH  20  21
ENDBRANCH  19  20
ENDBRANCH  18  19
ENDBRANCH  17  18
ENDBRANCH  16  17
ENDBRANCH  15  16
ENDBRANCH   1  15
TORSDOF 22
ENDMDL
