MODEL 1
REMARK VINA RESULT:    -7.612      0.000      0.000
REMARK INTER + INTRA:         -12.496
REMARK INTER:                 -11.172
REMARK INTRA:                  -1.323
REMARK UNBOUND:                -1.323
REMARK SMILES O=c1c(O[C@H]2O[C@H](CO)[C@@H](O)[C@@H](O)[C@@H]2O)c(-c2ccc(O)c(O)c2)oc2cc(O)cc(O)c12
REMARK SMILES IDX 4 1 3 2 16 3 25 4 2 5 26 6 1 7 33 8 27 9 31 10 28 11 30 12
REMARK SMILES IDX 17 13 18 14 19 15 20 16 24 17 22 18 21 19 23 21 32 23 29 25
REMARK SMILES IDX 5 27 14 28 6 29 12 30 7 31 10 32 15 33 13 35 8 37 9 38 11 40
REMARK H PARENT 21 20 23 22 32 24 29 26 15 34 13 36 9 39 11 41
REMARK Flexibility Score: inf
ROOT
ATOM      1  O   UNL     1     -21.945  61.156  31.697  1.00  0.00    -0.454 OA
ENDROOT
BRANCH   1   2
ATOM      2  C   UNL     1     -22.969  61.117  32.658  1.00  0.00     0.214 A 
ATOM      3  C   UNL     1     -22.664  60.870  34.009  1.00  0.00     0.180 A 
ATOM      4  O   UNL     1     -23.621  60.920  34.929  1.00  0.00    -0.452 OA
ATOM      5  C   UNL     1     -24.312  61.321  32.298  1.00  0.00     0.239 A 
ATOM      6  C   UNL     1     -24.896  61.155  34.640  1.00  0.00     0.146 A 
ATOM      7  O   UNL     1     -24.619  61.445  31.082  1.00  0.00    -0.285 OA
ATOM      8  C   UNL     1     -25.305  61.357  33.301  1.00  0.00     0.111 A 
ATOM      9  C   UNL     1     -25.834  61.190  35.676  1.00  0.00     0.094 A 
ATOM     10  C   UNL     1     -26.675  61.585  33.026  1.00  0.00     0.134 A 
ATOM     11  C   UNL     1     -27.185  61.420  35.398  1.00  0.00     0.123 A 
ATOM     12  C   UNL     1     -27.601  61.615  34.080  1.00  0.00     0.093 A 
BRANCH   3  13
ATOM     13  C   UNL     1     -21.288  60.573  34.446  1.00  0.00     0.025 A 
ATOM     14  C   UNL     1     -20.447  61.616  34.856  1.00  0.00     0.016 A 
ATOM     15  C   UNL     1     -19.132  61.348  35.243  1.00  0.00     0.051 A 
ATOM     16  C   UNL     1     -18.650  60.031  35.243  1.00  0.00     0.157 A 
ATOM     17  C   UNL     1     -20.814  59.252  34.471  1.00  0.00     0.062 A 
ATOM     18  C   UNL     1     -19.498  58.978  34.861  1.00  0.00     0.158 A 
BRANCH  16  19
ATOM     19  O   UNL     1     -17.335  59.767  35.624  1.00  0.00    -0.504 OA
ATOM     20  H   UNL     1     -16.549  60.213  35.166  1.00  0.00     0.293 HD
ENDBRANCH  16  19
BRANCH  18  21
ATOM     21  O   UNL     1     -19.052  57.657  34.858  1.00  0.00    -0.504 OA
ATOM     22  H   UNL     1     -18.257  57.357  35.409  1.00  0.00     0.293 HD
ENDBRANCH  18  21
ENDBRANCH   3  13
BRANCH  10  23
ATOM     23  O   UNL     1     -27.122  61.786  31.719  1.00  0.00    -0.507 OA
ATOM     24  H   UNL     1     -26.913  62.636  31.209  1.00  0.00     0.293 HD
ENDBRANCH  10  23
BRANCH  11  25
ATOM     25  O   UNL     1     -28.125  61.455  36.426  1.00  0.00    -0.508 OA
ATOM     26  H   UNL     1     -28.184  60.714  37.114  1.00  0.00     0.293 HD
ENDBRANCH  11  25
ENDBRANCH   1   2
BRANCH   1  27
ATOM     27  C   UNL     1     -21.555  60.009  30.930  1.00  0.00     0.339 C 
ATOM     28  C   UNL     1     -20.051  60.052  30.570  1.00  0.00     0.214 C 
ATOM     29  O   UNL     1     -22.374  59.857  29.780  1.00  0.00    -0.332 OA
ATOM     30  C   UNL     1     -19.746  61.066  29.447  1.00  0.00     0.180 C 
ATOM     31  C   UNL     1     -22.218  60.937  28.874  1.00  0.00     0.179 C 
ATOM     32  C   UNL     1     -20.779  60.975  28.305  1.00  0.00     0.177 C 
BRANCH  28  33
ATOM     33  O   UNL     1     -19.639  58.777  30.148  1.00  0.00    -0.384 OA
ATOM     34  H   UNL     1     -20.457  58.278  29.888  1.00  0.00     0.211 HD
ENDBRANCH  28  33
BRANCH  30  35
ATOM     35  O   UNL     1     -19.623  62.375  29.950  1.00  0.00    -0.387 OA
ATOM     36  H   UNL     1     -20.345  62.525  30.609  1.00  0.00     0.211 HD
ENDBRANCH  30  35
BRANCH  31  37
ATOM     37  C   UNL     1     -23.265  60.790  27.763  1.00  0.00     0.191 C 
BRANCH  37  38
ATOM     38  O   UNL     1     -24.559  60.864  28.298  1.00  0.00    -0.394 OA
ATOM     39  H   UNL     1     -24.527  60.378  29.163  1.00  0.00     0.210 HD
ENDBRANCH  37  38
ENDBRANCH  31  37
BRANCH  32  40
ATOM     40  O   UNL     1     -20.616  62.077  27.447  1.00  0.00    -0.387 OA
ATOM     41  H   UNL     1     -20.959  62.876  27.927  1.00  0.00     0.211 HD
ENDBRANCH  32  40
ENDBRANCH   1  27
TORSDOF 12
ENDMDL
MODEL 2
REMARK VINA RESULT:    -7.437      1.730      2.924
REMARK INTER + INTRA:         -12.239
REMARK INTER:                 -10.616
REMARK INTRA:                  -1.622
REMARK UNBOUND:                -1.323
REMARK SMILES O=c1c(O[C@H]2O[C@H](CO)[C@@H](O)[C@@H](O)[C@@H]2O)c(-c2ccc(O)c(O)c2)oc2cc(O)cc(O)c12
REMARK SMILES IDX 4 1 3 2 16 3 25 4 2 5 26 6 1 7 33 8 27 9 31 10 28 11 30 12
REMARK SMILES IDX 17 13 18 14 19 15 20 16 24 17 22 18 21 19 23 21 32 23 29 25
REMARK SMILES IDX 5 27 14 28 6 29 12 30 7 31 10 32 15 33 13 35 8 37 9 38 11 40
REMARK H PARENT 21 20 23 22 32 24 29 26 15 34 13 36 9 39 11 41
REMARK Flexibility Score: inf
ROOT
ATOM      1  O   UNL     1     -22.595  58.956  32.028  1.00  0.00    -0.454 OA
ENDROOT
BRANCH   1   2
ATOM      2  C   UNL     1     -23.485  59.548  32.940  1.00  0.00     0.214 A 
ATOM      3  C   UNL     1     -23.001  60.124  34.129  1.00  0.00     0.180 A 
ATOM      4  O   UNL     1     -23.831  60.760  34.948  1.00  0.00    -0.452 OA
ATOM      5  C   UNL     1     -24.868  59.580  32.691  1.00  0.00     0.239 A 
ATOM      6  C   UNL     1     -25.138  60.854  34.729  1.00  0.00     0.146 A 
ATOM      7  O   UNL     1     -25.332  58.984  31.682  1.00  0.00    -0.285 OA
ATOM      8  C   UNL     1     -25.722  60.255  33.589  1.00  0.00     0.111 A 
ATOM      9  C   UNL     1     -25.934  61.545  35.648  1.00  0.00     0.094 A 
ATOM     10  C   UNL     1     -27.121  60.358  33.396  1.00  0.00     0.134 A 
ATOM     11  C   UNL     1     -27.315  61.647  35.449  1.00  0.00     0.123 A 
ATOM     12  C   UNL     1     -27.903  61.055  34.330  1.00  0.00     0.093 A 
BRANCH   3  13
ATOM     13  C   UNL     1     -21.574  60.061  34.491  1.00  0.00     0.025 A 
ATOM     14  C   UNL     1     -21.099  58.996  35.268  1.00  0.00     0.016 A 
ATOM     15  C   UNL     1     -19.754  58.943  35.642  1.00  0.00     0.051 A 
ATOM     16  C   UNL     1     -18.865  59.945  35.227  1.00  0.00     0.157 A 
ATOM     17  C   UNL     1     -20.679  61.050  34.053  1.00  0.00     0.062 A 
ATOM     18  C   UNL     1     -19.330  60.999  34.423  1.00  0.00     0.158 A 
BRANCH  16  19
ATOM     19  O   UNL     1     -17.525  59.893  35.607  1.00  0.00    -0.504 OA
ATOM     20  H   UNL     1     -17.124  59.064  36.029  1.00  0.00     0.293 HD
ENDBRANCH  16  19
BRANCH  18  21
ATOM     21  O   UNL     1     -18.470  62.007  33.986  1.00  0.00    -0.504 OA
ATOM     22  H   UNL     1     -18.808  62.828  33.499  1.00  0.00     0.293 HD
ENDBRANCH  18  21
ENDBRANCH   3  13
BRANCH  10  23
ATOM     23  O   UNL     1     -27.738  59.779  32.287  1.00  0.00    -0.507 OA
ATOM     24  H   UNL     1     -27.212  59.255  31.597  1.00  0.00     0.293 HD
ENDBRANCH  10  23
BRANCH  11  25
ATOM     25  O   UNL     1     -28.114  62.334  36.361  1.00  0.00    -0.508 OA
ATOM     26  H   UNL     1     -28.745  63.069  36.064  1.00  0.00     0.293 HD
ENDBRANCH  11  25
ENDBRANCH   1   2
BRANCH   1  27
ATOM     27  C   UNL     1     -22.271  59.547  30.763  1.00  0.00     0.339 C 
ATOM     28  C   UNL     1     -22.471  58.544  29.601  1.00  0.00     0.214 C 
ATOM     29  O   UNL     1     -20.962  60.096  30.773  1.00  0.00    -0.332 OA
ATOM     30  C   UNL     1     -21.348  57.487  29.539  1.00  0.00     0.180 C 
ATOM     31  C   UNL     1     -19.970  59.097  30.941  1.00  0.00     0.179 C 
ATOM     32  C   UNL     1     -19.958  58.126  29.737  1.00  0.00     0.177 C 
BRANCH  28  33
ATOM     33  O   UNL     1     -22.496  59.245  28.383  1.00  0.00    -0.384 OA
ATOM     34  H   UNL     1     -23.357  59.739  28.351  1.00  0.00     0.211 HD
ENDBRANCH  28  33
BRANCH  30  35
ATOM     35  O   UNL     1     -21.581  56.430  30.439  1.00  0.00    -0.387 OA
ATOM     36  H   UNL     1     -22.392  56.640  30.964  1.00  0.00     0.211 HD
ENDBRANCH  30  35
BRANCH  31  37
ATOM     37  C   UNL     1     -18.614  59.790  31.127  1.00  0.00     0.191 C 
BRANCH  37  38
ATOM     38  O   UNL     1     -18.749  61.177  30.979  1.00  0.00    -0.394 OA
ATOM     39  H   UNL     1     -19.546  61.434  31.512  1.00  0.00     0.210 HD
ENDBRANCH  37  38
ENDBRANCH  31  37
BRANCH  32  40
ATOM     40  O   UNL     1     -19.007  57.107  29.933  1.00  0.00    -0.387 OA
ATOM     41  H   UNL     1     -18.380  57.140  29.164  1.00  0.00     0.211 HD
ENDBRANCH  32  40
ENDBRANCH   1  27
TORSDOF 12
ENDMDL
MODEL 3
REMARK VINA RESULT:    -7.336      1.775      6.851
REMARK INTER + INTRA:         -12.090
REMARK INTER:                 -10.710
REMARK INTRA:                  -1.380
REMARK UNBOUND:                -1.323
REMARK SMILES O=c1c(O[C@H]2O[C@H](CO)[C@@H](O)[C@@H](O)[C@@H]2O)c(-c2ccc(O)c(O)c2)oc2cc(O)cc(O)c12
REMARK SMILES IDX 4 1 3 2 16 3 25 4 2 5 26 6 1 7 33 8 27 9 31 10 28 11 30 12
REMARK SMILES IDX 17 13 18 14 19 15 20 16 24 17 22 18 21 19 23 21 32 23 29 25
REMARK SMILES IDX 5 27 14 28 6 29 12 30 7 31 10 32 15 33 13 35 8 37 9 38 11 40
REMARK H PARENT 21 20 23 22 32 24 29 26 15 34 13 36 9 39 11 41
REMARK Flexibility Score: inf
ROOT
ATOM      1  O   UNL     1     -23.579  60.602  32.275  1.00  0.00    -0.454 OA
ENDROOT
BRANCH   1   2
ATOM      2  C   UNL     1     -22.315  60.174  32.716  1.00  0.00     0.214 A 
ATOM      3  C   UNL     1     -21.361  59.714  31.790  1.00  0.00     0.180 A 
ATOM      4  O   UNL     1     -20.138  59.392  32.196  1.00  0.00    -0.452 OA
ATOM      5  C   UNL     1     -21.975  60.193  34.079  1.00  0.00     0.239 A 
ATOM      6  C   UNL     1     -19.759  59.439  33.469  1.00  0.00     0.146 A 
ATOM      7  O   UNL     1     -22.847  60.507  34.934  1.00  0.00    -0.285 OA
ATOM      8  C   UNL     1     -20.670  59.834  34.477  1.00  0.00     0.111 A 
ATOM      9  C   UNL     1     -18.449  59.083  33.803  1.00  0.00     0.094 A 
ATOM     10  C   UNL     1     -20.239  59.854  35.826  1.00  0.00     0.134 A 
ATOM     11  C   UNL     1     -18.029  59.109  35.137  1.00  0.00     0.123 A 
ATOM     12  C   UNL     1     -18.920  59.492  36.140  1.00  0.00     0.093 A 
BRANCH   3  13
ATOM     13  C   UNL     1     -21.674  59.595  30.354  1.00  0.00     0.025 A 
ATOM     14  C   UNL     1     -22.180  58.390  29.849  1.00  0.00     0.016 A 
ATOM     15  C   UNL     1     -22.451  58.258  28.485  1.00  0.00     0.051 A 
ATOM     16  C   UNL     1     -22.237  59.336  27.615  1.00  0.00     0.157 A 
ATOM     17  C   UNL     1     -21.484  60.683  29.487  1.00  0.00     0.062 A 
ATOM     18  C   UNL     1     -21.757  60.556  28.121  1.00  0.00     0.158 A 
BRANCH  16  19
ATOM     19  O   UNL     1     -22.502  59.199  26.253  1.00  0.00    -0.504 OA
ATOM     20  H   UNL     1     -23.045  58.424  25.892  1.00  0.00     0.293 HD
ENDBRANCH  16  19
BRANCH  18  21
ATOM     21  O   UNL     1     -21.541  61.650  27.282  1.00  0.00    -0.504 OA
ATOM     22  H   UNL     1     -21.636  61.582  26.276  1.00  0.00     0.293 HD
ENDBRANCH  18  21
ENDBRANCH   3  13
BRANCH  10  23
ATOM     23  O   UNL     1     -21.105  60.234  36.851  1.00  0.00    -0.507 OA
ATOM     24  H   UNL     1     -20.986  61.106  37.355  1.00  0.00     0.293 HD
ENDBRANCH  10  23
BRANCH  11  25
ATOM     25  O   UNL     1     -16.725  58.754  35.476  1.00  0.00    -0.508 OA
ATOM     26  H   UNL     1     -16.143  59.357  36.047  1.00  0.00     0.293 HD
ENDBRANCH  11  25
ENDBRANCH   1   2
BRANCH   1  27
ATOM     27  C   UNL     1     -24.676  59.702  32.069  1.00  0.00     0.339 C 
ATOM     28  C   UNL     1     -25.442  60.030  30.765  1.00  0.00     0.214 C 
ATOM     29  O   UNL     1     -25.535  59.673  33.198  1.00  0.00    -0.332 OA
ATOM     30  C   UNL     1     -26.331  61.283  30.906  1.00  0.00     0.180 C 
ATOM     31  C   UNL     1     -26.164  60.925  33.416  1.00  0.00     0.179 C 
ATOM     32  C   UNL     1     -27.105  61.281  32.241  1.00  0.00     0.177 C 
BRANCH  28  33
ATOM     33  O   UNL     1     -26.256  58.938  30.419  1.00  0.00    -0.384 OA
ATOM     34  H   UNL     1     -26.856  59.244  29.689  1.00  0.00     0.211 HD
ENDBRANCH  28  33
BRANCH  30  35
ATOM     35  O   UNL     1     -25.590  62.467  30.724  1.00  0.00    -0.387 OA
ATOM     36  H   UNL     1     -25.118  62.409  29.857  1.00  0.00     0.211 HD
ENDBRANCH  30  35
BRANCH  31  37
ATOM     37  C   UNL     1     -26.920  60.860  34.750  1.00  0.00     0.191 C 
BRANCH  37  38
ATOM     38  O   UNL     1     -28.124  60.158  34.596  1.00  0.00    -0.394 OA
ATOM     39  H   UNL     1     -28.841  60.771  34.905  1.00  0.00     0.210 HD
ENDBRANCH  37  38
ENDBRANCH  31  37
BRANCH  32  40
ATOM     40  O   UNL     1     -27.686  62.547  32.438  1.00  0.00    -0.387 OA
ATOM     41  H   UNL     1     -28.238  62.490  33.261  1.00  0.00     0.211 HD
ENDBRANCH  32  40
ENDBRANCH   1  27
TORSDOF 12
ENDMDL
MODEL 4
REMARK VINA RESULT:    -7.273      1.795      2.761
REMARK INTER + INTRA:         -11.998
REMARK INTER:                 -10.559
REMARK INTRA:                  -1.439
REMARK UNBOUND:                -1.323
REMARK SMILES O=c1c(O[C@H]2O[C@H](CO)[C@@H](O)[C@@H](O)[C@@H]2O)c(-c2ccc(O)c(O)c2)oc2cc(O)cc(O)c12
REMARK SMILES IDX 4 1 3 2 16 3 25 4 2 5 26 6 1 7 33 8 27 9 31 10 28 11 30 12
REMARK SMILES IDX 17 13 18 14 19 15 20 16 24 17 22 18 21 19 23 21 32 23 29 25
REMARK SMILES IDX 5 27 14 28 6 29 12 30 7 31 10 32 15 33 13 35 8 37 9 38 11 40
REMARK H PARENT 21 20 23 22 32 24 29 26 15 34 13 36 9 39 11 41
REMARK Flexibility Score: inf
ROOT
ATOM      1  O   UNL     1     -23.050  59.006  31.623  1.00  0.00    -0.454 OA
ENDROOT
BRANCH   1   2
ATOM      2  C   UNL     1     -23.851  59.581  32.624  1.00  0.00     0.214 A 
ATOM      3  C   UNL     1     -23.263  60.073  33.804  1.00  0.00     0.180 A 
ATOM      4  O   UNL     1     -24.008  60.694  34.712  1.00  0.00    -0.452 OA
ATOM      5  C   UNL     1     -25.244  59.680  32.475  1.00  0.00     0.239 A 
ATOM      6  C   UNL     1     -25.322  60.850  34.591  1.00  0.00     0.146 A 
ATOM      7  O   UNL     1     -25.801  59.158  31.472  1.00  0.00    -0.285 OA
ATOM      8  C   UNL     1     -26.007  60.337  33.464  1.00  0.00     0.111 A 
ATOM      9  C   UNL     1     -26.024  61.520  35.597  1.00  0.00     0.094 A 
ATOM     10  C   UNL     1     -27.410  60.504  33.376  1.00  0.00     0.134 A 
ATOM     11  C   UNL     1     -27.410  61.685  35.502  1.00  0.00     0.123 A 
ATOM     12  C   UNL     1     -28.097  61.178  34.398  1.00  0.00     0.093 A 
BRANCH   3  13
ATOM     13  C   UNL     1     -21.818  59.935  34.062  1.00  0.00     0.025 A 
ATOM     14  C   UNL     1     -21.291  58.689  34.425  1.00  0.00     0.016 A 
ATOM     15  C   UNL     1     -19.928  58.555  34.701  1.00  0.00     0.051 A 
ATOM     16  C   UNL     1     -19.075  59.663  34.598  1.00  0.00     0.157 A 
ATOM     17  C   UNL     1     -20.960  61.039  33.934  1.00  0.00     0.062 A 
ATOM     18  C   UNL     1     -19.593  60.908  34.206  1.00  0.00     0.158 A 
BRANCH  16  19
ATOM     19  O   UNL     1     -17.716  59.528  34.880  1.00  0.00    -0.504 OA
ATOM     20  H   UNL     1     -17.212  60.227  35.412  1.00  0.00     0.293 HD
ENDBRANCH  16  19
BRANCH  18  21
ATOM     21  O   UNL     1     -18.769  62.027  34.086  1.00  0.00    -0.504 OA
ATOM     22  H   UNL     1     -19.141  62.950  33.895  1.00  0.00     0.293 HD
ENDBRANCH  18  21
ENDBRANCH   3  13
BRANCH  10  23
ATOM     23  O   UNL     1     -28.125  60.010  32.284  1.00  0.00    -0.507 OA
ATOM     24  H   UNL     1     -29.032  60.383  32.028  1.00  0.00     0.293 HD
ENDBRANCH  10  23
BRANCH  11  25
ATOM     25  O   UNL     1     -28.115  62.351  36.502  1.00  0.00    -0.508 OA
ATOM     26  H   UNL     1     -29.091  62.147  36.687  1.00  0.00     0.293 HD
ENDBRANCH  11  25
ENDBRANCH   1   2
BRANCH   1  27
ATOM     27  C   UNL     1     -22.153  59.773  30.809  1.00  0.00     0.339 C 
ATOM     28  C   UNL     1     -22.921  60.674  29.813  1.00  0.00     0.214 C 
ATOM     29  O   UNL     1     -21.211  58.937  30.154  1.00  0.00    -0.332 OA
ATOM     30  C   UNL     1     -23.510  59.874  28.632  1.00  0.00     0.180 C 
ATOM     31  C   UNL     1     -21.835  58.060  29.231  1.00  0.00     0.179 C 
ATOM     32  C   UNL     1     -22.496  58.852  28.078  1.00  0.00     0.177 C 
BRANCH  28  33
ATOM     33  O   UNL     1     -22.048  61.650  29.303  1.00  0.00    -0.384 OA
ATOM     34  H   UNL     1     -21.976  62.363  29.991  1.00  0.00     0.211 HD
ENDBRANCH  28  33
BRANCH  30  35
ATOM     35  O   UNL     1     -24.737  59.273  28.975  1.00  0.00    -0.387 OA
ATOM     36  H   UNL     1     -24.573  58.617  29.695  1.00  0.00     0.211 HD
ENDBRANCH  30  35
BRANCH  31  37
ATOM     37  C   UNL     1     -20.780  57.075  28.712  1.00  0.00     0.191 C 
BRANCH  37  38
ATOM     38  O   UNL     1     -21.388  56.057  27.964  1.00  0.00    -0.394 OA
ATOM     39  H   UNL     1     -22.360  56.258  27.965  1.00  0.00     0.210 HD
ENDBRANCH  37  38
ENDBRANCH  31  37
BRANCH  32  40
ATOM     40  O   UNL     1     -23.157  57.981  27.194  1.00  0.00    -0.387 OA
ATOM     41  H   UNL     1     -22.768  57.078  27.327  1.00  0.00     0.211 HD
ENDBRANCH  32  40
ENDBRANCH   1  27
TORSDOF 12
ENDMDL
MODEL 5
REMARK VINA RESULT:    -7.151      2.902      7.439
REMARK INTER + INTRA:         -11.819
REMARK INTER:                 -10.441
REMARK INTRA:                  -1.378
REMARK UNBOUND:                -1.323
REMARK SMILES O=c1c(O[C@H]2O[C@H](CO)[C@@H](O)[C@@H](O)[C@@H]2O)c(-c2ccc(O)c(O)c2)oc2cc(O)cc(O)c12
REMARK SMILES IDX 4 1 3 2 16 3 25 4 2 5 26 6 1 7 33 8 27 9 31 10 28 11 30 12
REMARK SMILES IDX 17 13 18 14 19 15 20 16 24 17 22 18 21 19 23 21 32 23 29 25
REMARK SMILES IDX 5 27 14 28 6 29 12 30 7 31 10 32 15 33 13 35 8 37 9 38 11 40
REMARK H PARENT 21 20 23 22 32 24 29 26 15 34 13 36 9 39 11 41
REMARK Flexibility Score: inf
ROOT
ATOM      1  O   UNL     1     -21.656  59.572  30.910  1.00  0.00    -0.454 OA
ENDROOT
BRANCH   1   2
ATOM      2  C   UNL     1     -22.104  58.868  29.780  1.00  0.00     0.214 A 
ATOM      3  C   UNL     1     -23.406  59.075  29.288  1.00  0.00     0.180 A 
ATOM      4  O   UNL     1     -23.800  58.476  28.169  1.00  0.00    -0.452 OA
ATOM      5  C   UNL     1     -21.274  57.948  29.118  1.00  0.00     0.239 A 
ATOM      6  C   UNL     1     -23.032  57.634  27.487  1.00  0.00     0.146 A 
ATOM      7  O   UNL     1     -20.141  57.674  29.600  1.00  0.00    -0.285 OA
ATOM      8  C   UNL     1     -21.728  57.321  27.939  1.00  0.00     0.111 A 
ATOM      9  C   UNL     1     -23.531  57.051  26.319  1.00  0.00     0.094 A 
ATOM     10  C   UNL     1     -20.943  56.404  27.198  1.00  0.00     0.134 A 
ATOM     11  C   UNL     1     -22.749  56.149  25.589  1.00  0.00     0.123 A 
ATOM     12  C   UNL     1     -21.464  55.829  26.029  1.00  0.00     0.093 A 
BRANCH   3  13
ATOM     13  C   UNL     1     -24.357  59.968  29.974  1.00  0.00     0.025 A 
ATOM     14  C   UNL     1     -24.235  61.357  29.834  1.00  0.00     0.016 A 
ATOM     15  C   UNL     1     -25.112  62.211  30.505  1.00  0.00     0.051 A 
ATOM     16  C   UNL     1     -26.134  61.686  31.309  1.00  0.00     0.157 A 
ATOM     17  C   UNL     1     -25.395  59.441  30.759  1.00  0.00     0.062 A 
ATOM     18  C   UNL     1     -26.279  60.294  31.430  1.00  0.00     0.158 A 
BRANCH  16  19
ATOM     19  O   UNL     1     -27.004  62.541  31.983  1.00  0.00    -0.504 OA
ATOM     20  H   UNL     1     -27.683  62.192  32.649  1.00  0.00     0.293 HD
ENDBRANCH  16  19
BRANCH  18  21
ATOM     21  O   UNL     1     -27.290  59.739  32.215  1.00  0.00    -0.504 OA
ATOM     22  H   UNL     1     -27.276  58.768  32.501  1.00  0.00     0.293 HD
ENDBRANCH  18  21
ENDBRANCH   3  13
BRANCH  10  23
ATOM     23  O   UNL     1     -19.654  56.065  27.610  1.00  0.00    -0.507 OA
ATOM     24  H   UNL     1     -19.482  55.605  28.497  1.00  0.00     0.293 HD
ENDBRANCH  10  23
BRANCH  11  25
ATOM     25  O   UNL     1     -23.242  55.564  24.424  1.00  0.00    -0.508 OA
ATOM     26  H   UNL     1     -22.798  55.717  23.526  1.00  0.00     0.293 HD
ENDBRANCH  11  25
ENDBRANCH   1   2
BRANCH   1  27
ATOM     27  C   UNL     1     -21.071  60.879  30.830  1.00  0.00     0.339 C 
ATOM     28  C   UNL     1     -19.577  60.807  30.435  1.00  0.00     0.214 C 
ATOM     29  O   UNL     1     -21.269  61.605  32.033  1.00  0.00    -0.332 OA
ATOM     30  C   UNL     1     -18.683  60.340  31.603  1.00  0.00     0.180 C 
ATOM     31  C   UNL     1     -20.601  61.004  33.130  1.00  0.00     0.179 C 
ATOM     32  C   UNL     1     -19.068  61.035  32.925  1.00  0.00     0.177 C 
BRANCH  28  33
ATOM     33  O   UNL     1     -19.145  62.079  30.021  1.00  0.00    -0.384 OA
ATOM     34  H   UNL     1     -18.234  62.212  30.394  1.00  0.00     0.211 HD
ENDBRANCH  28  33
BRANCH  30  35
ATOM     35  O   UNL     1     -18.678  58.936  31.722  1.00  0.00    -0.387 OA
ATOM     36  H   UNL     1     -17.757  58.643  31.927  1.00  0.00     0.211 HD
ENDBRANCH  30  35
BRANCH  31  37
ATOM     37  C   UNL     1     -21.018  61.739  34.411  1.00  0.00     0.191 C 
BRANCH  37  38
ATOM     38  O   UNL     1     -19.984  62.575  34.854  1.00  0.00    -0.394 OA
ATOM     39  H   UNL     1     -19.156  62.029  34.819  1.00  0.00     0.210 HD
ENDBRANCH  37  38
ENDBRANCH  31  37
BRANCH  32  40
ATOM     40  O   UNL     1     -18.413  60.392  33.991  1.00  0.00    -0.387 OA
ATOM     41  H   UNL     1     -19.116  60.011  34.580  1.00  0.00     0.211 HD
ENDBRANCH  32  40
ENDBRANCH   1  27
TORSDOF 12
ENDMDL
MODEL 6
REMARK VINA RESULT:    -7.054      2.843      7.492
REMARK INTER + INTRA:         -11.676
REMARK INTER:                 -10.399
REMARK INTRA:                  -1.277
REMARK UNBOUND:                -1.323
REMARK SMILES O=c1c(O[C@H]2O[C@H](CO)[C@@H](O)[C@@H](O)[C@@H]2O)c(-c2ccc(O)c(O)c2)oc2cc(O)cc(O)c12
REMARK SMILES IDX 4 1 3 2 16 3 25 4 2 5 26 6 1 7 33 8 27 9 31 10 28 11 30 12
REMARK SMILES IDX 17 13 18 14 19 15 20 16 24 17 22 18 21 19 23 21 32 23 29 25
REMARK SMILES IDX 5 27 14 28 6 29 12 30 7 31 10 32 15 33 13 35 8 37 9 38 11 40
REMARK H PARENT 21 20 23 22 32 24 29 26 15 34 13 36 9 39 11 41
REMARK Flexibility Score: inf
ROOT
ATOM      1  O   UNL     1     -21.557  59.976  31.123  1.00  0.00    -0.454 OA
ENDROOT
BRANCH   1   2
ATOM      2  C   UNL     1     -21.955  59.087  30.111  1.00  0.00     0.214 A 
ATOM      3  C   UNL     1     -23.281  59.097  29.641  1.00  0.00     0.180 A 
ATOM      4  O   UNL     1     -23.635  58.318  28.625  1.00  0.00    -0.452 OA
ATOM      5  C   UNL     1     -21.049  58.172  29.547  1.00  0.00     0.239 A 
ATOM      6  C   UNL     1     -22.800  57.471  28.033  1.00  0.00     0.146 A 
ATOM      7  O   UNL     1     -19.884  58.078  30.021  1.00  0.00    -0.285 OA
ATOM      8  C   UNL     1     -21.462  57.351  28.477  1.00  0.00     0.111 A 
ATOM      9  C   UNL     1     -23.263  56.691  26.969  1.00  0.00     0.094 A 
ATOM     10  C   UNL     1     -20.604  56.425  27.836  1.00  0.00     0.134 A 
ATOM     11  C   UNL     1     -22.408  55.781  26.338  1.00  0.00     0.123 A 
ATOM     12  C   UNL     1     -21.088  55.649  26.771  1.00  0.00     0.093 A 
BRANCH   3  13
ATOM     13  C   UNL     1     -24.303  59.976  30.237  1.00  0.00     0.025 A 
ATOM     14  C   UNL     1     -24.207  61.365  30.077  1.00  0.00     0.016 A 
ATOM     15  C   UNL     1     -25.154  62.208  30.664  1.00  0.00     0.051 A 
ATOM     16  C   UNL     1     -26.218  61.670  31.401  1.00  0.00     0.157 A 
ATOM     17  C   UNL     1     -25.383  59.435  30.954  1.00  0.00     0.062 A 
ATOM     18  C   UNL     1     -26.335  60.276  31.541  1.00  0.00     0.158 A 
BRANCH  16  19
ATOM     19  O   UNL     1     -27.158  62.513  31.992  1.00  0.00    -0.504 OA
ATOM     20  H   UNL     1     -28.149  62.302  31.971  1.00  0.00     0.293 HD
ENDBRANCH  16  19
BRANCH  18  21
ATOM     21  O   UNL     1     -27.387  59.709  32.261  1.00  0.00    -0.504 OA
ATOM     22  H   UNL     1     -27.595  59.983  33.213  1.00  0.00     0.293 HD
ENDBRANCH  18  21
ENDBRANCH   3  13
BRANCH  10  23
ATOM     23  O   UNL     1     -19.279  56.272  28.244  1.00  0.00    -0.507 OA
ATOM     24  H   UNL     1     -18.696  55.521  27.893  1.00  0.00     0.293 HD
ENDBRANCH  10  23
BRANCH  11  25
ATOM     25  O   UNL     1     -22.863  54.999  25.278  1.00  0.00    -0.508 OA
ATOM     26  H   UNL     1     -22.565  55.174  24.325  1.00  0.00     0.293 HD
ENDBRANCH  11  25
ENDBRANCH   1   2
BRANCH   1  27
ATOM     27  C   UNL     1     -21.792  59.726  32.515  1.00  0.00     0.339 C 
ATOM     28  C   UNL     1     -22.152  61.026  33.272  1.00  0.00     0.214 C 
ATOM     29  O   UNL     1     -20.694  59.051  33.108  1.00  0.00    -0.332 OA
ATOM     30  C   UNL     1     -20.921  61.925  33.511  1.00  0.00     0.180 C 
ATOM     31  C   UNL     1     -19.520  59.845  33.104  1.00  0.00     0.179 C 
ATOM     32  C   UNL     1     -19.703  61.104  33.984  1.00  0.00     0.177 C 
BRANCH  28  33
ATOM     33  O   UNL     1     -22.717  60.698  34.516  1.00  0.00    -0.384 OA
ATOM     34  H   UNL     1     -22.628  59.714  34.624  1.00  0.00     0.211 HD
ENDBRANCH  28  33
BRANCH  30  35
ATOM     35  O   UNL     1     -20.625  62.711  32.381  1.00  0.00    -0.387 OA
ATOM     36  H   UNL     1     -20.811  62.175  31.571  1.00  0.00     0.211 HD
ENDBRANCH  30  35
BRANCH  31  37
ATOM     37  C   UNL     1     -18.349  58.979  33.587  1.00  0.00     0.191 C 
BRANCH  37  38
ATOM     38  O   UNL     1     -17.870  59.448  34.819  1.00  0.00    -0.394 OA
ATOM     39  H   UNL     1     -17.997  60.432  34.806  1.00  0.00     0.210 HD
ENDBRANCH  37  38
ENDBRANCH  31  37
BRANCH  32  40
ATOM     40  O   UNL     1     -18.554  61.915  33.935  1.00  0.00    -0.387 OA
ATOM     41  H   UNL     1     -17.867  61.483  34.506  1.00  0.00     0.211 HD
ENDBRANCH  32  40
ENDBRANCH   1  27
TORSDOF 12
ENDMDL
MODEL 7
REMARK VINA RESULT:    -6.949      2.605      7.503
REMARK INTER + INTRA:         -11.522
REMARK INTER:                  -9.942
REMARK INTRA:                  -1.580
REMARK UNBOUND:                -1.323
REMARK SMILES O=c1c(O[C@H]2O[C@H](CO)[C@@H](O)[C@@H](O)[C@@H]2O)c(-c2ccc(O)c(O)c2)oc2cc(O)cc(O)c12
REMARK SMILES IDX 4 1 3 2 16 3 25 4 2 5 26 6 1 7 33 8 27 9 31 10 28 11 30 12
REMARK SMILES IDX 17 13 18 14 19 15 20 16 24 17 22 18 21 19 23 21 32 23 29 25
REMARK SMILES IDX 5 27 14 28 6 29 12 30 7 31 10 32 15 33 13 35 8 37 9 38 11 40
REMARK H PARENT 21 20 23 22 32 24 29 26 15 34 13 36 9 39 11 41
REMARK Flexibility Score: inf
ROOT
ATOM      1  O   UNL     1     -22.471  59.196  32.150  1.00  0.00    -0.454 OA
ENDROOT
BRANCH   1   2
ATOM      2  C   UNL     1     -22.649  58.760  30.827  1.00  0.00     0.214 A 
ATOM      3  C   UNL     1     -23.752  59.206  30.077  1.00  0.00     0.180 A 
ATOM      4  O   UNL     1     -23.873  58.863  28.799  1.00  0.00    -0.452 OA
ATOM      5  C   UNL     1     -21.738  57.876  30.224  1.00  0.00     0.239 A 
ATOM      6  C   UNL     1     -23.011  58.066  28.176  1.00  0.00     0.146 A 
ATOM      7  O   UNL     1     -20.799  57.387  30.908  1.00  0.00    -0.285 OA
ATOM      8  C   UNL     1     -21.903  57.524  28.867  1.00  0.00     0.111 A 
ATOM      9  C   UNL     1     -23.219  57.761  26.827  1.00  0.00     0.094 A 
ATOM     10  C   UNL     1     -21.015  56.662  28.178  1.00  0.00     0.134 A 
ATOM     11  C   UNL     1     -22.336  56.912  26.151  1.00  0.00     0.123 A 
ATOM     12  C   UNL     1     -21.242  56.367  26.825  1.00  0.00     0.093 A 
BRANCH   3  13
ATOM     13  C   UNL     1     -24.787  60.073  30.668  1.00  0.00     0.025 A 
ATOM     14  C   UNL     1     -24.662  61.466  30.579  1.00  0.00     0.016 A 
ATOM     15  C   UNL     1     -25.622  62.297  31.163  1.00  0.00     0.051 A 
ATOM     16  C   UNL     1     -26.726  61.743  31.826  1.00  0.00     0.157 A 
ATOM     17  C   UNL     1     -25.906  59.518  31.309  1.00  0.00     0.062 A 
ATOM     18  C   UNL     1     -26.871  60.347  31.893  1.00  0.00     0.158 A 
BRANCH  16  19
ATOM     19  O   UNL     1     -27.679  62.574  32.413  1.00  0.00    -0.504 OA
ATOM     20  H   UNL     1     -28.639  62.593  32.090  1.00  0.00     0.293 HD
ENDBRANCH  16  19
BRANCH  18  21
ATOM     21  O   UNL     1     -27.963  59.765  32.537  1.00  0.00    -0.504 OA
ATOM     22  H   UNL     1     -28.353  58.880  32.239  1.00  0.00     0.293 HD
ENDBRANCH  18  21
ENDBRANCH   3  13
BRANCH  10  23
ATOM     23  O   UNL     1     -19.911  56.103  28.822  1.00  0.00    -0.507 OA
ATOM     24  H   UNL     1     -19.991  55.261  29.382  1.00  0.00     0.293 HD
ENDBRANCH  10  23
BRANCH  11  25
ATOM     25  O   UNL     1     -22.538  56.604  24.808  1.00  0.00    -0.508 OA
ATOM     26  H   UNL     1     -21.966  55.916  24.330  1.00  0.00     0.293 HD
ENDBRANCH  11  25
ENDBRANCH   1   2
BRANCH   1  27
ATOM     27  C   UNL     1     -21.885  60.462  32.480  1.00  0.00     0.339 C 
ATOM     28  C   UNL     1     -20.345  60.362  32.588  1.00  0.00     0.214 C 
ATOM     29  O   UNL     1     -22.467  61.009  33.652  1.00  0.00    -0.332 OA
ATOM     30  C   UNL     1     -19.892  59.671  33.892  1.00  0.00     0.180 C 
ATOM     31  C   UNL     1     -22.204  60.211  34.794  1.00  0.00     0.179 C 
ATOM     32  C   UNL     1     -20.690  60.180  35.109  1.00  0.00     0.177 C 
BRANCH  28  33
ATOM     33  O   UNL     1     -19.792  61.654  32.550  1.00  0.00    -0.384 OA
ATOM     34  H   UNL     1     -19.130  61.665  31.810  1.00  0.00     0.211 HD
ENDBRANCH  28  33
BRANCH  30  35
ATOM     35  O   UNL     1     -19.936  58.268  33.776  1.00  0.00    -0.387 OA
ATOM     36  H   UNL     1     -19.984  58.035  32.816  1.00  0.00     0.211 HD
ENDBRANCH  30  35
BRANCH  31  37
ATOM     37  C   UNL     1     -23.019  60.767  35.970  1.00  0.00     0.191 C 
BRANCH  37  38
ATOM     38  O   UNL     1     -23.294  59.753  36.897  1.00  0.00    -0.394 OA
ATOM     39  H   UNL     1     -24.252  59.521  36.774  1.00  0.00     0.210 HD
ENDBRANCH  37  38
ENDBRANCH  31  37
BRANCH  32  40
ATOM     40  O   UNL     1     -20.430  59.346  36.212  1.00  0.00    -0.387 OA
ATOM     41  H   UNL     1     -21.002  59.661  36.959  1.00  0.00     0.211 HD
ENDBRANCH  32  40
ENDBRANCH   1  27
TORSDOF 12
ENDMDL
MODEL 8
REMARK VINA RESULT:    -6.800      1.922      6.960
REMARK INTER + INTRA:         -11.304
REMARK INTER:                  -9.916
REMARK INTRA:                  -1.388
REMARK UNBOUND:                -1.323
REMARK SMILES O=c1c(O[C@H]2O[C@H](CO)[C@@H](O)[C@@H](O)[C@@H]2O)c(-c2ccc(O)c(O)c2)oc2cc(O)cc(O)c12
REMARK SMILES IDX 4 1 3 2 16 3 25 4 2 5 26 6 1 7 33 8 27 9 31 10 28 11 30 12
REMARK SMILES IDX 17 13 18 14 19 15 20 16 24 17 22 18 21 19 23 21 32 23 29 25
REMARK SMILES IDX 5 27 14 28 6 29 12 30 7 31 10 32 15 33 13 35 8 37 9 38 11 40
REMARK H PARENT 21 20 23 22 32 24 29 26 15 34 13 36 9 39 11 41
REMARK Flexibility Score: inf
ROOT
ATOM      1  O   UNL     1     -22.675  59.592  32.706  1.00  0.00    -0.454 OA
ENDROOT
BRANCH   1   2
ATOM      2  C   UNL     1     -21.340  59.226  32.947  1.00  0.00     0.214 A 
ATOM      3  C   UNL     1     -20.347  59.502  31.989  1.00  0.00     0.180 A 
ATOM      4  O   UNL     1     -19.073  59.236  32.254  1.00  0.00    -0.452 OA
ATOM      5  C   UNL     1     -20.965  58.582  34.138  1.00  0.00     0.239 A 
ATOM      6  C   UNL     1     -18.668  58.670  33.385  1.00  0.00     0.146 A 
ATOM      7  O   UNL     1     -21.852  58.237  34.965  1.00  0.00    -0.285 OA
ATOM      8  C   UNL     1     -19.603  58.304  34.382  1.00  0.00     0.111 A 
ATOM      9  C   UNL     1     -17.304  58.428  33.576  1.00  0.00     0.094 A 
ATOM     10  C   UNL     1     -19.140  57.684  35.568  1.00  0.00     0.134 A 
ATOM     11  C   UNL     1     -16.853  57.819  34.752  1.00  0.00     0.123 A 
ATOM     12  C   UNL     1     -17.767  57.449  35.740  1.00  0.00     0.093 A 
BRANCH   3  13
ATOM     13  C   UNL     1     -20.679  60.107  30.687  1.00  0.00     0.025 A 
ATOM     14  C   UNL     1     -19.855  61.106  30.152  1.00  0.00     0.016 A 
ATOM     15  C   UNL     1     -20.177  61.707  28.933  1.00  0.00     0.051 A 
ATOM     16  C   UNL     1     -21.318  61.301  28.226  1.00  0.00     0.157 A 
ATOM     17  C   UNL     1     -21.807  59.682  29.967  1.00  0.00     0.062 A 
ATOM     18  C   UNL     1     -22.132  60.279  28.743  1.00  0.00     0.158 A 
BRANCH  16  19
ATOM     19  O   UNL     1     -21.641  61.906  27.012  1.00  0.00    -0.504 OA
ATOM     20  H   UNL     1     -21.242  61.590  26.137  1.00  0.00     0.293 HD
ENDBRANCH  16  19
BRANCH  18  21
ATOM     21  O   UNL     1     -23.269  59.847  28.060  1.00  0.00    -0.504 OA
ATOM     22  H   UNL     1     -23.785  60.456  27.437  1.00  0.00     0.293 HD
ENDBRANCH  18  21
ENDBRANCH   3  13
BRANCH  10  23
ATOM     23  O   UNL     1     -20.029  57.304  36.574  1.00  0.00    -0.507 OA
ATOM     24  H   UNL     1     -20.936  56.905  36.362  1.00  0.00     0.293 HD
ENDBRANCH  10  23
BRANCH  11  25
ATOM     25  O   UNL     1     -15.495  57.575  34.948  1.00  0.00    -0.508 OA
ATOM     26  H   UNL     1     -15.035  56.775  34.528  1.00  0.00     0.293 HD
ENDBRANCH  11  25
ENDBRANCH   1   2
BRANCH   1  27
ATOM     27  C   UNL     1     -23.275  60.763  33.274  1.00  0.00     0.339 C 
ATOM     28  C   UNL     1     -24.378  60.396  34.296  1.00  0.00     0.214 C 
ATOM     29  O   UNL     1     -23.754  61.637  32.264  1.00  0.00    -0.332 OA
ATOM     30  C   UNL     1     -25.673  59.910  33.612  1.00  0.00     0.180 C 
ATOM     31  C   UNL     1     -24.806  61.052  31.514  1.00  0.00     0.179 C 
ATOM     32  C   UNL     1     -26.044  60.798  32.407  1.00  0.00     0.177 C 
BRANCH  28  33
ATOM     33  O   UNL     1     -24.679  61.525  35.078  1.00  0.00    -0.384 OA
ATOM     34  H   UNL     1     -24.210  62.297  34.666  1.00  0.00     0.211 HD
ENDBRANCH  28  33
BRANCH  30  35
ATOM     35  O   UNL     1     -25.595  58.548  33.265  1.00  0.00    -0.387 OA
ATOM     36  H   UNL     1     -24.846  58.429  32.632  1.00  0.00     0.211 HD
ENDBRANCH  30  35
BRANCH  31  37
ATOM     37  C   UNL     1     -25.134  61.979  30.336  1.00  0.00     0.191 C 
BRANCH  37  38
ATOM     38  O   UNL     1     -25.709  61.250  29.286  1.00  0.00    -0.394 OA
ATOM     39  H   UNL     1     -24.967  61.034  28.663  1.00  0.00     0.210 HD
ENDBRANCH  37  38
ENDBRANCH  31  37
BRANCH  32  40
ATOM     40  O   UNL     1     -27.065  60.170  31.670  1.00  0.00    -0.387 OA
ATOM     41  H   UNL     1     -27.930  60.488  32.039  1.00  0.00     0.211 HD
ENDBRANCH  32  40
ENDBRANCH   1  27
TORSDOF 12
ENDMDL
MODEL 9
REMARK VINA RESULT:    -6.758      2.411      2.786
REMARK INTER + INTRA:         -11.242
REMARK INTER:                  -9.788
REMARK INTRA:                  -1.454
REMARK UNBOUND:                -1.323
REMARK SMILES O=c1c(O[C@H]2O[C@H](CO)[C@@H](O)[C@@H](O)[C@@H]2O)c(-c2ccc(O)c(O)c2)oc2cc(O)cc(O)c12
REMARK SMILES IDX 4 1 3 2 16 3 25 4 2 5 26 6 1 7 33 8 27 9 31 10 28 11 30 12
REMARK SMILES IDX 17 13 18 14 19 15 20 16 24 17 22 18 21 19 23 21 32 23 29 25
REMARK SMILES IDX 5 27 14 28 6 29 12 30 7 31 10 32 15 33 13 35 8 37 9 38 11 40
REMARK H PARENT 21 20 23 22 32 24 29 26 15 34 13 36 9 39 11 41
REMARK Flexibility Score: inf
ROOT
ATOM      1  O   UNL     1     -22.424  58.835  32.216  1.00  0.00    -0.454 OA
ENDROOT
BRANCH   1   2
ATOM      2  C   UNL     1     -23.350  59.459  33.067  1.00  0.00     0.214 A 
ATOM      3  C   UNL     1     -22.912  60.106  34.237  1.00  0.00     0.180 A 
ATOM      4  O   UNL     1     -23.777  60.770  34.996  1.00  0.00    -0.452 OA
ATOM      5  C   UNL     1     -24.725  59.456  32.775  1.00  0.00     0.239 A 
ATOM      6  C   UNL     1     -25.078  60.831  34.733  1.00  0.00     0.146 A 
ATOM      7  O   UNL     1     -25.149  58.799  31.785  1.00  0.00    -0.285 OA
ATOM      8  C   UNL     1     -25.617  60.163  33.609  1.00  0.00     0.111 A 
ATOM      9  C   UNL     1     -25.912  61.556  35.589  1.00  0.00     0.094 A 
ATOM     10  C   UNL     1     -27.011  60.232  33.369  1.00  0.00     0.134 A 
ATOM     11  C   UNL     1     -27.288  61.624  35.343  1.00  0.00     0.123 A 
ATOM     12  C   UNL     1     -27.832  60.964  34.240  1.00  0.00     0.093 A 
BRANCH   3  13
ATOM     13  C   UNL     1     -21.496  60.085  34.645  1.00  0.00     0.025 A 
ATOM     14  C   UNL     1     -21.049  59.123  35.560  1.00  0.00     0.016 A 
ATOM     15  C   UNL     1     -19.715  59.114  35.977  1.00  0.00     0.051 A 
ATOM     16  C   UNL     1     -18.811  60.057  35.468  1.00  0.00     0.157 A 
ATOM     17  C   UNL     1     -20.585  61.013  34.117  1.00  0.00     0.062 A 
ATOM     18  C   UNL     1     -19.247  61.006  34.529  1.00  0.00     0.158 A 
BRANCH  16  19
ATOM     19  O   UNL     1     -17.482  60.051  35.890  1.00  0.00    -0.504 OA
ATOM     20  H   UNL     1     -16.715  60.124  35.232  1.00  0.00     0.293 HD
ENDBRANCH  16  19
BRANCH  18  21
ATOM     21  O   UNL     1     -18.371  61.952  33.997  1.00  0.00    -0.504 OA
ATOM     22  H   UNL     1     -17.877  61.798  33.127  1.00  0.00     0.293 HD
ENDBRANCH  18  21
ENDBRANCH   3  13
BRANCH  10  23
ATOM     23  O   UNL     1     -27.584  59.585  32.274  1.00  0.00    -0.507 OA
ATOM     24  H   UNL     1     -28.553  59.286  32.278  1.00  0.00     0.293 HD
ENDBRANCH  10  23
BRANCH  11  25
ATOM     25  O   UNL     1     -28.125  62.345  36.193  1.00  0.00    -0.508 OA
ATOM     26  H   UNL     1     -29.082  62.560  35.936  1.00  0.00     0.293 HD
ENDBRANCH  11  25
ENDBRANCH   1   2
BRANCH   1  27
ATOM     27  C   UNL     1     -22.022  57.467  32.374  1.00  0.00     0.339 C 
ATOM     28  C   UNL     1     -20.481  57.331  32.420  1.00  0.00     0.214 C 
ATOM     29  O   UNL     1     -22.599  56.643  31.374  1.00  0.00    -0.332 OA
ATOM     30  C   UNL     1     -19.836  57.492  31.028  1.00  0.00     0.180 C 
ATOM     31  C   UNL     1     -22.136  56.981  30.077  1.00  0.00     0.179 C 
ATOM     32  C   UNL     1     -20.617  56.716  29.948  1.00  0.00     0.177 C 
BRANCH  28  33
ATOM     33  O   UNL     1     -20.142  56.065  32.928  1.00  0.00    -0.384 OA
ATOM     34  H   UNL     1     -20.993  55.571  33.066  1.00  0.00     0.211 HD
ENDBRANCH  28  33
BRANCH  30  35
ATOM     35  O   UNL     1     -19.667  58.849  30.689  1.00  0.00    -0.387 OA
ATOM     36  H   UNL     1     -20.310  59.385  31.215  1.00  0.00     0.211 HD
ENDBRANCH  30  35
BRANCH  31  37
ATOM     37  C   UNL     1     -22.943  56.176  29.050  1.00  0.00     0.191 C 
BRANCH  37  38
ATOM     38  O   UNL     1     -22.903  56.803  27.797  1.00  0.00    -0.394 OA
ATOM     39  H   UNL     1     -22.707  56.087  27.138  1.00  0.00     0.210 HD
ENDBRANCH  37  38
ENDBRANCH  31  37
BRANCH  32  40
ATOM     40  O   UNL     1     -20.153  57.101  28.677  1.00  0.00    -0.387 OA
ATOM     41  H   UNL     1     -20.139  58.093  28.659  1.00  0.00     0.211 HD
ENDBRANCH  32  40
ENDBRANCH   1  27
TORSDOF 12
ENDMDL
