MODEL 1
REMARK VINA RESULT:    -3.327      0.000      0.000
REMARK INTER + INTRA:          -9.169
REMARK INTER:                  -6.439
REMARK INTRA:                  -2.730
REMARK UNBOUND:                -2.730
REMARK SMILES CCCCCCCCCCCCCCCCCC(=O)[O-]
REMARK SMILES IDX 10 1 11 2 12 3 13 4 14 5 15 6 16 7 17 8 18 9 19 10 20 11
REMARK SMILES IDX 9 12 8 13 7 14 6 15 5 16 4 17 3 18 2 19 1 20
REMARK H PARENT
REMARK Flexibility Score: inf
ROOT
ATOM      1  C   UNL     1      70.176   7.204 365.024  1.00  0.00     0.000 C 
ENDROOT
BRANCH   1   2
ATOM      2  C   UNL     1      70.297   7.879 366.400  1.00  0.00     0.000 C 
BRANCH   2   3
ATOM      3  C   UNL     1      69.073   8.737 366.751  1.00  0.00     0.000 C 
BRANCH   3   4
ATOM      4  C   UNL     1      69.444  10.228 366.798  1.00  0.00     0.000 C 
BRANCH   4   5
ATOM      5  C   UNL     1      70.814  10.517 366.162  1.00  0.00     0.000 C 
BRANCH   5   6
ATOM      6  C   UNL     1      71.685  11.442 367.030  1.00  0.00     0.000 C 
BRANCH   6   7
ATOM      7  C   UNL     1      73.149  10.973 367.115  1.00  0.00     0.006 C 
BRANCH   7   8
ATOM      8  C   UNL     1      73.481   9.780 366.206  1.00  0.00     0.053 C 
BRANCH   8   9
ATOM      9  C   UNL     1      74.365  10.175 365.063  1.00  0.00     0.041 C 
ATOM     10  O   UNL     1      75.364   9.472 364.761  1.00  0.00    -0.550 OA
ATOM     11  O   UNL     1      74.101  11.339 364.352  1.00  0.00    -0.550 OA
ENDBRANCH   8   9
ENDBRANCH   7   8
ENDBRANCH   6   7
ENDBRANCH   5   6
ENDBRANCH   4   5
ENDBRANCH   3   4
ENDBRANCH   2   3
ENDBRANCH   1   2
BRANCH   1  12
ATOM     12  C   UNL     1      69.869   5.700 365.128  1.00  0.00     0.000 C 
BRANCH  12  13
ATOM     13  C   UNL     1      68.618   5.296 364.331  1.00  0.00    -0.000 C 
BRANCH  13  14
ATOM     14  C   UNL     1      67.682   6.482 364.054  1.00  0.00    -0.000 C 
BRANCH  14  15
ATOM     15  C   UNL     1      67.501   6.697 362.544  1.00  0.00    -0.000 C 
BRANCH  15  16
ATOM     16  C   UNL     1      67.284   8.174 362.176  1.00  0.00    -0.000 C 
BRANCH  16  17
ATOM     17  C   UNL     1      67.576   9.127 363.348  1.00  0.00    -0.000 C 
BRANCH  17  18
ATOM     18  C   UNL     1      68.726  10.106 363.030  1.00  0.00    -0.000 C 
BRANCH  18  19
ATOM     19  C   UNL     1      69.817   9.502 362.130  1.00  0.00    -0.003 C 
ATOM     20  C   UNL     1      71.231   9.797 362.625  1.00  0.00     0.004 C 
ENDBRANCH  18  19
ENDBRANCH  17  18
ENDBRANCH  16  17
ENDBRANCH  15  16
ENDBRANCH  14  15
ENDBRANCH  13  14
ENDBRANCH  12  13
ENDBRANCH   1  12
TORSDOF 16
ENDMDL
MODEL 2
REMARK VINA RESULT:    -3.291      1.461      4.987
REMARK INTER + INTRA:          -9.100
REMARK INTER:                  -6.348
REMARK INTRA:                  -2.751
REMARK UNBOUND:                -2.730
REMARK SMILES CCCCCCCCCCCCCCCCCC(=O)[O-]
REMARK SMILES IDX 10 1 11 2 12 3 13 4 14 5 15 6 16 7 17 8 18 9 19 10 20 11
REMARK SMILES IDX 9 12 8 13 7 14 6 15 5 16 4 17 3 18 2 19 1 20
REMARK H PARENT
REMARK Flexibility Score: inf
ROOT
ATOM      1  C   UNL     1      70.311   6.776 366.324  1.00  0.00     0.000 C 
ENDROOT
BRANCH   1   2
ATOM      2  C   UNL     1      69.991   6.046 365.009  1.00  0.00     0.000 C 
BRANCH   2   3
ATOM      3  C   UNL     1      68.490   6.045 364.681  1.00  0.00     0.000 C 
BRANCH   3   4
ATOM      4  C   UNL     1      68.221   6.754 363.344  1.00  0.00     0.000 C 
BRANCH   4   5
ATOM      5  C   UNL     1      67.646   8.167 363.529  1.00  0.00     0.000 C 
BRANCH   5   6
ATOM      6  C   UNL     1      68.584   9.262 362.990  1.00  0.00     0.000 C 
BRANCH   6   7
ATOM      7  C   UNL     1      69.903   8.693 362.436  1.00  0.00     0.006 C 
BRANCH   7   8
ATOM      8  C   UNL     1      71.154   9.482 362.853  1.00  0.00     0.053 C 
BRANCH   8   9
ATOM      9  C   UNL     1      71.379  10.679 361.981  1.00  0.00     0.041 C 
ATOM     10  O   UNL     1      71.158  10.613 360.743  1.00  0.00    -0.550 OA
ATOM     11  O   UNL     1      71.865  11.858 362.532  1.00  0.00    -0.550 OA
ENDBRANCH   8   9
ENDBRANCH   7   8
ENDBRANCH   6   7
ENDBRANCH   5   6
ENDBRANCH   4   5
ENDBRANCH   3   4
ENDBRANCH   2   3
ENDBRANCH   1   2
BRANCH   1  12
ATOM     12  C   UNL     1      70.372   8.304 366.151  1.00  0.00     0.000 C 
BRANCH  12  13
ATOM     13  C   UNL     1      69.204   9.023 366.845  1.00  0.00    -0.000 C 
BRANCH  13  14
ATOM     14  C   UNL     1      69.226  10.543 366.623  1.00  0.00    -0.000 C 
BRANCH  14  15
ATOM     15  C   UNL     1      70.559  10.988 366.004  1.00  0.00    -0.000 C 
BRANCH  15  16
ATOM     16  C   UNL     1      71.535  11.561 367.043  1.00  0.00    -0.000 C 
BRANCH  16  17
ATOM     17  C   UNL     1      73.003  11.483 366.587  1.00  0.00    -0.000 C 
BRANCH  17  18
ATOM     18  C   UNL     1      73.620  10.092 366.848  1.00  0.00    -0.000 C 
BRANCH  18  19
ATOM     19  C   UNL     1      74.714   9.705 365.839  1.00  0.00    -0.003 C 
ATOM     20  C   UNL     1      74.456  10.253 364.437  1.00  0.00     0.004 C 
ENDBRANCH  18  19
ENDBRANCH  17  18
ENDBRANCH  16  17
ENDBRANCH  15  16
ENDBRANCH  14  15
ENDBRANCH  13  14
ENDBRANCH  12  13
ENDBRANCH   1  12
TORSDOF 16
ENDMDL
MODEL 3
REMARK VINA RESULT:    -3.217      1.199      1.771
REMARK INTER + INTRA:          -8.957
REMARK INTER:                  -6.206
REMARK INTRA:                  -2.751
REMARK UNBOUND:                -2.730
REMARK SMILES CCCCCCCCCCCCCCCCCC(=O)[O-]
REMARK SMILES IDX 10 1 11 2 12 3 13 4 14 5 15 6 16 7 17 8 18 9 19 10 20 11
REMARK SMILES IDX 9 12 8 13 7 14 6 15 5 16 4 17 3 18 2 19 1 20
REMARK H PARENT
REMARK Flexibility Score: inf
ROOT
ATOM      1  C   UNL     1      70.094   7.406 366.296  1.00  0.00     0.000 C 
ENDROOT
BRANCH   1   2
ATOM      2  C   UNL     1      68.973   8.436 366.509  1.00  0.00     0.000 C 
BRANCH   2   3
ATOM      3  C   UNL     1      69.323   9.821 365.945  1.00  0.00     0.000 C 
BRANCH   3   4
ATOM      4  C   UNL     1      70.387  10.512 366.813  1.00  0.00     0.000 C 
BRANCH   4   5
ATOM      5  C   UNL     1      71.671  10.832 366.030  1.00  0.00     0.000 C 
BRANCH   5   6
ATOM      6  C   UNL     1      72.714   9.704 366.118  1.00  0.00     0.000 C 
BRANCH   6   7
ATOM      7  C   UNL     1      74.139  10.185 365.792  1.00  0.00     0.006 C 
BRANCH   7   8
ATOM      8  C   UNL     1      74.512  10.088 364.304  1.00  0.00     0.053 C 
BRANCH   8   9
ATOM      9  C   UNL     1      74.444  11.419 363.621  1.00  0.00     0.041 C 
ATOM     10  O   UNL     1      74.614  11.502 362.376  1.00  0.00    -0.550 OA
ATOM     11  O   UNL     1      74.227  12.571 364.365  1.00  0.00    -0.550 OA
ENDBRANCH   8   9
ENDBRANCH   7   8
ENDBRANCH   6   7
ENDBRANCH   5   6
ENDBRANCH   4   5
ENDBRANCH   3   4
ENDBRANCH   2   3
ENDBRANCH   1   2
BRANCH   1  12
ATOM     12  C   UNL     1      69.812   6.461 365.115  1.00  0.00     0.000 C 
BRANCH  12  13
ATOM     13  C   UNL     1      68.320   6.399 364.751  1.00  0.00    -0.000 C 
BRANCH  13  14
ATOM     14  C   UNL     1      68.052   6.750 363.280  1.00  0.00    -0.000 C 
BRANCH  14  15
ATOM     15  C   UNL     1      67.445   8.155 363.153  1.00  0.00    -0.000 C 
BRANCH  15  16
ATOM     16  C   UNL     1      68.343   9.121 362.363  1.00  0.00    -0.000 C 
BRANCH  16  17
ATOM     17  C   UNL     1      69.710   8.508 362.011  1.00  0.00    -0.000 C 
BRANCH  17  18
ATOM     18  C   UNL     1      70.864   9.171 362.792  1.00  0.00    -0.000 C 
BRANCH  18  19
ATOM     19  C   UNL     1      71.112  10.636 362.397  1.00  0.00    -0.003 C 
ATOM     20  C   UNL     1      71.412  10.813 360.910  1.00  0.00     0.004 C 
ENDBRANCH  18  19
ENDBRANCH  17  18
ENDBRANCH  16  17
ENDBRANCH  15  16
ENDBRANCH  14  15
ENDBRANCH  13  14
ENDBRANCH  12  13
ENDBRANCH   1  12
TORSDOF 16
ENDMDL
MODEL 4
REMARK VINA RESULT:    -3.214      1.582      3.846
REMARK INTER + INTRA:          -8.951
REMARK INTER:                  -6.119
REMARK INTRA:                  -2.831
REMARK UNBOUND:                -2.730
REMARK SMILES CCCCCCCCCCCCCCCCCC(=O)[O-]
REMARK SMILES IDX 10 1 11 2 12 3 13 4 14 5 15 6 16 7 17 8 18 9 19 10 20 11
REMARK SMILES IDX 9 12 8 13 7 14 6 15 5 16 4 17 3 18 2 19 1 20
REMARK H PARENT
REMARK Flexibility Score: inf
ROOT
ATOM      1  C   UNL     1      69.819  11.313 365.791  1.00  0.00     0.000 C 
ENDROOT
BRANCH   1   2
ATOM      2  C   UNL     1      70.811  12.351 366.339  1.00  0.00     0.000 C 
BRANCH   2   3
ATOM      3  C   UNL     1      71.608  11.831 367.545  1.00  0.00     0.000 C 
BRANCH   3   4
ATOM      4  C   UNL     1      73.098  11.689 367.196  1.00  0.00     0.000 C 
BRANCH   4   5
ATOM      5  C   UNL     1      73.539  10.221 367.072  1.00  0.00     0.000 C 
BRANCH   5   6
ATOM      6  C   UNL     1      74.214   9.919 365.723  1.00  0.00     0.000 C 
BRANCH   6   7
ATOM      7  C   UNL     1      73.635  10.756 364.568  1.00  0.00     0.006 C 
BRANCH   7   8
ATOM      8  C   UNL     1      72.532  10.048 363.767  1.00  0.00     0.053 C 
BRANCH   8   9
ATOM      9  C   UNL     1      71.946  10.935 362.713  1.00  0.00     0.041 C 
ATOM     10  O   UNL     1      71.874  12.178 362.898  1.00  0.00    -0.550 OA
ATOM     11  O   UNL     1      71.448  10.383 361.539  1.00  0.00    -0.550 OA
ENDBRANCH   8   9
ENDBRANCH   7   8
ENDBRANCH   6   7
ENDBRANCH   5   6
ENDBRANCH   4   5
ENDBRANCH   3   4
ENDBRANCH   2   3
ENDBRANCH   1   2
BRANCH   1  12
ATOM     12  C   UNL     1      68.922  10.715 366.889  1.00  0.00     0.000 C 
BRANCH  12  13
ATOM     13  C   UNL     1      68.940   9.177 366.892  1.00  0.00    -0.000 C 
BRANCH  13  14
ATOM     14  C   UNL     1      70.203   8.596 366.240  1.00  0.00    -0.000 C 
BRANCH  14  15
ATOM     15  C   UNL     1      70.250   7.069 366.400  1.00  0.00    -0.000 C 
BRANCH  15  16
ATOM     16  C   UNL     1      69.988   6.325 365.081  1.00  0.00    -0.000 C 
BRANCH  16  17
ATOM     17  C   UNL     1      68.498   6.305 364.696  1.00  0.00    -0.000 C 
BRANCH  17  18
ATOM     18  C   UNL     1      68.272   6.699 363.221  1.00  0.00    -0.000 C 
BRANCH  18  19
ATOM     19  C   UNL     1      69.117   7.902 362.770  1.00  0.00    -0.003 C 
ATOM     20  C   UNL     1      68.429   9.243 363.017  1.00  0.00     0.004 C 
ENDBRANCH  18  19
ENDBRANCH  17  18
ENDBRANCH  16  17
ENDBRANCH  15  16
ENDBRANCH  14  15
ENDBRANCH  13  14
ENDBRANCH  12  13
ENDBRANCH   1  12
TORSDOF 16
ENDMDL
MODEL 5
REMARK VINA RESULT:    -3.153      2.919      6.094
REMARK INTER + INTRA:          -8.832
REMARK INTER:                  -6.122
REMARK INTRA:                  -2.710
REMARK UNBOUND:                -2.730
REMARK SMILES CCCCCCCCCCCCCCCCCC(=O)[O-]
REMARK SMILES IDX 10 1 11 2 12 3 13 4 14 5 15 6 16 7 17 8 18 9 19 10 20 11
REMARK SMILES IDX 9 12 8 13 7 14 6 15 5 16 4 17 3 18 2 19 1 20
REMARK H PARENT
REMARK Flexibility Score: inf
ROOT
ATOM      1  C   UNL     1      71.106  11.747 367.379  1.00  0.00     0.000 C 
ENDROOT
BRANCH   1   2
ATOM      2  C   UNL     1      70.373  11.870 366.033  1.00  0.00     0.000 C 
BRANCH   2   3
ATOM      3  C   UNL     1      69.704  10.557 365.599  1.00  0.00     0.000 C 
BRANCH   3   4
ATOM      4  C   UNL     1      69.261   9.738 366.822  1.00  0.00     0.000 C 
BRANCH   4   5
ATOM      5  C   UNL     1      69.556   8.237 366.665  1.00  0.00     0.000 C 
BRANCH   5   6
ATOM      6  C   UNL     1      70.164   7.894 365.294  1.00  0.00     0.000 C 
BRANCH   6   7
ATOM      7  C   UNL     1      69.953   6.420 364.902  1.00  0.00     0.006 C 
BRANCH   7   8
ATOM      8  C   UNL     1      68.481   6.025 364.706  1.00  0.00     0.053 C 
BRANCH   8   9
ATOM      9  C   UNL     1      67.802   6.881 363.682  1.00  0.00     0.041 C 
ATOM     10  O   UNL     1      68.077   6.750 362.461  1.00  0.00    -0.550 OA
ATOM     11  O   UNL     1      66.889   7.849 364.082  1.00  0.00    -0.550 OA
ENDBRANCH   8   9
ENDBRANCH   7   8
ENDBRANCH   6   7
ENDBRANCH   5   6
ENDBRANCH   4   5
ENDBRANCH   3   4
ENDBRANCH   2   3
ENDBRANCH   1   2
BRANCH   1  12
ATOM     12  C   UNL     1      72.582  12.170 367.289  1.00  0.00     0.000 C 
BRANCH  12  13
ATOM     13  C   UNL     1      73.548  11.013 367.592  1.00  0.00    -0.000 C 
BRANCH  13  14
ATOM     14  C   UNL     1      73.453   9.875 366.564  1.00  0.00    -0.000 C 
BRANCH  14  15
ATOM     15  C   UNL     1      74.737   9.785 365.726  1.00  0.00    -0.000 C 
BRANCH  15  16
ATOM     16  C   UNL     1      74.473   9.920 364.218  1.00  0.00    -0.000 C 
BRANCH  16  17
ATOM     17  C   UNL     1      73.056  10.435 363.906  1.00  0.00    -0.000 C 
BRANCH  17  18
ATOM     18  C   UNL     1      73.075  11.646 362.950  1.00  0.00    -0.000 C 
BRANCH  18  19
ATOM     19  C   UNL     1      72.891  12.996 363.663  1.00  0.00    -0.003 C 
ATOM     20  C   UNL     1      74.192  13.550 364.240  1.00  0.00     0.004 C 
ENDBRANCH  18  19
ENDBRANCH  17  18
ENDBRANCH  16  17
ENDBRANCH  15  16
ENDBRANCH  14  15
ENDBRANCH  13  14
ENDBRANCH  12  13
ENDBRANCH   1  12
TORSDOF 16
ENDMDL
MODEL 6
REMARK VINA RESULT:    -3.142      2.191      4.793
REMARK INTER + INTRA:          -8.812
REMARK INTER:                  -5.856
REMARK INTRA:                  -2.956
REMARK UNBOUND:                -2.730
REMARK SMILES CCCCCCCCCCCCCCCCCC(=O)[O-]
REMARK SMILES IDX 10 1 11 2 12 3 13 4 14 5 15 6 16 7 17 8 18 9 19 10 20 11
REMARK SMILES IDX 9 12 8 13 7 14 6 15 5 16 4 17 3 18 2 19 1 20
REMARK H PARENT
REMARK Flexibility Score: inf
ROOT
ATOM      1  C   UNL     1      68.113   6.039 364.420  1.00  0.00     0.000 C 
ENDROOT
BRANCH   1   2
ATOM      2  C   UNL     1      68.003   6.487 362.953  1.00  0.00     0.000 C 
BRANCH   2   3
ATOM      3  C   UNL     1      67.326   7.858 362.800  1.00  0.00     0.000 C 
BRANCH   3   4
ATOM      4  C   UNL     1      68.369   8.959 362.548  1.00  0.00     0.000 C 
BRANCH   4   5
ATOM      5  C   UNL     1      69.760   8.392 362.224  1.00  0.00     0.000 C 
BRANCH   5   6
ATOM      6  C   UNL     1      70.898   9.326 362.676  1.00  0.00     0.000 C 
BRANCH   6   7
ATOM      7  C   UNL     1      70.459  10.799 362.760  1.00  0.00     0.006 C 
BRANCH   7   8
ATOM      8  C   UNL     1      71.207  11.735 361.798  1.00  0.00     0.053 C 
BRANCH   8   9
ATOM      9  C   UNL     1      71.083  11.290 360.373  1.00  0.00     0.041 C 
ATOM     10  O   UNL     1      69.959  11.279 359.808  1.00  0.00    -0.550 OA
ATOM     11  O   UNL     1      72.207  10.857 359.681  1.00  0.00    -0.550 OA
ENDBRANCH   8   9
ENDBRANCH   7   8
ENDBRANCH   6   7
ENDBRANCH   5   6
ENDBRANCH   4   5
ENDBRANCH   3   4
ENDBRANCH   2   3
ENDBRANCH   1   2
BRANCH   1  12
ATOM     12  C   UNL     1      69.560   5.714 364.831  1.00  0.00     0.000 C 
BRANCH  12  13
ATOM     13  C   UNL     1      70.152   6.761 365.788  1.00  0.00    -0.000 C 
BRANCH  13  14
ATOM     14  C   UNL     1      69.183   7.918 366.075  1.00  0.00    -0.000 C 
BRANCH  14  15
ATOM     15  C   UNL     1      69.937   9.253 366.170  1.00  0.00    -0.000 C 
BRANCH  15  16
ATOM     16  C   UNL     1      71.455   9.069 366.326  1.00  0.00    -0.000 C 
BRANCH  16  17
ATOM     17  C   UNL     1      72.245  10.350 366.004  1.00  0.00    -0.000 C 
BRANCH  17  18
ATOM     18  C   UNL     1      73.677  10.043 365.517  1.00  0.00    -0.000 C 
BRANCH  18  19
ATOM     19  C   UNL     1      74.050  10.761 364.210  1.00  0.00    -0.003 C 
ATOM     20  C   UNL     1      73.958  12.282 364.315  1.00  0.00     0.004 C 
ENDBRANCH  18  19
ENDBRANCH  17  18
ENDBRANCH  16  17
ENDBRANCH  15  16
ENDBRANCH  14  15
ENDBRANCH  13  14
ENDBRANCH  12  13
ENDBRANCH   1  12
TORSDOF 16
ENDMDL
MODEL 7
REMARK VINA RESULT:    -3.077      3.057      4.690
REMARK INTER + INTRA:          -8.686
REMARK INTER:                  -6.194
REMARK INTRA:                  -2.492
REMARK UNBOUND:                -2.730
REMARK SMILES CCCCCCCCCCCCCCCCCC(=O)[O-]
REMARK SMILES IDX 10 1 11 2 12 3 13 4 14 5 15 6 16 7 17 8 18 9 19 10 20 11
REMARK SMILES IDX 9 12 8 13 7 14 6 15 5 16 4 17 3 18 2 19 1 20
REMARK H PARENT
REMARK Flexibility Score: inf
ROOT
ATOM      1  C   UNL     1      72.209   9.565 366.323  1.00  0.00     0.000 C 
ENDROOT
BRANCH   1   2
ATOM      2  C   UNL     1      73.432  10.486 366.181  1.00  0.00     0.000 C 
BRANCH   2   3
ATOM      3  C   UNL     1      74.523   9.889 365.279  1.00  0.00     0.000 C 
BRANCH   3   4
ATOM      4  C   UNL     1      74.525  10.567 363.900  1.00  0.00     0.000 C 
BRANCH   4   5
ATOM      5  C   UNL     1      74.084  12.038 363.963  1.00  0.00     0.000 C 
BRANCH   5   6
ATOM      6  C   UNL     1      74.498  12.833 362.713  1.00  0.00     0.000 C 
BRANCH   6   7
ATOM      7  C   UNL     1      74.437  11.991 361.425  1.00  0.00     0.006 C 
BRANCH   7   8
ATOM      8  C   UNL     1      75.759  11.933 360.646  1.00  0.00     0.053 C 
BRANCH   8   9
ATOM      9  C   UNL     1      75.714  12.766 359.402  1.00  0.00     0.041 C 
ATOM     10  O   UNL     1      76.683  12.760 358.599  1.00  0.00    -0.550 OA
ATOM     11  O   UNL     1      74.614  13.576 359.149  1.00  0.00    -0.550 OA
ENDBRANCH   8   9
ENDBRANCH   7   8
ENDBRANCH   6   7
ENDBRANCH   5   6
ENDBRANCH   4   5
ENDBRANCH   3   4
ENDBRANCH   2   3
ENDBRANCH   1   2
BRANCH   1  12
ATOM     12  C   UNL     1      70.899  10.347 366.522  1.00  0.00     0.000 C 
BRANCH  12  13
ATOM     13  C   UNL     1      69.654   9.451 366.420  1.00  0.00    -0.000 C 
BRANCH  13  14
ATOM     14  C   UNL     1      69.985   7.957 366.555  1.00  0.00    -0.000 C 
BRANCH  14  15
ATOM     15  C   UNL     1      69.705   7.212 365.241  1.00  0.00    -0.000 C 
BRANCH  15  16
ATOM     16  C   UNL     1      68.977   8.085 364.207  1.00  0.00    -0.000 C 
BRANCH  16  17
ATOM     17  C   UNL     1      69.749   8.205 362.881  1.00  0.00    -0.000 C 
BRANCH  17  18
ATOM     18  C   UNL     1      71.073   8.980 363.047  1.00  0.00    -0.000 C 
BRANCH  18  19
ATOM     19  C   UNL     1      71.130  10.283 362.232  1.00  0.00    -0.003 C 
ATOM     20  C   UNL     1      70.621  11.497 363.008  1.00  0.00     0.004 C 
ENDBRANCH  18  19
ENDBRANCH  17  18
ENDBRANCH  16  17
ENDBRANCH  15  16
ENDBRANCH  14  15
ENDBRANCH  13  14
ENDBRANCH  12  13
ENDBRANCH   1  12
TORSDOF 16
ENDMDL
MODEL 8
REMARK VINA RESULT:    -3.064      2.650      4.908
REMARK INTER + INTRA:          -8.661
REMARK INTER:                  -5.758
REMARK INTRA:                  -2.903
REMARK UNBOUND:                -2.730
REMARK SMILES CCCCCCCCCCCCCCCCCC(=O)[O-]
REMARK SMILES IDX 10 1 11 2 12 3 13 4 14 5 15 6 16 7 17 8 18 9 19 10 20 11
REMARK SMILES IDX 9 12 8 13 7 14 6 15 5 16 4 17 3 18 2 19 1 20
REMARK H PARENT
REMARK Flexibility Score: inf
ROOT
ATOM      1  C   UNL     1      72.829  10.681 367.064  1.00  0.00     0.000 C 
ENDROOT
BRANCH   1   2
ATOM      2  C   UNL     1      71.739  11.685 366.655  1.00  0.00     0.000 C 
BRANCH   2   3
ATOM      3  C   UNL     1      70.325  11.203 367.011  1.00  0.00     0.000 C 
BRANCH   3   4
ATOM      4  C   UNL     1      69.466  11.042 365.746  1.00  0.00     0.000 C 
BRANCH   4   5
ATOM      5  C   UNL     1      69.017   9.590 365.517  1.00  0.00     0.000 C 
BRANCH   5   6
ATOM      6  C   UNL     1      69.393   8.664 366.687  1.00  0.00     0.000 C 
BRANCH   6   7
ATOM      7  C   UNL     1      70.257   7.469 366.244  1.00  0.00     0.006 C 
BRANCH   7   8
ATOM      8  C   UNL     1      69.998   7.004 364.803  1.00  0.00     0.053 C 
BRANCH   8   9
ATOM      9  C   UNL     1      69.328   5.666 364.757  1.00  0.00     0.041 C 
ATOM     10  O   UNL     1      70.015   4.611 364.767  1.00  0.00    -0.550 OA
ATOM     11  O   UNL     1      67.944   5.585 364.669  1.00  0.00    -0.550 OA
ENDBRANCH   8   9
ENDBRANCH   7   8
ENDBRANCH   6   7
ENDBRANCH   5   6
ENDBRANCH   4   5
ENDBRANCH   3   4
ENDBRANCH   2   3
ENDBRANCH   1   2
BRANCH   1  12
ATOM     12  C   UNL     1      73.270   9.780 365.897  1.00  0.00     0.000 C 
BRANCH  12  13
ATOM     13  C   UNL     1      73.161  10.482 364.534  1.00  0.00    -0.000 C 
BRANCH  13  14
ATOM     14  C   UNL     1      72.200   9.768 363.573  1.00  0.00    -0.000 C 
BRANCH  14  15
ATOM     15  C   UNL     1      71.414  10.781 362.728  1.00  0.00    -0.000 C 
BRANCH  15  16
ATOM     16  C   UNL     1      70.629  10.120 361.584  1.00  0.00    -0.000 C 
BRANCH  16  17
ATOM     17  C   UNL     1      69.105  10.242 361.759  1.00  0.00    -0.000 C 
BRANCH  17  18
ATOM     18  C   UNL     1      68.427   8.867 361.935  1.00  0.00    -0.000 C 
BRANCH  18  19
ATOM     19  C   UNL     1      66.920   8.957 362.228  1.00  0.00    -0.003 C 
ATOM     20  C   UNL     1      66.257   7.589 362.379  1.00  0.00     0.004 C 
ENDBRANCH  18  19
ENDBRANCH  17  18
ENDBRANCH  16  17
ENDBRANCH  15  16
ENDBRANCH  14  15
ENDBRANCH  13  14
ENDBRANCH  12  13
ENDBRANCH   1  12
TORSDOF 16
ENDMDL
MODEL 9
REMARK VINA RESULT:    -3.053      2.826      5.556
REMARK INTER + INTRA:          -8.639
REMARK INTER:                  -6.004
REMARK INTRA:                  -2.635
REMARK UNBOUND:                -2.730
REMARK SMILES CCCCCCCCCCCCCCCCCC(=O)[O-]
REMARK SMILES IDX 10 1 11 2 12 3 13 4 14 5 15 6 16 7 17 8 18 9 19 10 20 11
REMARK SMILES IDX 9 12 8 13 7 14 6 15 5 16 4 17 3 18 2 19 1 20
REMARK H PARENT
REMARK Flexibility Score: inf
ROOT
ATOM      1  C   UNL     1      72.963  11.857 367.009  1.00  0.00     0.000 C 
ENDROOT
BRANCH   1   2
ATOM      2  C   UNL     1      71.632  11.891 367.777  1.00  0.00     0.000 C 
BRANCH   2   3
ATOM      3  C   UNL     1      70.427  12.162 366.864  1.00  0.00     0.000 C 
BRANCH   3   4
ATOM      4  C   UNL     1      70.221  11.007 365.871  1.00  0.00     0.000 C 
BRANCH   4   5
ATOM      5  C   UNL     1      69.987   9.659 366.572  1.00  0.00     0.000 C 
BRANCH   5   6
ATOM      6  C   UNL     1      70.777   8.510 365.922  1.00  0.00     0.000 C 
BRANCH   6   7
ATOM      7  C   UNL     1      70.012   7.174 365.947  1.00  0.00     0.006 C 
BRANCH   7   8
ATOM      8  C   UNL     1      68.633   7.225 365.270  1.00  0.00     0.053 C 
BRANCH   8   9
ATOM      9  C   UNL     1      68.358   5.992 364.466  1.00  0.00     0.041 C 
ATOM     10  O   UNL     1      67.460   5.997 363.584  1.00  0.00    -0.550 OA
ATOM     11  O   UNL     1      69.072   4.827 364.714  1.00  0.00    -0.550 OA
ENDBRANCH   8   9
ENDBRANCH   7   8
ENDBRANCH   6   7
ENDBRANCH   5   6
ENDBRANCH   4   5
ENDBRANCH   3   4
ENDBRANCH   2   3
ENDBRANCH   1   2
BRANCH   1  12
ATOM     12  C   UNL     1      73.791  10.597 367.317  1.00  0.00     0.000 C 
BRANCH  12  13
ATOM     13  C   UNL     1      74.191   9.827 366.048  1.00  0.00    -0.000 C 
BRANCH  13  14
ATOM     14  C   UNL     1      74.265  10.728 364.806  1.00  0.00    -0.000 C 
BRANCH  14  15
ATOM     15  C   UNL     1      73.244  10.286 363.747  1.00  0.00    -0.000 C 
BRANCH  15  16
ATOM     16  C   UNL     1      72.418  11.458 363.193  1.00  0.00    -0.000 C 
BRANCH  16  17
ATOM     17  C   UNL     1      71.728  11.121 361.859  1.00  0.00    -0.000 C 
BRANCH  17  18
ATOM     18  C   UNL     1      70.216  10.867 362.034  1.00  0.00    -0.000 C 
BRANCH  18  19
ATOM     19  C   UNL     1      69.876   9.416 362.416  1.00  0.00    -0.003 C 
ATOM     20  C   UNL     1      68.406   9.067 362.192  1.00  0.00     0.004 C 
ENDBRANCH  18  19
ENDBRANCH  17  18
ENDBRANCH  16  17
ENDBRANCH  15  16
ENDBRANCH  14  15
ENDBRANCH  13  14
ENDBRANCH  12  13
ENDBRANCH   1  12
TORSDOF 16
ENDMDL
