MODEL 1
REMARK VINA RESULT:    11.895      0.000      0.000
REMARK INTER + INTRA:          24.543
REMARK INTER:                  25.804
REMARK INTRA:                  -1.260
REMARK UNBOUND:                -1.260
REMARK SMILES CCCCCCCCCCCCCCCCCCCCCC(=O)[O-]
REMARK SMILES IDX 12 1 11 2 10 3 9 4 8 5 7 6 6 7 5 8 4 9 3 10 2 11 1 12 13 13
REMARK SMILES IDX 14 14 15 15 16 16 17 17 18 18 19 19 20 20 21 21 22 22 23 23
REMARK SMILES IDX 24 24
REMARK H PARENT
REMARK Flexibility Score: inf
ROOT
ATOM      1  C   UNL     1      35.324  13.077  42.331  1.00  0.00     0.000 C 
ENDROOT
BRANCH   1   2
ATOM      2  C   UNL     1      36.552  13.873  42.808  1.00  0.00     0.000 C 
BRANCH   2   3
ATOM      3  C   UNL     1      36.194  14.924  43.873  1.00  0.00     0.000 C 
BRANCH   3   4
ATOM      4  C   UNL     1      34.847  15.615  43.599  1.00  0.00    -0.000 C 
BRANCH   4   5
ATOM      5  C   UNL     1      35.015  17.120  43.303  1.00  0.00    -0.000 C 
BRANCH   5   6
ATOM      6  C   UNL     1      34.013  17.662  42.269  1.00  0.00    -0.000 C 
BRANCH   6   7
ATOM      7  C   UNL     1      34.136  16.973  40.900  1.00  0.00    -0.000 C 
BRANCH   7   8
ATOM      8  C   UNL     1      34.166  17.972  39.733  1.00  0.00    -0.000 C 
BRANCH   8   9
ATOM      9  C   UNL     1      32.947  17.833  38.802  1.00  0.00    -0.000 C 
BRANCH   9  10
ATOM     10  C   UNL     1      32.079  19.109  38.783  1.00  0.00    -0.000 C 
BRANCH  10  11
ATOM     11  C   UNL     1      31.022  19.112  37.666  1.00  0.00    -0.003 C 
ATOM     12  C   UNL     1      30.863  17.750  36.993  1.00  0.00     0.004 C 
ENDBRANCH  10  11
ENDBRANCH   9  10
ENDBRANCH   8   9
ENDBRANCH   7   8
ENDBRANCH   6   7
ENDBRANCH   5   6
ENDBRANCH   4   5
ENDBRANCH   3   4
ENDBRANCH   2   3
ENDBRANCH   1   2
BRANCH   1  13
ATOM     13  C   UNL     1      35.009  13.298  40.842  1.00  0.00     0.000 C 
BRANCH  13  14
ATOM     14  C   UNL     1      33.877  12.387  40.331  1.00  0.00     0.000 C 
BRANCH  14  15
ATOM     15  C   UNL     1      33.801  11.044  41.081  1.00  0.00     0.000 C 
BRANCH  15  16
ATOM     16  C   UNL     1      33.808   9.790  40.187  1.00  0.00     0.000 C 
BRANCH  16  17
ATOM     17  C   UNL     1      32.409   9.417  39.668  1.00  0.00     0.000 C 
BRANCH  17  18
ATOM     18  C   UNL     1      31.429   9.037  40.793  1.00  0.00     0.000 C 
BRANCH  18  19
ATOM     19  C   UNL     1      30.093   8.434  40.325  1.00  0.00     0.000 C 
BRANCH  19  20
ATOM     20  C   UNL     1      29.244   7.878  41.479  1.00  0.00     0.006 C 
BRANCH  20  21
ATOM     21  C   UNL     1      28.774   6.451  41.177  1.00  0.00     0.053 C 
BRANCH  21  22
ATOM     22  C   UNL     1      29.413   5.469  42.109  1.00  0.00     0.041 C 
ATOM     23  O   UNL     1      30.660   5.483  42.287  1.00  0.00    -0.550 OA
ATOM     24  O   UNL     1      28.634   4.531  42.777  1.00  0.00    -0.550 OA
ENDBRANCH  21  22
ENDBRANCH  20  21
ENDBRANCH  19  20
ENDBRANCH  18  19
ENDBRANCH  17  18
ENDBRANCH  16  17
ENDBRANCH  15  16
ENDBRANCH  14  15
ENDBRANCH  13  14
ENDBRANCH   1  13
TORSDOF 20
ENDMDL
MODEL 2
REMARK VINA RESULT:    12.164      4.132      9.914
REMARK INTER + INTRA:          25.125
REMARK INTER:                  26.372
REMARK INTRA:                  -1.246
REMARK UNBOUND:                -1.260
REMARK SMILES CCCCCCCCCCCCCCCCCCCCCC(=O)[O-]
REMARK SMILES IDX 12 1 11 2 10 3 9 4 8 5 7 6 6 7 5 8 4 9 3 10 2 11 1 12 13 13
REMARK SMILES IDX 14 14 15 15 16 16 17 17 18 18 19 19 20 20 21 21 22 22 23 23
REMARK SMILES IDX 24 24
REMARK H PARENT
REMARK Flexibility Score: inf
ROOT
ATOM      1  C   UNL     1      35.348  13.173  42.632  1.00  0.00     0.000 C 
ENDROOT
BRANCH   1   2
ATOM      2  C   UNL     1      35.404  12.611  41.201  1.00  0.00     0.000 C 
BRANCH   2   3
ATOM      3  C   UNL     1      34.145  12.954  40.385  1.00  0.00     0.000 C 
BRANCH   3   4
ATOM      4  C   UNL     1      33.107  11.820  40.388  1.00  0.00    -0.000 C 
BRANCH   4   5
ATOM      5  C   UNL     1      33.767  10.426  40.314  1.00  0.00    -0.000 C 
BRANCH   5   6
ATOM      6  C   UNL     1      32.786   9.296  39.959  1.00  0.00    -0.000 C 
BRANCH   6   7
ATOM      7  C   UNL     1      31.509   9.321  40.817  1.00  0.00    -0.000 C 
BRANCH   7   8
ATOM      8  C   UNL     1      30.486   8.258  40.389  1.00  0.00    -0.000 C 
BRANCH   8   9
ATOM      9  C   UNL     1      29.457   7.948  41.492  1.00  0.00    -0.000 C 
BRANCH   9  10
ATOM     10  C   UNL     1      29.008   6.471  41.472  1.00  0.00    -0.000 C 
BRANCH  10  11
ATOM     11  C   UNL     1      29.937   5.540  42.267  1.00  0.00    -0.003 C 
ATOM     12  C   UNL     1      30.997   4.871  41.395  1.00  0.00     0.004 C 
ENDBRANCH  10  11
ENDBRANCH   9  10
ENDBRANCH   8   9
ENDBRANCH   7   8
ENDBRANCH   6   7
ENDBRANCH   5   6
ENDBRANCH   4   5
ENDBRANCH   3   4
ENDBRANCH   2   3
ENDBRANCH   1   2
BRANCH   1  13
ATOM     13  C   UNL     1      36.668  13.833  43.068  1.00  0.00     0.000 C 
BRANCH  13  14
ATOM     14  C   UNL     1      36.461  15.230  43.682  1.00  0.00     0.000 C 
BRANCH  14  15
ATOM     15  C   UNL     1      34.998  15.704  43.618  1.00  0.00     0.000 C 
BRANCH  15  16
ATOM     16  C   UNL     1      34.794  17.227  43.721  1.00  0.00     0.000 C 
BRANCH  16  17
ATOM     17  C   UNL     1      34.947  17.944  42.369  1.00  0.00     0.000 C 
BRANCH  17  18
ATOM     18  C   UNL     1      33.767  17.688  41.414  1.00  0.00     0.000 C 
BRANCH  18  19
ATOM     19  C   UNL     1      34.155  17.222  39.999  1.00  0.00     0.000 C 
BRANCH  19  20
ATOM     20  C   UNL     1      33.634  18.153  38.893  1.00  0.00     0.006 C 
BRANCH  20  21
ATOM     21  C   UNL     1      32.162  18.512  39.126  1.00  0.00     0.053 C 
BRANCH  21  22
ATOM     22  C   UNL     1      31.426  18.618  37.826  1.00  0.00     0.041 C 
ATOM     23  O   UNL     1      31.180  19.748  37.327  1.00  0.00    -0.550 OA
ATOM     24  O   UNL     1      31.003  17.469  37.168  1.00  0.00    -0.550 OA
ENDBRANCH  21  22
ENDBRANCH  20  21
ENDBRANCH  19  20
ENDBRANCH  18  19
ENDBRANCH  17  18
ENDBRANCH  16  17
ENDBRANCH  15  16
ENDBRANCH  14  15
ENDBRANCH  13  14
ENDBRANCH   1  13
TORSDOF 20
ENDMDL
MODEL 3
REMARK VINA RESULT:    12.325      1.526      2.363
REMARK INTER + INTRA:          25.475
REMARK INTER:                  26.810
REMARK INTRA:                  -1.335
REMARK UNBOUND:                -1.260
REMARK SMILES CCCCCCCCCCCCCCCCCCCCCC(=O)[O-]
REMARK SMILES IDX 12 1 11 2 10 3 9 4 8 5 7 6 6 7 5 8 4 9 3 10 2 11 1 12 13 13
REMARK SMILES IDX 14 14 15 15 16 16 17 17 18 18 19 19 20 20 21 21 22 22 23 23
REMARK SMILES IDX 24 24
REMARK H PARENT
REMARK Flexibility Score: inf
ROOT
ATOM      1  C   UNL     1      33.813  12.453  40.312  1.00  0.00     0.000 C 
ENDROOT
BRANCH   1   2
ATOM      2  C   UNL     1      35.095  13.050  40.918  1.00  0.00     0.000 C 
BRANCH   2   3
ATOM      3  C   UNL     1      35.132  12.930  42.452  1.00  0.00     0.000 C 
BRANCH   3   4
ATOM      4  C   UNL     1      35.969  14.036  43.115  1.00  0.00    -0.000 C 
BRANCH   4   5
ATOM      5  C   UNL     1      35.086  15.135  43.744  1.00  0.00    -0.000 C 
BRANCH   5   6
ATOM      6  C   UNL     1      35.358  16.542  43.183  1.00  0.00    -0.000 C 
BRANCH   6   7
ATOM      7  C   UNL     1      34.108  17.192  42.567  1.00  0.00    -0.000 C 
BRANCH   7   8
ATOM      8  C   UNL     1      34.011  16.974  41.049  1.00  0.00    -0.000 C 
BRANCH   8   9
ATOM      9  C   UNL     1      33.289  18.127  40.329  1.00  0.00    -0.000 C 
BRANCH   9  10
ATOM     10  C   UNL     1      33.200  17.899  38.805  1.00  0.00    -0.000 C 
BRANCH  10  11
ATOM     11  C   UNL     1      32.034  18.650  38.142  1.00  0.00    -0.003 C 
ATOM     12  C   UNL     1      31.143  17.741  37.299  1.00  0.00     0.004 C 
ENDBRANCH  10  11
ENDBRANCH   9  10
ENDBRANCH   8   9
ENDBRANCH   7   8
ENDBRANCH   6   7
ENDBRANCH   5   6
ENDBRANCH   4   5
ENDBRANCH   3   4
ENDBRANCH   2   3
ENDBRANCH   1   2
BRANCH   1  13
ATOM     13  C   UNL     1      32.923  11.760  41.358  1.00  0.00     0.000 C 
BRANCH  13  14
ATOM     14  C   UNL     1      32.521  10.332  40.946  1.00  0.00     0.000 C 
BRANCH  14  15
ATOM     15  C   UNL     1      33.363   9.783  39.779  1.00  0.00     0.000 C 
BRANCH  15  16
ATOM     16  C   UNL     1      34.408   8.719  40.165  1.00  0.00     0.000 C 
BRANCH  16  17
ATOM     17  C   UNL     1      34.012   7.301  39.719  1.00  0.00     0.000 C 
BRANCH  17  18
ATOM     18  C   UNL     1      34.040   6.277  40.869  1.00  0.00     0.000 C 
BRANCH  18  19
ATOM     19  C   UNL     1      32.899   5.243  40.856  1.00  0.00     0.000 C 
BRANCH  19  20
ATOM     20  C   UNL     1      31.821   5.520  41.915  1.00  0.00     0.006 C 
BRANCH  20  21
ATOM     21  C   UNL     1      30.466   4.951  41.479  1.00  0.00     0.053 C 
BRANCH  21  22
ATOM     22  C   UNL     1      29.342   5.794  41.996  1.00  0.00     0.041 C 
ATOM     23  O   UNL     1      28.518   5.318  42.821  1.00  0.00    -0.550 OA
ATOM     24  O   UNL     1      29.197   7.107  41.559  1.00  0.00    -0.550 OA
ENDBRANCH  21  22
ENDBRANCH  20  21
ENDBRANCH  19  20
ENDBRANCH  18  19
ENDBRANCH  17  18
ENDBRANCH  16  17
ENDBRANCH  15  16
ENDBRANCH  14  15
ENDBRANCH  13  14
ENDBRANCH   1  13
TORSDOF 20
ENDMDL
MODEL 4
REMARK VINA RESULT:    12.485      4.296     10.176
REMARK INTER + INTRA:          25.823
REMARK INTER:                  27.039
REMARK INTRA:                  -1.216
REMARK UNBOUND:                -1.260
REMARK SMILES CCCCCCCCCCCCCCCCCCCCCC(=O)[O-]
REMARK SMILES IDX 12 1 11 2 10 3 9 4 8 5 7 6 6 7 5 8 4 9 3 10 2 11 1 12 13 13
REMARK SMILES IDX 14 14 15 15 16 16 17 17 18 18 19 19 20 20 21 21 22 22 23 23
REMARK SMILES IDX 24 24
REMARK H PARENT
REMARK Flexibility Score: inf
ROOT
ATOM      1  C   UNL     1      35.141  12.874  40.867  1.00  0.00     0.000 C 
ENDROOT
BRANCH   1   2
ATOM      2  C   UNL     1      33.853  13.076  40.050  1.00  0.00     0.000 C 
BRANCH   2   3
ATOM      3  C   UNL     1      32.872  11.901  40.198  1.00  0.00     0.000 C 
BRANCH   3   4
ATOM      4  C   UNL     1      33.546  10.628  40.737  1.00  0.00    -0.000 C 
BRANCH   4   5
ATOM      5  C   UNL     1      33.056   9.358  40.009  1.00  0.00    -0.000 C 
BRANCH   5   6
ATOM      6  C   UNL     1      34.178   8.350  39.704  1.00  0.00    -0.000 C 
BRANCH   6   7
ATOM      7  C   UNL     1      34.278   7.231  40.754  1.00  0.00    -0.000 C 
BRANCH   7   8
ATOM      8  C   UNL     1      33.412   6.010  40.406  1.00  0.00    -0.000 C 
BRANCH   8   9
ATOM      9  C   UNL     1      32.547   5.540  41.590  1.00  0.00    -0.000 C 
BRANCH   9  10
ATOM     10  C   UNL     1      31.225   4.892  41.125  1.00  0.00    -0.000 C 
BRANCH  10  11
ATOM     11  C   UNL     1      30.044   5.171  42.069  1.00  0.00    -0.003 C 
ATOM     12  C   UNL     1      29.224   6.391  41.654  1.00  0.00     0.004 C 
ENDBRANCH  10  11
ENDBRANCH   9  10
ENDBRANCH   8   9
ENDBRANCH   7   8
ENDBRANCH   6   7
ENDBRANCH   5   6
ENDBRANCH   4   5
ENDBRANCH   3   4
ENDBRANCH   2   3
ENDBRANCH   1   2
BRANCH   1  13
ATOM     13  C   UNL     1      34.978  13.264  42.346  1.00  0.00     0.000 C 
BRANCH  13  14
ATOM     14  C   UNL     1      36.302  13.714  42.993  1.00  0.00     0.000 C 
BRANCH  14  15
ATOM     15  C   UNL     1      36.232  15.137  43.576  1.00  0.00     0.000 C 
BRANCH  15  16
ATOM     16  C   UNL     1      34.817  15.736  43.684  1.00  0.00     0.000 C 
BRANCH  16  17
ATOM     17  C   UNL     1      34.637  17.005  42.832  1.00  0.00     0.000 C 
BRANCH  17  18
ATOM     18  C   UNL     1      34.062  16.716  41.434  1.00  0.00     0.000 C 
BRANCH  18  19
ATOM     19  C   UNL     1      34.180  17.871  40.423  1.00  0.00     0.000 C 
BRANCH  19  20
ATOM     20  C   UNL     1      33.336  17.655  39.157  1.00  0.00     0.006 C 
BRANCH  20  21
ATOM     21  C   UNL     1      32.255  18.734  39.028  1.00  0.00     0.053 C 
BRANCH  21  22
ATOM     22  C   UNL     1      31.515  18.595  37.734  1.00  0.00     0.041 C 
ATOM     23  O   UNL     1      31.672  17.570  37.019  1.00  0.00    -0.550 OA
ATOM     24  O   UNL     1      30.656  19.604  37.310  1.00  0.00    -0.550 OA
ENDBRANCH  21  22
ENDBRANCH  20  21
ENDBRANCH  19  20
ENDBRANCH  18  19
ENDBRANCH  17  18
ENDBRANCH  16  17
ENDBRANCH  15  16
ENDBRANCH  14  15
ENDBRANCH  13  14
ENDBRANCH   1  13
TORSDOF 20
ENDMDL
MODEL 5
REMARK VINA RESULT:    12.549      2.999      4.660
REMARK INTER + INTRA:          25.961
REMARK INTER:                  26.946
REMARK INTRA:                  -0.986
REMARK UNBOUND:                -1.260
REMARK SMILES CCCCCCCCCCCCCCCCCCCCCC(=O)[O-]
REMARK SMILES IDX 12 1 11 2 10 3 9 4 8 5 7 6 6 7 5 8 4 9 3 10 2 11 1 12 13 13
REMARK SMILES IDX 14 14 15 15 16 16 17 17 18 18 19 19 20 20 21 21 22 22 23 23
REMARK SMILES IDX 24 24
REMARK H PARENT
REMARK Flexibility Score: inf
ROOT
ATOM      1  C   UNL     1      32.221   9.614  40.741  1.00  0.00     0.000 C 
ENDROOT
BRANCH   1   2
ATOM      2  C   UNL     1      32.223  10.977  41.455  1.00  0.00     0.000 C 
BRANCH   2   3
ATOM      3  C   UNL     1      33.641  11.443  41.829  1.00  0.00     0.000 C 
BRANCH   3   4
ATOM      4  C   UNL     1      34.335  12.210  40.691  1.00  0.00    -0.000 C 
BRANCH   4   5
ATOM      5  C   UNL     1      35.539  13.034  41.195  1.00  0.00    -0.000 C 
BRANCH   5   6
ATOM      6  C   UNL     1      35.663  13.071  42.729  1.00  0.00    -0.000 C 
BRANCH   6   7
ATOM      7  C   UNL     1      36.836  13.940  43.212  1.00  0.00    -0.000 C 
BRANCH   7   8
ATOM      8  C   UNL     1      36.378  15.284  43.799  1.00  0.00    -0.000 C 
BRANCH   8   9
ATOM      9  C   UNL     1      34.876  15.544  43.585  1.00  0.00    -0.000 C 
BRANCH   9  10
ATOM     10  C   UNL     1      34.527  17.045  43.661  1.00  0.00    -0.000 C 
BRANCH  10  11
ATOM     11  C   UNL     1      35.753  17.947  43.872  1.00  0.00    -0.003 C 
ATOM     12  C   UNL     1      35.644  19.282  43.138  1.00  0.00     0.004 C 
ENDBRANCH  10  11
ENDBRANCH   9  10
ENDBRANCH   8   9
ENDBRANCH   7   8
ENDBRANCH   6   7
ENDBRANCH   5   6
ENDBRANCH   4   5
ENDBRANCH   3   4
ENDBRANCH   2   3
ENDBRANCH   1   2
BRANCH   1  13
ATOM     13  C   UNL     1      33.086   9.604  39.469  1.00  0.00     0.000 C 
BRANCH  13  14
ATOM     14  C   UNL     1      34.401   8.823  39.650  1.00  0.00     0.000 C 
BRANCH  14  15
ATOM     15  C   UNL     1      34.580   8.268  41.075  1.00  0.00     0.000 C 
BRANCH  15  16
ATOM     16  C   UNL     1      35.510   7.046  41.193  1.00  0.00     0.000 C 
BRANCH  16  17
ATOM     17  C   UNL     1      34.745   5.733  41.433  1.00  0.00     0.000 C 
BRANCH  17  18
ATOM     18  C   UNL     1      33.321   5.749  40.849  1.00  0.00     0.000 C 
BRANCH  18  19
ATOM     19  C   UNL     1      32.513   4.453  41.048  1.00  0.00     0.000 C 
BRANCH  19  20
ATOM     20  C   UNL     1      30.994   4.681  41.035  1.00  0.00     0.006 C 
BRANCH  20  21
ATOM     21  C   UNL     1      30.563   5.576  42.203  1.00  0.00     0.053 C 
BRANCH  21  22
ATOM     22  C   UNL     1      29.197   6.140  41.968  1.00  0.00     0.041 C 
ATOM     23  O   UNL     1      29.061   7.314  41.532  1.00  0.00    -0.550 OA
ATOM     24  O   UNL     1      28.069   5.372  42.238  1.00  0.00    -0.550 OA
ENDBRANCH  21  22
ENDBRANCH  20  21
ENDBRANCH  19  20
ENDBRANCH  18  19
ENDBRANCH  17  18
ENDBRANCH  16  17
ENDBRANCH  15  16
ENDBRANCH  14  15
ENDBRANCH  13  14
ENDBRANCH   1  13
TORSDOF 20
ENDMDL
MODEL 6
REMARK VINA RESULT:    12.900      2.654      3.778
REMARK INTER + INTRA:          26.722
REMARK INTER:                  28.457
REMARK INTRA:                  -1.735
REMARK UNBOUND:                -1.260
REMARK SMILES CCCCCCCCCCCCCCCCCCCCCC(=O)[O-]
REMARK SMILES IDX 12 1 11 2 10 3 9 4 8 5 7 6 6 7 5 8 4 9 3 10 2 11 1 12 13 13
REMARK SMILES IDX 14 14 15 15 16 16 17 17 18 18 19 19 20 20 21 21 22 22 23 23
REMARK SMILES IDX 24 24
REMARK H PARENT
REMARK Flexibility Score: inf
ROOT
ATOM      1  C   UNL     1      35.048  15.151  43.908  1.00  0.00     0.000 C 
ENDROOT
BRANCH   1   2
ATOM      2  C   UNL     1      34.724  16.575  43.425  1.00  0.00     0.000 C 
BRANCH   2   3
ATOM      3  C   UNL     1      35.626  17.637  44.077  1.00  0.00     0.000 C 
BRANCH   3   4
ATOM      4  C   UNL     1      35.499  19.016  43.409  1.00  0.00    -0.000 C 
BRANCH   4   5
ATOM      5  C   UNL     1      35.950  18.992  41.933  1.00  0.00    -0.000 C 
BRANCH   5   6
ATOM      6  C   UNL     1      34.817  19.290  40.936  1.00  0.00    -0.000 C 
BRANCH   6   7
ATOM      7  C   UNL     1      35.076  18.696  39.542  1.00  0.00    -0.000 C 
BRANCH   7   8
ATOM      8  C   UNL     1      34.035  17.639  39.144  1.00  0.00    -0.000 C 
BRANCH   8   9
ATOM      9  C   UNL     1      32.603  18.204  39.094  1.00  0.00    -0.000 C 
BRANCH   9  10
ATOM     10  C   UNL     1      31.881  17.845  37.778  1.00  0.00    -0.000 C 
BRANCH  10  11
ATOM     11  C   UNL     1      31.072  19.012  37.188  1.00  0.00    -0.003 C 
ATOM     12  C   UNL     1      30.994  20.216  38.125  1.00  0.00     0.004 C 
ENDBRANCH  10  11
ENDBRANCH   9  10
ENDBRANCH   8   9
ENDBRANCH   7   8
ENDBRANCH   6   7
ENDBRANCH   5   6
ENDBRANCH   4   5
ENDBRANCH   3   4
ENDBRANCH   2   3
ENDBRANCH   1   2
BRANCH   1  13
ATOM     13  C   UNL     1      36.547  14.816  43.821  1.00  0.00     0.000 C 
BRANCH  13  14
ATOM     14  C   UNL     1      36.854  13.716  42.788  1.00  0.00     0.000 C 
BRANCH  14  15
ATOM     15  C   UNL     1      35.594  12.966  42.317  1.00  0.00     0.000 C 
BRANCH  15  16
ATOM     16  C   UNL     1      35.513  12.702  40.802  1.00  0.00     0.000 C 
BRANCH  16  17
ATOM     17  C   UNL     1      34.341  13.435  40.128  1.00  0.00     0.000 C 
BRANCH  17  18
ATOM     18  C   UNL     1      33.117  12.529  39.895  1.00  0.00     0.000 C 
BRANCH  18  19
ATOM     19  C   UNL     1      32.437  12.003  41.172  1.00  0.00     0.000 C 
BRANCH  19  20
ATOM     20  C   UNL     1      32.731  10.520  41.445  1.00  0.00     0.006 C 
BRANCH  20  21
ATOM     21  C   UNL     1      32.717   9.709  40.144  1.00  0.00     0.053 C 
BRANCH  21  22
ATOM     22  C   UNL     1      33.993   8.942  39.980  1.00  0.00     0.041 C 
ATOM     23  O   UNL     1      35.065   9.544  39.705  1.00  0.00    -0.550 OA
ATOM     24  O   UNL     1      33.998   7.559  40.122  1.00  0.00    -0.550 OA
ENDBRANCH  21  22
ENDBRANCH  20  21
ENDBRANCH  19  20
ENDBRANCH  18  19
ENDBRANCH  17  18
ENDBRANCH  16  17
ENDBRANCH  15  16
ENDBRANCH  14  15
ENDBRANCH  13  14
ENDBRANCH   1  13
TORSDOF 20
ENDMDL
MODEL 7
REMARK VINA RESULT:    12.941      1.468      2.036
REMARK INTER + INTRA:          26.811
REMARK INTER:                  28.161
REMARK INTRA:                  -1.350
REMARK UNBOUND:                -1.260
REMARK SMILES CCCCCCCCCCCCCCCCCCCCCC(=O)[O-]
REMARK SMILES IDX 12 1 11 2 10 3 9 4 8 5 7 6 6 7 5 8 4 9 3 10 2 11 1 12 13 13
REMARK SMILES IDX 14 14 15 15 16 16 17 17 18 18 19 19 20 20 21 21 22 22 23 23
REMARK SMILES IDX 24 24
REMARK H PARENT
REMARK Flexibility Score: inf
ROOT
ATOM      1  C   UNL     1      34.829  13.326  40.705  1.00  0.00     0.000 C 
ENDROOT
BRANCH   1   2
ATOM      2  C   UNL     1      34.979  13.193  42.230  1.00  0.00     0.000 C 
BRANCH   2   3
ATOM      3  C   UNL     1      36.379  13.604  42.721  1.00  0.00     0.000 C 
BRANCH   3   4
ATOM      4  C   UNL     1      36.338  14.766  43.727  1.00  0.00    -0.000 C 
BRANCH   4   5
ATOM      5  C   UNL     1      34.964  15.469  43.750  1.00  0.00    -0.000 C 
BRANCH   5   6
ATOM      6  C   UNL     1      34.900  16.728  42.868  1.00  0.00    -0.000 C 
BRANCH   6   7
ATOM      7  C   UNL     1      33.749  16.687  41.850  1.00  0.00    -0.000 C 
BRANCH   7   8
ATOM      8  C   UNL     1      33.795  17.855  40.853  1.00  0.00    -0.000 C 
BRANCH   8   9
ATOM      9  C   UNL     1      34.180  17.407  39.431  1.00  0.00    -0.000 C 
BRANCH   9  10
ATOM     10  C   UNL     1      33.358  18.135  38.347  1.00  0.00    -0.000 C 
BRANCH  10  11
ATOM     11  C   UNL     1      31.931  18.489  38.798  1.00  0.00    -0.003 C 
ATOM     12  C   UNL     1      31.153  19.279  37.748  1.00  0.00     0.004 C 
ENDBRANCH  10  11
ENDBRANCH   9  10
ENDBRANCH   8   9
ENDBRANCH   7   8
ENDBRANCH   6   7
ENDBRANCH   5   6
ENDBRANCH   4   5
ENDBRANCH   3   4
ENDBRANCH   2   3
ENDBRANCH   1   2
BRANCH   1  13
ATOM     13  C   UNL     1      33.748  12.396  40.127  1.00  0.00     0.000 C 
BRANCH  13  14
ATOM     14  C   UNL     1      33.368  11.254  41.088  1.00  0.00     0.000 C 
BRANCH  14  15
ATOM     15  C   UNL     1      32.948   9.967  40.356  1.00  0.00     0.000 C 
BRANCH  15  16
ATOM     16  C   UNL     1      34.103   9.027  39.962  1.00  0.00     0.000 C 
BRANCH  16  17
ATOM     17  C   UNL     1      33.633   7.592  39.664  1.00  0.00     0.000 C 
BRANCH  17  18
ATOM     18  C   UNL     1      34.158   6.562  40.682  1.00  0.00     0.000 C 
BRANCH  18  19
ATOM     19  C   UNL     1      33.224   5.368  40.949  1.00  0.00     0.000 C 
BRANCH  19  20
ATOM     20  C   UNL     1      32.032   5.725  41.852  1.00  0.00     0.006 C 
BRANCH  20  21
ATOM     21  C   UNL     1      30.745   5.063  41.348  1.00  0.00     0.053 C 
BRANCH  21  22
ATOM     22  C   UNL     1      29.539   5.712  41.953  1.00  0.00     0.041 C 
ATOM     23  O   UNL     1      29.239   6.899  41.656  1.00  0.00    -0.550 OA
ATOM     24  O   UNL     1      28.748   5.009  42.856  1.00  0.00    -0.550 OA
ENDBRANCH  21  22
ENDBRANCH  20  21
ENDBRANCH  19  20
ENDBRANCH  18  19
ENDBRANCH  17  18
ENDBRANCH  16  17
ENDBRANCH  15  16
ENDBRANCH  14  15
ENDBRANCH  13  14
ENDBRANCH   1  13
TORSDOF 20
ENDMDL
MODEL 8
REMARK VINA RESULT:    13.005      4.638      9.244
REMARK INTER + INTRA:          26.950
REMARK INTER:                  28.664
REMARK INTRA:                  -1.714
REMARK UNBOUND:                -1.260
REMARK SMILES CCCCCCCCCCCCCCCCCCCCCC(=O)[O-]
REMARK SMILES IDX 12 1 11 2 10 3 9 4 8 5 7 6 6 7 5 8 4 9 3 10 2 11 1 12 13 13
REMARK SMILES IDX 14 14 15 15 16 16 17 17 18 18 19 19 20 20 21 21 22 22 23 23
REMARK SMILES IDX 24 24
REMARK H PARENT
REMARK Flexibility Score: inf
ROOT
ATOM      1  C   UNL     1      36.629  15.125  43.764  1.00  0.00     0.000 C 
ENDROOT
BRANCH   1   2
ATOM      2  C   UNL     1      36.861  13.813  42.994  1.00  0.00     0.000 C 
BRANCH   2   3
ATOM      3  C   UNL     1      35.547  13.177  42.507  1.00  0.00     0.000 C 
BRANCH   3   4
ATOM      4  C   UNL     1      35.324  13.357  40.996  1.00  0.00    -0.000 C 
BRANCH   4   5
ATOM      5  C   UNL     1      34.090  12.577  40.493  1.00  0.00    -0.000 C 
BRANCH   5   6
ATOM      6  C   UNL     1      33.421  11.715  41.578  1.00  0.00    -0.000 C 
BRANCH   6   7
ATOM      7  C   UNL     1      32.423  10.698  41.001  1.00  0.00    -0.000 C 
BRANCH   7   8
ATOM      8  C   UNL     1      32.902  10.078  39.680  1.00  0.00    -0.000 C 
BRANCH   8   9
ATOM      9  C   UNL     1      33.678   8.764  39.888  1.00  0.00    -0.000 C 
BRANCH   9  10
ATOM     10  C   UNL     1      35.158   9.011  40.245  1.00  0.00    -0.000 C 
BRANCH  10  11
ATOM     11  C   UNL     1      35.956   9.680  39.114  1.00  0.00    -0.003 C 
ATOM     12  C   UNL     1      37.125  10.519  39.626  1.00  0.00     0.004 C 
ENDBRANCH  10  11
ENDBRANCH   9  10
ENDBRANCH   8   9
ENDBRANCH   7   8
ENDBRANCH   6   7
ENDBRANCH   5   6
ENDBRANCH   4   5
ENDBRANCH   3   4
ENDBRANCH   2   3
ENDBRANCH   1   2
BRANCH   1  13
ATOM     13  C   UNL     1      35.149  15.539  43.807  1.00  0.00     0.000 C 
BRANCH  13  14
ATOM     14  C   UNL     1      34.939  16.935  44.424  1.00  0.00     0.000 C 
BRANCH  14  15
ATOM     15  C   UNL     1      35.943  17.979  43.904  1.00  0.00     0.000 C 
BRANCH  15  16
ATOM     16  C   UNL     1      35.326  19.154  43.122  1.00  0.00     0.000 C 
BRANCH  16  17
ATOM     17  C   UNL     1      35.226  18.880  41.611  1.00  0.00     0.000 C 
BRANCH  17  18
ATOM     18  C   UNL     1      34.245  17.745  41.267  1.00  0.00     0.000 C 
BRANCH  18  19
ATOM     19  C   UNL     1      33.897  17.606  39.774  1.00  0.00     0.000 C 
BRANCH  19  20
ATOM     20  C   UNL     1      32.572  18.288  39.397  1.00  0.00     0.006 C 
BRANCH  20  21
ATOM     21  C   UNL     1      32.323  18.206  37.887  1.00  0.00     0.053 C 
BRANCH  21  22
ATOM     22  C   UNL     1      31.049  18.899  37.518  1.00  0.00     0.041 C 
ATOM     23  O   UNL     1      30.968  20.155  37.581  1.00  0.00    -0.550 OA
ATOM     24  O   UNL     1      29.944  18.159  37.111  1.00  0.00    -0.550 OA
ENDBRANCH  21  22
ENDBRANCH  20  21
ENDBRANCH  19  20
ENDBRANCH  18  19
ENDBRANCH  17  18
ENDBRANCH  16  17
ENDBRANCH  15  16
ENDBRANCH  14  15
ENDBRANCH  13  14
ENDBRANCH   1  13
TORSDOF 20
ENDMDL
MODEL 9
REMARK VINA RESULT:    13.134      2.251      2.871
REMARK INTER + INTRA:          27.230
REMARK INTER:                  28.473
REMARK INTRA:                  -1.243
REMARK UNBOUND:                -1.260
REMARK SMILES CCCCCCCCCCCCCCCCCCCCCC(=O)[O-]
REMARK SMILES IDX 12 1 11 2 10 3 9 4 8 5 7 6 6 7 5 8 4 9 3 10 2 11 1 12 13 13
REMARK SMILES IDX 14 14 15 15 16 16 17 17 18 18 19 19 20 20 21 21 22 22 23 23
REMARK SMILES IDX 24 24
REMARK H PARENT
REMARK Flexibility Score: inf
ROOT
ATOM      1  C   UNL     1      35.253  13.635  42.870  1.00  0.00     0.000 C 
ENDROOT
BRANCH   1   2
ATOM      2  C   UNL     1      36.609  14.107  43.424  1.00  0.00     0.000 C 
BRANCH   2   3
ATOM      3  C   UNL     1      36.638  15.622  43.695  1.00  0.00     0.000 C 
BRANCH   3   4
ATOM      4  C   UNL     1      35.233  16.226  43.852  1.00  0.00    -0.000 C 
BRANCH   4   5
ATOM      5  C   UNL     1      35.111  17.602  43.164  1.00  0.00    -0.000 C 
BRANCH   5   6
ATOM      6  C   UNL     1      33.987  17.670  42.115  1.00  0.00    -0.000 C 
BRANCH   6   7
ATOM      7  C   UNL     1      34.507  17.976  40.701  1.00  0.00    -0.000 C 
BRANCH   7   8
ATOM      8  C   UNL     1      33.655  17.325  39.601  1.00  0.00    -0.000 C 
BRANCH   8   9
ATOM      9  C   UNL     1      32.604  18.288  39.016  1.00  0.00    -0.000 C 
BRANCH   9  10
ATOM     10  C   UNL     1      32.011  17.768  37.690  1.00  0.00    -0.000 C 
BRANCH  10  11
ATOM     11  C   UNL     1      30.908  18.674  37.119  1.00  0.00    -0.003 C 
ATOM     12  C   UNL     1      30.710  19.954  37.927  1.00  0.00     0.004 C 
ENDBRANCH  10  11
ENDBRANCH   9  10
ENDBRANCH   8   9
ENDBRANCH   7   8
ENDBRANCH   6   7
ENDBRANCH   5   6
ENDBRANCH   4   5
ENDBRANCH   3   4
ENDBRANCH   2   3
ENDBRANCH   1   2
BRANCH   1  13
ATOM     13  C   UNL     1      35.394  12.557  41.783  1.00  0.00     0.000 C 
BRANCH  13  14
ATOM     14  C   UNL     1      34.806  12.995  40.429  1.00  0.00     0.000 C 
BRANCH  14  15
ATOM     15  C   UNL     1      33.380  12.463  40.193  1.00  0.00     0.000 C 
BRANCH  15  16
ATOM     16  C   UNL     1      32.774  11.662  41.361  1.00  0.00     0.000 C 
BRANCH  16  17
ATOM     17  C   UNL     1      32.236  10.288  40.928  1.00  0.00     0.000 C 
BRANCH  17  18
ATOM     18  C   UNL     1      32.796   9.820  39.573  1.00  0.00     0.000 C 
BRANCH  18  19
ATOM     19  C   UNL     1      34.278   9.405  39.582  1.00  0.00     0.000 C 
BRANCH  19  20
ATOM     20  C   UNL     1      34.584   8.277  40.580  1.00  0.00     0.006 C 
BRANCH  20  21
ATOM     21  C   UNL     1      34.248   6.907  39.980  1.00  0.00     0.053 C 
BRANCH  21  22
ATOM     22  C   UNL     1      34.377   5.828  41.008  1.00  0.00     0.041 C 
ATOM     23  O   UNL     1      33.356   5.209  41.411  1.00  0.00    -0.550 OA
ATOM     24  O   UNL     1      35.625   5.508  41.532  1.00  0.00    -0.550 OA
ENDBRANCH  21  22
ENDBRANCH  20  21
ENDBRANCH  19  20
ENDBRANCH  18  19
ENDBRANCH  17  18
ENDBRANCH  16  17
ENDBRANCH  15  16
ENDBRANCH  14  15
ENDBRANCH  13  14
ENDBRANCH   1  13
TORSDOF 20
ENDMDL
