MODEL 1
REMARK VINA RESULT:    -3.303      0.000      0.000
REMARK INTER + INTRA:          -7.344
REMARK INTER:                  -5.620
REMARK INTRA:                  -1.724
REMARK UNBOUND:                -1.724
REMARK SMILES CCCCCCCCCCCCCC(=O)[O-]
REMARK SMILES IDX 8 1 9 2 10 3 11 4 12 5 13 6 14 7 15 8 16 9 7 10 6 11 5 12
REMARK SMILES IDX 4 13 3 14 2 15 1 16
REMARK H PARENT
REMARK Flexibility Score: inf
ROOT
ATOM      1  C   UNL     1      62.651  31.911  58.423  1.00  0.00     0.000 C 
ENDROOT
BRANCH   1   2
ATOM      2  C   UNL     1      61.224  32.481  58.408  1.00  0.00     0.000 C 
BRANCH   2   3
ATOM      3  C   UNL     1      60.314  31.853  59.479  1.00  0.00     0.000 C 
BRANCH   3   4
ATOM      4  C   UNL     1      60.754  32.085  60.936  1.00  0.00     0.000 C 
BRANCH   4   5
ATOM      5  C   UNL     1      60.858  30.781  61.747  1.00  0.00     0.006 C 
BRANCH   5   6
ATOM      6  C   UNL     1      62.278  30.198  61.728  1.00  0.00     0.053 C 
BRANCH   6   7
ATOM      7  C   UNL     1      62.301  28.814  61.155  1.00  0.00     0.041 C 
ATOM      8  O   UNL     1      62.637  28.630  59.955  1.00  0.00    -0.550 OA
ATOM      9  O   UNL     1      61.978  27.725  61.953  1.00  0.00    -0.550 OA
ENDBRANCH   6   7
ENDBRANCH   5   6
ENDBRANCH   4   5
ENDBRANCH   3   4
ENDBRANCH   2   3
ENDBRANCH   1   2
BRANCH   1  10
ATOM     10  C   UNL     1      63.720  32.989  58.672  1.00  0.00     0.000 C 
BRANCH  10  11
ATOM     11  C   UNL     1      64.538  32.765  59.963  1.00  0.00    -0.000 C 
BRANCH  11  12
ATOM     12  C   UNL     1      63.974  33.562  61.152  1.00  0.00    -0.000 C 
BRANCH  12  13
ATOM     13  C   UNL     1      64.447  35.031  61.149  1.00  0.00    -0.000 C 
BRANCH  13  14
ATOM     14  C   UNL     1      63.296  36.051  61.188  1.00  0.00    -0.000 C 
BRANCH  14  15
ATOM     15  C   UNL     1      61.960  35.459  60.722  1.00  0.00    -0.003 C 
ATOM     16  C   UNL     1      60.860  36.517  60.725  1.00  0.00     0.004 C 
ENDBRANCH  14  15
ENDBRANCH  13  14
ENDBRANCH  12  13
ENDBRANCH  11  12
ENDBRANCH  10  11
ENDBRANCH   1  10
TORSDOF 12
ENDMDL
MODEL 2
REMARK VINA RESULT:    -3.179     11.200     13.607
REMARK INTER + INTRA:          -7.133
REMARK INTER:                  -5.762
REMARK INTRA:                  -1.371
REMARK UNBOUND:                -1.724
REMARK SMILES CCCCCCCCCCCCCC(=O)[O-]
REMARK SMILES IDX 8 1 9 2 10 3 11 4 12 5 13 6 14 7 15 8 16 9 7 10 6 11 5 12
REMARK SMILES IDX 4 13 3 14 2 15 1 16
REMARK H PARENT
REMARK Flexibility Score: inf
ROOT
ATOM      1  C   UNL     1      56.417  28.701  51.552  1.00  0.00     0.000 C 
ENDROOT
BRANCH   1   2
ATOM      2  C   UNL     1      57.759  29.374  51.222  1.00  0.00     0.000 C 
BRANCH   2   3
ATOM      3  C   UNL     1      58.039  29.450  49.710  1.00  0.00     0.000 C 
BRANCH   3   4
ATOM      4  C   UNL     1      59.306  28.713  49.238  1.00  0.00     0.000 C 
BRANCH   4   5
ATOM      5  C   UNL     1      59.837  27.705  50.272  1.00  0.00     0.006 C 
BRANCH   5   6
ATOM      6  C   UNL     1      59.959  26.289  49.692  1.00  0.00     0.053 C 
BRANCH   6   7
ATOM      7  C   UNL     1      59.108  25.309  50.439  1.00  0.00     0.041 C 
ATOM      8  O   UNL     1      59.623  24.271  50.935  1.00  0.00    -0.550 OA
ATOM      9  O   UNL     1      57.752  25.552  50.611  1.00  0.00    -0.550 OA
ENDBRANCH   6   7
ENDBRANCH   5   6
ENDBRANCH   4   5
ENDBRANCH   3   4
ENDBRANCH   2   3
ENDBRANCH   1   2
BRANCH   1  10
ATOM     10  C   UNL     1      55.643  28.272  50.294  1.00  0.00     0.000 C 
BRANCH  10  11
ATOM     11  C   UNL     1      54.162  28.710  50.297  1.00  0.00    -0.000 C 
BRANCH  11  12
ATOM     12  C   UNL     1      53.243  27.653  49.658  1.00  0.00    -0.000 C 
BRANCH  12  13
ATOM     13  C   UNL     1      53.985  26.331  49.371  1.00  0.00    -0.000 C 
BRANCH  13  14
ATOM     14  C   UNL     1      53.330  25.101  50.023  1.00  0.00    -0.000 C 
BRANCH  14  15
ATOM     15  C   UNL     1      53.049  25.298  51.518  1.00  0.00    -0.003 C 
ATOM     16  C   UNL     1      54.348  25.345  52.319  1.00  0.00     0.004 C 
ENDBRANCH  14  15
ENDBRANCH  13  14
ENDBRANCH  12  13
ENDBRANCH  11  12
ENDBRANCH  10  11
ENDBRANCH   1  10
TORSDOF 12
ENDMDL
MODEL 3
REMARK VINA RESULT:    -3.112      1.951      3.328
REMARK INTER + INTRA:          -7.019
REMARK INTER:                  -5.706
REMARK INTRA:                  -1.313
REMARK UNBOUND:                -1.724
REMARK SMILES CCCCCCCCCCCCCC(=O)[O-]
REMARK SMILES IDX 8 1 9 2 10 3 11 4 12 5 13 6 14 7 15 8 16 9 7 10 6 11 5 12
REMARK SMILES IDX 4 13 3 14 2 15 1 16
REMARK H PARENT
REMARK Flexibility Score: inf
ROOT
ATOM      1  C   UNL     1      60.503  31.515  60.186  1.00  0.00     0.000 C 
ENDROOT
BRANCH   1   2
ATOM      2  C   UNL     1      60.575  31.114  61.668  1.00  0.00     0.000 C 
BRANCH   2   3
ATOM      3  C   UNL     1      61.843  30.314  62.014  1.00  0.00     0.000 C 
BRANCH   3   4
ATOM      4  C   UNL     1      61.946  28.926  61.356  1.00  0.00     0.000 C 
BRANCH   4   5
ATOM      5  C   UNL     1      63.367  28.597  60.865  1.00  0.00     0.006 C 
BRANCH   5   6
ATOM      6  C   UNL     1      63.798  29.490  59.694  1.00  0.00     0.053 C 
BRANCH   6   7
ATOM      7  C   UNL     1      65.001  30.314  60.038  1.00  0.00     0.041 C 
ATOM      8  O   UNL     1      64.866  31.417  60.631  1.00  0.00    -0.550 OA
ATOM      9  O   UNL     1      66.273  29.852  59.728  1.00  0.00    -0.550 OA
ENDBRANCH   6   7
ENDBRANCH   5   6
ENDBRANCH   4   5
ENDBRANCH   3   4
ENDBRANCH   2   3
ENDBRANCH   1   2
BRANCH   1  10
ATOM     10  C   UNL     1      61.567  32.557  59.799  1.00  0.00     0.000 C 
BRANCH  10  11
ATOM     11  C   UNL     1      61.086  33.569  58.737  1.00  0.00    -0.000 C 
BRANCH  11  12
ATOM     12  C   UNL     1      61.071  35.011  59.275  1.00  0.00    -0.000 C 
BRANCH  12  13
ATOM     13  C   UNL     1      61.470  35.083  60.764  1.00  0.00    -0.000 C 
BRANCH  13  14
ATOM     14  C   UNL     1      62.252  36.356  61.132  1.00  0.00    -0.000 C 
BRANCH  14  15
ATOM     15  C   UNL     1      63.770  36.185  60.989  1.00  0.00    -0.003 C 
ATOM     16  C   UNL     1      64.209  34.790  61.425  1.00  0.00     0.004 C 
ENDBRANCH  14  15
ENDBRANCH  13  14
ENDBRANCH  12  13
ENDBRANCH  11  12
ENDBRANCH  10  11
ENDBRANCH   1  10
TORSDOF 12
ENDMDL
MODEL 4
REMARK VINA RESULT:    -3.109      1.493      3.066
REMARK INTER + INTRA:          -7.014
REMARK INTER:                  -5.509
REMARK INTRA:                  -1.505
REMARK UNBOUND:                -1.724
REMARK SMILES CCCCCCCCCCCCCC(=O)[O-]
REMARK SMILES IDX 8 1 9 2 10 3 11 4 12 5 13 6 14 7 15 8 16 9 7 10 6 11 5 12
REMARK SMILES IDX 4 13 3 14 2 15 1 16
REMARK H PARENT
REMARK Flexibility Score: inf
ROOT
ATOM      1  C   UNL     1      60.903  34.714  57.846  1.00  0.00     0.000 C 
ENDROOT
BRANCH   1   2
ATOM      2  C   UNL     1      60.028  33.508  57.469  1.00  0.00     0.000 C 
BRANCH   2   3
ATOM      3  C   UNL     1      59.693  32.607  58.672  1.00  0.00     0.000 C 
BRANCH   3   4
ATOM      4  C   UNL     1      60.894  31.880  59.305  1.00  0.00     0.000 C 
BRANCH   4   5
ATOM      5  C   UNL     1      61.139  32.286  60.769  1.00  0.00     0.006 C 
BRANCH   5   6
ATOM      6  C   UNL     1      60.894  31.125  61.741  1.00  0.00     0.053 C 
BRANCH   6   7
ATOM      7  C   UNL     1      62.042  30.164  61.759  1.00  0.00     0.041 C 
ATOM      8  O   UNL     1      61.831  28.922  61.736  1.00  0.00    -0.550 OA
ATOM      9  O   UNL     1      63.347  30.638  61.776  1.00  0.00    -0.550 OA
ENDBRANCH   6   7
ENDBRANCH   5   6
ENDBRANCH   4   5
ENDBRANCH   3   4
ENDBRANCH   2   3
ENDBRANCH   1   2
BRANCH   1  10
ATOM     10  C   UNL     1      60.103  36.026  57.927  1.00  0.00     0.000 C 
BRANCH  10  11
ATOM     11  C   UNL     1      59.628  36.376  59.355  1.00  0.00    -0.000 C 
BRANCH  11  12
ATOM     12  C   UNL     1      60.624  35.904  60.429  1.00  0.00    -0.000 C 
BRANCH  12  13
ATOM     13  C   UNL     1      61.487  37.061  60.974  1.00  0.00    -0.000 C 
BRANCH  13  14
ATOM     14  C   UNL     1      62.937  36.654  61.292  1.00  0.00    -0.000 C 
BRANCH  14  15
ATOM     15  C   UNL     1      63.417  35.460  60.456  1.00  0.00    -0.003 C 
ATOM     16  C   UNL     1      64.173  34.454  61.319  1.00  0.00     0.004 C 
ENDBRANCH  14  15
ENDBRANCH  13  14
ENDBRANCH  12  13
ENDBRANCH  11  12
ENDBRANCH  10  11
ENDBRANCH   1  10
TORSDOF 12
ENDMDL
MODEL 5
REMARK VINA RESULT:    -3.107     11.458     13.498
REMARK INTER + INTRA:          -7.011
REMARK INTER:                  -5.436
REMARK INTRA:                  -1.574
REMARK UNBOUND:                -1.724
REMARK SMILES CCCCCCCCCCCCCC(=O)[O-]
REMARK SMILES IDX 8 1 9 2 10 3 11 4 12 5 13 6 14 7 15 8 16 9 7 10 6 11 5 12
REMARK SMILES IDX 4 13 3 14 2 15 1 16
REMARK H PARENT
REMARK Flexibility Score: inf
ROOT
ATOM      1  C   UNL     1      54.190  28.109  50.073  1.00  0.00     0.000 C 
ENDROOT
BRANCH   1   2
ATOM      2  C   UNL     1      55.293  28.954  50.729  1.00  0.00     0.000 C 
BRANCH   2   3
ATOM      3  C   UNL     1      56.707  28.401  50.476  1.00  0.00     0.000 C 
BRANCH   3   4
ATOM      4  C   UNL     1      57.832  29.452  50.456  1.00  0.00     0.000 C 
BRANCH   4   5
ATOM      5  C   UNL     1      58.815  29.259  49.289  1.00  0.00     0.006 C 
BRANCH   5   6
ATOM      6  C   UNL     1      60.220  28.875  49.772  1.00  0.00     0.053 C 
BRANCH   6   7
ATOM      7  C   UNL     1      60.463  27.401  49.654  1.00  0.00     0.041 C 
ATOM      8  O   UNL     1      61.598  26.922  49.917  1.00  0.00    -0.550 OA
ATOM      9  O   UNL     1      59.430  26.553  49.278  1.00  0.00    -0.550 OA
ENDBRANCH   6   7
ENDBRANCH   5   6
ENDBRANCH   4   5
ENDBRANCH   3   4
ENDBRANCH   2   3
ENDBRANCH   1   2
BRANCH   1  10
ATOM     10  C   UNL     1      54.690  26.725  49.623  1.00  0.00     0.000 C 
BRANCH  10  11
ATOM     11  C   UNL     1      53.607  25.625  49.681  1.00  0.00    -0.000 C 
BRANCH  11  12
ATOM     12  C   UNL     1      52.875  25.604  51.035  1.00  0.00    -0.000 C 
BRANCH  12  13
ATOM     13  C   UNL     1      53.743  25.001  52.159  1.00  0.00    -0.000 C 
BRANCH  13  14
ATOM     14  C   UNL     1      54.047  25.986  53.301  1.00  0.00    -0.000 C 
BRANCH  14  15
ATOM     15  C   UNL     1      55.527  26.387  53.364  1.00  0.00    -0.003 C 
ATOM     16  C   UNL     1      56.406  25.351  52.670  1.00  0.00     0.004 C 
ENDBRANCH  14  15
ENDBRANCH  13  14
ENDBRANCH  12  13
ENDBRANCH  11  12
ENDBRANCH  10  11
ENDBRANCH   1  10
TORSDOF 12
ENDMDL
MODEL 6
REMARK VINA RESULT:    -3.089     10.466     12.776
REMARK INTER + INTRA:          -6.980
REMARK INTER:                  -5.289
REMARK INTRA:                  -1.691
REMARK UNBOUND:                -1.724
REMARK SMILES CCCCCCCCCCCCCC(=O)[O-]
REMARK SMILES IDX 8 1 9 2 10 3 11 4 12 5 13 6 14 7 15 8 16 9 7 10 6 11 5 12
REMARK SMILES IDX 4 13 3 14 2 15 1 16
REMARK H PARENT
REMARK Flexibility Score: inf
ROOT
ATOM      1  C   UNL     1      57.792  28.850  52.261  1.00  0.00     0.000 C 
ENDROOT
BRANCH   1   2
ATOM      2  C   UNL     1      57.639  29.888  51.138  1.00  0.00     0.000 C 
BRANCH   2   3
ATOM      3  C   UNL     1      58.432  29.524  49.869  1.00  0.00     0.000 C 
BRANCH   3   4
ATOM      4  C   UNL     1      59.941  29.297  50.078  1.00  0.00     0.000 C 
BRANCH   4   5
ATOM      5  C   UNL     1      60.475  28.069  49.319  1.00  0.00     0.006 C 
BRANCH   5   6
ATOM      6  C   UNL     1      59.541  26.859  49.445  1.00  0.00     0.053 C 
BRANCH   6   7
ATOM      7  C   UNL     1      60.082  25.836  50.397  1.00  0.00     0.041 C 
ATOM      8  O   UNL     1      60.234  26.121  51.615  1.00  0.00    -0.550 OA
ATOM      9  O   UNL     1      60.393  24.561  49.945  1.00  0.00    -0.550 OA
ENDBRANCH   6   7
ENDBRANCH   5   6
ENDBRANCH   4   5
ENDBRANCH   3   4
ENDBRANCH   2   3
ENDBRANCH   1   2
BRANCH   1  10
ATOM     10  C   UNL     1      56.520  28.011  52.472  1.00  0.00     0.000 C 
BRANCH  10  11
ATOM     11  C   UNL     1      56.760  26.488  52.383  1.00  0.00    -0.000 C 
BRANCH  11  12
ATOM     12  C   UNL     1      56.472  25.936  50.976  1.00  0.00    -0.000 C 
BRANCH  12  13
ATOM     13  C   UNL     1      55.724  26.955  50.090  1.00  0.00    -0.000 C 
BRANCH  13  14
ATOM     14  C   UNL     1      54.365  26.449  49.579  1.00  0.00    -0.000 C 
BRANCH  14  15
ATOM     15  C   UNL     1      53.237  27.471  49.774  1.00  0.00    -0.003 C 
ATOM     16  C   UNL     1      53.796  28.843  50.137  1.00  0.00     0.004 C 
ENDBRANCH  14  15
ENDBRANCH  13  14
ENDBRANCH  12  13
ENDBRANCH  11  12
ENDBRANCH  10  11
ENDBRANCH   1  10
TORSDOF 12
ENDMDL
MODEL 7
REMARK VINA RESULT:    -3.065      0.874      2.546
REMARK INTER + INTRA:          -6.940
REMARK INTER:                  -5.118
REMARK INTRA:                  -1.821
REMARK UNBOUND:                -1.724
REMARK SMILES CCCCCCCCCCCCCC(=O)[O-]
REMARK SMILES IDX 8 1 9 2 10 3 11 4 12 5 13 6 14 7 15 8 16 9 7 10 6 11 5 12
REMARK SMILES IDX 4 13 3 14 2 15 1 16
REMARK H PARENT
REMARK Flexibility Score: inf
ROOT
ATOM      1  C   UNL     1      60.333  33.973  58.726  1.00  0.00     0.000 C 
ENDROOT
BRANCH   1   2
ATOM      2  C   UNL     1      61.160  32.801  58.173  1.00  0.00     0.000 C 
BRANCH   2   3
ATOM      3  C   UNL     1      61.150  31.569  59.096  1.00  0.00     0.000 C 
BRANCH   3   4
ATOM      4  C   UNL     1      60.497  31.783  60.474  1.00  0.00     0.000 C 
BRANCH   4   5
ATOM      5  C   UNL     1      60.616  30.554  61.393  1.00  0.00     0.006 C 
BRANCH   5   6
ATOM      6  C   UNL     1      62.068  30.275  61.802  1.00  0.00     0.053 C 
BRANCH   6   7
ATOM      7  C   UNL     1      62.513  28.911  61.372  1.00  0.00     0.041 C 
ATOM      8  O   UNL     1      61.813  27.899  61.646  1.00  0.00    -0.550 OA
ATOM      9  O   UNL     1      63.686  28.758  60.646  1.00  0.00    -0.550 OA
ENDBRANCH   6   7
ENDBRANCH   5   6
ENDBRANCH   4   5
ENDBRANCH   3   4
ENDBRANCH   2   3
ENDBRANCH   1   2
BRANCH   1  10
ATOM     10  C   UNL     1      61.200  35.183  59.112  1.00  0.00     0.000 C 
BRANCH  10  11
ATOM     11  C   UNL     1      61.472  35.292  60.629  1.00  0.00    -0.000 C 
BRANCH  11  12
ATOM     12  C   UNL     1      62.785  36.035  60.930  1.00  0.00    -0.000 C 
BRANCH  12  13
ATOM     13  C   UNL     1      63.960  35.067  61.183  1.00  0.00    -0.000 C 
BRANCH  13  14
ATOM     14  C   UNL     1      63.563  33.582  61.108  1.00  0.00    -0.000 C 
BRANCH  14  15
ATOM     15  C   UNL     1      64.456  32.774  60.158  1.00  0.00    -0.003 C 
ATOM     16  C   UNL     1      64.664  33.513  58.839  1.00  0.00     0.004 C 
ENDBRANCH  14  15
ENDBRANCH  13  14
ENDBRANCH  12  13
ENDBRANCH  11  12
ENDBRANCH  10  11
ENDBRANCH   1  10
TORSDOF 12
ENDMDL
MODEL 8
REMARK VINA RESULT:    -3.048     10.455     12.672
REMARK INTER + INTRA:          -6.910
REMARK INTER:                  -4.829
REMARK INTRA:                  -2.081
REMARK UNBOUND:                -1.724
REMARK SMILES CCCCCCCCCCCCCC(=O)[O-]
REMARK SMILES IDX 8 1 9 2 10 3 11 4 12 5 13 6 14 7 15 8 16 9 7 10 6 11 5 12
REMARK SMILES IDX 4 13 3 14 2 15 1 16
REMARK H PARENT
REMARK Flexibility Score: inf
ROOT
ATOM      1  C   UNL     1      58.165  29.236  52.708  1.00  0.00     0.000 C 
ENDROOT
BRANCH   1   2
ATOM      2  C   UNL     1      58.839  27.914  53.109  1.00  0.00     0.000 C 
BRANCH   2   3
ATOM      3  C   UNL     1      57.913  26.694  52.949  1.00  0.00     0.000 C 
BRANCH   3   4
ATOM      4  C   UNL     1      56.508  27.001  52.401  1.00  0.00     0.000 C 
BRANCH   4   5
ATOM      5  C   UNL     1      56.201  26.263  51.086  1.00  0.00     0.006 C 
BRANCH   5   6
ATOM      6  C   UNL     1      55.331  27.101  50.140  1.00  0.00     0.053 C 
BRANCH   6   7
ATOM      7  C   UNL     1      54.018  26.438  49.859  1.00  0.00     0.041 C 
ATOM      8  O   UNL     1      53.040  26.614  50.633  1.00  0.00    -0.550 OA
ATOM      9  O   UNL     1      53.865  25.647  48.729  1.00  0.00    -0.550 OA
ENDBRANCH   6   7
ENDBRANCH   5   6
ENDBRANCH   4   5
ENDBRANCH   3   4
ENDBRANCH   2   3
ENDBRANCH   1   2
BRANCH   1  10
ATOM     10  C   UNL     1      58.804  29.873  51.462  1.00  0.00     0.000 C 
BRANCH  10  11
ATOM     11  C   UNL     1      57.992  29.654  50.167  1.00  0.00    -0.000 C 
BRANCH  11  12
ATOM     12  C   UNL     1      58.885  29.230  48.987  1.00  0.00    -0.000 C 
BRANCH  12  13
ATOM     13  C   UNL     1      59.937  28.179  49.398  1.00  0.00    -0.000 C 
BRANCH  13  14
ATOM     14  C   UNL     1      59.389  26.742  49.445  1.00  0.00    -0.000 C 
BRANCH  14  15
ATOM     15  C   UNL     1      60.299  25.783  50.225  1.00  0.00    -0.003 C 
ATOM     16  C   UNL     1      61.649  26.428  50.523  1.00  0.00     0.004 C 
ENDBRANCH  14  15
ENDBRANCH  13  14
ENDBRANCH  12  13
ENDBRANCH  11  12
ENDBRANCH  10  11
ENDBRANCH   1  10
TORSDOF 12
ENDMDL
MODEL 9
REMARK VINA RESULT:    -3.030      1.440      3.199
REMARK INTER + INTRA:          -6.879
REMARK INTER:                  -4.931
REMARK INTRA:                  -1.949
REMARK UNBOUND:                -1.724
REMARK SMILES CCCCCCCCCCCCCC(=O)[O-]
REMARK SMILES IDX 8 1 9 2 10 3 11 4 12 5 13 6 14 7 15 8 16 9 7 10 6 11 5 12
REMARK SMILES IDX 4 13 3 14 2 15 1 16
REMARK H PARENT
REMARK Flexibility Score: inf
ROOT
ATOM      1  C   UNL     1      60.889  33.213  59.537  1.00  0.00     0.000 C 
ENDROOT
BRANCH   1   2
ATOM      2  C   UNL     1      60.647  31.747  59.928  1.00  0.00     0.000 C 
BRANCH   2   3
ATOM      3  C   UNL     1      60.794  31.495  61.439  1.00  0.00     0.000 C 
BRANCH   3   4
ATOM      4  C   UNL     1      61.714  30.322  61.825  1.00  0.00     0.000 C 
BRANCH   4   5
ATOM      5  C   UNL     1      61.530  29.091  60.921  1.00  0.00     0.006 C 
BRANCH   5   6
ATOM      6  C   UNL     1      62.078  27.810  61.566  1.00  0.00     0.053 C 
BRANCH   6   7
ATOM      7  C   UNL     1      63.401  27.417  60.984  1.00  0.00     0.041 C 
ATOM      8  O   UNL     1      63.586  26.244  60.565  1.00  0.00    -0.550 OA
ATOM      9  O   UNL     1      64.421  28.353  60.879  1.00  0.00    -0.550 OA
ENDBRANCH   6   7
ENDBRANCH   5   6
ENDBRANCH   4   5
ENDBRANCH   3   4
ENDBRANCH   2   3
ENDBRANCH   1   2
BRANCH   1  10
ATOM     10  C   UNL     1      61.661  33.996  60.613  1.00  0.00     0.000 C 
BRANCH  10  11
ATOM     11  C   UNL     1      62.760  34.918  60.039  1.00  0.00    -0.000 C 
BRANCH  11  12
ATOM     12  C   UNL     1      64.167  34.318  60.209  1.00  0.00    -0.000 C 
BRANCH  12  13
ATOM     13  C   UNL     1      64.135  32.941  60.905  1.00  0.00    -0.000 C 
BRANCH  13  14
ATOM     14  C   UNL     1      64.708  31.801  60.045  1.00  0.00    -0.000 C 
BRANCH  14  15
ATOM     15  C   UNL     1      64.188  31.825  58.601  1.00  0.00    -0.003 C 
ATOM     16  C   UNL     1      63.668  30.453  58.181  1.00  0.00     0.004 C 
ENDBRANCH  14  15
ENDBRANCH  13  14
ENDBRANCH  12  13
ENDBRANCH  11  12
ENDBRANCH  10  11
ENDBRANCH   1  10
TORSDOF 12
ENDMDL
