MODEL 1
REMARK VINA RESULT:    -3.381      0.000      0.000
REMARK INTER + INTRA:          -4.253
REMARK INTER:                  -3.974
REMARK INTRA:                  -0.279
REMARK UNBOUND:                -0.279
REMARK SMILES O=c1cc(-c2ccc(O)c(O)c2)oc2cc(O)cc(O)c12
REMARK SMILES IDX 4 1 3 2 2 3 1 4 21 5 19 6 18 7 16 8 15 9 14 10 13 11 5 12
REMARK SMILES IDX 6 13 7 14 8 15 12 16 10 17 9 18 11 20 20 22 17 24
REMARK H PARENT 9 19 11 21 20 23 17 25
REMARK Flexibility Score: inf
ROOT
ATOM      1  C   UNL     1      -5.955  -1.850   2.379  1.00  0.00     0.138 A 
ATOM      2  C   UNL     1      -4.675  -2.262   1.982  1.00  0.00     0.100 A 
ATOM      3  C   UNL     1      -4.431  -2.562   0.641  1.00  0.00     0.197 A 
ATOM      4  O   UNL     1      -3.258  -2.869   0.306  1.00  0.00    -0.289 OA
ATOM      5  C   UNL     1      -5.484  -2.477  -0.301  1.00  0.00     0.107 A 
ATOM      6  C   UNL     1      -5.361  -2.798  -1.686  1.00  0.00     0.134 A 
ATOM      7  C   UNL     1      -6.442  -2.564  -2.546  1.00  0.00     0.093 A 
ATOM      8  C   UNL     1      -7.657  -2.080  -2.062  1.00  0.00     0.123 A 
ATOM      9  C   UNL     1      -7.804  -1.816  -0.700  1.00  0.00     0.094 A 
ATOM     10  C   UNL     1      -6.734  -2.005   0.177  1.00  0.00     0.146 A 
ATOM     11  O   UNL     1      -6.911  -1.727   1.465  1.00  0.00    -0.456 OA
ENDROOT
BRANCH   1  12
ATOM     12  C   UNL     1      -6.270  -1.521   3.792  1.00  0.00     0.021 A 
ATOM     13  C   UNL     1      -7.036  -0.379   4.082  1.00  0.00     0.016 A 
ATOM     14  C   UNL     1      -7.352  -0.052   5.403  1.00  0.00     0.051 A 
ATOM     15  C   UNL     1      -6.916  -0.864   6.456  1.00  0.00     0.157 A 
ATOM     16  C   UNL     1      -5.845  -2.342   4.856  1.00  0.00     0.062 A 
ATOM     17  C   UNL     1      -6.164  -2.013   6.181  1.00  0.00     0.158 A 
BRANCH  15  18
ATOM     18  O   UNL     1      -7.229  -0.540   7.775  1.00  0.00    -0.504 OA
ATOM     19  H   UNL     1      -7.042   0.382   8.152  1.00  0.00     0.293 HD
ENDBRANCH  15  18
BRANCH  17  20
ATOM     20  O   UNL     1      -5.741  -2.827   7.231  1.00  0.00    -0.504 OA
ATOM     21  H   UNL     1      -6.347  -3.041   8.015  1.00  0.00     0.293 HD
ENDBRANCH  17  20
ENDBRANCH   1  12
BRANCH   6  22
ATOM     22  O   UNL     1      -4.220  -3.366  -2.259  1.00  0.00    -0.507 OA
ATOM     23  H   UNL     1      -3.499  -3.853  -1.747  1.00  0.00     0.293 HD
ENDBRANCH   6  22
BRANCH   8  24
ATOM     24  O   UNL     1      -8.715  -1.875  -2.944  1.00  0.00    -0.508 OA
ATOM     25  H   UNL     1      -8.779  -2.378  -3.822  1.00  0.00     0.293 HD
ENDBRANCH   8  24
TORSDOF 5
ENDMDL
MODEL 2
REMARK VINA RESULT:    -3.379      8.599     10.770
REMARK INTER + INTRA:          -4.250
REMARK INTER:                  -3.949
REMARK INTRA:                  -0.302
REMARK UNBOUND:                -0.279
REMARK SMILES O=c1cc(-c2ccc(O)c(O)c2)oc2cc(O)cc(O)c12
REMARK SMILES IDX 4 1 3 2 2 3 1 4 21 5 19 6 18 7 16 8 15 9 14 10 13 11 5 12
REMARK SMILES IDX 6 13 7 14 8 15 12 16 10 17 9 18 11 20 20 22 17 24
REMARK H PARENT 9 19 11 21 20 23 17 25
REMARK Flexibility Score: inf
ROOT
ATOM      1  C   UNL     1      -7.457   5.968  -2.257  1.00  0.00     0.138 A 
ATOM      2  C   UNL     1      -8.543   5.790  -3.126  1.00  0.00     0.100 A 
ATOM      3  C   UNL     1      -9.830   5.652  -2.604  1.00  0.00     0.197 A 
ATOM      4  O   UNL     1     -10.790   5.556  -3.411  1.00  0.00    -0.289 OA
ATOM      5  C   UNL     1     -10.025   5.661  -1.202  1.00  0.00     0.107 A 
ATOM      6  C   UNL     1     -11.285   5.488  -0.557  1.00  0.00     0.134 A 
ATOM      7  C   UNL     1     -11.374   5.632   0.834  1.00  0.00     0.093 A 
ATOM      8  C   UNL     1     -10.240   5.882   1.606  1.00  0.00     0.123 A 
ATOM      9  C   UNL     1      -8.993   5.999   0.990  1.00  0.00     0.094 A 
ATOM     10  C   UNL     1      -8.878   5.895  -0.398  1.00  0.00     0.146 A 
ATOM     11  O   UNL     1      -7.675   6.027  -0.948  1.00  0.00    -0.456 OA
ENDROOT
BRANCH   1  12
ATOM     12  C   UNL     1      -6.068   6.118  -2.758  1.00  0.00     0.021 A 
ATOM     13  C   UNL     1      -5.839   6.793  -3.970  1.00  0.00     0.016 A 
ATOM     14  C   UNL     1      -4.540   6.954  -4.459  1.00  0.00     0.051 A 
ATOM     15  C   UNL     1      -3.448   6.452  -3.742  1.00  0.00     0.157 A 
ATOM     16  C   UNL     1      -4.963   5.627  -2.035  1.00  0.00     0.062 A 
ATOM     17  C   UNL     1      -3.660   5.790  -2.526  1.00  0.00     0.158 A 
BRANCH  15  18
ATOM     18  O   UNL     1      -2.151   6.610  -4.228  1.00  0.00    -0.504 OA
ATOM     19  H   UNL     1      -1.401   6.947  -3.635  1.00  0.00     0.293 HD
ENDBRANCH  15  18
BRANCH  17  20
ATOM     20  O   UNL     1      -2.569   5.301  -1.809  1.00  0.00    -0.504 OA
ATOM     21  H   UNL     1      -1.617   5.543  -2.059  1.00  0.00     0.293 HD
ENDBRANCH  17  20
ENDBRANCH   1  12
BRANCH   6  22
ATOM     22  O   UNL     1     -12.466   5.152  -1.225  1.00  0.00    -0.507 OA
ATOM     23  H   UNL     1     -12.947   5.749  -1.881  1.00  0.00     0.293 HD
ENDBRANCH   6  22
BRANCH   8  24
ATOM     24  O   UNL     1     -10.364   6.004   2.988  1.00  0.00    -0.508 OA
ATOM     25  H   UNL     1      -9.605   6.358   3.559  1.00  0.00     0.293 HD
ENDBRANCH   8  24
TORSDOF 5
ENDMDL
MODEL 3
REMARK VINA RESULT:    -3.291      2.107      7.620
REMARK INTER + INTRA:          -4.147
REMARK INTER:                  -3.884
REMARK INTRA:                  -0.263
REMARK UNBOUND:                -0.279
REMARK SMILES O=c1cc(-c2ccc(O)c(O)c2)oc2cc(O)cc(O)c12
REMARK SMILES IDX 4 1 3 2 2 3 1 4 21 5 19 6 18 7 16 8 15 9 14 10 13 11 5 12
REMARK SMILES IDX 6 13 7 14 8 15 12 16 10 17 9 18 11 20 20 22 17 24
REMARK H PARENT 9 19 11 21 20 23 17 25
REMARK Flexibility Score: inf
ROOT
ATOM      1  C   UNL     1      -6.911  -1.602   4.077  1.00  0.00     0.138 A 
ATOM      2  C   UNL     1      -8.023  -2.397   4.385  1.00  0.00     0.100 A 
ATOM      3  C   UNL     1      -8.810  -2.083   5.494  1.00  0.00     0.197 A 
ATOM      4  O   UNL     1      -9.837  -2.778   5.708  1.00  0.00    -0.289 OA
ATOM      5  C   UNL     1      -8.462  -0.985   6.316  1.00  0.00     0.107 A 
ATOM      6  C   UNL     1      -9.166  -0.597   7.494  1.00  0.00     0.134 A 
ATOM      7  C   UNL     1      -8.798   0.578   8.162  1.00  0.00     0.093 A 
ATOM      8  C   UNL     1      -7.715   1.343   7.731  1.00  0.00     0.123 A 
ATOM      9  C   UNL     1      -6.984   0.942   6.611  1.00  0.00     0.094 A 
ATOM     10  C   UNL     1      -7.349  -0.205   5.903  1.00  0.00     0.146 A 
ATOM     11  O   UNL     1      -6.637  -0.545   4.833  1.00  0.00    -0.456 OA
ENDROOT
BRANCH   1  12
ATOM     12  C   UNL     1      -6.039  -1.892   2.911  1.00  0.00     0.021 A 
ATOM     13  C   UNL     1      -4.815  -2.554   3.109  1.00  0.00     0.016 A 
ATOM     14  C   UNL     1      -3.980  -2.845   2.027  1.00  0.00     0.051 A 
ATOM     15  C   UNL     1      -4.357  -2.487   0.728  1.00  0.00     0.157 A 
ATOM     16  C   UNL     1      -6.418  -1.546   1.598  1.00  0.00     0.062 A 
ATOM     17  C   UNL     1      -5.580  -1.839   0.513  1.00  0.00     0.158 A 
BRANCH  15  18
ATOM     18  O   UNL     1      -3.526  -2.774  -0.353  1.00  0.00    -0.504 OA
ATOM     19  H   UNL     1      -2.721  -3.382  -0.256  1.00  0.00     0.293 HD
ENDBRANCH  15  18
BRANCH  17  20
ATOM     20  O   UNL     1      -5.958  -1.494  -0.783  1.00  0.00    -0.504 OA
ATOM     21  H   UNL     1      -6.911  -1.610  -1.108  1.00  0.00     0.293 HD
ENDBRANCH  17  20
ENDBRANCH   1  12
BRANCH   6  22
ATOM     22  O   UNL     1     -10.210  -1.335   8.060  1.00  0.00    -0.507 OA
ATOM     23  H   UNL     1     -10.370  -1.441   9.050  1.00  0.00     0.293 HD
ENDBRANCH   6  22
BRANCH   8  24
ATOM     24  O   UNL     1      -7.367   2.497   8.430  1.00  0.00    -0.508 OA
ATOM     25  H   UNL     1      -7.497   3.418   8.029  1.00  0.00     0.293 HD
ENDBRANCH   8  24
TORSDOF 5
ENDMDL
MODEL 4
REMARK VINA RESULT:    -3.288      1.432      2.419
REMARK INTER + INTRA:          -4.144
REMARK INTER:                  -3.830
REMARK INTRA:                  -0.314
REMARK UNBOUND:                -0.279
REMARK SMILES O=c1cc(-c2ccc(O)c(O)c2)oc2cc(O)cc(O)c12
REMARK SMILES IDX 4 1 3 2 2 3 1 4 21 5 19 6 18 7 16 8 15 9 14 10 13 11 5 12
REMARK SMILES IDX 6 13 7 14 8 15 12 16 10 17 9 18 11 20 20 22 17 24
REMARK H PARENT 9 19 11 21 20 23 17 25
REMARK Flexibility Score: inf
ROOT
ATOM      1  C   UNL     1      -5.578  -2.424   0.501  1.00  0.00     0.138 A 
ATOM      2  C   UNL     1      -4.415  -2.964  -0.065  1.00  0.00     0.100 A 
ATOM      3  C   UNL     1      -4.353  -3.181  -1.442  1.00  0.00     0.197 A 
ATOM      4  O   UNL     1      -3.274  -3.608  -1.928  1.00  0.00    -0.289 OA
ATOM      5  C   UNL     1      -5.475  -2.884  -2.252  1.00  0.00     0.107 A 
ATOM      6  C   UNL     1      -5.541  -3.102  -3.660  1.00  0.00     0.134 A 
ATOM      7  C   UNL     1      -6.661  -2.660  -4.376  1.00  0.00     0.093 A 
ATOM      8  C   UNL     1      -7.742  -2.065  -3.726  1.00  0.00     0.123 A 
ATOM      9  C   UNL     1      -7.712  -1.897  -2.340  1.00  0.00     0.094 A 
ATOM     10  C   UNL     1      -6.593  -2.295  -1.605  1.00  0.00     0.146 A 
ATOM     11  O   UNL     1      -6.597  -2.104  -0.289  1.00  0.00    -0.456 OA
ENDROOT
BRANCH   1  12
ATOM     12  C   UNL     1      -5.698  -2.175   1.959  1.00  0.00     0.021 A 
ATOM     13  C   UNL     1      -4.790  -2.784   2.842  1.00  0.00     0.016 A 
ATOM     14  C   UNL     1      -4.877  -2.559   4.219  1.00  0.00     0.051 A 
ATOM     15  C   UNL     1      -5.867  -1.716   4.735  1.00  0.00     0.157 A 
ATOM     16  C   UNL     1      -6.684  -1.316   2.485  1.00  0.00     0.062 A 
ATOM     17  C   UNL     1      -6.770  -1.090   3.866  1.00  0.00     0.158 A 
BRANCH  15  18
ATOM     18  O   UNL     1      -5.958  -1.490   6.108  1.00  0.00    -0.504 OA
ATOM     19  H   UNL     1      -6.641  -1.973   6.679  1.00  0.00     0.293 HD
ENDBRANCH  15  18
BRANCH  17  20
ATOM     20  O   UNL     1      -7.748  -0.242   4.383  1.00  0.00    -0.504 OA
ATOM     21  H   UNL     1      -7.865   0.704   4.040  1.00  0.00     0.293 HD
ENDBRANCH  17  20
ENDBRANCH   1  12
BRANCH   6  22
ATOM     22  O   UNL     1      -4.553  -3.763  -4.395  1.00  0.00    -0.507 OA
ATOM     23  H   UNL     1      -4.728  -4.356  -5.193  1.00  0.00     0.293 HD
ENDBRANCH   6  22
BRANCH   8  24
ATOM     24  O   UNL     1      -8.847  -1.653  -4.467  1.00  0.00    -0.508 OA
ATOM     25  H   UNL     1      -9.577  -2.302  -4.737  1.00  0.00     0.293 HD
ENDBRANCH   8  24
TORSDOF 5
ENDMDL
MODEL 5
REMARK VINA RESULT:    -3.252      8.919     10.529
REMARK INTER + INTRA:          -4.101
REMARK INTER:                  -3.789
REMARK INTRA:                  -0.312
REMARK UNBOUND:                -0.279
REMARK SMILES O=c1cc(-c2ccc(O)c(O)c2)oc2cc(O)cc(O)c12
REMARK SMILES IDX 4 1 3 2 2 3 1 4 21 5 19 6 18 7 16 8 15 9 14 10 13 11 5 12
REMARK SMILES IDX 6 13 7 14 8 15 12 16 10 17 9 18 11 20 20 22 17 24
REMARK H PARENT 9 19 11 21 20 23 17 25
REMARK Flexibility Score: inf
ROOT
ATOM      1  C   UNL     1      -8.013   6.357  -3.054  1.00  0.00     0.138 A 
ATOM      2  C   UNL     1      -7.826   6.916  -4.326  1.00  0.00     0.100 A 
ATOM      3  C   UNL     1      -6.533   7.082  -4.823  1.00  0.00     0.197 A 
ATOM      4  O   UNL     1      -6.400   7.528  -5.992  1.00  0.00    -0.289 OA
ATOM      5  C   UNL     1      -5.421   6.715  -4.028  1.00  0.00     0.107 A 
ATOM      6  C   UNL     1      -4.057   6.877  -4.415  1.00  0.00     0.134 A 
ATOM      7  C   UNL     1      -3.042   6.369  -3.595  1.00  0.00     0.093 A 
ATOM      8  C   UNL     1      -3.338   5.762  -2.375  1.00  0.00     0.123 A 
ATOM      9  C   UNL     1      -4.666   5.647  -1.961  1.00  0.00     0.094 A 
ATOM     10  C   UNL     1      -5.702   6.112  -2.774  1.00  0.00     0.146 A 
ATOM     11  O   UNL     1      -6.954   5.971  -2.350  1.00  0.00    -0.456 OA
ENDROOT
BRANCH   1  12
ATOM     12  C   UNL     1      -9.366   6.159  -2.475  1.00  0.00     0.021 A 
ATOM     13  C   UNL     1     -10.448   6.904  -2.976  1.00  0.00     0.016 A 
ATOM     14  C   UNL     1     -11.733   6.731  -2.454  1.00  0.00     0.051 A 
ATOM     15  C   UNL     1     -11.959   5.805  -1.429  1.00  0.00     0.157 A 
ATOM     16  C   UNL     1      -9.604   5.219  -1.453  1.00  0.00     0.062 A 
ATOM     17  C   UNL     1     -10.894   5.045  -0.931  1.00  0.00     0.158 A 
BRANCH  15  18
ATOM     18  O   UNL     1     -13.239   5.630  -0.905  1.00  0.00    -0.504 OA
ATOM     19  H   UNL     1     -14.018   6.202  -1.209  1.00  0.00     0.293 HD
ENDBRANCH  15  18
BRANCH  17  20
ATOM     20  O   UNL     1     -11.125   4.115   0.082  1.00  0.00    -0.504 OA
ATOM     21  H   UNL     1     -11.907   4.208   0.720  1.00  0.00     0.293 HD
ENDBRANCH  17  20
ENDBRANCH   1  12
BRANCH   6  22
ATOM     22  O   UNL     1      -3.647   7.544  -5.573  1.00  0.00    -0.507 OA
ATOM     23  H   UNL     1      -4.179   7.592  -6.429  1.00  0.00     0.293 HD
ENDBRANCH   6  22
BRANCH   8  24
ATOM     24  O   UNL     1      -2.301   5.283  -1.577  1.00  0.00    -0.508 OA
ATOM     25  H   UNL     1      -1.469   5.833  -1.402  1.00  0.00     0.293 HD
ENDBRANCH   8  24
TORSDOF 5
ENDMDL
MODEL 6
REMARK VINA RESULT:    -3.192      2.487      7.339
REMARK INTER + INTRA:          -4.031
REMARK INTER:                  -3.767
REMARK INTRA:                  -0.264
REMARK UNBOUND:                -0.279
REMARK SMILES O=c1cc(-c2ccc(O)c(O)c2)oc2cc(O)cc(O)c12
REMARK SMILES IDX 4 1 3 2 2 3 1 4 21 5 19 6 18 7 16 8 15 9 14 10 13 11 5 12
REMARK SMILES IDX 6 13 7 14 8 15 12 16 10 17 9 18 11 20 20 22 17 24
REMARK H PARENT 9 19 11 21 20 23 17 25
REMARK Flexibility Score: inf
ROOT
ATOM      1  C   UNL     1      -6.906  -1.611   4.150  1.00  0.00     0.138 A 
ATOM      2  C   UNL     1      -6.782  -0.440   4.910  1.00  0.00     0.100 A 
ATOM      3  C   UNL     1      -7.639  -0.224   5.990  1.00  0.00     0.197 A 
ATOM      4  O   UNL     1      -7.463   0.805   6.692  1.00  0.00    -0.289 OA
ATOM      5  C   UNL     1      -8.646  -1.173   6.290  1.00  0.00     0.107 A 
ATOM      6  C   UNL     1      -9.602  -1.039   7.340  1.00  0.00     0.134 A 
ATOM      7  C   UNL     1     -10.477  -2.097   7.616  1.00  0.00     0.093 A 
ATOM      8  C   UNL     1     -10.472  -3.257   6.842  1.00  0.00     0.123 A 
ATOM      9  C   UNL     1      -9.578  -3.375   5.777  1.00  0.00     0.094 A 
ATOM     10  C   UNL     1      -8.669  -2.352   5.499  1.00  0.00     0.146 A 
ATOM     11  O   UNL     1      -7.824  -2.510   4.485  1.00  0.00    -0.456 OA
ENDROOT
BRANCH   1  12
ATOM     12  C   UNL     1      -6.022  -1.889   2.990  1.00  0.00     0.021 A 
ATOM     13  C   UNL     1      -4.792  -2.536   3.198  1.00  0.00     0.016 A 
ATOM     14  C   UNL     1      -3.945  -2.816   2.122  1.00  0.00     0.051 A 
ATOM     15  C   UNL     1      -4.318  -2.464   0.820  1.00  0.00     0.157 A 
ATOM     16  C   UNL     1      -6.397  -1.549   1.674  1.00  0.00     0.062 A 
ATOM     17  C   UNL     1      -5.548  -1.832   0.595  1.00  0.00     0.158 A 
BRANCH  15  18
ATOM     18  O   UNL     1      -3.476  -2.741  -0.256  1.00  0.00    -0.504 OA
ATOM     19  H   UNL     1      -3.468  -3.651  -0.701  1.00  0.00     0.293 HD
ENDBRANCH  15  18
BRANCH  17  20
ATOM     20  O   UNL     1      -5.921  -1.493  -0.704  1.00  0.00    -0.504 OA
ATOM     21  H   UNL     1      -5.252  -1.490  -1.465  1.00  0.00     0.293 HD
ENDBRANCH  17  20
ENDBRANCH   1  12
BRANCH   6  22
ATOM     22  O   UNL     1      -9.749   0.111   8.121  1.00  0.00    -0.507 OA
ATOM     23  H   UNL     1     -10.478   0.799   8.003  1.00  0.00     0.293 HD
ENDBRANCH   6  22
BRANCH   8  24
ATOM     24  O   UNL     1     -11.368  -4.282   7.135  1.00  0.00    -0.508 OA
ATOM     25  H   UNL     1     -11.529  -5.046   6.489  1.00  0.00     0.293 HD
ENDBRANCH   8  24
TORSDOF 5
ENDMDL
MODEL 7
REMARK VINA RESULT:    -3.178      1.882      3.751
REMARK INTER + INTRA:          -4.015
REMARK INTER:                  -3.720
REMARK INTRA:                  -0.295
REMARK UNBOUND:                -0.279
REMARK SMILES O=c1cc(-c2ccc(O)c(O)c2)oc2cc(O)cc(O)c12
REMARK SMILES IDX 4 1 3 2 2 3 1 4 21 5 19 6 18 7 16 8 15 9 14 10 13 11 5 12
REMARK SMILES IDX 6 13 7 14 8 15 12 16 10 17 9 18 11 20 20 22 17 24
REMARK H PARENT 9 19 11 21 20 23 17 25
REMARK Flexibility Score: inf
ROOT
ATOM      1  C   UNL     1      -5.621  -2.342   0.256  1.00  0.00     0.138 A 
ATOM      2  C   UNL     1      -6.640  -1.913  -0.605  1.00  0.00     0.100 A 
ATOM      3  C   UNL     1      -6.511  -2.111  -1.980  1.00  0.00     0.197 A 
ATOM      4  O   UNL     1      -7.470  -1.772  -2.721  1.00  0.00    -0.289 OA
ATOM      5  C   UNL     1      -5.339  -2.715  -2.497  1.00  0.00     0.107 A 
ATOM      6  C   UNL     1      -5.080  -2.929  -3.883  1.00  0.00     0.134 A 
ATOM      7  C   UNL     1      -3.938  -3.642  -4.270  1.00  0.00     0.093 A 
ATOM      8  C   UNL     1      -3.016  -4.092  -3.325  1.00  0.00     0.123 A 
ATOM      9  C   UNL     1      -3.232  -3.839  -1.970  1.00  0.00     0.094 A 
ATOM     10  C   UNL     1      -4.380  -3.162  -1.551  1.00  0.00     0.146 A 
ATOM     11  O   UNL     1      -4.556  -2.954  -0.250  1.00  0.00    -0.456 OA
ENDROOT
BRANCH   1  12
ATOM     12  C   UNL     1      -5.706  -2.155   1.727  1.00  0.00     0.021 A 
ATOM     13  C   UNL     1      -4.783  -2.807   2.562  1.00  0.00     0.016 A 
ATOM     14  C   UNL     1      -4.837  -2.642   3.948  1.00  0.00     0.051 A 
ATOM     15  C   UNL     1      -5.809  -1.815   4.523  1.00  0.00     0.157 A 
ATOM     16  C   UNL     1      -6.674  -1.314   2.312  1.00  0.00     0.062 A 
ATOM     17  C   UNL     1      -6.727  -1.147   3.703  1.00  0.00     0.158 A 
BRANCH  15  18
ATOM     18  O   UNL     1      -5.867  -1.648   5.906  1.00  0.00    -0.504 OA
ATOM     19  H   UNL     1      -5.427  -2.308   6.537  1.00  0.00     0.293 HD
ENDBRANCH  15  18
BRANCH  17  20
ATOM     20  O   UNL     1      -7.687  -0.316   4.278  1.00  0.00    -0.504 OA
ATOM     21  H   UNL     1      -8.292  -0.639   5.023  1.00  0.00     0.293 HD
ENDBRANCH  17  20
ENDBRANCH   1  12
BRANCH   6  22
ATOM     22  O   UNL     1      -5.893  -2.448  -4.914  1.00  0.00    -0.507 OA
ATOM     23  H   UNL     1      -6.892  -2.322  -4.849  1.00  0.00     0.293 HD
ENDBRANCH   6  22
BRANCH   8  24
ATOM     24  O   UNL     1      -1.883  -4.783  -3.747  1.00  0.00    -0.508 OA
ATOM     25  H   UNL     1      -0.950  -4.433  -3.565  1.00  0.00     0.293 HD
ENDBRANCH   8  24
TORSDOF 5
ENDMDL
MODEL 8
REMARK VINA RESULT:    -3.133      2.770      4.860
REMARK INTER + INTRA:          -3.961
REMARK INTER:                  -3.645
REMARK INTRA:                  -0.316
REMARK UNBOUND:                -0.279
REMARK SMILES O=c1cc(-c2ccc(O)c(O)c2)oc2cc(O)cc(O)c12
REMARK SMILES IDX 4 1 3 2 2 3 1 4 21 5 19 6 18 7 16 8 15 9 14 10 13 11 5 12
REMARK SMILES IDX 6 13 7 14 8 15 12 16 10 17 9 18 11 20 20 22 17 24
REMARK H PARENT 9 19 11 21 20 23 17 25
REMARK Flexibility Score: inf
ROOT
ATOM      1  C   UNL     1      -4.576  -2.431   1.292  1.00  0.00     0.138 A 
ATOM      2  C   UNL     1      -5.693  -2.461   2.139  1.00  0.00     0.100 A 
ATOM      3  C   UNL     1      -6.976  -2.393   1.592  1.00  0.00     0.197 A 
ATOM      4  O   UNL     1      -7.958  -2.485   2.373  1.00  0.00    -0.289 OA
ATOM      5  C   UNL     1      -7.138  -2.262   0.192  1.00  0.00     0.107 A 
ATOM      6  C   UNL     1      -8.395  -2.142  -0.472  1.00  0.00     0.134 A 
ATOM      7  C   UNL     1      -8.438  -2.136  -1.872  1.00  0.00     0.093 A 
ATOM      8  C   UNL     1      -7.268  -2.184  -2.629  1.00  0.00     0.123 A 
ATOM      9  C   UNL     1      -6.029  -2.245  -1.988  1.00  0.00     0.094 A 
ATOM     10  C   UNL     1      -5.956  -2.289  -0.594  1.00  0.00     0.146 A 
ATOM     11  O   UNL     1      -4.758  -2.362  -0.022  1.00  0.00    -0.456 OA
ENDROOT
BRANCH   1  12
ATOM     12  C   UNL     1      -3.190  -2.499   1.820  1.00  0.00     0.021 A 
ATOM     13  C   UNL     1      -2.978  -2.859   3.161  1.00  0.00     0.016 A 
ATOM     14  C   UNL     1      -1.682  -2.938   3.680  1.00  0.00     0.051 A 
ATOM     15  C   UNL     1      -0.578  -2.666   2.864  1.00  0.00     0.157 A 
ATOM     16  C   UNL     1      -2.073  -2.239   1.001  1.00  0.00     0.062 A 
ATOM     17  C   UNL     1      -0.773  -2.319   1.522  1.00  0.00     0.158 A 
BRANCH  15  18
ATOM     18  O   UNL     1       0.716  -2.742   3.378  1.00  0.00    -0.504 OA
ATOM     19  H   UNL     1       1.522  -2.475   2.825  1.00  0.00     0.293 HD
ENDBRANCH  15  18
BRANCH  17  20
ATOM     20  O   UNL     1       0.329  -2.060   0.709  1.00  0.00    -0.504 OA
ATOM     21  H   UNL     1       0.425  -2.482  -0.207  1.00  0.00     0.293 HD
ENDBRANCH  17  20
ENDBRANCH   1  12
BRANCH   6  22
ATOM     22  O   UNL     1      -9.618  -2.003   0.190  1.00  0.00    -0.507 OA
ATOM     23  H   UNL     1     -10.498  -1.802  -0.261  1.00  0.00     0.293 HD
ENDBRANCH   6  22
BRANCH   8  24
ATOM     24  O   UNL     1      -7.348  -2.159  -4.019  1.00  0.00    -0.508 OA
ATOM     25  H   UNL     1      -6.828  -1.485  -4.568  1.00  0.00     0.293 HD
ENDBRANCH   8  24
TORSDOF 5
ENDMDL
MODEL 9
REMARK VINA RESULT:    -3.131      8.854     10.874
REMARK INTER + INTRA:          -3.959
REMARK INTER:                  -3.685
REMARK INTRA:                  -0.274
REMARK UNBOUND:                -0.279
REMARK SMILES O=c1cc(-c2ccc(O)c(O)c2)oc2cc(O)cc(O)c12
REMARK SMILES IDX 4 1 3 2 2 3 1 4 21 5 19 6 18 7 16 8 15 9 14 10 13 11 5 12
REMARK SMILES IDX 6 13 7 14 8 15 12 16 10 17 9 18 11 20 20 22 17 24
REMARK H PARENT 9 19 11 21 20 23 17 25
REMARK Flexibility Score: inf
ROOT
ATOM      1  C   UNL     1      -6.979   6.403  -1.446  1.00  0.00     0.138 A 
ATOM      2  C   UNL     1      -6.665   6.979  -0.208  1.00  0.00     0.100 A 
ATOM      3  C   UNL     1      -7.584   6.907   0.840  1.00  0.00     0.197 A 
ATOM      4  O   UNL     1      -7.248   7.379   1.957  1.00  0.00    -0.289 OA
ATOM      5  C   UNL     1      -8.837   6.282   0.635  1.00  0.00     0.107 A 
ATOM      6  C   UNL     1      -9.867   6.186   1.617  1.00  0.00     0.134 A 
ATOM      7  C   UNL     1     -11.020   5.441   1.338  1.00  0.00     0.093 A 
ATOM      8  C   UNL     1     -11.207   4.842   0.093  1.00  0.00     0.123 A 
ATOM      9  C   UNL     1     -10.229   4.976  -0.895  1.00  0.00     0.094 A 
ATOM     10  C   UNL     1      -9.053   5.683  -0.634  1.00  0.00     0.146 A 
ATOM     11  O   UNL     1      -8.140   5.774  -1.596  1.00  0.00    -0.456 OA
ENDROOT
BRANCH   1  12
ATOM     12  C   UNL     1      -6.039   6.452  -2.595  1.00  0.00     0.021 A 
ATOM     13  C   UNL     1      -6.501   6.889  -3.848  1.00  0.00     0.016 A 
ATOM     14  C   UNL     1      -5.635   6.951  -4.943  1.00  0.00     0.051 A 
ATOM     15  C   UNL     1      -4.291   6.586  -4.801  1.00  0.00     0.157 A 
ATOM     16  C   UNL     1      -4.682   6.098  -2.456  1.00  0.00     0.062 A 
ATOM     17  C   UNL     1      -3.813   6.162  -3.555  1.00  0.00     0.158 A 
BRANCH  15  18
ATOM     18  O   UNL     1      -3.424   6.645  -5.891  1.00  0.00    -0.504 OA
ATOM     19  H   UNL     1      -3.345   5.876  -6.547  1.00  0.00     0.293 HD
ENDBRANCH  15  18
BRANCH  17  20
ATOM     20  O   UNL     1      -2.472   5.810  -3.415  1.00  0.00    -0.504 OA
ATOM     21  H   UNL     1      -1.923   6.114  -2.619  1.00  0.00     0.293 HD
ENDBRANCH  17  20
ENDBRANCH   1  12
BRANCH   6  22
ATOM     22  O   UNL     1      -9.820   6.818   2.863  1.00  0.00    -0.507 OA
ATOM     23  H   UNL     1      -9.560   6.368   3.728  1.00  0.00     0.293 HD
ENDBRANCH   6  22
BRANCH   8  24
ATOM     24  O   UNL     1     -12.373   4.122  -0.156  1.00  0.00    -0.508 OA
ATOM     25  H   UNL     1     -12.793   4.095  -1.078  1.00  0.00     0.293 HD
ENDBRANCH   8  24
TORSDOF 5
ENDMDL
