MODEL 1
REMARK VINA RESULT:    -3.516      0.000      0.000
REMARK INTER + INTRA:          -7.473
REMARK INTER:                  -5.983
REMARK INTRA:                  -1.490
REMARK UNBOUND:                -1.490
REMARK SMILES CCCCCCCCCCCCCC(=O)[O-]
REMARK SMILES IDX 8 1 9 2 10 3 11 4 12 5 13 6 14 7 15 8 16 9 7 10 6 11 5 12
REMARK SMILES IDX 4 13 3 14 2 15 1 16
REMARK H PARENT
REMARK Flexibility Score: inf
ROOT
ATOM      1  C   UNL     1      -9.003  15.665 -12.493  1.00  0.00     0.000 C 
ENDROOT
BRANCH   1   2
ATOM      2  C   UNL     1      -8.374  16.951 -13.044  1.00  0.00     0.000 C 
BRANCH   2   3
ATOM      3  C   UNL     1      -8.780  17.179 -14.507  1.00  0.00     0.000 C 
BRANCH   3   4
ATOM      4  C   UNL     1      -7.612  17.670 -15.377  1.00  0.00     0.000 C 
BRANCH   4   5
ATOM      5  C   UNL     1      -6.378  18.057 -14.548  1.00  0.00     0.006 C 
BRANCH   5   6
ATOM      6  C   UNL     1      -6.136  19.567 -14.601  1.00  0.00     0.053 C 
BRANCH   6   7
ATOM      7  C   UNL     1      -7.176  20.294 -13.809  1.00  0.00     0.041 C 
ATOM      8  O   UNL     1      -7.035  20.448 -12.567  1.00  0.00    -0.550 OA
ATOM      9  O   UNL     1      -8.278  20.846 -14.450  1.00  0.00    -0.550 OA
ENDBRANCH   6   7
ENDBRANCH   5   6
ENDBRANCH   4   5
ENDBRANCH   3   4
ENDBRANCH   2   3
ENDBRANCH   1   2
BRANCH   1  10
ATOM     10  C   UNL     1      -7.926  14.640 -12.120  1.00  0.00     0.000 C 
BRANCH  10  11
ATOM     11  C   UNL     1      -7.810  13.547 -13.189  1.00  0.00    -0.000 C 
BRANCH  11  12
ATOM     12  C   UNL     1      -6.838  13.966 -14.301  1.00  0.00    -0.000 C 
BRANCH  12  13
ATOM     13  C   UNL     1      -7.436  13.792 -15.707  1.00  0.00    -0.000 C 
BRANCH  13  14
ATOM     14  C   UNL     1      -8.968  13.642 -15.682  1.00  0.00    -0.000 C 
BRANCH  14  15
ATOM     15  C   UNL     1      -9.427  12.241 -16.118  1.00  0.00    -0.003 C 
ATOM     16  C   UNL     1     -10.949  12.095 -16.125  1.00  0.00     0.004 C 
ENDBRANCH  14  15
ENDBRANCH  13  14
ENDBRANCH  12  13
ENDBRANCH  11  12
ENDBRANCH  10  11
ENDBRANCH   1  10
TORSDOF 12
ENDMDL
MODEL 2
REMARK VINA RESULT:    -3.288      2.821      6.122
REMARK INTER + INTRA:          -7.084
REMARK INTER:                  -5.963
REMARK INTRA:                  -1.122
REMARK UNBOUND:                -1.490
REMARK SMILES CCCCCCCCCCCCCC(=O)[O-]
REMARK SMILES IDX 8 1 9 2 10 3 11 4 12 5 13 6 14 7 15 8 16 9 7 10 6 11 5 12
REMARK SMILES IDX 4 13 3 14 2 15 1 16
REMARK H PARENT
REMARK Flexibility Score: inf
ROOT
ATOM      1  C   UNL     1      -9.270  16.150 -12.596  1.00  0.00     0.000 C 
ENDROOT
BRANCH   1   2
ATOM      2  C   UNL     1      -8.068  15.299 -12.172  1.00  0.00     0.000 C 
BRANCH   2   3
ATOM      3  C   UNL     1      -8.126  13.905 -12.815  1.00  0.00     0.000 C 
BRANCH   3   4
ATOM      4  C   UNL     1      -6.822  13.529 -13.535  1.00  0.00     0.000 C 
BRANCH   4   5
ATOM      5  C   UNL     1      -6.948  13.607 -15.065  1.00  0.00     0.006 C 
BRANCH   5   6
ATOM      6  C   UNL     1      -8.025  12.645 -15.574  1.00  0.00     0.053 C 
BRANCH   6   7
ATOM      7  C   UNL     1      -9.289  13.385 -15.874  1.00  0.00     0.041 C 
ATOM      8  O   UNL     1      -9.258  14.619 -16.123  1.00  0.00    -0.550 OA
ATOM      9  O   UNL     1     -10.498  12.703 -15.929  1.00  0.00    -0.550 OA
ENDBRANCH   6   7
ENDBRANCH   5   6
ENDBRANCH   4   5
ENDBRANCH   3   4
ENDBRANCH   2   3
ENDBRANCH   1   2
BRANCH   1  10
ATOM     10  C   UNL     1      -8.815  17.480 -13.210  1.00  0.00     0.000 C 
BRANCH  10  11
ATOM     11  C   UNL     1      -7.797  17.249 -14.333  1.00  0.00    -0.000 C 
BRANCH  11  12
ATOM     12  C   UNL     1      -8.093  18.155 -15.537  1.00  0.00    -0.000 C 
BRANCH  12  13
ATOM     13  C   UNL     1      -7.299  19.471 -15.497  1.00  0.00    -0.000 C 
BRANCH  13  14
ATOM     14  C   UNL     1      -5.991  19.347 -14.696  1.00  0.00    -0.000 C 
BRANCH  14  15
ATOM     15  C   UNL     1      -5.875  20.411 -13.592  1.00  0.00    -0.003 C 
ATOM     16  C   UNL     1      -7.237  20.876 -13.077  1.00  0.00     0.004 C 
ENDBRANCH  14  15
ENDBRANCH  13  14
ENDBRANCH  12  13
ENDBRANCH  11  12
ENDBRANCH  10  11
ENDBRANCH   1  10
TORSDOF 12
ENDMDL
MODEL 3
REMARK VINA RESULT:    -3.194      0.867      1.454
REMARK INTER + INTRA:          -6.925
REMARK INTER:                  -5.503
REMARK INTRA:                  -1.422
REMARK UNBOUND:                -1.490
REMARK SMILES CCCCCCCCCCCCCC(=O)[O-]
REMARK SMILES IDX 8 1 9 2 10 3 11 4 12 5 13 6 14 7 15 8 16 9 7 10 6 11 5 12
REMARK SMILES IDX 4 13 3 14 2 15 1 16
REMARK H PARENT
REMARK Flexibility Score: inf
ROOT
ATOM      1  C   UNL     1      -8.325  16.754 -13.127  1.00  0.00     0.000 C 
ENDROOT
BRANCH   1   2
ATOM      2  C   UNL     1      -7.052  16.670 -13.978  1.00  0.00     0.000 C 
BRANCH   2   3
ATOM      3  C   UNL     1      -7.386  16.740 -15.475  1.00  0.00     0.000 C 
BRANCH   3   4
ATOM      4  C   UNL     1      -6.929  18.056 -16.124  1.00  0.00     0.000 C 
BRANCH   4   5
ATOM      5  C   UNL     1      -5.884  18.801 -15.279  1.00  0.00     0.006 C 
BRANCH   5   6
ATOM      6  C   UNL     1      -6.197  20.298 -15.219  1.00  0.00     0.053 C 
BRANCH   6   7
ATOM      7  C   UNL     1      -7.388  20.551 -14.350  1.00  0.00     0.041 C 
ATOM      8  O   UNL     1      -8.420  21.090 -14.831  1.00  0.00    -0.550 OA
ATOM      9  O   UNL     1      -7.379  20.146 -13.021  1.00  0.00    -0.550 OA
ENDBRANCH   6   7
ENDBRANCH   5   6
ENDBRANCH   4   5
ENDBRANCH   3   4
ENDBRANCH   2   3
ENDBRANCH   1   2
BRANCH   1  10
ATOM     10  C   UNL     1      -8.910  15.360 -12.871  1.00  0.00     0.000 C 
BRANCH  10  11
ATOM     11  C   UNL     1      -7.798  14.329 -12.641  1.00  0.00    -0.000 C 
BRANCH  11  12
ATOM     12  C   UNL     1      -8.028  13.072 -13.494  1.00  0.00    -0.000 C 
BRANCH  12  13
ATOM     13  C   UNL     1      -7.077  12.992 -14.699  1.00  0.00    -0.000 C 
BRANCH  13  14
ATOM     14  C   UNL     1      -7.827  12.837 -16.034  1.00  0.00    -0.000 C 
BRANCH  14  15
ATOM     15  C   UNL     1      -9.284  13.320 -15.948  1.00  0.00    -0.003 C 
ATOM     16  C   UNL     1     -10.285  12.166 -15.905  1.00  0.00     0.004 C 
ENDBRANCH  14  15
ENDBRANCH  13  14
ENDBRANCH  12  13
ENDBRANCH  11  12
ENDBRANCH  10  11
ENDBRANCH   1  10
TORSDOF 12
ENDMDL
MODEL 4
REMARK VINA RESULT:    -3.042      1.363      3.291
REMARK INTER + INTRA:          -6.667
REMARK INTER:                  -5.543
REMARK INTRA:                  -1.124
REMARK UNBOUND:                -1.490
REMARK SMILES CCCCCCCCCCCCCC(=O)[O-]
REMARK SMILES IDX 8 1 9 2 10 3 11 4 12 5 13 6 14 7 15 8 16 9 7 10 6 11 5 12
REMARK SMILES IDX 4 13 3 14 2 15 1 16
REMARK H PARENT
REMARK Flexibility Score: inf
ROOT
ATOM      1  C   UNL     1      -7.507  15.282 -15.383  1.00  0.00     0.000 C 
ENDROOT
BRANCH   1   2
ATOM      2  C   UNL     1      -7.958  16.546 -16.125  1.00  0.00     0.000 C 
BRANCH   2   3
ATOM      3  C   UNL     1      -7.007  17.718 -15.843  1.00  0.00     0.000 C 
BRANCH   3   4
ATOM      4  C   UNL     1      -7.735  19.069 -15.768  1.00  0.00     0.000 C 
BRANCH   4   5
ATOM      5  C   UNL     1      -6.769  20.264 -15.790  1.00  0.00     0.006 C 
BRANCH   5   6
ATOM      6  C   UNL     1      -5.876  20.267 -14.547  1.00  0.00     0.053 C 
BRANCH   6   7
ATOM      7  C   UNL     1      -6.644  20.733 -13.351  1.00  0.00     0.041 C 
ATOM      8  O   UNL     1      -7.835  21.124 -13.475  1.00  0.00    -0.550 OA
ATOM      9  O   UNL     1      -6.062  20.689 -12.090  1.00  0.00    -0.550 OA
ENDBRANCH   6   7
ENDBRANCH   5   6
ENDBRANCH   4   5
ENDBRANCH   3   4
ENDBRANCH   2   3
ENDBRANCH   1   2
BRANCH   1  10
ATOM     10  C   UNL     1      -8.474  14.119 -15.636  1.00  0.00     0.000 C 
BRANCH  10  11
ATOM     11  C   UNL     1      -8.602  13.228 -14.395  1.00  0.00    -0.000 C 
BRANCH  11  12
ATOM     12  C   UNL     1      -7.499  13.543 -13.375  1.00  0.00    -0.000 C 
BRANCH  12  13
ATOM     13  C   UNL     1      -8.060  14.024 -12.026  1.00  0.00    -0.000 C 
BRANCH  13  14
ATOM     14  C   UNL     1      -8.035  15.557 -11.890  1.00  0.00    -0.000 C 
BRANCH  14  15
ATOM     15  C   UNL     1      -9.353  16.208 -12.339  1.00  0.00    -0.003 C 
ATOM     16  C   UNL     1      -9.178  17.669 -12.751  1.00  0.00     0.004 C 
ENDBRANCH  14  15
ENDBRANCH  13  14
ENDBRANCH  12  13
ENDBRANCH  11  12
ENDBRANCH  10  11
ENDBRANCH   1  10
TORSDOF 12
ENDMDL
MODEL 5
REMARK VINA RESULT:    -2.883      2.214      3.880
REMARK INTER + INTRA:          -6.395
REMARK INTER:                  -4.945
REMARK INTRA:                  -1.450
REMARK UNBOUND:                -1.490
REMARK SMILES CCCCCCCCCCCCCC(=O)[O-]
REMARK SMILES IDX 8 1 9 2 10 3 11 4 12 5 13 6 14 7 15 8 16 9 7 10 6 11 5 12
REMARK SMILES IDX 4 13 3 14 2 15 1 16
REMARK H PARENT
REMARK Flexibility Score: inf
ROOT
ATOM      1  C   UNL     1      -6.872  18.443 -16.093  1.00  0.00     0.000 C 
ENDROOT
BRANCH   1   2
ATOM      2  C   UNL     1      -6.520  19.912 -15.833  1.00  0.00     0.000 C 
BRANCH   2   3
ATOM      3  C   UNL     1      -6.420  20.196 -14.327  1.00  0.00     0.000 C 
BRANCH   3   4
ATOM      4  C   UNL     1      -7.795  20.387 -13.667  1.00  0.00     0.000 C 
BRANCH   4   5
ATOM      5  C   UNL     1      -8.173  19.222 -12.739  1.00  0.00     0.006 C 
BRANCH   5   6
ATOM      6  C   UNL     1      -9.165  18.278 -13.425  1.00  0.00     0.053 C 
BRANCH   6   7
ATOM      7  C   UNL     1      -9.213  16.962 -12.715  1.00  0.00     0.041 C 
ATOM      8  O   UNL     1     -10.260  16.263 -12.746  1.00  0.00    -0.550 OA
ATOM      9  O   UNL     1      -8.085  16.484 -12.060  1.00  0.00    -0.550 OA
ENDBRANCH   6   7
ENDBRANCH   5   6
ENDBRANCH   4   5
ENDBRANCH   3   4
ENDBRANCH   2   3
ENDBRANCH   1   2
BRANCH   1  10
ATOM     10  C   UNL     1      -5.883  17.506 -15.390  1.00  0.00     0.000 C 
BRANCH  10  11
ATOM     11  C   UNL     1      -6.397  16.061 -15.391  1.00  0.00    -0.000 C 
BRANCH  11  12
ATOM     12  C   UNL     1      -7.742  15.956 -16.125  1.00  0.00    -0.000 C 
BRANCH  12  13
ATOM     13  C   UNL     1      -8.640  14.843 -15.558  1.00  0.00    -0.000 C 
BRANCH  13  14
ATOM     14  C   UNL     1      -7.938  13.474 -15.533  1.00  0.00    -0.000 C 
BRANCH  14  15
ATOM     15  C   UNL     1      -7.933  12.843 -14.131  1.00  0.00    -0.003 C 
ATOM     16  C   UNL     1      -6.538  12.808 -13.506  1.00  0.00     0.004 C 
ENDBRANCH  14  15
ENDBRANCH  13  14
ENDBRANCH  12  13
ENDBRANCH  11  12
ENDBRANCH  10  11
ENDBRANCH   1  10
TORSDOF 12
ENDMDL
MODEL 6
REMARK VINA RESULT:    -2.855      2.834      5.678
REMARK INTER + INTRA:          -6.348
REMARK INTER:                  -4.714
REMARK INTRA:                  -1.635
REMARK UNBOUND:                -1.490
REMARK SMILES CCCCCCCCCCCCCC(=O)[O-]
REMARK SMILES IDX 8 1 9 2 10 3 11 4 12 5 13 6 14 7 15 8 16 9 7 10 6 11 5 12
REMARK SMILES IDX 4 13 3 14 2 15 1 16
REMARK H PARENT
REMARK Flexibility Score: inf
ROOT
ATOM      1  C   UNL     1      -7.944  15.565 -12.315  1.00  0.00     0.000 C 
ENDROOT
BRANCH   1   2
ATOM      2  C   UNL     1      -7.044  14.763 -13.262  1.00  0.00     0.000 C 
BRANCH   2   3
ATOM      3  C   UNL     1      -7.066  13.269 -12.908  1.00  0.00     0.000 C 
BRANCH   3   4
ATOM      4  C   UNL     1      -6.643  12.374 -14.084  1.00  0.00     0.000 C 
BRANCH   4   5
ATOM      5  C   UNL     1      -6.883  13.039 -15.449  1.00  0.00     0.006 C 
BRANCH   5   6
ATOM      6  C   UNL     1      -8.132  12.465 -16.124  1.00  0.00     0.053 C 
BRANCH   6   7
ATOM      7  C   UNL     1      -9.317  13.340 -15.865  1.00  0.00     0.041 C 
ATOM      8  O   UNL     1     -10.371  12.852 -15.379  1.00  0.00    -0.550 OA
ATOM      9  O   UNL     1      -9.241  14.705 -16.114  1.00  0.00    -0.550 OA
ENDBRANCH   6   7
ENDBRANCH   5   6
ENDBRANCH   4   5
ENDBRANCH   3   4
ENDBRANCH   2   3
ENDBRANCH   1   2
BRANCH   1  10
ATOM     10  C   UNL     1      -9.397  15.566 -12.805  1.00  0.00     0.000 C 
BRANCH  10  11
ATOM     11  C   UNL     1      -9.881  16.992 -13.093  1.00  0.00    -0.000 C 
BRANCH  11  12
ATOM     12  C   UNL     1      -8.891  18.030 -12.545  1.00  0.00    -0.000 C 
BRANCH  12  13
ATOM     13  C   UNL     1      -8.341  18.959 -13.640  1.00  0.00    -0.000 C 
BRANCH  13  14
ATOM     14  C   UNL     1      -8.380  18.314 -15.036  1.00  0.00    -0.000 C 
BRANCH  14  15
ATOM     15  C   UNL     1      -7.043  17.660 -15.418  1.00  0.00    -0.003 C 
ATOM     16  C   UNL     1      -5.875  18.167 -14.572  1.00  0.00     0.004 C 
ENDBRANCH  14  15
ENDBRANCH  13  14
ENDBRANCH  12  13
ENDBRANCH  11  12
ENDBRANCH  10  11
ENDBRANCH   1  10
TORSDOF 12
ENDMDL
MODEL 7
REMARK VINA RESULT:    -2.793      1.326      3.138
REMARK INTER + INTRA:          -6.243
REMARK INTER:                  -4.871
REMARK INTRA:                  -1.373
REMARK UNBOUND:                -1.490
REMARK SMILES CCCCCCCCCCCCCC(=O)[O-]
REMARK SMILES IDX 8 1 9 2 10 3 11 4 12 5 13 6 14 7 15 8 16 9 7 10 6 11 5 12
REMARK SMILES IDX 4 13 3 14 2 15 1 16
REMARK H PARENT
REMARK Flexibility Score: inf
ROOT
ATOM      1  C   UNL     1      -9.221  13.855 -15.130  1.00  0.00     0.000 C 
ENDROOT
BRANCH   1   2
ATOM      2  C   UNL     1      -8.231  14.472 -16.125  1.00  0.00     0.000 C 
BRANCH   2   3
ATOM      3  C   UNL     1      -7.885  15.916 -15.734  1.00  0.00     0.000 C 
BRANCH   3   4
ATOM      4  C   UNL     1      -6.432  16.070 -15.256  1.00  0.00     0.000 C 
BRANCH   4   5
ATOM      5  C   UNL     1      -6.257  17.227 -14.261  1.00  0.00     0.006 C 
BRANCH   5   6
ATOM      6  C   UNL     1      -6.231  18.574 -14.987  1.00  0.00     0.053 C 
BRANCH   6   7
ATOM      7  C   UNL     1      -7.243  19.506 -14.400  1.00  0.00     0.041 C 
ATOM      8  O   UNL     1      -7.124  19.904 -13.211  1.00  0.00    -0.550 OA
ATOM      9  O   UNL     1      -8.293  19.975 -15.181  1.00  0.00    -0.550 OA
ENDBRANCH   6   7
ENDBRANCH   5   6
ENDBRANCH   4   5
ENDBRANCH   3   4
ENDBRANCH   2   3
ENDBRANCH   1   2
BRANCH   1  10
ATOM     10  C   UNL     1      -8.671  12.550 -14.542  1.00  0.00     0.000 C 
BRANCH  10  11
ATOM     11  C   UNL     1      -7.145  12.607 -14.405  1.00  0.00    -0.000 C 
BRANCH  11  12
ATOM     12  C   UNL     1      -6.733  13.392 -13.151  1.00  0.00    -0.000 C 
BRANCH  12  13
ATOM     13  C   UNL     1      -7.931  13.742 -12.252  1.00  0.00    -0.000 C 
BRANCH  13  14
ATOM     14  C   UNL     1      -7.992  15.240 -11.907  1.00  0.00    -0.000 C 
BRANCH  14  15
ATOM     15  C   UNL     1      -9.324  15.884 -12.322  1.00  0.00    -0.003 C 
ATOM     16  C   UNL     1      -9.281  17.412 -12.273  1.00  0.00     0.004 C 
ENDBRANCH  14  15
ENDBRANCH  13  14
ENDBRANCH  12  13
ENDBRANCH  11  12
ENDBRANCH  10  11
ENDBRANCH   1  10
TORSDOF 12
ENDMDL
MODEL 8
REMARK VINA RESULT:    -2.618      3.002      6.213
REMARK INTER + INTRA:          -5.946
REMARK INTER:                  -4.673
REMARK INTRA:                  -1.273
REMARK UNBOUND:                -1.490
REMARK SMILES CCCCCCCCCCCCCC(=O)[O-]
REMARK SMILES IDX 8 1 9 2 10 3 11 4 12 5 13 6 14 7 15 8 16 9 7 10 6 11 5 12
REMARK SMILES IDX 4 13 3 14 2 15 1 16
REMARK H PARENT
REMARK Flexibility Score: inf
ROOT
ATOM      1  C   UNL     1      -8.686  16.607 -14.884  1.00  0.00     0.000 C 
ENDROOT
BRANCH   1   2
ATOM      2  C   UNL     1      -8.912  17.019 -13.425  1.00  0.00     0.000 C 
BRANCH   2   3
ATOM      3  C   UNL     1      -9.167  15.791 -12.539  1.00  0.00     0.000 C 
BRANCH   3   4
ATOM      4  C   UNL     1      -7.903  14.942 -12.325  1.00  0.00     0.000 C 
BRANCH   4   5
ATOM      5  C   UNL     1      -7.924  13.636 -13.134  1.00  0.00     0.006 C 
BRANCH   5   6
ATOM      6  C   UNL     1      -6.598  13.426 -13.869  1.00  0.00     0.053 C 
BRANCH   6   7
ATOM      7  C   UNL     1      -6.806  13.470 -15.349  1.00  0.00     0.041 C 
ATOM      8  O   UNL     1      -6.098  14.225 -16.067  1.00  0.00    -0.550 OA
ATOM      9  O   UNL     1      -7.748  12.639 -15.944  1.00  0.00    -0.550 OA
ENDBRANCH   6   7
ENDBRANCH   5   6
ENDBRANCH   4   5
ENDBRANCH   3   4
ENDBRANCH   2   3
ENDBRANCH   1   2
BRANCH   1  10
ATOM     10  C   UNL     1      -8.065  17.753 -15.691  1.00  0.00     0.000 C 
BRANCH  10  11
ATOM     11  C   UNL     1      -6.542  17.602 -15.782  1.00  0.00    -0.000 C 
BRANCH  11  12
ATOM     12  C   UNL     1      -5.875  18.943 -16.122  1.00  0.00    -0.000 C 
BRANCH  12  13
ATOM     13  C   UNL     1      -6.805  20.144 -15.884  1.00  0.00    -0.000 C 
BRANCH  13  14
ATOM     14  C   UNL     1      -6.247  21.125 -14.838  1.00  0.00    -0.000 C 
BRANCH  14  15
ATOM     15  C   UNL     1      -6.368  20.585 -13.404  1.00  0.00    -0.003 C 
ATOM     16  C   UNL     1      -7.816  20.308 -12.998  1.00  0.00     0.004 C 
ENDBRANCH  14  15
ENDBRANCH  13  14
ENDBRANCH  12  13
ENDBRANCH  11  12
ENDBRANCH  10  11
ENDBRANCH   1  10
TORSDOF 12
ENDMDL
