MODEL 1
REMARK VINA RESULT:    -5.244      0.000      0.000
REMARK INTER + INTRA:          -5.136
REMARK INTER:                  -5.704
REMARK INTRA:                   0.569
REMARK UNBOUND:                 0.569
REMARK SMILES CC1(C)CC[C@@]2(C(=O)[O-])CC[C@@]3(C)C(=CC[C@H]4[C@]5(C)CC[C@@H](O)C(C)(C)[C@@H]5CC[C@]43C)[C@@H]2C1
REMARK SMILES IDX 6 1 5 2 10 3 32 4 4 5 11 6 14 7 33 8 2 9 12 10 15 11 1 12
REMARK SMILES IDX 3 13 13 14 30 15 16 16 17 17 29 18 31 19 18 20 28 21 27 22
REMARK SMILES IDX 20 23 19 24 24 25 21 26 22 27 25 28 26 29 7 30 8 31 9 32
REMARK SMILES IDX 23 33
REMARK H PARENT 23 34
REMARK Flexibility Score: inf
ROOT
ATOM      1  C   UNL     1      16.515  21.416   3.256  1.00  0.00     0.017 C 
ATOM      2  C   UNL     1      15.707  22.327   2.296  1.00  0.00     0.014 C 
ATOM      3  C   UNL     1      17.782  22.183   3.687  1.00  0.00     0.014 C 
ATOM      4  C   UNL     1      15.668  21.135   4.534  1.00  0.00     0.028 C 
ATOM      5  C   UNL     1      14.367  21.694   1.893  1.00  0.00     0.007 C 
ATOM      6  C   UNL     1      18.645  21.366   4.656  1.00  0.00     0.013 C 
ATOM      7  C   UNL     1      16.496  20.361   5.594  1.00  0.00    -0.064 C 
ATOM      8  C   UNL     1      14.282  20.522   4.162  1.00  0.00     0.015 C 
ATOM      9  C   UNL     1      13.479  21.346   3.112  1.00  0.00    -0.035 C 
ATOM     10  C   UNL     1      17.907  20.863   5.957  1.00  0.00    -0.006 C 
ATOM     11  C   UNL     1      15.888  19.467   6.398  1.00  0.00    -0.027 C 
ATOM     12  C   UNL     1      12.289  20.493   2.622  1.00  0.00     0.011 C 
ATOM     13  C   UNL     1      12.904  22.635   3.750  1.00  0.00     0.011 C 
ATOM     14  C   UNL     1      17.696  22.115   6.867  1.00  0.00     0.017 C 
ATOM     15  C   UNL     1      18.780  19.727   6.726  1.00  0.00    -0.020 C 
ATOM     16  C   UNL     1      16.547  18.703   7.499  1.00  0.00     0.032 C 
ATOM     17  C   UNL     1      17.973  19.144   7.957  1.00  0.00     0.006 C 
ATOM     18  C   UNL     1      19.104  18.510   5.809  1.00  0.00     0.008 C 
ATOM     19  C   UNL     1      20.131  20.375   7.168  1.00  0.00     0.012 C 
ATOM     20  C   UNL     1      18.676  17.953   8.783  1.00  0.00    -0.025 C 
ATOM     21  C   UNL     1      19.863  17.378   6.516  1.00  0.00     0.005 C 
ATOM     22  C   UNL     1      19.197  16.808   7.806  1.00  0.00     0.003 C 
ATOM     23  C   UNL     1      19.811  18.503   9.731  1.00  0.00     0.010 C 
ATOM     24  C   UNL     1      17.603  17.346   9.753  1.00  0.00     0.012 C 
ATOM     25  C   UNL     1      20.081  15.666   8.519  1.00  0.00    -0.006 C 
ATOM     26  C   UNL     1      21.125  17.710   9.696  1.00  0.00     0.033 C 
ATOM     27  C   UNL     1      20.878  16.200   9.774  1.00  0.00     0.120 C 
ATOM     28  C   UNL     1      19.165  14.475   8.923  1.00  0.00     0.014 C 
ATOM     29  C   UNL     1      21.125  15.030   7.549  1.00  0.00     0.014 C 
ENDROOT
BRANCH   1  30
ATOM     30  C   UNL     1      16.923  20.145   2.511  1.00  0.00     0.048 C 
ATOM     31  O   UNL     1      18.036  20.056   1.926  1.00  0.00    -0.550 OA
ATOM     32  O   UNL     1      16.032  19.081   2.414  1.00  0.00    -0.550 OA
ENDBRANCH   1  30
BRANCH  27  33
ATOM     33  O   UNL     1      20.227  15.884  10.981  1.00  0.00    -0.393 OA
ATOM     34  H   UNL     1      20.930  15.630  11.637  1.00  0.00     0.210 HD
ENDBRANCH  27  33
TORSDOF 2
ENDMDL
MODEL 2
REMARK VINA RESULT:    -5.096      2.728      3.544
REMARK INTER + INTRA:          -4.974
REMARK INTER:                  -5.167
REMARK INTRA:                   0.192
REMARK UNBOUND:                 0.569
REMARK SMILES CC1(C)CC[C@@]2(C(=O)[O-])CC[C@@]3(C)C(=CC[C@H]4[C@]5(C)CC[C@@H](O)C(C)(C)[C@@H]5CC[C@]43C)[C@@H]2C1
REMARK SMILES IDX 6 1 5 2 10 3 32 4 4 5 11 6 14 7 33 8 2 9 12 10 15 11 1 12
REMARK SMILES IDX 3 13 13 14 30 15 16 16 17 17 29 18 31 19 18 20 28 21 27 22
REMARK SMILES IDX 20 23 19 24 24 25 21 26 22 27 25 28 26 29 7 30 8 31 9 32
REMARK SMILES IDX 23 33
REMARK H PARENT 23 34
REMARK Flexibility Score: inf
ROOT
ATOM      1  C   UNL     1      16.501  21.037   4.305  1.00  0.00     0.017 C 
ATOM      2  C   UNL     1      15.814  22.417   4.140  1.00  0.00     0.014 C 
ATOM      3  C   UNL     1      17.426  21.108   5.536  1.00  0.00     0.014 C 
ATOM      4  C   UNL     1      15.418  19.952   4.583  1.00  0.00     0.028 C 
ATOM      5  C   UNL     1      14.786  22.416   3.000  1.00  0.00     0.007 C 
ATOM      6  C   UNL     1      18.143  19.778   5.794  1.00  0.00     0.013 C 
ATOM      7  C   UNL     1      16.069  18.582   4.914  1.00  0.00    -0.064 C 
ATOM      8  C   UNL     1      14.333  19.944   3.461  1.00  0.00     0.015 C 
ATOM      9  C   UNL     1      13.693  21.336   3.181  1.00  0.00    -0.035 C 
ATOM     10  C   UNL     1      17.201  18.524   5.958  1.00  0.00    -0.006 C 
ATOM     11  C   UNL     1      15.460  17.441   4.538  1.00  0.00    -0.027 C 
ATOM     12  C   UNL     1      12.873  21.247   1.875  1.00  0.00     0.011 C 
ATOM     13  C   UNL     1      12.722  21.732   4.320  1.00  0.00     0.011 C 
ATOM     14  C   UNL     1      16.508  18.661   7.351  1.00  0.00     0.017 C 
ATOM     15  C   UNL     1      18.045  17.136   5.864  1.00  0.00    -0.020 C 
ATOM     16  C   UNL     1      15.939  16.061   4.845  1.00  0.00     0.032 C 
ATOM     17  C   UNL     1      17.072  15.888   5.906  1.00  0.00     0.006 C 
ATOM     18  C   UNL     1      18.840  17.018   4.530  1.00  0.00     0.008 C 
ATOM     19  C   UNL     1      19.070  17.117   7.043  1.00  0.00     0.012 C 
ATOM     20  C   UNL     1      17.753  14.437   5.750  1.00  0.00    -0.025 C 
ATOM     21  C   UNL     1      19.592  15.691   4.365  1.00  0.00     0.005 C 
ATOM     22  C   UNL     1      18.734  14.395   4.497  1.00  0.00     0.003 C 
ATOM     23  C   UNL     1      18.458  13.986   7.087  1.00  0.00     0.010 C 
ATOM     24  C   UNL     1      16.603  13.391   5.532  1.00  0.00     0.012 C 
ATOM     25  C   UNL     1      19.605  13.047   4.369  1.00  0.00    -0.006 C 
ATOM     26  C   UNL     1      19.864  13.398   6.912  1.00  0.00     0.033 C 
ATOM     27  C   UNL     1      19.913  12.379   5.767  1.00  0.00     0.120 C 
ATOM     28  C   UNL     1      18.872  12.040   3.436  1.00  0.00     0.014 C 
ATOM     29  C   UNL     1      20.976  13.289   3.664  1.00  0.00     0.014 C 
ENDROOT
BRANCH   1  30
ATOM     30  C   UNL     1      17.340  20.746   3.060  1.00  0.00     0.048 C 
ATOM     31  O   UNL     1      17.225  19.659   2.431  1.00  0.00    -0.550 OA
ATOM     32  O   UNL     1      18.300  21.661   2.640  1.00  0.00    -0.550 OA
ENDBRANCH   1  30
BRANCH  27  33
ATOM     33  O   UNL     1      19.040  11.310   6.042  1.00  0.00    -0.393 OA
ATOM     34  H   UNL     1      19.477  10.742   6.730  1.00  0.00     0.210 HD
ENDBRANCH  27  33
TORSDOF 2
ENDMDL
MODEL 3
REMARK VINA RESULT:    -5.005      4.859      7.101
REMARK INTER + INTRA:          -4.875
REMARK INTER:                  -5.069
REMARK INTRA:                   0.194
REMARK UNBOUND:                 0.569
REMARK SMILES CC1(C)CC[C@@]2(C(=O)[O-])CC[C@@]3(C)C(=CC[C@H]4[C@]5(C)CC[C@@H](O)C(C)(C)[C@@H]5CC[C@]43C)[C@@H]2C1
REMARK SMILES IDX 6 1 5 2 10 3 32 4 4 5 11 6 14 7 33 8 2 9 12 10 15 11 1 12
REMARK SMILES IDX 3 13 13 14 30 15 16 16 17 17 29 18 31 19 18 20 28 21 27 22
REMARK SMILES IDX 20 23 19 24 24 25 21 26 22 27 25 28 26 29 7 30 8 31 9 32
REMARK SMILES IDX 23 33
REMARK H PARENT 23 34
REMARK Flexibility Score: inf
ROOT
ATOM      1  C   UNL     1      17.599  19.381   6.160  1.00  0.00     0.017 C 
ATOM      2  C   UNL     1      18.294  20.571   6.870  1.00  0.00     0.014 C 
ATOM      3  C   UNL     1      18.272  19.186   4.786  1.00  0.00     0.014 C 
ATOM      4  C   UNL     1      17.825  18.082   6.992  1.00  0.00     0.028 C 
ATOM      5  C   UNL     1      17.766  20.779   8.296  1.00  0.00     0.007 C 
ATOM      6  C   UNL     1      17.661  18.013   4.009  1.00  0.00     0.013 C 
ATOM      7  C   UNL     1      17.285  16.835   6.240  1.00  0.00    -0.064 C 
ATOM      8  C   UNL     1      17.331  18.266   8.461  1.00  0.00     0.015 C 
ATOM      9  C   UNL     1      17.917  19.517   9.180  1.00  0.00    -0.035 C 
ATOM     10  C   UNL     1      17.668  16.627   4.763  1.00  0.00    -0.006 C 
ATOM     11  C   UNL     1      16.760  15.808   6.936  1.00  0.00    -0.027 C 
ATOM     12  C   UNL     1      17.134  19.743  10.491  1.00  0.00     0.011 C 
ATOM     13  C   UNL     1      19.403  19.290   9.552  1.00  0.00     0.011 C 
ATOM     14  C   UNL     1      19.148  16.126   4.769  1.00  0.00     0.017 C 
ATOM     15  C   UNL     1      16.695  15.552   4.026  1.00  0.00    -0.020 C 
ATOM     16  C   UNL     1      16.265  14.527   6.350  1.00  0.00     0.032 C 
ATOM     17  C   UNL     1      16.616  14.209   4.861  1.00  0.00     0.006 C 
ATOM     18  C   UNL     1      15.231  16.069   3.903  1.00  0.00     0.008 C 
ATOM     19  C   UNL     1      17.248  15.311   2.585  1.00  0.00     0.012 C 
ATOM     20  C   UNL     1      15.631  13.066   4.298  1.00  0.00    -0.025 C 
ATOM     21  C   UNL     1      14.259  15.056   3.281  1.00  0.00     0.005 C 
ATOM     22  C   UNL     1      14.190  13.660   3.973  1.00  0.00     0.003 C 
ATOM     23  C   UNL     1      16.269  12.313   3.067  1.00  0.00     0.010 C 
ATOM     24  C   UNL     1      15.490  11.967   5.410  1.00  0.00     0.012 C 
ATOM     25  C   UNL     1      13.193  12.637   3.228  1.00  0.00    -0.006 C 
ATOM     26  C   UNL     1      15.324  12.106   1.875  1.00  0.00     0.033 C 
ATOM     27  C   UNL     1      13.952  11.589   2.323  1.00  0.00     0.120 C 
ATOM     28  C   UNL     1      12.313  11.907   4.284  1.00  0.00     0.014 C 
ATOM     29  C   UNL     1      12.162  13.371   2.315  1.00  0.00     0.014 C 
ENDROOT
BRANCH   1  30
ATOM     30  C   UNL     1      16.122  19.716   5.955  1.00  0.00     0.048 C 
ATOM     31  O   UNL     1      15.211  18.938   6.350  1.00  0.00    -0.550 OA
ATOM     32  O   UNL     1      15.760  20.867   5.262  1.00  0.00    -0.550 OA
ENDBRANCH   1  30
BRANCH  27  33
ATOM     33  O   UNL     1      14.097  10.346   2.968  1.00  0.00    -0.393 OA
ATOM     34  H   UNL     1      13.191  10.056   3.256  1.00  0.00     0.210 HD
ENDBRANCH  27  33
TORSDOF 2
ENDMDL
MODEL 4
REMARK VINA RESULT:    -4.867      3.458      7.372
REMARK INTER + INTRA:          -4.725
REMARK INTER:                  -4.923
REMARK INTRA:                   0.198
REMARK UNBOUND:                 0.569
REMARK SMILES CC1(C)CC[C@@]2(C(=O)[O-])CC[C@@]3(C)C(=CC[C@H]4[C@]5(C)CC[C@@H](O)C(C)(C)[C@@H]5CC[C@]43C)[C@@H]2C1
REMARK SMILES IDX 6 1 5 2 10 3 32 4 4 5 11 6 14 7 33 8 2 9 12 10 15 11 1 12
REMARK SMILES IDX 3 13 13 14 30 15 16 16 17 17 29 18 31 19 18 20 28 21 27 22
REMARK SMILES IDX 20 23 19 24 24 25 21 26 22 27 25 28 26 29 7 30 8 31 9 32
REMARK SMILES IDX 23 33
REMARK H PARENT 23 34
REMARK Flexibility Score: inf
ROOT
ATOM      1  C   UNL     1      16.516  13.528   5.298  1.00  0.00     0.017 C 
ATOM      2  C   UNL     1      16.493  11.979   5.234  1.00  0.00     0.014 C 
ATOM      3  C   UNL     1      15.860  13.961   6.625  1.00  0.00     0.014 C 
ATOM      4  C   UNL     1      17.994  14.021   5.312  1.00  0.00     0.028 C 
ATOM      5  C   UNL     1      17.224  11.442   3.996  1.00  0.00     0.007 C 
ATOM      6  C   UNL     1      15.849  15.486   6.789  1.00  0.00     0.013 C 
ATOM      7  C   UNL     1      18.070  15.555   5.537  1.00  0.00    -0.064 C 
ATOM      8  C   UNL     1      18.781  13.466   4.084  1.00  0.00     0.015 C 
ATOM      9  C   UNL     1      18.694  11.921   3.914  1.00  0.00    -0.035 C 
ATOM     10  C   UNL     1      17.259  16.186   6.684  1.00  0.00    -0.006 C 
ATOM     11  C   UNL     1      19.050  16.271   4.952  1.00  0.00    -0.027 C 
ATOM     12  C   UNL     1      19.252  11.546   2.524  1.00  0.00     0.011 C 
ATOM     13  C   UNL     1      19.558  11.202   4.978  1.00  0.00     0.011 C 
ATOM     14  C   UNL     1      18.031  15.839   7.997  1.00  0.00     0.017 C 
ATOM     15  C   UNL     1      17.105  17.796   6.510  1.00  0.00    -0.020 C 
ATOM     16  C   UNL     1      19.280  17.735   5.132  1.00  0.00     0.032 C 
ATOM     17  C   UNL     1      18.520  18.469   6.282  1.00  0.00     0.006 C 
ATOM     18  C   UNL     1      16.244  18.175   5.269  1.00  0.00     0.008 C 
ATOM     19  C   UNL     1      16.392  18.352   7.784  1.00  0.00     0.012 C 
ATOM     20  C   UNL     1      18.529  20.058   6.020  1.00  0.00    -0.025 C 
ATOM     21  C   UNL     1      16.134  19.686   5.021  1.00  0.00     0.005 C 
ATOM     22  C   UNL     1      17.482  20.459   4.890  1.00  0.00     0.003 C 
ATOM     23  C   UNL     1      18.313  20.863   7.360  1.00  0.00     0.010 C 
ATOM     24  C   UNL     1      19.971  20.454   5.543  1.00  0.00     0.012 C 
ATOM     25  C   UNL     1      17.282  22.044   4.690  1.00  0.00    -0.006 C 
ATOM     26  C   UNL     1      17.299  22.011   7.269  1.00  0.00     0.033 C 
ATOM     27  C   UNL     1      17.522  22.866   6.016  1.00  0.00     0.120 C 
ATOM     28  C   UNL     1      18.225  22.549   3.559  1.00  0.00     0.014 C 
ATOM     29  C   UNL     1      15.852  22.403   4.179  1.00  0.00     0.014 C 
ENDROOT
BRANCH   1  30
ATOM     30  C   UNL     1      15.706  14.086   4.128  1.00  0.00     0.048 C 
ATOM     31  O   UNL     1      16.173  14.984   3.375  1.00  0.00    -0.550 OA
ATOM     32  O   UNL     1      14.400  13.653   3.917  1.00  0.00    -0.550 OA
ENDBRANCH   1  30
BRANCH  27  33
ATOM     33  O   UNL     1      18.806  23.440   6.053  1.00  0.00    -0.393 OA
ATOM     34  H   UNL     1      18.688  24.426   6.098  1.00  0.00     0.210 HD
ENDBRANCH  27  33
TORSDOF 2
ENDMDL
MODEL 5
REMARK VINA RESULT:    -4.854      4.628      6.378
REMARK INTER + INTRA:          -4.711
REMARK INTER:                  -4.901
REMARK INTRA:                   0.190
REMARK UNBOUND:                 0.569
REMARK SMILES CC1(C)CC[C@@]2(C(=O)[O-])CC[C@@]3(C)C(=CC[C@H]4[C@]5(C)CC[C@@H](O)C(C)(C)[C@@H]5CC[C@]43C)[C@@H]2C1
REMARK SMILES IDX 6 1 5 2 10 3 32 4 4 5 11 6 14 7 33 8 2 9 12 10 15 11 1 12
REMARK SMILES IDX 3 13 13 14 30 15 16 16 17 17 29 18 31 19 18 20 28 21 27 22
REMARK SMILES IDX 20 23 19 24 24 25 21 26 22 27 25 28 26 29 7 30 8 31 9 32
REMARK SMILES IDX 23 33
REMARK H PARENT 23 34
REMARK Flexibility Score: inf
ROOT
ATOM      1  C   UNL     1      17.938  18.946   6.516  1.00  0.00     0.017 C 
ATOM      2  C   UNL     1      18.132  20.445   6.860  1.00  0.00     0.014 C 
ATOM      3  C   UNL     1      17.413  18.231   7.777  1.00  0.00     0.014 C 
ATOM      4  C   UNL     1      16.855  18.809   5.403  1.00  0.00     0.028 C 
ATOM      5  C   UNL     1      18.552  21.268   5.634  1.00  0.00     0.007 C 
ATOM      6  C   UNL     1      17.172  16.737   7.531  1.00  0.00     0.013 C 
ATOM      7  C   UNL     1      16.510  17.319   5.138  1.00  0.00    -0.064 C 
ATOM      8  C   UNL     1      17.230  19.662   4.150  1.00  0.00     0.015 C 
ATOM      9  C   UNL     1      17.545  21.154   4.463  1.00  0.00    -0.035 C 
ATOM     10  C   UNL     1      16.204  16.397   6.333  1.00  0.00    -0.006 C 
ATOM     11  C   UNL     1      16.182  16.917   3.895  1.00  0.00    -0.027 C 
ATOM     12  C   UNL     1      18.178  21.797   3.211  1.00  0.00     0.011 C 
ATOM     13  C   UNL     1      16.247  21.933   4.787  1.00  0.00     0.011 C 
ATOM     14  C   UNL     1      14.760  16.767   6.802  1.00  0.00     0.017 C 
ATOM     15  C   UNL     1      16.297  14.824   5.930  1.00  0.00    -0.020 C 
ATOM     16  C   UNL     1      15.768  15.535   3.511  1.00  0.00     0.032 C 
ATOM     17  C   UNL     1      15.415  14.525   4.649  1.00  0.00     0.006 C 
ATOM     18  C   UNL     1      17.748  14.394   5.562  1.00  0.00     0.008 C 
ATOM     19  C   UNL     1      15.837  13.983   7.163  1.00  0.00     0.012 C 
ATOM     20  C   UNL     1      15.458  13.019   4.078  1.00  0.00    -0.025 C 
ATOM     21  C   UNL     1      17.871  12.934   5.102  1.00  0.00     0.005 C 
ATOM     22  C   UNL     1      16.958  12.513   3.909  1.00  0.00     0.003 C 
ATOM     23  C   UNL     1      14.585  12.045   4.960  1.00  0.00     0.010 C 
ATOM     24  C   UNL     1      14.760  13.021   2.673  1.00  0.00     0.012 C 
ATOM     25  C   UNL     1      17.103  10.956   3.525  1.00  0.00    -0.006 C 
ATOM     26  C   UNL     1      15.257  10.711   5.310  1.00  0.00     0.033 C 
ATOM     27  C   UNL     1      15.921  10.072   4.084  1.00  0.00     0.120 C 
ATOM     28  C   UNL     1      17.208  10.809   1.979  1.00  0.00     0.014 C 
ATOM     29  C   UNL     1      18.432  10.334   4.056  1.00  0.00     0.014 C 
ENDROOT
BRANCH   1  30
ATOM     30  C   UNL     1      19.287  18.346   6.121  1.00  0.00     0.048 C 
ATOM     31  O   UNL     1      19.454  17.784   5.004  1.00  0.00    -0.550 OA
ATOM     32  O   UNL     1      20.343  18.355   7.027  1.00  0.00    -0.550 OA
ENDBRANCH   1  30
BRANCH  27  33
ATOM     33  O   UNL     1      14.950   9.810   3.099  1.00  0.00    -0.393 OA
ATOM     34  H   UNL     1      14.533   8.935   3.321  1.00  0.00     0.210 HD
ENDBRANCH  27  33
TORSDOF 2
ENDMDL
MODEL 6
REMARK VINA RESULT:    -4.620      3.805      6.040
REMARK INTER + INTRA:          -4.456
REMARK INTER:                  -4.646
REMARK INTRA:                   0.189
REMARK UNBOUND:                 0.569
REMARK SMILES CC1(C)CC[C@@]2(C(=O)[O-])CC[C@@]3(C)C(=CC[C@H]4[C@]5(C)CC[C@@H](O)C(C)(C)[C@@H]5CC[C@]43C)[C@@H]2C1
REMARK SMILES IDX 6 1 5 2 10 3 32 4 4 5 11 6 14 7 33 8 2 9 12 10 15 11 1 12
REMARK SMILES IDX 3 13 13 14 30 15 16 16 17 17 29 18 31 19 18 20 28 21 27 22
REMARK SMILES IDX 20 23 19 24 24 25 21 26 22 27 25 28 26 29 7 30 8 31 9 32
REMARK SMILES IDX 23 33
REMARK H PARENT 23 34
REMARK Flexibility Score: inf
ROOT
ATOM      1  C   UNL     1      17.610  19.454   7.444  1.00  0.00     0.017 C 
ATOM      2  C   UNL     1      17.386  20.932   7.858  1.00  0.00     0.014 C 
ATOM      3  C   UNL     1      16.603  18.583   8.222  1.00  0.00     0.014 C 
ATOM      4  C   UNL     1      17.307  19.295   5.924  1.00  0.00     0.028 C 
ATOM      5  C   UNL     1      18.272  21.896   7.056  1.00  0.00     0.007 C 
ATOM      6  C   UNL     1      16.735  17.097   7.865  1.00  0.00     0.013 C 
ATOM      7  C   UNL     1      17.360  17.803   5.496  1.00  0.00    -0.064 C 
ATOM      8  C   UNL     1      18.164  20.285   5.075  1.00  0.00     0.015 C 
ATOM      9  C   UNL     1      18.059  21.771   5.528  1.00  0.00    -0.035 C 
ATOM     10  C   UNL     1      16.600  16.756   6.331  1.00  0.00    -0.006 C 
ATOM     11  C   UNL     1      17.795  17.474   4.264  1.00  0.00    -0.027 C 
ATOM     12  C   UNL     1      19.162  22.582   4.814  1.00  0.00     0.011 C 
ATOM     13  C   UNL     1      16.692  22.374   5.120  1.00  0.00     0.011 C 
ATOM     14  C   UNL     1      15.092  16.926   5.963  1.00  0.00     0.017 C 
ATOM     15  C   UNL     1      17.106  15.242   6.019  1.00  0.00    -0.020 C 
ATOM     16  C   UNL     1      17.839  16.092   3.700  1.00  0.00     0.032 C 
ATOM     17  C   UNL     1      17.082  14.958   4.461  1.00  0.00     0.006 C 
ATOM     18  C   UNL     1      18.576  15.005   6.476  1.00  0.00     0.008 C 
ATOM     19  C   UNL     1      16.187  14.255   6.806  1.00  0.00     0.012 C 
ATOM     20  C   UNL     1      17.625  13.519   3.982  1.00  0.00    -0.025 C 
ATOM     21  C   UNL     1      19.122  13.611   6.133  1.00  0.00     0.005 C 
ATOM     22  C   UNL     1      19.042  13.195   4.632  1.00  0.00     0.003 C 
ATOM     23  C   UNL     1      16.562  12.385   4.249  1.00  0.00     0.010 C 
ATOM     24  C   UNL     1      17.779  13.563   2.420  1.00  0.00     0.012 C 
ATOM     25  C   UNL     1      19.580  11.701   4.364  1.00  0.00    -0.006 C 
ATOM     26  C   UNL     1      17.125  11.107   4.886  1.00  0.00     0.033 C 
ATOM     27  C   UNL     1      18.414  10.649   4.194  1.00  0.00     0.120 C 
ATOM     28  C   UNL     1      20.502  11.697   3.110  1.00  0.00     0.014 C 
ATOM     29  C   UNL     1      20.500  11.185   5.513  1.00  0.00     0.014 C 
ENDROOT
BRANCH   1  30
ATOM     30  C   UNL     1      19.032  19.040   7.821  1.00  0.00     0.048 C 
ATOM     31  O   UNL     1      19.840  18.605   6.957  1.00  0.00    -0.550 OA
ATOM     32  O   UNL     1      19.437  19.078   9.152  1.00  0.00    -0.550 OA
ENDBRANCH   1  30
BRANCH  27  33
ATOM     33  O   UNL     1      18.155  10.367   2.840  1.00  0.00    -0.393 OA
ATOM     34  H   UNL     1      18.441  11.159   2.313  1.00  0.00     0.210 HD
ENDBRANCH  27  33
TORSDOF 2
ENDMDL
MODEL 7
REMARK VINA RESULT:    -4.467      4.984      7.052
REMARK INTER + INTRA:          -4.290
REMARK INTER:                  -4.524
REMARK INTRA:                   0.235
REMARK UNBOUND:                 0.569
REMARK SMILES CC1(C)CC[C@@]2(C(=O)[O-])CC[C@@]3(C)C(=CC[C@H]4[C@]5(C)CC[C@@H](O)C(C)(C)[C@@H]5CC[C@]43C)[C@@H]2C1
REMARK SMILES IDX 6 1 5 2 10 3 32 4 4 5 11 6 14 7 33 8 2 9 12 10 15 11 1 12
REMARK SMILES IDX 3 13 13 14 30 15 16 16 17 17 29 18 31 19 18 20 28 21 27 22
REMARK SMILES IDX 20 23 19 24 24 25 21 26 22 27 25 28 26 29 7 30 8 31 9 32
REMARK SMILES IDX 23 33
REMARK H PARENT 23 34
REMARK Flexibility Score: inf
ROOT
ATOM      1  C   UNL     1      16.042  18.533   5.745  1.00  0.00     0.017 C 
ATOM      2  C   UNL     1      16.043  20.045   6.090  1.00  0.00     0.014 C 
ATOM      3  C   UNL     1      15.057  18.311   4.580  1.00  0.00     0.014 C 
ATOM      4  C   UNL     1      17.462  18.115   5.259  1.00  0.00     0.028 C 
ATOM      5  C   UNL     1      17.077  20.388   7.172  1.00  0.00     0.007 C 
ATOM      6  C   UNL     1      14.997  16.839   4.152  1.00  0.00     0.013 C 
ATOM      7  C   UNL     1      17.469  16.648   4.749  1.00  0.00    -0.064 C 
ATOM      8  C   UNL     1      18.547  18.480   6.319  1.00  0.00     0.015 C 
ATOM      9  C   UNL     1      18.514  19.967   6.782  1.00  0.00    -0.035 C 
ATOM     10  C   UNL     1      16.381  16.194   3.758  1.00  0.00    -0.006 C 
ATOM     11  C   UNL     1      18.566  15.884   4.920  1.00  0.00    -0.027 C 
ATOM     12  C   UNL     1      19.421  20.117   8.022  1.00  0.00     0.011 C 
ATOM     13  C   UNL     1      19.071  20.898   5.676  1.00  0.00     0.011 C 
ATOM     14  C   UNL     1      16.782  16.797   2.375  1.00  0.00     0.017 C 
ATOM     15  C   UNL     1      16.272  14.573   3.674  1.00  0.00    -0.020 C 
ATOM     16  C   UNL     1      18.733  14.486   4.426  1.00  0.00     0.032 C 
ATOM     17  C   UNL     1      17.693  13.932   3.401  1.00  0.00     0.006 C 
ATOM     18  C   UNL     1      15.767  13.946   5.007  1.00  0.00     0.008 C 
ATOM     19  C   UNL     1      15.246  14.218   2.551  1.00  0.00     0.012 C 
ATOM     20  C   UNL     1      17.765  12.324   3.361  1.00  0.00    -0.025 C 
ATOM     21  C   UNL     1      15.719  12.411   4.999  1.00  0.00     0.005 C 
ATOM     22  C   UNL     1      17.051  11.687   4.634  1.00  0.00     0.003 C 
ATOM     23  C   UNL     1      17.200  11.757   2.002  1.00  0.00     0.010 C 
ATOM     24  C   UNL     1      19.280  11.913   3.368  1.00  0.00     0.012 C 
ATOM     25  C   UNL     1      16.904  10.084   4.590  1.00  0.00    -0.006 C 
ATOM     26  C   UNL     1      16.241  10.567   2.145  1.00  0.00     0.033 C 
ATOM     27  C   UNL     1      16.782   9.517   3.121  1.00  0.00     0.120 C 
ATOM     28  C   UNL     1      18.110   9.430   5.327  1.00  0.00     0.014 C 
ATOM     29  C   UNL     1      15.657   9.579   5.381  1.00  0.00     0.014 C 
ENDROOT
BRANCH   1  30
ATOM     30  C   UNL     1      15.566  17.744   6.965  1.00  0.00     0.048 C 
ATOM     31  O   UNL     1      16.348  16.990   7.604  1.00  0.00    -0.550 OA
ATOM     32  O   UNL     1      14.230  17.799   7.350  1.00  0.00    -0.550 OA
ENDBRANCH   1  30
BRANCH  27  33
ATOM     33  O   UNL     1      18.009   9.014   2.649  1.00  0.00    -0.393 OA
ATOM     34  H   UNL     1      17.900   8.834   1.678  1.00  0.00     0.210 HD
ENDBRANCH  27  33
TORSDOF 2
ENDMDL
MODEL 8
REMARK VINA RESULT:    -4.396      4.248      6.784
REMARK INTER + INTRA:          -4.213
REMARK INTER:                  -4.475
REMARK INTRA:                   0.263
REMARK UNBOUND:                 0.569
REMARK SMILES CC1(C)CC[C@@]2(C(=O)[O-])CC[C@@]3(C)C(=CC[C@H]4[C@]5(C)CC[C@@H](O)C(C)(C)[C@@H]5CC[C@]43C)[C@@H]2C1
REMARK SMILES IDX 6 1 5 2 10 3 32 4 4 5 11 6 14 7 33 8 2 9 12 10 15 11 1 12
REMARK SMILES IDX 3 13 13 14 30 15 16 16 17 17 29 18 31 19 18 20 28 21 27 22
REMARK SMILES IDX 20 23 19 24 24 25 21 26 22 27 25 28 26 29 7 30 8 31 9 32
REMARK SMILES IDX 23 33
REMARK H PARENT 23 34
REMARK Flexibility Score: inf
ROOT
ATOM      1  C   UNL     1      16.687  18.160   6.458  1.00  0.00     0.017 C 
ATOM      2  C   UNL     1      16.391  19.607   6.929  1.00  0.00     0.014 C 
ATOM      3  C   UNL     1      16.590  18.128   4.920  1.00  0.00     0.014 C 
ATOM      4  C   UNL     1      18.144  17.777   6.854  1.00  0.00     0.028 C 
ATOM      5  C   UNL     1      16.569  19.768   8.445  1.00  0.00     0.007 C 
ATOM      6  C   UNL     1      16.884  16.734   4.354  1.00  0.00     0.013 C 
ATOM      7  C   UNL     1      18.541  16.397   6.264  1.00  0.00    -0.064 C 
ATOM      8  C   UNL     1      18.375  17.962   8.387  1.00  0.00     0.015 C 
ATOM      9  C   UNL     1      17.984  19.369   8.927  1.00  0.00    -0.035 C 
ATOM     10  C   UNL     1      18.273  16.114   4.774  1.00  0.00    -0.006 C 
ATOM     11  C   UNL     1      19.373  15.588   6.949  1.00  0.00    -0.027 C 
ATOM     12  C   UNL     1      17.979  19.320  10.470  1.00  0.00     0.011 C 
ATOM     13  C   UNL     1      19.024  20.431   8.494  1.00  0.00     0.011 C 
ATOM     14  C   UNL     1      19.371  16.896   3.984  1.00  0.00     0.017 C 
ATOM     15  C   UNL     1      18.335  14.525   4.434  1.00  0.00    -0.020 C 
ATOM     16  C   UNL     1      19.886  14.269   6.474  1.00  0.00     0.032 C 
ATOM     17  C   UNL     1      19.683  13.893   4.972  1.00  0.00     0.006 C 
ATOM     18  C   UNL     1      17.184  13.729   5.118  1.00  0.00     0.008 C 
ATOM     19  C   UNL     1      18.189  14.357   2.887  1.00  0.00     0.012 C 
ATOM     20  C   UNL     1      19.864  12.304   4.776  1.00  0.00    -0.025 C 
ATOM     21  C   UNL     1      17.246  12.213   4.886  1.00  0.00     0.005 C 
ATOM     22  C   UNL     1      18.580  11.513   5.287  1.00  0.00     0.003 C 
ATOM     23  C   UNL     1      20.241  11.948   3.286  1.00  0.00     0.010 C 
ATOM     24  C   UNL     1      21.108  11.857   5.622  1.00  0.00     0.012 C 
ATOM     25  C   UNL     1      18.587   9.936   4.960  1.00  0.00    -0.006 C 
ATOM     26  C   UNL     1      19.457  10.776   2.681  1.00  0.00     0.033 C 
ATOM     27  C   UNL     1      19.386   9.585   3.644  1.00  0.00     0.120 C 
ATOM     28  C   UNL     1      19.168   9.155   6.174  1.00  0.00     0.014 C 
ATOM     29  C   UNL     1      17.148   9.358   4.791  1.00  0.00     0.014 C 
ENDROOT
BRANCH   1  30
ATOM     30  C   UNL     1      15.635  17.219   7.049  1.00  0.00     0.048 C 
ATOM     31  O   UNL     1      15.946  16.075   7.478  1.00  0.00    -0.550 OA
ATOM     32  O   UNL     1      14.295  17.594   7.059  1.00  0.00    -0.550 OA
ENDBRANCH   1  30
BRANCH  27  33
ATOM     33  O   UNL     1      20.685   9.122   3.926  1.00  0.00    -0.393 OA
ATOM     34  H   UNL     1      20.621   8.144   4.089  1.00  0.00     0.210 HD
ENDBRANCH  27  33
TORSDOF 2
ENDMDL
MODEL 9
REMARK VINA RESULT:    -4.355      4.054      7.624
REMARK INTER + INTRA:          -4.168
REMARK INTER:                  -4.385
REMARK INTRA:                   0.216
REMARK UNBOUND:                 0.569
REMARK SMILES CC1(C)CC[C@@]2(C(=O)[O-])CC[C@@]3(C)C(=CC[C@H]4[C@]5(C)CC[C@@H](O)C(C)(C)[C@@H]5CC[C@]43C)[C@@H]2C1
REMARK SMILES IDX 6 1 5 2 10 3 32 4 4 5 11 6 14 7 33 8 2 9 12 10 15 11 1 12
REMARK SMILES IDX 3 13 13 14 30 15 16 16 17 17 29 18 31 19 18 20 28 21 27 22
REMARK SMILES IDX 20 23 19 24 24 25 21 26 22 27 25 28 26 29 7 30 8 31 9 32
REMARK SMILES IDX 23 33
REMARK H PARENT 23 34
REMARK Flexibility Score: inf
ROOT
ATOM      1  C   UNL     1      17.598  12.333   4.034  1.00  0.00     0.017 C 
ATOM      2  C   UNL     1      17.487  10.893   3.471  1.00  0.00     0.014 C 
ATOM      3  C   UNL     1      16.178  12.929   4.106  1.00  0.00     0.014 C 
ATOM      4  C   UNL     1      18.167  12.277   5.484  1.00  0.00     0.028 C 
ATOM      5  C   UNL     1      18.842  10.171   3.461  1.00  0.00     0.007 C 
ATOM      6  C   UNL     1      16.181  14.355   4.670  1.00  0.00     0.013 C 
ATOM      7  C   UNL     1      18.147  13.680   6.148  1.00  0.00    -0.064 C 
ATOM      8  C   UNL     1      19.531  11.518   5.520  1.00  0.00     0.015 C 
ATOM      9  C   UNL     1      19.496  10.107   4.863  1.00  0.00    -0.035 C 
ATOM     10  C   UNL     1      16.857  14.520   6.085  1.00  0.00    -0.006 C 
ATOM     11  C   UNL     1      19.116  14.024   7.018  1.00  0.00    -0.027 C 
ATOM     12  C   UNL     1      20.946   9.602   4.702  1.00  0.00     0.011 C 
ATOM     13  C   UNL     1      18.744   9.100   5.766  1.00  0.00     0.011 C 
ATOM     14  C   UNL     1      15.881  13.885   7.127  1.00  0.00     0.017 C 
ATOM     15  C   UNL     1      17.132  16.086   6.427  1.00  0.00    -0.020 C 
ATOM     16  C   UNL     1      19.184  15.309   7.775  1.00  0.00     0.032 C 
ATOM     17  C   UNL     1      17.921  16.227   7.792  1.00  0.00     0.006 C 
ATOM     18  C   UNL     1      18.014  16.780   5.347  1.00  0.00     0.008 C 
ATOM     19  C   UNL     1      15.753  16.818   6.472  1.00  0.00     0.012 C 
ATOM     20  C   UNL     1      18.334  17.720   8.236  1.00  0.00    -0.025 C 
ATOM     21  C   UNL     1      18.362  18.240   5.666  1.00  0.00     0.005 C 
ATOM     22  C   UNL     1      19.049  18.496   7.043  1.00  0.00     0.003 C 
ATOM     23  C   UNL     1      17.099  18.509   8.819  1.00  0.00     0.010 C 
ATOM     24  C   UNL     1      19.336  17.600   9.438  1.00  0.00     0.012 C 
ATOM     25  C   UNL     1      19.328  20.056   7.327  1.00  0.00    -0.006 C 
ATOM     26  C   UNL     1      16.939  19.942   8.292  1.00  0.00     0.033 C 
ATOM     27  C   UNL     1      18.270  20.702   8.305  1.00  0.00     0.120 C 
ATOM     28  C   UNL     1      20.768  20.232   7.891  1.00  0.00     0.014 C 
ATOM     29  C   UNL     1      19.326  20.908   6.020  1.00  0.00     0.014 C 
ENDROOT
BRANCH   1  30
ATOM     30  C   UNL     1      18.451  13.175   3.084  1.00  0.00     0.048 C 
ATOM     31  O   UNL     1      18.122  13.339   1.878  1.00  0.00    -0.550 OA
ATOM     32  O   UNL     1      19.650  13.723   3.528  1.00  0.00    -0.550 OA
ENDBRANCH   1  30
BRANCH  27  33
ATOM     33  O   UNL     1      18.757  20.789   9.623  1.00  0.00    -0.393 OA
ATOM     34  H   UNL     1      19.545  21.395   9.607  1.00  0.00     0.210 HD
ENDBRANCH  27  33
TORSDOF 2
ENDMDL
