MODEL 1
REMARK VINA RESULT:    -6.009      0.000      0.000
REMARK INTER + INTRA:         -16.722
REMARK INTER:                 -13.034
REMARK INTRA:                  -3.688
REMARK UNBOUND:                -3.688
REMARK SMILES CCCCCCCCCCCCCCCCCCCCCC(=O)[O-]
REMARK SMILES IDX 12 1 11 2 10 3 9 4 8 5 7 6 6 7 5 8 4 9 3 10 2 11 1 12 13 13
REMARK SMILES IDX 14 14 15 15 16 16 17 17 18 18 19 19 20 20 21 21 22 22 23 23
REMARK SMILES IDX 24 24
REMARK H PARENT
REMARK Flexibility Score: inf
ROOT
ATOM      1  C   UNL     1       9.756  72.020  -2.118  1.00  0.00     0.000 C 
ENDROOT
BRANCH   1   2
ATOM      2  C   UNL     1      10.737  72.903  -1.332  1.00  0.00     0.000 C 
BRANCH   2   3
ATOM      3  C   UNL     1      12.109  72.222  -1.205  1.00  0.00     0.000 C 
BRANCH   3   4
ATOM      4  C   UNL     1      13.277  73.221  -1.272  1.00  0.00    -0.000 C 
BRANCH   4   5
ATOM      5  C   UNL     1      14.419  72.735  -2.181  1.00  0.00    -0.000 C 
BRANCH   5   6
ATOM      6  C   UNL     1      14.507  73.522  -3.501  1.00  0.00    -0.000 C 
BRANCH   6   7
ATOM      7  C   UNL     1      13.201  73.572  -4.321  1.00  0.00    -0.000 C 
BRANCH   7   8
ATOM      8  C   UNL     1      12.597  74.978  -4.504  1.00  0.00    -0.000 C 
BRANCH   8   9
ATOM      9  C   UNL     1      13.339  76.110  -3.765  1.00  0.00    -0.000 C 
BRANCH   9  10
ATOM     10  C   UNL     1      12.680  76.571  -2.453  1.00  0.00    -0.000 C 
BRANCH  10  11
ATOM     11  C   UNL     1      11.174  76.273  -2.406  1.00  0.00    -0.003 C 
ATOM     12  C   UNL     1      10.399  77.455  -1.830  1.00  0.00     0.004 C 
ENDBRANCH  10  11
ENDBRANCH   9  10
ENDBRANCH   8   9
ENDBRANCH   7   8
ENDBRANCH   6   7
ENDBRANCH   5   6
ENDBRANCH   4   5
ENDBRANCH   3   4
ENDBRANCH   2   3
ENDBRANCH   1   2
BRANCH   1  13
ATOM     13  C   UNL     1      10.376  71.418  -3.393  1.00  0.00     0.000 C 
BRANCH  13  14
ATOM     14  C   UNL     1       9.442  71.380  -4.616  1.00  0.00     0.000 C 
BRANCH  14  15
ATOM     15  C   UNL     1      10.100  71.927  -5.891  1.00  0.00     0.000 C 
BRANCH  15  16
ATOM     16  C   UNL     1       9.793  73.421  -6.069  1.00  0.00     0.000 C 
BRANCH  16  17
ATOM     17  C   UNL     1       8.425  73.828  -5.491  1.00  0.00     0.000 C 
BRANCH  17  18
ATOM     18  C   UNL     1       8.454  75.022  -4.519  1.00  0.00     0.000 C 
BRANCH  18  19
ATOM     19  C   UNL     1       7.214  75.161  -3.617  1.00  0.00     0.000 C 
BRANCH  19  20
ATOM     20  C   UNL     1       7.493  74.876  -2.126  1.00  0.00     0.006 C 
BRANCH  20  21
ATOM     21  C   UNL     1       6.223  74.503  -1.350  1.00  0.00     0.053 C 
BRANCH  21  22
ATOM     22  C   UNL     1       5.987  75.471  -0.236  1.00  0.00     0.041 C 
ATOM     23  O   UNL     1       4.892  75.470   0.386  1.00  0.00    -0.550 OA
ATOM     24  O   UNL     1       6.961  76.408   0.091  1.00  0.00    -0.550 OA
ENDBRANCH  21  22
ENDBRANCH  20  21
ENDBRANCH  19  20
ENDBRANCH  18  19
ENDBRANCH  17  18
ENDBRANCH  16  17
ENDBRANCH  15  16
ENDBRANCH  14  15
ENDBRANCH  13  14
ENDBRANCH   1  13
TORSDOF 20
ENDMDL
MODEL 2
REMARK VINA RESULT:    -5.962      1.048      2.704
REMARK INTER + INTRA:         -16.621
REMARK INTER:                 -12.997
REMARK INTRA:                  -3.624
REMARK UNBOUND:                -3.688
REMARK SMILES CCCCCCCCCCCCCCCCCCCCCC(=O)[O-]
REMARK SMILES IDX 12 1 11 2 10 3 9 4 8 5 7 6 6 7 5 8 4 9 3 10 2 11 1 12 13 13
REMARK SMILES IDX 14 14 15 15 16 16 17 17 18 18 19 19 20 20 21 21 22 22 23 23
REMARK SMILES IDX 24 24
REMARK H PARENT
REMARK Flexibility Score: inf
ROOT
ATOM      1  C   UNL     1       9.318  71.805  -3.663  1.00  0.00     0.000 C 
ENDROOT
BRANCH   1   2
ATOM      2  C   UNL     1      10.157  71.062  -2.610  1.00  0.00     0.000 C 
BRANCH   2   3
ATOM      3  C   UNL     1      10.655  72.028  -1.524  1.00  0.00     0.000 C 
BRANCH   3   4
ATOM      4  C   UNL     1      10.231  73.484  -1.782  1.00  0.00    -0.000 C 
BRANCH   4   5
ATOM      5  C   UNL     1      10.914  74.477  -0.826  1.00  0.00    -0.000 C 
BRANCH   5   6
ATOM      6  C   UNL     1      11.736  75.548  -1.566  1.00  0.00    -0.000 C 
BRANCH   6   7
ATOM      7  C   UNL     1      13.266  75.391  -1.454  1.00  0.00    -0.000 C 
BRANCH   7   8
ATOM      8  C   UNL     1      13.748  74.010  -0.968  1.00  0.00    -0.000 C 
BRANCH   8   9
ATOM      9  C   UNL     1      14.000  72.976  -2.084  1.00  0.00    -0.000 C 
BRANCH   9  10
ATOM     10  C   UNL     1      14.170  73.569  -3.494  1.00  0.00    -0.000 C 
BRANCH  10  11
ATOM     11  C   UNL     1      12.967  73.291  -4.407  1.00  0.00    -0.003 C 
ATOM     12  C   UNL     1      12.606  74.524  -5.230  1.00  0.00     0.004 C 
ENDBRANCH  10  11
ENDBRANCH   9  10
ENDBRANCH   8   9
ENDBRANCH   7   8
ENDBRANCH   6   7
ENDBRANCH   5   6
ENDBRANCH   4   5
ENDBRANCH   3   4
ENDBRANCH   2   3
ENDBRANCH   1   2
BRANCH   1  13
ATOM     13  C   UNL     1       9.563  71.297  -5.095  1.00  0.00     0.000 C 
BRANCH  13  14
ATOM     14  C   UNL     1       9.678  72.398  -6.166  1.00  0.00     0.000 C 
BRANCH  14  15
ATOM     15  C   UNL     1       8.427  73.284  -6.252  1.00  0.00     0.000 C 
BRANCH  15  16
ATOM     16  C   UNL     1       8.799  74.769  -6.128  1.00  0.00     0.000 C 
BRANCH  16  17
ATOM     17  C   UNL     1       9.120  75.191  -4.682  1.00  0.00     0.000 C 
BRANCH  17  18
ATOM     18  C   UNL     1       8.030  76.029  -3.989  1.00  0.00     0.000 C 
BRANCH  18  19
ATOM     19  C   UNL     1       6.803  75.235  -3.504  1.00  0.00     0.000 C 
BRANCH  19  20
ATOM     20  C   UNL     1       7.057  74.421  -2.217  1.00  0.00     0.006 C 
BRANCH  20  21
ATOM     21  C   UNL     1       5.829  74.377  -1.298  1.00  0.00     0.053 C 
BRANCH  21  22
ATOM     22  C   UNL     1       5.946  75.406  -0.219  1.00  0.00     0.041 C 
ATOM     23  O   UNL     1       7.039  76.003  -0.027  1.00  0.00    -0.550 OA
ATOM     24  O   UNL     1       4.861  75.677   0.606  1.00  0.00    -0.550 OA
ENDBRANCH  21  22
ENDBRANCH  20  21
ENDBRANCH  19  20
ENDBRANCH  18  19
ENDBRANCH  17  18
ENDBRANCH  16  17
ENDBRANCH  15  16
ENDBRANCH  14  15
ENDBRANCH  13  14
ENDBRANCH   1  13
TORSDOF 20
ENDMDL
MODEL 3
REMARK VINA RESULT:    -5.933      2.049      5.364
REMARK INTER + INTRA:         -16.558
REMARK INTER:                 -12.937
REMARK INTRA:                  -3.621
REMARK UNBOUND:                -3.688
REMARK SMILES CCCCCCCCCCCCCCCCCCCCCC(=O)[O-]
REMARK SMILES IDX 12 1 11 2 10 3 9 4 8 5 7 6 6 7 5 8 4 9 3 10 2 11 1 12 13 13
REMARK SMILES IDX 14 14 15 15 16 16 17 17 18 18 19 19 20 20 21 21 22 22 23 23
REMARK SMILES IDX 24 24
REMARK H PARENT
REMARK Flexibility Score: inf
ROOT
ATOM      1  C   UNL     1      10.503  71.487  -2.073  1.00  0.00     0.000 C 
ENDROOT
BRANCH   1   2
ATOM      2  C   UNL     1      10.729  71.721  -3.575  1.00  0.00     0.000 C 
BRANCH   2   3
ATOM      3  C   UNL     1       9.498  71.293  -4.389  1.00  0.00     0.000 C 
BRANCH   3   4
ATOM      4  C   UNL     1       9.588  71.712  -5.867  1.00  0.00    -0.000 C 
BRANCH   4   5
ATOM      5  C   UNL     1       9.957  73.195  -6.039  1.00  0.00    -0.000 C 
BRANCH   5   6
ATOM      6  C   UNL     1       8.723  74.109  -6.151  1.00  0.00    -0.000 C 
BRANCH   6   7
ATOM      7  C   UNL     1       8.609  75.190  -5.056  1.00  0.00    -0.000 C 
BRANCH   7   8
ATOM      8  C   UNL     1       9.701  75.139  -3.971  1.00  0.00    -0.000 C 
BRANCH   8   9
ATOM      9  C   UNL     1       9.179  75.048  -2.522  1.00  0.00    -0.000 C 
BRANCH   9  10
ATOM     10  C   UNL     1       8.005  74.074  -2.315  1.00  0.00    -0.000 C 
BRANCH  10  11
ATOM     11  C   UNL     1       6.681  74.793  -2.016  1.00  0.00    -0.003 C 
ATOM     12  C   UNL     1       6.747  75.532  -0.683  1.00  0.00     0.004 C 
ENDBRANCH  10  11
ENDBRANCH   9  10
ENDBRANCH   8   9
ENDBRANCH   7   8
ENDBRANCH   6   7
ENDBRANCH   5   6
ENDBRANCH   4   5
ENDBRANCH   3   4
ENDBRANCH   2   3
ENDBRANCH   1   2
BRANCH   1  13
ATOM     13  C   UNL     1      11.740  71.821  -1.219  1.00  0.00     0.000 C 
BRANCH  13  14
ATOM     14  C   UNL     1      12.464  73.124  -1.603  1.00  0.00     0.000 C 
BRANCH  14  15
ATOM     15  C   UNL     1      13.965  72.924  -1.857  1.00  0.00     0.000 C 
BRANCH  15  16
ATOM     16  C   UNL     1      14.333  73.310  -3.298  1.00  0.00     0.000 C 
BRANCH  16  17
ATOM     17  C   UNL     1      13.240  74.139  -3.997  1.00  0.00     0.000 C 
BRANCH  17  18
ATOM     18  C   UNL     1      13.721  75.462  -4.621  1.00  0.00     0.000 C 
BRANCH  18  19
ATOM     19  C   UNL     1      13.893  76.628  -3.630  1.00  0.00     0.000 C 
BRANCH  19  20
ATOM     20  C   UNL     1      12.701  76.808  -2.667  1.00  0.00     0.006 C 
BRANCH  20  21
ATOM     21  C   UNL     1      13.127  76.788  -1.193  1.00  0.00     0.053 C 
BRANCH  21  22
ATOM     22  C   UNL     1      12.638  78.015  -0.491  1.00  0.00     0.041 C 
ATOM     23  O   UNL     1      13.080  79.150  -0.813  1.00  0.00    -0.550 OA
ATOM     24  O   UNL     1      11.725  77.904   0.550  1.00  0.00    -0.550 OA
ENDBRANCH  21  22
ENDBRANCH  20  21
ENDBRANCH  19  20
ENDBRANCH  18  19
ENDBRANCH  17  18
ENDBRANCH  16  17
ENDBRANCH  15  16
ENDBRANCH  14  15
ENDBRANCH  13  14
ENDBRANCH   1  13
TORSDOF 20
ENDMDL
MODEL 4
REMARK VINA RESULT:    -5.908      1.069      2.858
REMARK INTER + INTRA:         -16.504
REMARK INTER:                 -12.582
REMARK INTRA:                  -3.922
REMARK UNBOUND:                -3.688
REMARK SMILES CCCCCCCCCCCCCCCCCCCCCC(=O)[O-]
REMARK SMILES IDX 12 1 11 2 10 3 9 4 8 5 7 6 6 7 5 8 4 9 3 10 2 11 1 12 13 13
REMARK SMILES IDX 14 14 15 15 16 16 17 17 18 18 19 19 20 20 21 21 22 22 23 23
REMARK SMILES IDX 24 24
REMARK H PARENT
REMARK Flexibility Score: inf
ROOT
ATOM      1  C   UNL     1       9.830  74.311  -5.994  1.00  0.00     0.000 C 
ENDROOT
BRANCH   1   2
ATOM      2  C   UNL     1      11.354  74.130  -5.923  1.00  0.00     0.000 C 
BRANCH   2   3
ATOM      3  C   UNL     1      11.918  74.714  -4.618  1.00  0.00     0.000 C 
BRANCH   3   4
ATOM      4  C   UNL     1      13.364  75.216  -4.768  1.00  0.00    -0.000 C 
BRANCH   4   5
ATOM      5  C   UNL     1      14.316  74.591  -3.734  1.00  0.00    -0.000 C 
BRANCH   5   6
ATOM      6  C   UNL     1      13.849  73.205  -3.253  1.00  0.00    -0.000 C 
BRANCH   6   7
ATOM      7  C   UNL     1      13.658  73.072  -1.729  1.00  0.00    -0.000 C 
BRANCH   7   8
ATOM      8  C   UNL     1      13.607  74.406  -0.957  1.00  0.00    -0.000 C 
BRANCH   8   9
ATOM      9  C   UNL     1      12.199  75.014  -0.796  1.00  0.00    -0.000 C 
BRANCH   9  10
ATOM     10  C   UNL     1      12.166  76.546  -0.647  1.00  0.00    -0.000 C 
BRANCH  10  11
ATOM     11  C   UNL     1      11.866  77.267  -1.970  1.00  0.00    -0.003 C 
ATOM     12  C   UNL     1      13.069  78.082  -2.436  1.00  0.00     0.004 C 
ENDBRANCH  10  11
ENDBRANCH   9  10
ENDBRANCH   8   9
ENDBRANCH   7   8
ENDBRANCH   6   7
ENDBRANCH   5   6
ENDBRANCH   4   5
ENDBRANCH   3   4
ENDBRANCH   2   3
ENDBRANCH   1   2
BRANCH   1  13
ATOM     13  C   UNL     1       9.070  72.978  -6.126  1.00  0.00     0.000 C 
BRANCH  13  14
ATOM     14  C   UNL     1       9.859  71.733  -5.680  1.00  0.00     0.000 C 
BRANCH  14  15
ATOM     15  C   UNL     1       9.459  71.238  -4.283  1.00  0.00     0.000 C 
BRANCH  15  16
ATOM     16  C   UNL     1      10.546  71.572  -3.251  1.00  0.00     0.000 C 
BRANCH  16  17
ATOM     17  C   UNL     1      10.055  72.527  -2.146  1.00  0.00     0.000 C 
BRANCH  17  18
ATOM     18  C   UNL     1       8.704  73.211  -2.427  1.00  0.00     0.000 C 
BRANCH  18  19
ATOM     19  C   UNL     1       8.755  74.747  -2.517  1.00  0.00     0.000 C 
BRANCH  19  20
ATOM     20  C   UNL     1       7.365  75.414  -2.585  1.00  0.00     0.006 C 
BRANCH  20  21
ATOM     21  C   UNL     1       6.325  74.698  -1.713  1.00  0.00     0.053 C 
BRANCH  21  22
ATOM     22  C   UNL     1       6.094  75.458  -0.446  1.00  0.00     0.041 C 
ATOM     23  O   UNL     1       7.006  76.181   0.037  1.00  0.00    -0.550 OA
ATOM     24  O   UNL     1       4.884  75.336   0.228  1.00  0.00    -0.550 OA
ENDBRANCH  21  22
ENDBRANCH  20  21
ENDBRANCH  19  20
ENDBRANCH  18  19
ENDBRANCH  17  18
ENDBRANCH  16  17
ENDBRANCH  15  16
ENDBRANCH  14  15
ENDBRANCH  13  14
ENDBRANCH   1  13
TORSDOF 20
ENDMDL
MODEL 5
REMARK VINA RESULT:    -5.822      1.892      3.337
REMARK INTER + INTRA:         -16.317
REMARK INTER:                 -12.611
REMARK INTRA:                  -3.706
REMARK UNBOUND:                -3.688
REMARK SMILES CCCCCCCCCCCCCCCCCCCCCC(=O)[O-]
REMARK SMILES IDX 12 1 11 2 10 3 9 4 8 5 7 6 6 7 5 8 4 9 3 10 2 11 1 12 13 13
REMARK SMILES IDX 14 14 15 15 16 16 17 17 18 18 19 19 20 20 21 21 22 22 23 23
REMARK SMILES IDX 24 24
REMARK H PARENT
REMARK Flexibility Score: inf
ROOT
ATOM      1  C   UNL     1       9.170  71.804  -5.818  1.00  0.00     0.000 C 
ENDROOT
BRANCH   1   2
ATOM      2  C   UNL     1      10.285  71.753  -4.763  1.00  0.00     0.000 C 
BRANCH   2   3
ATOM      3  C   UNL     1       9.778  71.119  -3.458  1.00  0.00     0.000 C 
BRANCH   3   4
ATOM      4  C   UNL     1      10.594  71.555  -2.229  1.00  0.00    -0.000 C 
BRANCH   4   5
ATOM      5  C   UNL     1      11.379  72.856  -2.472  1.00  0.00    -0.000 C 
BRANCH   5   6
ATOM      6  C   UNL     1      12.853  72.754  -2.040  1.00  0.00    -0.000 C 
BRANCH   6   7
ATOM      7  C   UNL     1      13.878  73.213  -3.097  1.00  0.00    -0.000 C 
BRANCH   7   8
ATOM      8  C   UNL     1      13.269  73.764  -4.401  1.00  0.00    -0.000 C 
BRANCH   8   9
ATOM      9  C   UNL     1      13.310  75.300  -4.544  1.00  0.00    -0.000 C 
BRANCH   9  10
ATOM     10  C   UNL     1      12.451  76.070  -3.526  1.00  0.00    -0.000 C 
BRANCH  10  11
ATOM     11  C   UNL     1      13.285  76.717  -2.411  1.00  0.00    -0.003 C 
ATOM     12  C   UNL     1      12.533  76.700  -1.083  1.00  0.00     0.004 C 
ENDBRANCH  10  11
ENDBRANCH   9  10
ENDBRANCH   8   9
ENDBRANCH   7   8
ENDBRANCH   6   7
ENDBRANCH   5   6
ENDBRANCH   4   5
ENDBRANCH   3   4
ENDBRANCH   2   3
ENDBRANCH   1   2
BRANCH   1  13
ATOM     13  C   UNL     1       8.798  73.240  -6.233  1.00  0.00     0.000 C 
BRANCH  13  14
ATOM     14  C   UNL     1       9.603  74.349  -5.531  1.00  0.00     0.000 C 
BRANCH  14  15
ATOM     15  C   UNL     1       8.729  75.272  -4.670  1.00  0.00     0.000 C 
BRANCH  15  16
ATOM     16  C   UNL     1       7.741  74.457  -3.822  1.00  0.00     0.000 C 
BRANCH  16  17
ATOM     17  C   UNL     1       8.100  74.446  -2.324  1.00  0.00     0.000 C 
BRANCH  17  18
ATOM     18  C   UNL     1       9.088  75.541  -1.881  1.00  0.00     0.000 C 
BRANCH  18  19
ATOM     19  C   UNL     1       8.845  76.108  -0.470  1.00  0.00     0.000 C 
BRANCH  19  20
ATOM     20  C   UNL     1       7.969  77.378  -0.450  1.00  0.00     0.006 C 
BRANCH  20  21
ATOM     21  C   UNL     1       8.033  78.157  -1.771  1.00  0.00     0.053 C 
BRANCH  21  22
ATOM     22  C   UNL     1       7.808  79.616  -1.529  1.00  0.00     0.041 C 
ATOM     23  O   UNL     1       8.213  80.468  -2.364  1.00  0.00    -0.550 OA
ATOM     24  O   UNL     1       7.189  80.040  -0.359  1.00  0.00    -0.550 OA
ENDBRANCH  21  22
ENDBRANCH  20  21
ENDBRANCH  19  20
ENDBRANCH  18  19
ENDBRANCH  17  18
ENDBRANCH  16  17
ENDBRANCH  15  16
ENDBRANCH  14  15
ENDBRANCH  13  14
ENDBRANCH   1  13
TORSDOF 20
ENDMDL
MODEL 6
REMARK VINA RESULT:    -5.819      2.527      5.320
REMARK INTER + INTRA:         -16.310
REMARK INTER:                 -13.080
REMARK INTRA:                  -3.230
REMARK UNBOUND:                -3.688
REMARK SMILES CCCCCCCCCCCCCCCCCCCCCC(=O)[O-]
REMARK SMILES IDX 12 1 11 2 10 3 9 4 8 5 7 6 6 7 5 8 4 9 3 10 2 11 1 12 13 13
REMARK SMILES IDX 14 14 15 15 16 16 17 17 18 18 19 19 20 20 21 21 22 22 23 23
REMARK SMILES IDX 24 24
REMARK H PARENT
REMARK Flexibility Score: inf
ROOT
ATOM      1  C   UNL     1      11.580  71.774  -1.340  1.00  0.00     0.000 C 
ENDROOT
BRANCH   1   2
ATOM      2  C   UNL     1      10.356  71.276  -2.124  1.00  0.00     0.000 C 
BRANCH   2   3
ATOM      3  C   UNL     1      10.089  72.166  -3.348  1.00  0.00     0.000 C 
BRANCH   3   4
ATOM      4  C   UNL     1       9.503  71.384  -4.535  1.00  0.00    -0.000 C 
BRANCH   4   5
ATOM      5  C   UNL     1       9.753  72.081  -5.884  1.00  0.00    -0.000 C 
BRANCH   5   6
ATOM      6  C   UNL     1       8.665  73.112  -6.234  1.00  0.00    -0.000 C 
BRANCH   6   7
ATOM      7  C   UNL     1       9.110  74.586  -6.148  1.00  0.00    -0.000 C 
BRANCH   7   8
ATOM      8  C   UNL     1       9.140  75.179  -4.726  1.00  0.00    -0.000 C 
BRANCH   8   9
ATOM      9  C   UNL     1       7.804  75.776  -4.238  1.00  0.00    -0.000 C 
BRANCH   9  10
ATOM     10  C   UNL     1       7.001  74.878  -3.281  1.00  0.00    -0.000 C 
BRANCH  10  11
ATOM     11  C   UNL     1       7.711  74.656  -1.937  1.00  0.00    -0.003 C 
ATOM     12  C   UNL     1       7.572  75.879  -1.035  1.00  0.00     0.004 C 
ENDBRANCH  10  11
ENDBRANCH   9  10
ENDBRANCH   8   9
ENDBRANCH   7   8
ENDBRANCH   6   7
ENDBRANCH   5   6
ENDBRANCH   4   5
ENDBRANCH   3   4
ENDBRANCH   2   3
ENDBRANCH   1   2
BRANCH   1  13
ATOM     13  C   UNL     1      12.239  73.013  -1.973  1.00  0.00     0.000 C 
BRANCH  13  14
ATOM     14  C   UNL     1      13.771  72.940  -2.107  1.00  0.00     0.000 C 
BRANCH  14  15
ATOM     15  C   UNL     1      14.271  73.335  -3.504  1.00  0.00     0.000 C 
BRANCH  15  16
ATOM     16  C   UNL     1      13.114  73.361  -4.514  1.00  0.00     0.000 C 
BRANCH  16  17
ATOM     17  C   UNL     1      12.819  74.772  -5.055  1.00  0.00     0.000 C 
BRANCH  17  18
ATOM     18  C   UNL     1      13.508  75.921  -4.296  1.00  0.00     0.000 C 
BRANCH  18  19
ATOM     19  C   UNL     1      12.645  76.601  -3.216  1.00  0.00     0.000 C 
BRANCH  19  20
ATOM     20  C   UNL     1      13.407  76.903  -1.909  1.00  0.00     0.006 C 
BRANCH  20  21
ATOM     21  C   UNL     1      12.613  76.502  -0.659  1.00  0.00     0.053 C 
BRANCH  21  22
ATOM     22  C   UNL     1      13.529  76.341   0.513  1.00  0.00     0.041 C 
ATOM     23  O   UNL     1      13.608  77.246   1.386  1.00  0.00    -0.550 OA
ATOM     24  O   UNL     1      14.330  75.211   0.621  1.00  0.00    -0.550 OA
ENDBRANCH  21  22
ENDBRANCH  20  21
ENDBRANCH  19  20
ENDBRANCH  18  19
ENDBRANCH  17  18
ENDBRANCH  16  17
ENDBRANCH  15  16
ENDBRANCH  14  15
ENDBRANCH  13  14
ENDBRANCH   1  13
TORSDOF 20
ENDMDL
MODEL 7
REMARK VINA RESULT:    -5.802      2.848      5.815
REMARK INTER + INTRA:         -16.274
REMARK INTER:                 -13.387
REMARK INTRA:                  -2.887
REMARK UNBOUND:                -3.688
REMARK SMILES CCCCCCCCCCCCCCCCCCCCCC(=O)[O-]
REMARK SMILES IDX 12 1 11 2 10 3 9 4 8 5 7 6 6 7 5 8 4 9 3 10 2 11 1 12 13 13
REMARK SMILES IDX 14 14 15 15 16 16 17 17 18 18 19 19 20 20 21 21 22 22 23 23
REMARK SMILES IDX 24 24
REMARK H PARENT
REMARK Flexibility Score: inf
ROOT
ATOM      1  C   UNL     1      11.507  71.914  -1.171  1.00  0.00     0.000 C 
ENDROOT
BRANCH   1   2
ATOM      2  C   UNL     1      10.395  71.330  -2.057  1.00  0.00     0.000 C 
BRANCH   2   3
ATOM      3  C   UNL     1      10.632  71.678  -3.535  1.00  0.00     0.000 C 
BRANCH   3   4
ATOM      4  C   UNL     1       9.436  71.312  -4.430  1.00  0.00    -0.000 C 
BRANCH   4   5
ATOM      5  C   UNL     1       9.629  71.763  -5.888  1.00  0.00    -0.000 C 
BRANCH   5   6
ATOM      6  C   UNL     1       8.699  72.926  -6.281  1.00  0.00    -0.000 C 
BRANCH   6   7
ATOM      7  C   UNL     1       9.303  74.334  -6.106  1.00  0.00    -0.000 C 
BRANCH   7   8
ATOM      8  C   UNL     1       8.681  75.177  -4.975  1.00  0.00    -0.000 C 
BRANCH   8   9
ATOM      9  C   UNL     1       9.313  74.973  -3.584  1.00  0.00    -0.000 C 
BRANCH   9  10
ATOM     10  C   UNL     1       8.336  74.512  -2.487  1.00  0.00    -0.000 C 
BRANCH  10  11
ATOM     11  C   UNL     1       6.948  75.157  -2.617  1.00  0.00    -0.003 C 
ATOM     12  C   UNL     1       5.978  74.581  -1.590  1.00  0.00     0.004 C 
ENDBRANCH  10  11
ENDBRANCH   9  10
ENDBRANCH   8   9
ENDBRANCH   7   8
ENDBRANCH   6   7
ENDBRANCH   5   6
ENDBRANCH   4   5
ENDBRANCH   3   4
ENDBRANCH   2   3
ENDBRANCH   1   2
BRANCH   1  13
ATOM     13  C   UNL     1      12.247  73.092  -1.830  1.00  0.00     0.000 C 
BRANCH  13  14
ATOM     14  C   UNL     1      13.764  72.894  -2.002  1.00  0.00     0.000 C 
BRANCH  14  15
ATOM     15  C   UNL     1      14.270  73.307  -3.391  1.00  0.00     0.000 C 
BRANCH  15  16
ATOM     16  C   UNL     1      13.112  73.376  -4.398  1.00  0.00     0.000 C 
BRANCH  16  17
ATOM     17  C   UNL     1      12.929  74.777  -5.010  1.00  0.00     0.000 C 
BRANCH  17  18
ATOM     18  C   UNL     1      13.557  75.930  -4.204  1.00  0.00     0.000 C 
BRANCH  18  19
ATOM     19  C   UNL     1      12.607  76.631  -3.216  1.00  0.00     0.000 C 
BRANCH  19  20
ATOM     20  C   UNL     1      13.298  77.693  -2.335  1.00  0.00     0.006 C 
BRANCH  20  21
ATOM     21  C   UNL     1      14.230  78.609  -3.140  1.00  0.00     0.053 C 
BRANCH  21  22
ATOM     22  C   UNL     1      13.964  80.044  -2.811  1.00  0.00     0.041 C 
ATOM     23  O   UNL     1      13.980  80.917  -3.719  1.00  0.00    -0.550 OA
ATOM     24  O   UNL     1      13.739  80.426  -1.494  1.00  0.00    -0.550 OA
ENDBRANCH  21  22
ENDBRANCH  20  21
ENDBRANCH  19  20
ENDBRANCH  18  19
ENDBRANCH  17  18
ENDBRANCH  16  17
ENDBRANCH  15  16
ENDBRANCH  14  15
ENDBRANCH  13  14
ENDBRANCH   1  13
TORSDOF 20
ENDMDL
MODEL 8
REMARK VINA RESULT:    -5.770      1.767      2.652
REMARK INTER + INTRA:         -16.204
REMARK INTER:                 -12.647
REMARK INTRA:                  -3.557
REMARK UNBOUND:                -3.688
REMARK SMILES CCCCCCCCCCCCCCCCCCCCCC(=O)[O-]
REMARK SMILES IDX 12 1 11 2 10 3 9 4 8 5 7 6 6 7 5 8 4 9 3 10 2 11 1 12 13 13
REMARK SMILES IDX 14 14 15 15 16 16 17 17 18 18 19 19 20 20 21 21 22 22 23 23
REMARK SMILES IDX 24 24
REMARK H PARENT
REMARK Flexibility Score: inf
ROOT
ATOM      1  C   UNL     1      11.366  72.671  -2.247  1.00  0.00     0.000 C 
ENDROOT
BRANCH   1   2
ATOM      2  C   UNL     1      12.715  72.503  -1.530  1.00  0.00     0.000 C 
BRANCH   2   3
ATOM      3  C   UNL     1      13.864  73.067  -2.382  1.00  0.00     0.000 C 
BRANCH   3   4
ATOM      4  C   UNL     1      13.445  73.346  -3.835  1.00  0.00    -0.000 C 
BRANCH   4   5
ATOM      5  C   UNL     1      13.696  74.805  -4.253  1.00  0.00    -0.000 C 
BRANCH   5   6
ATOM      6  C   UNL     1      12.533  75.742  -3.877  1.00  0.00    -0.000 C 
BRANCH   6   7
ATOM      7  C   UNL     1      12.812  76.688  -2.692  1.00  0.00    -0.000 C 
BRANCH   7   8
ATOM      8  C   UNL     1      12.157  76.278  -1.359  1.00  0.00    -0.000 C 
BRANCH   8   9
ATOM      9  C   UNL     1      13.137  76.069  -0.187  1.00  0.00    -0.000 C 
BRANCH   9  10
ATOM     10  C   UNL     1      12.834  76.904   1.070  1.00  0.00    -0.000 C 
BRANCH  10  11
ATOM     11  C   UNL     1      14.040  77.729   1.543  1.00  0.00    -0.003 C 
ATOM     12  C   UNL     1      14.789  78.334   0.359  1.00  0.00     0.004 C 
ENDBRANCH  10  11
ENDBRANCH   9  10
ENDBRANCH   8   9
ENDBRANCH   7   8
ENDBRANCH   6   7
ENDBRANCH   5   6
ENDBRANCH   4   5
ENDBRANCH   3   4
ENDBRANCH   2   3
ENDBRANCH   1   2
BRANCH   1  13
ATOM     13  C   UNL     1      10.510  71.392  -2.226  1.00  0.00     0.000 C 
BRANCH  13  14
ATOM     14  C   UNL     1       9.698  71.130  -3.509  1.00  0.00     0.000 C 
BRANCH  14  15
ATOM     15  C   UNL     1      10.297  71.812  -4.747  1.00  0.00     0.000 C 
BRANCH  15  16
ATOM     16  C   UNL     1       9.293  71.817  -5.910  1.00  0.00     0.000 C 
BRANCH  16  17
ATOM     17  C   UNL     1       8.771  73.226  -6.247  1.00  0.00     0.000 C 
BRANCH  17  18
ATOM     18  C   UNL     1       9.512  74.383  -5.552  1.00  0.00     0.000 C 
BRANCH  18  19
ATOM     19  C   UNL     1       8.631  75.290  -4.673  1.00  0.00     0.000 C 
BRANCH  19  20
ATOM     20  C   UNL     1       8.935  75.180  -3.164  1.00  0.00     0.006 C 
BRANCH  20  21
ATOM     21  C   UNL     1       7.960  74.246  -2.434  1.00  0.00     0.053 C 
BRANCH  21  22
ATOM     22  C   UNL     1       6.946  75.040  -1.673  1.00  0.00     0.041 C 
ATOM     23  O   UNL     1       5.790  74.578  -1.485  1.00  0.00    -0.550 OA
ATOM     24  O   UNL     1       7.263  76.311  -1.208  1.00  0.00    -0.550 OA
ENDBRANCH  21  22
ENDBRANCH  20  21
ENDBRANCH  19  20
ENDBRANCH  18  19
ENDBRANCH  17  18
ENDBRANCH  16  17
ENDBRANCH  15  16
ENDBRANCH  14  15
ENDBRANCH  13  14
ENDBRANCH   1  13
TORSDOF 20
ENDMDL
MODEL 9
REMARK VINA RESULT:    -5.766      2.600      5.724
REMARK INTER + INTRA:         -16.196
REMARK INTER:                 -12.151
REMARK INTRA:                  -4.045
REMARK UNBOUND:                -3.688
REMARK SMILES CCCCCCCCCCCCCCCCCCCCCC(=O)[O-]
REMARK SMILES IDX 12 1 11 2 10 3 9 4 8 5 7 6 6 7 5 8 4 9 3 10 2 11 1 12 13 13
REMARK SMILES IDX 14 14 15 15 16 16 17 17 18 18 19 19 20 20 21 21 22 22 23 23
REMARK SMILES IDX 24 24
REMARK H PARENT
REMARK Flexibility Score: inf
ROOT
ATOM      1  C   UNL     1       9.191  73.214  -2.145  1.00  0.00     0.000 C 
ENDROOT
BRANCH   1   2
ATOM      2  C   UNL     1      10.054  74.478  -2.280  1.00  0.00     0.000 C 
BRANCH   2   3
ATOM      3  C   UNL     1       9.428  75.467  -3.276  1.00  0.00     0.000 C 
BRANCH   3   4
ATOM      4  C   UNL     1       8.080  74.978  -3.832  1.00  0.00    -0.000 C 
BRANCH   4   5
ATOM      5  C   UNL     1       6.879  75.649  -3.144  1.00  0.00    -0.000 C 
BRANCH   5   6
ATOM      6  C   UNL     1       6.002  74.650  -2.366  1.00  0.00    -0.000 C 
BRANCH   6   7
ATOM      7  C   UNL     1       6.005  74.831  -0.835  1.00  0.00    -0.000 C 
BRANCH   7   8
ATOM      8  C   UNL     1       6.534  76.191  -0.338  1.00  0.00    -0.000 C 
BRANCH   8   9
ATOM      9  C   UNL     1       8.016  76.199   0.088  1.00  0.00    -0.000 C 
BRANCH   9  10
ATOM     10  C   UNL     1       8.796  77.469  -0.296  1.00  0.00    -0.000 C 
BRANCH  10  11
ATOM     11  C   UNL     1       7.883  78.606  -0.779  1.00  0.00    -0.003 C 
ATOM     12  C   UNL     1       8.282  79.075  -2.174  1.00  0.00     0.004 C 
ENDBRANCH  10  11
ENDBRANCH   9  10
ENDBRANCH   8   9
ENDBRANCH   7   8
ENDBRANCH   6   7
ENDBRANCH   5   6
ENDBRANCH   4   5
ENDBRANCH   3   4
ENDBRANCH   2   3
ENDBRANCH   1   2
BRANCH   1  13
ATOM     13  C   UNL     1      10.018  71.916  -2.156  1.00  0.00     0.000 C 
BRANCH  13  14
ATOM     14  C   UNL     1      10.357  71.372  -3.557  1.00  0.00     0.000 C 
BRANCH  14  15
ATOM     15  C   UNL     1       9.246  71.630  -4.585  1.00  0.00     0.000 C 
BRANCH  15  16
ATOM     16  C   UNL     1       9.829  72.180  -5.896  1.00  0.00     0.000 C 
BRANCH  16  17
ATOM     17  C   UNL     1      11.330  72.511  -5.794  1.00  0.00     0.000 C 
BRANCH  17  18
ATOM     18  C   UNL     1      11.671  74.012  -5.821  1.00  0.00     0.000 C 
BRANCH  18  19
ATOM     19  C   UNL     1      12.741  74.458  -4.807  1.00  0.00     0.000 C 
BRANCH  19  20
ATOM     20  C   UNL     1      13.430  73.287  -4.075  1.00  0.00     0.006 C 
BRANCH  20  21
ATOM     21  C   UNL     1      14.297  73.757  -2.898  1.00  0.00     0.053 C 
BRANCH  21  22
ATOM     22  C   UNL     1      13.595  73.511  -1.601  1.00  0.00     0.041 C 
ATOM     23  O   UNL     1      13.338  74.470  -0.826  1.00  0.00    -0.550 OA
ATOM     24  O   UNL     1      13.262  72.215  -1.225  1.00  0.00    -0.550 OA
ENDBRANCH  21  22
ENDBRANCH  20  21
ENDBRANCH  19  20
ENDBRANCH  18  19
ENDBRANCH  17  18
ENDBRANCH  16  17
ENDBRANCH  15  16
ENDBRANCH  14  15
ENDBRANCH  13  14
ENDBRANCH   1  13
TORSDOF 20
ENDMDL
