MODEL 1
REMARK VINA RESULT:    -4.704      0.000      0.000
REMARK INTER + INTRA:          -7.922
REMARK INTER:                  -7.455
REMARK INTRA:                  -0.467
REMARK UNBOUND:                -0.467
REMARK SMILES CCCCCCCCCCCC(=O)[O-]
REMARK SMILES IDX 7 1 8 2 9 3 10 4 11 5 12 6 13 7 14 8 6 9 5 10 4 11 3 12 2 13
REMARK SMILES IDX 1 14
REMARK H PARENT
REMARK Flexibility Score: inf
ROOT
ATOM      1  C   UNL     1       2.080  19.854  32.023  1.00  0.00     0.000 C 
ENDROOT
BRANCH   1   2
ATOM      2  C   UNL     1       3.473  19.878  32.669  1.00  0.00     0.000 C 
BRANCH   2   3
ATOM      3  C   UNL     1       3.557  19.025  33.948  1.00  0.00     0.000 C 
BRANCH   3   4
ATOM      4  C   UNL     1       4.937  18.398  34.221  1.00  0.00     0.006 C 
BRANCH   4   5
ATOM      5  C   UNL     1       5.664  17.972  32.940  1.00  0.00     0.053 C 
BRANCH   5   6
ATOM      6  C   UNL     1       6.447  16.719  33.175  1.00  0.00     0.041 C 
ATOM      7  O   UNL     1       6.790  16.396  34.343  1.00  0.00    -0.550 OA
ATOM      8  O   UNL     1       6.841  15.933  32.100  1.00  0.00    -0.550 OA
ENDBRANCH   5   6
ENDBRANCH   4   5
ENDBRANCH   3   4
ENDBRANCH   2   3
ENDBRANCH   1   2
BRANCH   1   9
ATOM      9  C   UNL     1       0.995  20.231  33.039  1.00  0.00     0.000 C 
BRANCH   9  10
ATOM     10  C   UNL     1      -0.139  21.015  32.369  1.00  0.00    -0.000 C 
BRANCH  10  11
ATOM     11  C   UNL     1      -0.222  22.445  32.923  1.00  0.00    -0.000 C 
BRANCH  11  12
ATOM     12  C   UNL     1      -0.241  22.491  34.462  1.00  0.00    -0.000 C 
BRANCH  12  13
ATOM     13  C   UNL     1      -0.880  23.755  35.064  1.00  0.00    -0.003 C 
ATOM     14  C   UNL     1      -1.874  24.430  34.120  1.00  0.00     0.004 C 
ENDBRANCH  12  13
ENDBRANCH  11  12
ENDBRANCH  10  11
ENDBRANCH   9  10
ENDBRANCH   1   9
TORSDOF 10
ENDMDL
MODEL 2
REMARK VINA RESULT:    -4.473      3.418      4.905
REMARK INTER + INTRA:          -7.555
REMARK INTER:                  -7.142
REMARK INTRA:                  -0.413
REMARK UNBOUND:                -0.467
REMARK SMILES CCCCCCCCCCCC(=O)[O-]
REMARK SMILES IDX 7 1 8 2 9 3 10 4 11 5 12 6 13 7 14 8 6 9 5 10 4 11 3 12 2 13
REMARK SMILES IDX 1 14
REMARK H PARENT
REMARK Flexibility Score: inf
ROOT
ATOM      1  C   UNL     1      -0.553  21.406  31.697  1.00  0.00     0.000 C 
ENDROOT
BRANCH   1   2
ATOM      2  C   UNL     1       0.287  21.077  32.939  1.00  0.00     0.000 C 
BRANCH   2   3
ATOM      3  C   UNL     1       1.384  20.032  32.664  1.00  0.00     0.000 C 
BRANCH   3   4
ATOM      4  C   UNL     1       2.616  20.125  33.584  1.00  0.00     0.006 C 
BRANCH   4   5
ATOM      5  C   UNL     1       3.927  19.786  32.864  1.00  0.00     0.053 C 
BRANCH   5   6
ATOM      6  C   UNL     1       4.400  18.422  33.256  1.00  0.00     0.041 C 
ATOM      7  O   UNL     1       3.932  17.859  34.281  1.00  0.00    -0.550 OA
ATOM      8  O   UNL     1       5.395  17.792  32.519  1.00  0.00    -0.550 OA
ENDBRANCH   5   6
ENDBRANCH   4   5
ENDBRANCH   3   4
ENDBRANCH   2   3
ENDBRANCH   1   2
BRANCH   1   9
ATOM      9  C   UNL     1      -0.507  20.258  30.682  1.00  0.00     0.000 C 
BRANCH   9  10
ATOM     10  C   UNL     1      -1.699  20.326  29.719  1.00  0.00    -0.000 C 
BRANCH  10  11
ATOM     11  C   UNL     1      -1.665  19.160  28.719  1.00  0.00    -0.000 C 
BRANCH  11  12
ATOM     12  C   UNL     1      -2.752  19.268  27.635  1.00  0.00    -0.000 C 
BRANCH  12  13
ATOM     13  C   UNL     1      -2.712  20.563  26.804  1.00  0.00    -0.003 C 
ATOM     14  C   UNL     1      -1.352  20.815  26.155  1.00  0.00     0.004 C 
ENDBRANCH  12  13
ENDBRANCH  11  12
ENDBRANCH  10  11
ENDBRANCH   9  10
ENDBRANCH   1   9
TORSDOF 10
ENDMDL
MODEL 3
REMARK VINA RESULT:    -4.415     18.033     19.589
REMARK INTER + INTRA:          -7.464
REMARK INTER:                  -7.136
REMARK INTRA:                  -0.328
REMARK UNBOUND:                -0.467
REMARK SMILES CCCCCCCCCCCC(=O)[O-]
REMARK SMILES IDX 7 1 8 2 9 3 10 4 11 5 12 6 13 7 14 8 6 9 5 10 4 11 3 12 2 13
REMARK SMILES IDX 1 14
REMARK H PARENT
REMARK Flexibility Score: inf
ROOT
ATOM      1  C   UNL     1       1.885   8.366  15.295  1.00  0.00     0.000 C 
ENDROOT
BRANCH   1   2
ATOM      2  C   UNL     1       2.833   9.352  15.991  1.00  0.00     0.000 C 
BRANCH   2   3
ATOM      3  C   UNL     1       3.898   9.935  15.043  1.00  0.00     0.000 C 
BRANCH   3   4
ATOM      4  C   UNL     1       5.292  10.125  15.669  1.00  0.00     0.006 C 
BRANCH   4   5
ATOM      5  C   UNL     1       6.076  11.284  15.042  1.00  0.00     0.053 C 
BRANCH   5   6
ATOM      6  C   UNL     1       7.234  11.661  15.910  1.00  0.00     0.041 C 
ATOM      7  O   UNL     1       8.293  12.108  15.396  1.00  0.00    -0.550 OA
ATOM      8  O   UNL     1       7.163  11.473  17.285  1.00  0.00    -0.550 OA
ENDBRANCH   5   6
ENDBRANCH   4   5
ENDBRANCH   3   4
ENDBRANCH   2   3
ENDBRANCH   1   2
BRANCH   1   9
ATOM      9  C   UNL     1       0.555   8.255  16.051  1.00  0.00     0.000 C 
BRANCH   9  10
ATOM     10  C   UNL     1       0.342   9.462  16.972  1.00  0.00    -0.000 C 
BRANCH  10  11
ATOM     11  C   UNL     1      -0.898   9.266  17.857  1.00  0.00    -0.000 C 
BRANCH  11  12
ATOM     12  C   UNL     1      -1.271  10.529  18.655  1.00  0.00    -0.000 C 
BRANCH  12  13
ATOM     13  C   UNL     1      -2.217  10.288  19.843  1.00  0.00    -0.003 C 
ATOM     14  C   UNL     1      -1.570   9.484  20.971  1.00  0.00     0.004 C 
ENDBRANCH  12  13
ENDBRANCH  11  12
ENDBRANCH  10  11
ENDBRANCH   9  10
ENDBRANCH   1   9
TORSDOF 10
ENDMDL
MODEL 4
REMARK VINA RESULT:    -4.372     18.026     20.301
REMARK INTER + INTRA:          -7.396
REMARK INTER:                  -7.094
REMARK INTRA:                  -0.302
REMARK UNBOUND:                -0.467
REMARK SMILES CCCCCCCCCCCC(=O)[O-]
REMARK SMILES IDX 7 1 8 2 9 3 10 4 11 5 12 6 13 7 14 8 6 9 5 10 4 11 3 12 2 13
REMARK SMILES IDX 1 14
REMARK H PARENT
REMARK Flexibility Score: inf
ROOT
ATOM      1  C   UNL     1       1.790   8.415  15.276  1.00  0.00     0.000 C 
ENDROOT
BRANCH   1   2
ATOM      2  C   UNL     1       0.453   8.333  16.026  1.00  0.00     0.000 C 
BRANCH   2   3
ATOM      3  C   UNL     1       0.319   9.392  17.135  1.00  0.00     0.000 C 
BRANCH   3   4
ATOM      4  C   UNL     1      -0.967   9.294  17.977  1.00  0.00     0.006 C 
BRANCH   4   5
ATOM      5  C   UNL     1      -1.309  10.601  18.701  1.00  0.00     0.053 C 
BRANCH   5   6
ATOM      6  C   UNL     1      -2.015  10.316  19.989  1.00  0.00     0.041 C 
ATOM      7  O   UNL     1      -3.199  10.709  20.163  1.00  0.00    -0.550 OA
ATOM      8  O   UNL     1      -1.351   9.657  21.016  1.00  0.00    -0.550 OA
ENDBRANCH   5   6
ENDBRANCH   4   5
ENDBRANCH   3   4
ENDBRANCH   2   3
ENDBRANCH   1   2
BRANCH   1   9
ATOM      9  C   UNL     1       2.748   9.394  15.965  1.00  0.00     0.000 C 
BRANCH   9  10
ATOM     10  C   UNL     1       3.994   9.643  15.107  1.00  0.00    -0.000 C 
BRANCH  10  11
ATOM     11  C   UNL     1       5.234   9.862  15.987  1.00  0.00    -0.000 C 
BRANCH  11  12
ATOM     12  C   UNL     1       6.168  10.959  15.444  1.00  0.00    -0.000 C 
BRANCH  12  13
ATOM     13  C   UNL     1       7.106  11.586  16.490  1.00  0.00    -0.003 C 
ATOM     14  C   UNL     1       8.457  12.001  15.909  1.00  0.00     0.004 C 
ENDBRANCH  12  13
ENDBRANCH  11  12
ENDBRANCH  10  11
ENDBRANCH   9  10
ENDBRANCH   1   9
TORSDOF 10
ENDMDL
MODEL 5
REMARK VINA RESULT:    -4.311      1.120      1.532
REMARK INTER + INTRA:          -7.299
REMARK INTER:                  -6.795
REMARK INTRA:                  -0.504
REMARK UNBOUND:                -0.467
REMARK SMILES CCCCCCCCCCCC(=O)[O-]
REMARK SMILES IDX 7 1 8 2 9 3 10 4 11 5 12 6 13 7 14 8 6 9 5 10 4 11 3 12 2 13
REMARK SMILES IDX 1 14
REMARK H PARENT
REMARK Flexibility Score: inf
ROOT
ATOM      1  C   UNL     1       3.103  19.875  33.632  1.00  0.00     0.000 C 
ENDROOT
BRANCH   1   2
ATOM      2  C   UNL     1       2.875  18.401  33.997  1.00  0.00     0.000 C 
BRANCH   2   3
ATOM      3  C   UNL     1       3.962  17.837  34.929  1.00  0.00     0.000 C 
BRANCH   3   4
ATOM      4  C   UNL     1       5.370  17.751  34.309  1.00  0.00     0.006 C 
BRANCH   4   5
ATOM      5  C   UNL     1       5.505  16.615  33.289  1.00  0.00     0.053 C 
BRANCH   5   6
ATOM      6  C   UNL     1       6.771  16.765  32.505  1.00  0.00     0.041 C 
ATOM      7  O   UNL     1       7.373  17.870  32.480  1.00  0.00    -0.550 OA
ATOM      8  O   UNL     1       7.259  15.697  31.762  1.00  0.00    -0.550 OA
ENDBRANCH   5   6
ENDBRANCH   4   5
ENDBRANCH   3   4
ENDBRANCH   2   3
ENDBRANCH   1   2
BRANCH   1   9
ATOM      9  C   UNL     1       2.042  20.367  32.641  1.00  0.00     0.000 C 
BRANCH   9  10
ATOM     10  C   UNL     1       0.642  20.327  33.266  1.00  0.00    -0.000 C 
BRANCH  10  11
ATOM     11  C   UNL     1       0.626  21.039  34.627  1.00  0.00    -0.000 C 
BRANCH  11  12
ATOM     12  C   UNL     1       0.357  22.550  34.510  1.00  0.00    -0.000 C 
BRANCH  12  13
ATOM     13  C   UNL     1      -0.638  22.946  33.405  1.00  0.00    -0.003 C 
ATOM     14  C   UNL     1      -1.605  24.048  33.839  1.00  0.00     0.004 C 
ENDBRANCH  12  13
ENDBRANCH  11  12
ENDBRANCH  10  11
ENDBRANCH   9  10
ENDBRANCH   1   9
TORSDOF 10
ENDMDL
MODEL 6
REMARK VINA RESULT:    -4.258      5.026      8.057
REMARK INTER + INTRA:          -7.215
REMARK INTER:                  -6.863
REMARK INTRA:                  -0.352
REMARK UNBOUND:                -0.467
REMARK SMILES CCCCCCCCCCCC(=O)[O-]
REMARK SMILES IDX 7 1 8 2 9 3 10 4 11 5 12 6 13 7 14 8 6 9 5 10 4 11 3 12 2 13
REMARK SMILES IDX 1 14
REMARK H PARENT
REMARK Flexibility Score: inf
ROOT
ATOM      1  C   UNL     1       0.662  21.127  32.790  1.00  0.00     0.000 C 
ENDROOT
BRANCH   1   2
ATOM      2  C   UNL     1      -0.521  21.269  31.822  1.00  0.00     0.000 C 
BRANCH   2   3
ATOM      3  C   UNL     1      -0.507  20.220  30.695  1.00  0.00     0.000 C 
BRANCH   3   4
ATOM      4  C   UNL     1      -1.629  20.371  29.652  1.00  0.00     0.006 C 
BRANCH   4   5
ATOM      5  C   UNL     1      -1.705  19.187  28.680  1.00  0.00     0.053 C 
BRANCH   5   6
ATOM      6  C   UNL     1      -2.911  19.308  27.803  1.00  0.00     0.041 C 
ATOM      7  O   UNL     1      -3.249  18.354  27.054  1.00  0.00    -0.550 OA
ATOM      8  O   UNL     1      -3.634  20.494  27.774  1.00  0.00    -0.550 OA
ENDBRANCH   5   6
ENDBRANCH   4   5
ENDBRANCH   3   4
ENDBRANCH   2   3
ENDBRANCH   1   2
BRANCH   1   9
ATOM      9  C   UNL     1       1.714  20.158  32.234  1.00  0.00     0.000 C 
BRANCH   9  10
ATOM     10  C   UNL     1       2.181  19.174  33.314  1.00  0.00    -0.000 C 
BRANCH  10  11
ATOM     11  C   UNL     1       3.645  19.436  33.700  1.00  0.00    -0.000 C 
BRANCH  11  12
ATOM     12  C   UNL     1       4.641  18.605  32.871  1.00  0.00    -0.000 C 
BRANCH  12  13
ATOM     13  C   UNL     1       5.111  17.302  33.540  1.00  0.00    -0.003 C 
ATOM     14  C   UNL     1       6.180  16.567  32.732  1.00  0.00     0.004 C 
ENDBRANCH  12  13
ENDBRANCH  11  12
ENDBRANCH  10  11
ENDBRANCH   9  10
ENDBRANCH   1   9
TORSDOF 10
ENDMDL
MODEL 7
REMARK VINA RESULT:    -4.229      5.517      7.790
REMARK INTER + INTRA:          -7.168
REMARK INTER:                  -6.610
REMARK INTRA:                  -0.558
REMARK UNBOUND:                -0.467
REMARK SMILES CCCCCCCCCCCC(=O)[O-]
REMARK SMILES IDX 7 1 8 2 9 3 10 4 11 5 12 6 13 7 14 8 6 9 5 10 4 11 3 12 2 13
REMARK SMILES IDX 1 14
REMARK H PARENT
REMARK Flexibility Score: inf
ROOT
ATOM      1  C   UNL     1      -0.468  20.755  31.769  1.00  0.00     0.000 C 
ENDROOT
BRANCH   1   2
ATOM      2  C   UNL     1      -0.896  20.982  30.312  1.00  0.00     0.000 C 
BRANCH   2   3
ATOM      3  C   UNL     1      -1.699  19.805  29.729  1.00  0.00     0.000 C 
BRANCH   3   4
ATOM      4  C   UNL     1      -1.192  19.280  28.373  1.00  0.00     0.006 C 
BRANCH   4   5
ATOM      5  C   UNL     1      -1.638  20.150  27.191  1.00  0.00     0.053 C 
BRANCH   5   6
ATOM      6  C   UNL     1      -3.125  20.096  27.034  1.00  0.00     0.041 C 
ATOM      7  O   UNL     1      -3.824  21.117  27.266  1.00  0.00    -0.550 OA
ATOM      8  O   UNL     1      -3.744  18.904  26.680  1.00  0.00    -0.550 OA
ENDBRANCH   5   6
ENDBRANCH   4   5
ENDBRANCH   3   4
ENDBRANCH   2   3
ENDBRANCH   1   2
BRANCH   1   9
ATOM      9  C   UNL     1      -0.470  22.071  32.555  1.00  0.00     0.000 C 
BRANCH   9  10
ATOM     10  C   UNL     1       0.539  22.026  33.708  1.00  0.00    -0.000 C 
BRANCH  10  11
ATOM     11  C   UNL     1       0.891  20.577  34.075  1.00  0.00    -0.000 C 
BRANCH  11  12
ATOM     12  C   UNL     1       2.409  20.323  34.125  1.00  0.00    -0.000 C 
BRANCH  12  13
ATOM     13  C   UNL     1       3.043  19.925  32.781  1.00  0.00    -0.003 C 
ATOM     14  C   UNL     1       4.188  18.925  32.933  1.00  0.00     0.004 C 
ENDBRANCH  12  13
ENDBRANCH  11  12
ENDBRANCH  10  11
ENDBRANCH   9  10
ENDBRANCH   1   9
TORSDOF 10
ENDMDL
MODEL 8
REMARK VINA RESULT:    -4.139      4.186      7.627
REMARK INTER + INTRA:          -7.025
REMARK INTER:                  -6.384
REMARK INTRA:                  -0.641
REMARK UNBOUND:                -0.467
REMARK SMILES CCCCCCCCCCCC(=O)[O-]
REMARK SMILES IDX 7 1 8 2 9 3 10 4 11 5 12 6 13 7 14 8 6 9 5 10 4 11 3 12 2 13
REMARK SMILES IDX 1 14
REMARK H PARENT
REMARK Flexibility Score: inf
ROOT
ATOM      1  C   UNL     1       1.841  20.110  32.862  1.00  0.00     0.000 C 
ENDROOT
BRANCH   1   2
ATOM      2  C   UNL     1       1.256  19.601  34.188  1.00  0.00     0.000 C 
BRANCH   2   3
ATOM      3  C   UNL     1       0.778  20.738  35.110  1.00  0.00     0.000 C 
BRANCH   3   4
ATOM      4  C   UNL     1       1.139  22.157  34.633  1.00  0.00     0.006 C 
BRANCH   4   5
ATOM      5  C   UNL     1       0.034  23.182  34.918  1.00  0.00     0.053 C 
BRANCH   5   6
ATOM      6  C   UNL     1      -0.868  23.320  33.733  1.00  0.00     0.041 C 
ATOM      7  O   UNL     1      -1.847  24.111  33.770  1.00  0.00    -0.550 OA
ATOM      8  O   UNL     1      -0.659  22.538  32.604  1.00  0.00    -0.550 OA
ENDBRANCH   5   6
ENDBRANCH   4   5
ENDBRANCH   3   4
ENDBRANCH   2   3
ENDBRANCH   1   2
BRANCH   1   9
ATOM      9  C   UNL     1       3.356  19.879  32.805  1.00  0.00     0.000 C 
BRANCH   9  10
ATOM     10  C   UNL     1       3.877  19.307  34.130  1.00  0.00    -0.000 C 
BRANCH  10  11
ATOM     11  C   UNL     1       5.359  18.920  34.017  1.00  0.00    -0.000 C 
BRANCH  11  12
ATOM     12  C   UNL     1       5.646  17.988  32.826  1.00  0.00    -0.000 C 
BRANCH  12  13
ATOM     13  C   UNL     1       6.235  16.617  33.203  1.00  0.00    -0.003 C 
ATOM     14  C   UNL     1       6.667  16.535  34.667  1.00  0.00     0.004 C 
ENDBRANCH  12  13
ENDBRANCH  11  12
ENDBRANCH  10  11
ENDBRANCH   9  10
ENDBRANCH   1   9
TORSDOF 10
ENDMDL
MODEL 9
REMARK VINA RESULT:    -4.051     18.002     20.429
REMARK INTER + INTRA:          -6.887
REMARK INTER:                  -6.535
REMARK INTRA:                  -0.352
REMARK UNBOUND:                -0.467
REMARK SMILES CCCCCCCCCCCC(=O)[O-]
REMARK SMILES IDX 7 1 8 2 9 3 10 4 11 5 12 6 13 7 14 8 6 9 5 10 4 11 3 12 2 13
REMARK SMILES IDX 1 14
REMARK H PARENT
REMARK Flexibility Score: inf
ROOT
ATOM      1  C   UNL     1       6.265  10.571  16.669  1.00  0.00     0.000 C 
ENDROOT
BRANCH   1   2
ATOM      2  C   UNL     1       5.142   9.569  16.364  1.00  0.00     0.000 C 
BRANCH   2   3
ATOM      3  C   UNL     1       4.485   9.800  14.991  1.00  0.00     0.000 C 
BRANCH   3   4
ATOM      4  C   UNL     1       3.031   9.308  14.875  1.00  0.00     0.006 C 
BRANCH   4   5
ATOM      5  C   UNL     1       2.318   9.227  16.230  1.00  0.00     0.053 C 
BRANCH   5   6
ATOM      6  C   UNL     1       0.980   8.573  16.078  1.00  0.00     0.041 C 
ATOM      7  O   UNL     1      -0.005   8.984  16.746  1.00  0.00    -0.550 OA
ATOM      8  O   UNL     1       0.832   7.479  15.235  1.00  0.00    -0.550 OA
ENDBRANCH   5   6
ENDBRANCH   4   5
ENDBRANCH   3   4
ENDBRANCH   2   3
ENDBRANCH   1   2
BRANCH   1   9
ATOM      9  C   UNL     1       7.133  10.818  15.429  1.00  0.00     0.000 C 
BRANCH   9  10
ATOM     10  C   UNL     1       8.422  11.563  15.797  1.00  0.00    -0.000 C 
BRANCH  10  11
ATOM     11  C   UNL     1       8.186  12.520  16.976  1.00  0.00    -0.000 C 
BRANCH  11  12
ATOM     12  C   UNL     1       8.921  12.086  18.256  1.00  0.00    -0.000 C 
BRANCH  12  13
ATOM     13  C   UNL     1       9.660  13.216  18.993  1.00  0.00    -0.003 C 
ATOM     14  C   UNL     1       8.751  14.390  19.354  1.00  0.00     0.004 C 
ENDBRANCH  12  13
ENDBRANCH  11  12
ENDBRANCH  10  11
ENDBRANCH   9  10
ENDBRANCH   1   9
TORSDOF 10
ENDMDL
