MODEL 1
REMARK VINA RESULT:    -4.150      0.000      0.000
REMARK INTER + INTRA:         -11.288
REMARK INTER:                  -9.002
REMARK INTRA:                  -2.287
REMARK UNBOUND:                -2.287
REMARK SMILES CCCCCCCCCCCCCCCCCCCCCC(=O)[O-]
REMARK SMILES IDX 12 1 11 2 10 3 9 4 8 5 7 6 6 7 5 8 4 9 3 10 2 11 1 12 13 13
REMARK SMILES IDX 14 14 15 15 16 16 17 17 18 18 19 19 20 20 21 21 22 22 23 23
REMARK SMILES IDX 24 24
REMARK H PARENT
REMARK Flexibility Score: inf
ROOT
ATOM      1  C   UNL     1       0.697  -6.322 -29.040  1.00  0.00     0.000 C 
ENDROOT
BRANCH   1   2
ATOM      2  C   UNL     1       1.052  -4.830 -29.154  1.00  0.00     0.000 C 
BRANCH   2   3
ATOM      3  C   UNL     1       0.328  -3.966 -28.106  1.00  0.00     0.000 C 
BRANCH   3   4
ATOM      4  C   UNL     1      -0.075  -2.582 -28.648  1.00  0.00    -0.000 C 
BRANCH   4   5
ATOM      5  C   UNL     1      -1.440  -2.066 -28.161  1.00  0.00    -0.000 C 
BRANCH   5   6
ATOM      6  C   UNL     1      -2.217  -3.113 -27.347  1.00  0.00    -0.000 C 
BRANCH   6   7
ATOM      7  C   UNL     1      -3.670  -2.688 -27.078  1.00  0.00    -0.000 C 
BRANCH   7   8
ATOM      8  C   UNL     1      -4.571  -3.878 -26.703  1.00  0.00    -0.000 C 
BRANCH   8   9
ATOM      9  C   UNL     1      -3.782  -5.199 -26.601  1.00  0.00    -0.000 C 
BRANCH   9  10
ATOM     10  C   UNL     1      -4.011  -5.969 -25.285  1.00  0.00    -0.000 C 
BRANCH  10  11
ATOM     11  C   UNL     1      -3.723  -7.480 -25.380  1.00  0.00    -0.003 C 
ATOM     12  C   UNL     1      -4.582  -8.177 -26.435  1.00  0.00     0.004 C 
ENDBRANCH  10  11
ENDBRANCH   9  10
ENDBRANCH   8   9
ENDBRANCH   7   8
ENDBRANCH   6   7
ENDBRANCH   5   6
ENDBRANCH   4   5
ENDBRANCH   3   4
ENDBRANCH   2   3
ENDBRANCH   1   2
BRANCH   1  13
ATOM     13  C   UNL     1      -0.413  -6.589 -28.012  1.00  0.00     0.000 C 
BRANCH  13  14
ATOM     14  C   UNL     1      -0.622  -8.098 -27.811  1.00  0.00     0.000 C 
BRANCH  14  15
ATOM     15  C   UNL     1      -0.298  -8.916 -29.072  1.00  0.00     0.000 C 
BRANCH  15  16
ATOM     16  C   UNL     1      -1.379  -9.939 -29.477  1.00  0.00     0.000 C 
BRANCH  16  17
ATOM     17  C   UNL     1      -2.433 -10.201 -28.379  1.00  0.00     0.000 C 
BRANCH  17  18
ATOM     18  C   UNL     1      -2.168 -11.511 -27.617  1.00  0.00     0.000 C 
BRANCH  18  19
ATOM     19  C   UNL     1      -2.458 -11.393 -26.112  1.00  0.00     0.000 C 
BRANCH  19  20
ATOM     20  C   UNL     1      -3.582 -12.332 -25.650  1.00  0.00     0.006 C 
BRANCH  20  21
ATOM     21  C   UNL     1      -4.188 -13.086 -26.840  1.00  0.00     0.053 C 
BRANCH  21  22
ATOM     22  C   UNL     1      -4.143 -14.565 -26.614  1.00  0.00     0.041 C 
ATOM     23  O   UNL     1      -3.041 -15.147 -26.427  1.00  0.00    -0.550 OA
ATOM     24  O   UNL     1      -5.320 -15.307 -26.618  1.00  0.00    -0.550 OA
ENDBRANCH  21  22
ENDBRANCH  20  21
ENDBRANCH  19  20
ENDBRANCH  18  19
ENDBRANCH  17  18
ENDBRANCH  16  17
ENDBRANCH  15  16
ENDBRANCH  14  15
ENDBRANCH  13  14
ENDBRANCH   1  13
TORSDOF 20
ENDMDL
MODEL 2
REMARK VINA RESULT:    -4.143     14.269     15.694
REMARK INTER + INTRA:         -11.274
REMARK INTER:                  -8.304
REMARK INTRA:                  -2.970
REMARK UNBOUND:                -2.287
REMARK SMILES CCCCCCCCCCCCCCCCCCCCCC(=O)[O-]
REMARK SMILES IDX 12 1 11 2 10 3 9 4 8 5 7 6 6 7 5 8 4 9 3 10 2 11 1 12 13 13
REMARK SMILES IDX 14 14 15 15 16 16 17 17 18 18 19 19 20 20 21 21 22 22 23 23
REMARK SMILES IDX 24 24
REMARK H PARENT
REMARK Flexibility Score: inf
ROOT
ATOM      1  C   UNL     1      11.204  -6.206 -20.904  1.00  0.00     0.000 C 
ENDROOT
BRANCH   1   2
ATOM      2  C   UNL     1      12.250  -6.030 -19.790  1.00  0.00     0.000 C 
BRANCH   2   3
ATOM      3  C   UNL     1      13.592  -5.493 -20.317  1.00  0.00     0.000 C 
BRANCH   3   4
ATOM      4  C   UNL     1      13.619  -5.348 -21.850  1.00  0.00    -0.000 C 
BRANCH   4   5
ATOM      5  C   UNL     1      13.590  -3.899 -22.366  1.00  0.00    -0.000 C 
BRANCH   5   6
ATOM      6  C   UNL     1      12.493  -3.663 -23.418  1.00  0.00    -0.000 C 
BRANCH   6   7
ATOM      7  C   UNL     1      11.231  -3.023 -22.818  1.00  0.00    -0.000 C 
BRANCH   7   8
ATOM      8  C   UNL     1      11.454  -2.518 -21.381  1.00  0.00    -0.000 C 
BRANCH   8   9
ATOM      9  C   UNL     1      10.128  -2.312 -20.622  1.00  0.00    -0.000 C 
BRANCH   9  10
ATOM     10  C   UNL     1       9.779  -0.835 -20.353  1.00  0.00    -0.000 C 
BRANCH  10  11
ATOM     11  C   UNL     1      10.589  -0.194 -19.209  1.00  0.00    -0.003 C 
ATOM     12  C   UNL     1      10.473   1.330 -19.188  1.00  0.00     0.004 C 
ENDBRANCH  10  11
ENDBRANCH   9  10
ENDBRANCH   8   9
ENDBRANCH   7   8
ENDBRANCH   6   7
ENDBRANCH   5   6
ENDBRANCH   4   5
ENDBRANCH   3   4
ENDBRANCH   2   3
ENDBRANCH   1   2
BRANCH   1  13
ATOM     13  C   UNL     1      10.667  -7.643 -20.991  1.00  0.00     0.000 C 
BRANCH  13  14
ATOM     14  C   UNL     1      10.635  -8.128 -22.449  1.00  0.00     0.000 C 
BRANCH  14  15
ATOM     15  C   UNL     1      10.774  -6.978 -23.461  1.00  0.00     0.000 C 
BRANCH  15  16
ATOM     16  C   UNL     1      11.816  -7.215 -24.573  1.00  0.00     0.000 C 
BRANCH  16  17
ATOM     17  C   UNL     1      13.140  -7.827 -24.066  1.00  0.00     0.000 C 
BRANCH  17  18
ATOM     18  C   UNL     1      13.498  -9.131 -24.801  1.00  0.00     0.000 C 
BRANCH  18  19
ATOM     19  C   UNL     1      12.282  -9.785 -25.477  1.00  0.00     0.000 C 
BRANCH  19  20
ATOM     20  C   UNL     1      12.000 -11.199 -24.949  1.00  0.00     0.006 C 
BRANCH  20  21
ATOM     21  C   UNL     1      12.947 -11.550 -23.794  1.00  0.00     0.053 C 
BRANCH  21  22
ATOM     22  C   UNL     1      12.190 -11.704 -22.511  1.00  0.00     0.041 C 
ATOM     23  O   UNL     1      10.941 -11.544 -22.487  1.00  0.00    -0.550 OA
ATOM     24  O   UNL     1      12.867 -12.013 -21.336  1.00  0.00    -0.550 OA
ENDBRANCH  21  22
ENDBRANCH  20  21
ENDBRANCH  19  20
ENDBRANCH  18  19
ENDBRANCH  17  18
ENDBRANCH  16  17
ENDBRANCH  15  16
ENDBRANCH  14  15
ENDBRANCH  13  14
ENDBRANCH   1  13
TORSDOF 20
ENDMDL
MODEL 3
REMARK VINA RESULT:    -4.119      3.180      6.512
REMARK INTER + INTRA:         -11.222
REMARK INTER:                  -7.564
REMARK INTRA:                  -3.658
REMARK UNBOUND:                -2.287
REMARK SMILES CCCCCCCCCCCCCCCCCCCCCC(=O)[O-]
REMARK SMILES IDX 12 1 11 2 10 3 9 4 8 5 7 6 6 7 5 8 4 9 3 10 2 11 1 12 13 13
REMARK SMILES IDX 14 14 15 15 16 16 17 17 18 18 19 19 20 20 21 21 22 22 23 23
REMARK SMILES IDX 24 24
REMARK H PARENT
REMARK Flexibility Score: inf
ROOT
ATOM      1  C   UNL     1      -3.881  -0.461 -24.127  1.00  0.00     0.000 C 
ENDROOT
BRANCH   1   2
ATOM      2  C   UNL     1      -3.419  -1.803 -23.536  1.00  0.00     0.000 C 
BRANCH   2   3
ATOM      3  C   UNL     1      -1.902  -2.021 -23.674  1.00  0.00     0.000 C 
BRANCH   3   4
ATOM      4  C   UNL     1      -1.516  -2.716 -24.993  1.00  0.00    -0.000 C 
BRANCH   4   5
ATOM      5  C   UNL     1      -1.461  -4.252 -24.928  1.00  0.00    -0.000 C 
BRANCH   5   6
ATOM      6  C   UNL     1      -0.956  -4.887 -26.234  1.00  0.00    -0.000 C 
BRANCH   6   7
ATOM      7  C   UNL     1      -1.364  -4.079 -27.476  1.00  0.00    -0.000 C 
BRANCH   7   8
ATOM      8  C   UNL     1      -0.154  -3.672 -28.337  1.00  0.00    -0.000 C 
BRANCH   8   9
ATOM      9  C   UNL     1      -0.182  -2.177 -28.714  1.00  0.00    -0.000 C 
BRANCH   9  10
ATOM     10  C   UNL     1      -1.534  -1.485 -28.450  1.00  0.00    -0.000 C 
BRANCH  10  11
ATOM     11  C   UNL     1      -1.418   0.007 -28.084  1.00  0.00    -0.003 C 
ATOM     12  C   UNL     1      -0.513   0.247 -26.875  1.00  0.00     0.004 C 
ENDBRANCH  10  11
ENDBRANCH   9  10
ENDBRANCH   8   9
ENDBRANCH   7   8
ENDBRANCH   6   7
ENDBRANCH   5   6
ENDBRANCH   4   5
ENDBRANCH   3   4
ENDBRANCH   2   3
ENDBRANCH   1   2
BRANCH   1  13
ATOM     13  C   UNL     1      -4.984  -0.628 -25.183  1.00  0.00     0.000 C 
BRANCH  13  14
ATOM     14  C   UNL     1      -4.440  -1.329 -26.437  1.00  0.00     0.000 C 
BRANCH  14  15
ATOM     15  C   UNL     1      -5.360  -2.456 -26.935  1.00  0.00     0.000 C 
BRANCH  15  16
ATOM     16  C   UNL     1      -4.873  -3.882 -26.610  1.00  0.00     0.000 C 
BRANCH  16  17
ATOM     17  C   UNL     1      -5.245  -4.360 -25.189  1.00  0.00     0.000 C 
BRANCH  17  18
ATOM     18  C   UNL     1      -4.890  -5.839 -24.961  1.00  0.00     0.000 C 
BRANCH  18  19
ATOM     19  C   UNL     1      -4.163  -6.469 -26.160  1.00  0.00     0.000 C 
BRANCH  19  20
ATOM     20  C   UNL     1      -4.661  -7.886 -26.478  1.00  0.00     0.006 C 
BRANCH  20  21
ATOM     21  C   UNL     1      -3.484  -8.860 -26.620  1.00  0.00     0.053 C 
BRANCH  21  22
ATOM     22  C   UNL     1      -2.619  -8.833 -25.398  1.00  0.00     0.041 C 
ATOM     23  O   UNL     1      -3.071  -9.230 -24.291  1.00  0.00    -0.550 OA
ATOM     24  O   UNL     1      -1.313  -8.361 -25.479  1.00  0.00    -0.550 OA
ENDBRANCH  21  22
ENDBRANCH  20  21
ENDBRANCH  19  20
ENDBRANCH  18  19
ENDBRANCH  17  18
ENDBRANCH  16  17
ENDBRANCH  15  16
ENDBRANCH  14  15
ENDBRANCH  13  14
ENDBRANCH   1  13
TORSDOF 20
ENDMDL
MODEL 4
REMARK VINA RESULT:    -4.081     10.493     12.485
REMARK INTER + INTRA:         -11.140
REMARK INTER:                  -8.252
REMARK INTRA:                  -2.888
REMARK UNBOUND:                -2.287
REMARK SMILES CCCCCCCCCCCCCCCCCCCCCC(=O)[O-]
REMARK SMILES IDX 12 1 11 2 10 3 9 4 8 5 7 6 6 7 5 8 4 9 3 10 2 11 1 12 13 13
REMARK SMILES IDX 14 14 15 15 16 16 17 17 18 18 19 19 20 20 21 21 22 22 23 23
REMARK SMILES IDX 24 24
REMARK H PARENT
REMARK Flexibility Score: inf
ROOT
ATOM      1  C   UNL     1      -1.723  -8.953 -15.511  1.00  0.00     0.000 C 
ENDROOT
BRANCH   1   2
ATOM      2  C   UNL     1      -0.645  -9.553 -14.593  1.00  0.00     0.000 C 
BRANCH   2   3
ATOM      3  C   UNL     1       0.107  -8.482 -13.783  1.00  0.00     0.000 C 
BRANCH   3   4
ATOM      4  C   UNL     1      -0.481  -7.070 -13.967  1.00  0.00    -0.000 C 
BRANCH   4   5
ATOM      5  C   UNL     1      -0.615  -6.247 -12.674  1.00  0.00    -0.000 C 
BRANCH   5   6
ATOM      6  C   UNL     1      -0.810  -4.745 -12.941  1.00  0.00    -0.000 C 
BRANCH   6   7
ATOM      7  C   UNL     1      -2.219  -4.419 -13.462  1.00  0.00    -0.000 C 
BRANCH   7   8
ATOM      8  C   UNL     1      -2.190  -3.652 -14.795  1.00  0.00    -0.000 C 
BRANCH   8   9
ATOM      9  C   UNL     1      -3.392  -4.000 -15.696  1.00  0.00    -0.000 C 
BRANCH   9  10
ATOM     10  C   UNL     1      -3.429  -5.471 -16.157  1.00  0.00    -0.000 C 
BRANCH  10  11
ATOM     11  C   UNL     1      -3.384  -5.653 -17.686  1.00  0.00    -0.003 C 
ATOM     12  C   UNL     1      -2.219  -4.904 -18.334  1.00  0.00     0.004 C 
ENDBRANCH  10  11
ENDBRANCH   9  10
ENDBRANCH   8   9
ENDBRANCH   7   8
ENDBRANCH   6   7
ENDBRANCH   5   6
ENDBRANCH   4   5
ENDBRANCH   3   4
ENDBRANCH   2   3
ENDBRANCH   1   2
BRANCH   1  13
ATOM     13  C   UNL     1      -1.501  -9.301 -16.991  1.00  0.00     0.000 C 
BRANCH  13  14
ATOM     14  C   UNL     1      -2.821  -9.224 -17.775  1.00  0.00     0.000 C 
BRANCH  14  15
ATOM     15  C   UNL     1      -4.058  -9.363 -16.872  1.00  0.00     0.000 C 
BRANCH  15  16
ATOM     16  C   UNL     1      -5.247 -10.106 -17.512  1.00  0.00     0.000 C 
BRANCH  16  17
ATOM     17  C   UNL     1      -5.446 -11.542 -16.979  1.00  0.00     0.000 C 
BRANCH  17  18
ATOM     18  C   UNL     1      -4.370 -11.937 -15.953  1.00  0.00     0.000 C 
BRANCH  18  19
ATOM     19  C   UNL     1      -3.476 -13.088 -16.442  1.00  0.00     0.000 C 
BRANCH  19  20
ATOM     20  C   UNL     1      -1.995 -12.877 -16.094  1.00  0.00     0.006 C 
BRANCH  20  21
ATOM     21  C   UNL     1      -1.776 -12.941 -14.577  1.00  0.00     0.053 C 
BRANCH  21  22
ATOM     22  C   UNL     1      -1.874 -14.350 -14.082  1.00  0.00     0.041 C 
ATOM     23  O   UNL     1      -2.796 -14.684 -13.292  1.00  0.00    -0.550 OA
ATOM     24  O   UNL     1      -0.938 -15.297 -14.485  1.00  0.00    -0.550 OA
ENDBRANCH  21  22
ENDBRANCH  20  21
ENDBRANCH  19  20
ENDBRANCH  18  19
ENDBRANCH  17  18
ENDBRANCH  16  17
ENDBRANCH  15  16
ENDBRANCH  14  15
ENDBRANCH  13  14
ENDBRANCH   1  13
TORSDOF 20
ENDMDL
MODEL 5
REMARK VINA RESULT:    -4.073     13.668     16.298
REMARK INTER + INTRA:         -11.122
REMARK INTER:                  -7.536
REMARK INTRA:                  -3.586
REMARK UNBOUND:                -2.287
REMARK SMILES CCCCCCCCCCCCCCCCCCCCCC(=O)[O-]
REMARK SMILES IDX 12 1 11 2 10 3 9 4 8 5 7 6 6 7 5 8 4 9 3 10 2 11 1 12 13 13
REMARK SMILES IDX 14 14 15 15 16 16 17 17 18 18 19 19 20 20 21 21 22 22 23 23
REMARK SMILES IDX 24 24
REMARK H PARENT
REMARK Flexibility Score: inf
ROOT
ATOM      1  C   UNL     1      12.618 -11.877 -22.002  1.00  0.00     0.000 C 
ENDROOT
BRANCH   1   2
ATOM      2  C   UNL     1      13.611 -11.621 -23.149  1.00  0.00     0.000 C 
BRANCH   2   3
ATOM      3  C   UNL     1      13.022 -10.726 -24.254  1.00  0.00     0.000 C 
BRANCH   3   4
ATOM      4  C   UNL     1      13.619  -9.306 -24.254  1.00  0.00    -0.000 C 
BRANCH   4   5
ATOM      5  C   UNL     1      12.643  -8.191 -24.667  1.00  0.00    -0.000 C 
BRANCH   5   6
ATOM      6  C   UNL     1      12.349  -8.186 -26.177  1.00  0.00    -0.000 C 
BRANCH   6   7
ATOM      7  C   UNL     1      11.004  -8.850 -26.514  1.00  0.00    -0.000 C 
BRANCH   7   8
ATOM      8  C   UNL     1      10.016  -8.810 -25.335  1.00  0.00    -0.000 C 
BRANCH   8   9
ATOM      9  C   UNL     1       9.268 -10.147 -25.155  1.00  0.00    -0.000 C 
BRANCH   9  10
ATOM     10  C   UNL     1       9.419 -11.119 -26.342  1.00  0.00    -0.000 C 
BRANCH  10  11
ATOM     11  C   UNL     1      10.200 -12.405 -26.007  1.00  0.00    -0.003 C 
ATOM     12  C   UNL     1      11.397 -12.625 -26.933  1.00  0.00     0.004 C 
ENDBRANCH  10  11
ENDBRANCH   9  10
ENDBRANCH   8   9
ENDBRANCH   7   8
ENDBRANCH   6   7
ENDBRANCH   5   6
ENDBRANCH   4   5
ENDBRANCH   3   4
ENDBRANCH   2   3
ENDBRANCH   1   2
BRANCH   1  13
ATOM     13  C   UNL     1      11.178 -11.489 -22.368  1.00  0.00     0.000 C 
BRANCH  13  14
ATOM     14  C   UNL     1      10.568 -10.574 -21.295  1.00  0.00     0.000 C 
BRANCH  14  15
ATOM     15  C   UNL     1      11.050  -9.119 -21.409  1.00  0.00     0.000 C 
BRANCH  15  16
ATOM     16  C   UNL     1       9.972  -8.111 -21.854  1.00  0.00     0.000 C 
BRANCH  16  17
ATOM     17  C   UNL     1      10.379  -6.634 -21.660  1.00  0.00     0.000 C 
BRANCH  17  18
ATOM     18  C   UNL     1      10.993  -6.376 -20.273  1.00  0.00     0.000 C 
BRANCH  18  19
ATOM     19  C   UNL     1      12.461  -5.924 -20.348  1.00  0.00     0.000 C 
BRANCH  19  20
ATOM     20  C   UNL     1      13.029  -5.987 -21.773  1.00  0.00     0.006 C 
BRANCH  20  21
ATOM     21  C   UNL     1      13.889  -4.753 -22.074  1.00  0.00     0.053 C 
BRANCH  21  22
ATOM     22  C   UNL     1      13.123  -3.752 -22.882  1.00  0.00     0.041 C 
ATOM     23  O   UNL     1      13.437  -2.533 -22.846  1.00  0.00    -0.550 OA
ATOM     24  O   UNL     1      12.054  -4.165 -23.670  1.00  0.00    -0.550 OA
ENDBRANCH  21  22
ENDBRANCH  20  21
ENDBRANCH  19  20
ENDBRANCH  18  19
ENDBRANCH  17  18
ENDBRANCH  16  17
ENDBRANCH  15  16
ENDBRANCH  14  15
ENDBRANCH  13  14
ENDBRANCH   1  13
TORSDOF 20
ENDMDL
MODEL 6
REMARK VINA RESULT:    -4.009      6.481      8.783
REMARK INTER + INTRA:         -10.983
REMARK INTER:                  -7.899
REMARK INTRA:                  -3.084
REMARK UNBOUND:                -2.287
REMARK SMILES CCCCCCCCCCCCCCCCCCCCCC(=O)[O-]
REMARK SMILES IDX 12 1 11 2 10 3 9 4 8 5 7 6 6 7 5 8 4 9 3 10 2 11 1 12 13 13
REMARK SMILES IDX 14 14 15 15 16 16 17 17 18 18 19 19 20 20 21 21 22 22 23 23
REMARK SMILES IDX 24 24
REMARK H PARENT
REMARK Flexibility Score: inf
ROOT
ATOM      1  C   UNL     1       0.452  -4.280 -28.662  1.00  0.00     0.000 C 
ENDROOT
BRANCH   1   2
ATOM      2  C   UNL     1       1.601  -3.276 -28.852  1.00  0.00     0.000 C 
BRANCH   2   3
ATOM      3  C   UNL     1       2.305  -3.431 -30.212  1.00  0.00     0.000 C 
BRANCH   3   4
ATOM      4  C   UNL     1       1.748  -2.477 -31.285  1.00  0.00    -0.000 C 
BRANCH   4   5
ATOM      5  C   UNL     1       1.494  -1.037 -30.806  1.00  0.00    -0.000 C 
BRANCH   5   6
ATOM      6  C   UNL     1       0.240  -0.411 -31.439  1.00  0.00    -0.000 C 
BRANCH   6   7
ATOM      7  C   UNL     1      -0.130   0.937 -30.800  1.00  0.00    -0.000 C 
BRANCH   7   8
ATOM      8  C   UNL     1      -0.541   0.795 -29.324  1.00  0.00    -0.000 C 
BRANCH   8   9
ATOM      9  C   UNL     1      -1.718  -0.185 -29.136  1.00  0.00    -0.000 C 
BRANCH   9  10
ATOM     10  C   UNL     1      -2.186  -0.334 -27.675  1.00  0.00    -0.000 C 
BRANCH  10  11
ATOM     11  C   UNL     1      -1.203   0.239 -26.636  1.00  0.00    -0.003 C 
ATOM     12  C   UNL     1      -0.483  -0.852 -25.843  1.00  0.00     0.004 C 
ENDBRANCH  10  11
ENDBRANCH   9  10
ENDBRANCH   8   9
ENDBRANCH   7   8
ENDBRANCH   6   7
ENDBRANCH   5   6
ENDBRANCH   4   5
ENDBRANCH   3   4
ENDBRANCH   2   3
ENDBRANCH   1   2
BRANCH   1  13
ATOM     13  C   UNL     1      -0.841  -3.613 -28.168  1.00  0.00     0.000 C 
BRANCH  13  14
ATOM     14  C   UNL     1      -1.594  -4.534 -27.195  1.00  0.00     0.000 C 
BRANCH  14  15
ATOM     15  C   UNL     1      -2.693  -3.798 -26.410  1.00  0.00     0.000 C 
BRANCH  15  16
ATOM     16  C   UNL     1      -4.131  -4.079 -26.889  1.00  0.00     0.000 C 
BRANCH  16  17
ATOM     17  C   UNL     1      -5.032  -2.825 -26.929  1.00  0.00     0.000 C 
BRANCH  17  18
ATOM     18  C   UNL     1      -5.047  -2.075 -25.587  1.00  0.00     0.000 C 
BRANCH  18  19
ATOM     19  C   UNL     1      -5.071  -0.547 -25.759  1.00  0.00     0.000 C 
BRANCH  19  20
ATOM     20  C   UNL     1      -4.419   0.193 -24.582  1.00  0.00     0.006 C 
BRANCH  20  21
ATOM     21  C   UNL     1      -3.527  -0.754 -23.769  1.00  0.00     0.053 C 
BRANCH  21  22
ATOM     22  C   UNL     1      -2.725   0.005 -22.757  1.00  0.00     0.041 C 
ATOM     23  O   UNL     1      -2.216   1.118 -23.056  1.00  0.00    -0.550 OA
ATOM     24  O   UNL     1      -2.532  -0.521 -21.484  1.00  0.00    -0.550 OA
ENDBRANCH  21  22
ENDBRANCH  20  21
ENDBRANCH  19  20
ENDBRANCH  18  19
ENDBRANCH  17  18
ENDBRANCH  16  17
ENDBRANCH  15  16
ENDBRANCH  14  15
ENDBRANCH  13  14
ENDBRANCH   1  13
TORSDOF 20
ENDMDL
MODEL 7
REMARK VINA RESULT:    -4.008     13.591     16.444
REMARK INTER + INTRA:         -10.981
REMARK INTER:                  -7.217
REMARK INTRA:                  -3.764
REMARK UNBOUND:                -2.287
REMARK SMILES CCCCCCCCCCCCCCCCCCCCCC(=O)[O-]
REMARK SMILES IDX 12 1 11 2 10 3 9 4 8 5 7 6 6 7 5 8 4 9 3 10 2 11 1 12 13 13
REMARK SMILES IDX 14 14 15 15 16 16 17 17 18 18 19 19 20 20 21 21 22 22 23 23
REMARK SMILES IDX 24 24
REMARK H PARENT
REMARK Flexibility Score: inf
ROOT
ATOM      1  C   UNL     1      11.459  -6.280 -21.148  1.00  0.00     0.000 C 
ENDROOT
BRANCH   1   2
ATOM      2  C   UNL     1      11.244  -7.801 -21.207  1.00  0.00     0.000 C 
BRANCH   2   3
ATOM      3  C   UNL     1      10.143  -8.206 -22.203  1.00  0.00     0.000 C 
BRANCH   3   4
ATOM      4  C   UNL     1      10.111  -7.311 -23.456  1.00  0.00    -0.000 C 
BRANCH   4   5
ATOM      5  C   UNL     1      10.562  -7.997 -24.757  1.00  0.00    -0.000 C 
BRANCH   5   6
ATOM      6  C   UNL     1      11.925  -7.489 -25.256  1.00  0.00    -0.000 C 
BRANCH   6   7
ATOM      7  C   UNL     1      13.081  -7.902 -24.331  1.00  0.00    -0.000 C 
BRANCH   7   8
ATOM      8  C   UNL     1      13.740  -9.223 -24.767  1.00  0.00    -0.000 C 
BRANCH   8   9
ATOM      9  C   UNL     1      13.376 -10.394 -23.833  1.00  0.00    -0.000 C 
BRANCH   9  10
ATOM     10  C   UNL     1      12.269 -11.317 -24.382  1.00  0.00    -0.000 C 
BRANCH  10  11
ATOM     11  C   UNL     1      11.054 -11.470 -23.447  1.00  0.00    -0.003 C 
ATOM     12  C   UNL     1       9.730 -11.543 -24.209  1.00  0.00     0.004 C 
ENDBRANCH  10  11
ENDBRANCH   9  10
ENDBRANCH   8   9
ENDBRANCH   7   8
ENDBRANCH   6   7
ENDBRANCH   5   6
ENDBRANCH   4   5
ENDBRANCH   3   4
ENDBRANCH   2   3
ENDBRANCH   1   2
BRANCH   1  13
ATOM     13  C   UNL     1      12.606  -5.880 -20.206  1.00  0.00     0.000 C 
BRANCH  13  14
ATOM     14  C   UNL     1      13.772  -5.263 -20.994  1.00  0.00     0.000 C 
BRANCH  14  15
ATOM     15  C   UNL     1      13.375  -4.860 -22.424  1.00  0.00     0.000 C 
BRANCH  15  16
ATOM     16  C   UNL     1      13.476  -3.351 -22.724  1.00  0.00     0.000 C 
BRANCH  16  17
ATOM     17  C   UNL     1      12.519  -2.871 -23.837  1.00  0.00     0.000 C 
BRANCH  17  18
ATOM     18  C   UNL     1      11.519  -3.962 -24.258  1.00  0.00     0.000 C 
BRANCH  18  19
ATOM     19  C   UNL     1      10.066  -3.607 -23.902  1.00  0.00     0.000 C 
BRANCH  19  20
ATOM     20  C   UNL     1       9.968  -2.603 -22.744  1.00  0.00     0.006 C 
BRANCH  20  21
ATOM     21  C   UNL     1       9.653  -3.320 -21.425  1.00  0.00     0.053 C 
BRANCH  21  22
ATOM     22  C   UNL     1       9.880  -2.412 -20.257  1.00  0.00     0.041 C 
ATOM     23  O   UNL     1      11.052  -2.147 -19.876  1.00  0.00    -0.550 OA
ATOM     24  O   UNL     1       8.797  -1.863 -19.579  1.00  0.00    -0.550 OA
ENDBRANCH  21  22
ENDBRANCH  20  21
ENDBRANCH  19  20
ENDBRANCH  18  19
ENDBRANCH  17  18
ENDBRANCH  16  17
ENDBRANCH  15  16
ENDBRANCH  14  15
ENDBRANCH  13  14
ENDBRANCH   1  13
TORSDOF 20
ENDMDL
MODEL 8
REMARK VINA RESULT:    -3.966      9.311     12.549
REMARK INTER + INTRA:         -10.889
REMARK INTER:                  -6.652
REMARK INTRA:                  -4.237
REMARK UNBOUND:                -2.287
REMARK SMILES CCCCCCCCCCCCCCCCCCCCCC(=O)[O-]
REMARK SMILES IDX 12 1 11 2 10 3 9 4 8 5 7 6 6 7 5 8 4 9 3 10 2 11 1 12 13 13
REMARK SMILES IDX 14 14 15 15 16 16 17 17 18 18 19 19 20 20 21 21 22 22 23 23
REMARK SMILES IDX 24 24
REMARK H PARENT
REMARK Flexibility Score: inf
ROOT
ATOM      1  C   UNL     1      -1.761 -12.729 -20.167  1.00  0.00     0.000 C 
ENDROOT
BRANCH   1   2
ATOM      2  C   UNL     1      -1.192 -12.535 -18.752  1.00  0.00     0.000 C 
BRANCH   2   3
ATOM      3  C   UNL     1       0.296 -12.916 -18.654  1.00  0.00     0.000 C 
BRANCH   3   4
ATOM      4  C   UNL     1       0.697 -13.406 -17.250  1.00  0.00    -0.000 C 
BRANCH   4   5
ATOM      5  C   UNL     1       0.014 -14.708 -16.797  1.00  0.00    -0.000 C 
BRANCH   5   6
ATOM      6  C   UNL     1      -0.591 -14.604 -15.387  1.00  0.00    -0.000 C 
BRANCH   6   7
ATOM      7  C   UNL     1      -2.106 -14.344 -15.417  1.00  0.00    -0.000 C 
BRANCH   7   8
ATOM      8  C   UNL     1      -2.452 -12.858 -15.219  1.00  0.00    -0.000 C 
BRANCH   8   9
ATOM      9  C   UNL     1      -1.337 -12.092 -14.477  1.00  0.00    -0.000 C 
BRANCH   9  10
ATOM     10  C   UNL     1      -1.266 -10.592 -14.825  1.00  0.00    -0.000 C 
BRANCH  10  11
ATOM     11  C   UNL     1       0.041 -10.168 -15.522  1.00  0.00    -0.003 C 
ATOM     12  C   UNL     1      -0.205  -9.482 -16.866  1.00  0.00     0.004 C 
ENDBRANCH  10  11
ENDBRANCH   9  10
ENDBRANCH   8   9
ENDBRANCH   7   8
ENDBRANCH   6   7
ENDBRANCH   5   6
ENDBRANCH   4   5
ENDBRANCH   3   4
ENDBRANCH   2   3
ENDBRANCH   1   2
BRANCH   1  13
ATOM     13  C   UNL     1      -3.162 -13.358 -20.161  1.00  0.00     0.000 C 
BRANCH  13  14
ATOM     14  C   UNL     1      -3.379 -14.200 -18.894  1.00  0.00     0.000 C 
BRANCH  14  15
ATOM     15  C   UNL     1      -4.857 -14.551 -18.659  1.00  0.00     0.000 C 
BRANCH  15  16
ATOM     16  C   UNL     1      -5.539 -13.762 -17.524  1.00  0.00     0.000 C 
BRANCH  16  17
ATOM     17  C   UNL     1      -5.497 -12.231 -17.716  1.00  0.00     0.000 C 
BRANCH  17  18
ATOM     18  C   UNL     1      -5.564 -11.473 -16.379  1.00  0.00     0.000 C 
BRANCH  18  19
ATOM     19  C   UNL     1      -4.700 -10.202 -16.372  1.00  0.00     0.000 C 
BRANCH  19  20
ATOM     20  C   UNL     1      -3.756 -10.120 -17.580  1.00  0.00     0.006 C 
BRANCH  20  21
ATOM     21  C   UNL     1      -3.735  -8.701 -18.162  1.00  0.00     0.053 C 
BRANCH  21  22
ATOM     22  C   UNL     1      -5.072  -8.335 -18.727  1.00  0.00     0.041 C 
ATOM     23  O   UNL     1      -5.660  -9.114 -19.524  1.00  0.00    -0.550 OA
ATOM     24  O   UNL     1      -5.669  -7.127 -18.380  1.00  0.00    -0.550 OA
ENDBRANCH  21  22
ENDBRANCH  20  21
ENDBRANCH  19  20
ENDBRANCH  18  19
ENDBRANCH  17  18
ENDBRANCH  16  17
ENDBRANCH  15  16
ENDBRANCH  14  15
ENDBRANCH  13  14
ENDBRANCH   1  13
TORSDOF 20
ENDMDL
MODEL 9
REMARK VINA RESULT:    -3.936      9.840     11.748
REMARK INTER + INTRA:         -10.824
REMARK INTER:                  -8.067
REMARK INTRA:                  -2.757
REMARK UNBOUND:                -2.287
REMARK SMILES CCCCCCCCCCCCCCCCCCCCCC(=O)[O-]
REMARK SMILES IDX 12 1 11 2 10 3 9 4 8 5 7 6 6 7 5 8 4 9 3 10 2 11 1 12 13 13
REMARK SMILES IDX 14 14 15 15 16 16 17 17 18 18 19 19 20 20 21 21 22 22 23 23
REMARK SMILES IDX 24 24
REMARK H PARENT
REMARK Flexibility Score: inf
ROOT
ATOM      1  C   UNL     1      -0.138  -7.790 -13.623  1.00  0.00     0.000 C 
ENDROOT
BRANCH   1   2
ATOM      2  C   UNL     1       0.757  -6.587 -13.963  1.00  0.00     0.000 C 
BRANCH   2   3
ATOM      3  C   UNL     1       0.320  -5.300 -13.242  1.00  0.00     0.000 C 
BRANCH   3   4
ATOM      4  C   UNL     1      -1.083  -5.412 -12.617  1.00  0.00    -0.000 C 
BRANCH   4   5
ATOM      5  C   UNL     1      -2.117  -4.408 -13.155  1.00  0.00    -0.000 C 
BRANCH   5   6
ATOM      6  C   UNL     1      -1.874  -4.033 -14.626  1.00  0.00    -0.000 C 
BRANCH   6   7
ATOM      7  C   UNL     1      -3.089  -4.337 -15.518  1.00  0.00    -0.000 C 
BRANCH   7   8
ATOM      8  C   UNL     1      -3.108  -5.796 -16.008  1.00  0.00    -0.000 C 
BRANCH   8   9
ATOM      9  C   UNL     1      -2.552  -5.940 -17.439  1.00  0.00    -0.000 C 
BRANCH   9  10
ATOM     10  C   UNL     1      -3.598  -6.389 -18.479  1.00  0.00    -0.000 C 
BRANCH  10  11
ATOM     11  C   UNL     1      -5.024  -6.540 -17.915  1.00  0.00    -0.003 C 
ATOM     12  C   UNL     1      -6.085  -6.633 -19.012  1.00  0.00     0.004 C 
ENDBRANCH  10  11
ENDBRANCH   9  10
ENDBRANCH   8   9
ENDBRANCH   7   8
ENDBRANCH   6   7
ENDBRANCH   5   6
ENDBRANCH   4   5
ENDBRANCH   3   4
ENDBRANCH   2   3
ENDBRANCH   1   2
BRANCH   1  13
ATOM     13  C   UNL     1      -0.714  -8.473 -14.873  1.00  0.00     0.000 C 
BRANCH  13  14
ATOM     14  C   UNL     1      -0.868  -9.985 -14.650  1.00  0.00     0.000 C 
BRANCH  14  15
ATOM     15  C   UNL     1      -1.951 -10.611 -15.544  1.00  0.00     0.000 C 
BRANCH  15  16
ATOM     16  C   UNL     1      -2.621  -9.635 -16.532  1.00  0.00     0.000 C 
BRANCH  16  17
ATOM     17  C   UNL     1      -4.153  -9.537 -16.372  1.00  0.00     0.000 C 
BRANCH  17  18
ATOM     18  C   UNL     1      -4.901 -10.472 -17.338  1.00  0.00     0.000 C 
BRANCH  18  19
ATOM     19  C   UNL     1      -5.751 -11.525 -16.608  1.00  0.00     0.000 C 
BRANCH  19  20
ATOM     20  C   UNL     1      -5.512 -12.948 -17.135  1.00  0.00     0.006 C 
BRANCH  20  21
ATOM     21  C   UNL     1      -4.035 -13.340 -17.001  1.00  0.00     0.053 C 
BRANCH  21  22
ATOM     22  C   UNL     1      -3.492 -13.831 -18.307  1.00  0.00     0.041 C 
ATOM     23  O   UNL     1      -3.909 -13.344 -19.391  1.00  0.00    -0.550 OA
ATOM     24  O   UNL     1      -2.530 -14.835 -18.329  1.00  0.00    -0.550 OA
ENDBRANCH  21  22
ENDBRANCH  20  21
ENDBRANCH  19  20
ENDBRANCH  18  19
ENDBRANCH  17  18
ENDBRANCH  16  17
ENDBRANCH  15  16
ENDBRANCH  14  15
ENDBRANCH  13  14
ENDBRANCH   1  13
TORSDOF 20
ENDMDL
