MODEL 1
REMARK VINA RESULT:    -3.052      0.000      0.000
REMARK INTER + INTRA:         -10.367
REMARK INTER:                  -6.621
REMARK INTRA:                  -3.746
REMARK UNBOUND:                -3.746
REMARK SMILES CCCCCCCCCCCCCCCCCCCCCC(=O)[O-]
REMARK SMILES IDX 12 1 11 2 10 3 9 4 8 5 7 6 6 7 5 8 4 9 3 10 2 11 1 12 13 13
REMARK SMILES IDX 14 14 15 15 16 16 17 17 18 18 19 19 20 20 21 21 22 22 23 23
REMARK SMILES IDX 24 24
REMARK H PARENT
REMARK Flexibility Score: inf
ROOT
ATOM      1  C   UNL     1      30.002  33.268  52.329  1.00  0.00     0.000 C 
ENDROOT
BRANCH   1   2
ATOM      2  C   UNL     1      29.310  34.016  53.483  1.00  0.00     0.000 C 
BRANCH   2   3
ATOM      3  C   UNL     1      27.993  33.387  53.973  1.00  0.00     0.000 C 
BRANCH   3   4
ATOM      4  C   UNL     1      26.797  34.349  53.863  1.00  0.00    -0.000 C 
BRANCH   4   5
ATOM      5  C   UNL     1      25.568  33.701  53.204  1.00  0.00    -0.000 C 
BRANCH   5   6
ATOM      6  C   UNL     1      25.862  32.295  52.653  1.00  0.00    -0.000 C 
BRANCH   6   7
ATOM      7  C   UNL     1      24.908  31.221  53.208  1.00  0.00    -0.000 C 
BRANCH   7   8
ATOM      8  C   UNL     1      24.753  31.210  54.741  1.00  0.00    -0.000 C 
BRANCH   8   9
ATOM      9  C   UNL     1      24.971  29.820  55.357  1.00  0.00    -0.000 C 
BRANCH   9  10
ATOM     10  C   UNL     1      24.869  29.873  56.887  1.00  0.00    -0.000 C 
BRANCH  10  11
ATOM     11  C   UNL     1      26.039  29.126  57.540  1.00  0.00    -0.003 C 
ATOM     12  C   UNL     1      27.078  30.101  58.088  1.00  0.00     0.004 C 
ENDBRANCH  10  11
ENDBRANCH   9  10
ENDBRANCH   8   9
ENDBRANCH   7   8
ENDBRANCH   6   7
ENDBRANCH   5   6
ENDBRANCH   4   5
ENDBRANCH   3   4
ENDBRANCH   2   3
ENDBRANCH   1   2
BRANCH   1  13
ATOM     13  C   UNL     1      29.042  32.917  51.182  1.00  0.00     0.000 C 
BRANCH  13  14
ATOM     14  C   UNL     1      29.143  31.431  50.818  1.00  0.00     0.000 C 
BRANCH  14  15
ATOM     15  C   UNL     1      30.255  30.738  51.623  1.00  0.00     0.000 C 
BRANCH  15  16
ATOM     16  C   UNL     1      29.741  29.492  52.373  1.00  0.00     0.000 C 
BRANCH  16  17
ATOM     17  C   UNL     1      28.421  29.722  53.130  1.00  0.00     0.000 C 
BRANCH  17  18
ATOM     18  C   UNL     1      28.632  30.010  54.625  1.00  0.00     0.000 C 
BRANCH  18  19
ATOM     19  C   UNL     1      30.114  30.205  54.999  1.00  0.00     0.000 C 
BRANCH  19  20
ATOM     20  C   UNL     1      30.378  30.581  56.472  1.00  0.00     0.006 C 
BRANCH  20  21
ATOM     21  C   UNL     1      30.016  32.029  56.842  1.00  0.00     0.053 C 
BRANCH  21  22
ATOM     22  C   UNL     1      31.228  32.905  56.923  1.00  0.00     0.041 C 
ATOM     23  O   UNL     1      32.359  32.403  57.161  1.00  0.00    -0.550 OA
ATOM     24  O   UNL     1      31.116  34.272  56.703  1.00  0.00    -0.550 OA
ENDBRANCH  21  22
ENDBRANCH  20  21
ENDBRANCH  19  20
ENDBRANCH  18  19
ENDBRANCH  17  18
ENDBRANCH  16  17
ENDBRANCH  15  16
ENDBRANCH  14  15
ENDBRANCH  13  14
ENDBRANCH   1  13
TORSDOF 20
ENDMDL
MODEL 2
REMARK VINA RESULT:    -3.006      3.649      6.199
REMARK INTER + INTRA:         -10.266
REMARK INTER:                  -6.519
REMARK INTRA:                  -3.747
REMARK UNBOUND:                -3.746
REMARK SMILES CCCCCCCCCCCCCCCCCCCCCC(=O)[O-]
REMARK SMILES IDX 12 1 11 2 10 3 9 4 8 5 7 6 6 7 5 8 4 9 3 10 2 11 1 12 13 13
REMARK SMILES IDX 14 14 15 15 16 16 17 17 18 18 19 19 20 20 21 21 22 22 23 23
REMARK SMILES IDX 24 24
REMARK H PARENT
REMARK Flexibility Score: inf
ROOT
ATOM      1  C   UNL     1      29.136  34.377  53.972  1.00  0.00     0.000 C 
ENDROOT
BRANCH   1   2
ATOM      2  C   UNL     1      30.502  34.154  54.646  1.00  0.00     0.000 C 
BRANCH   2   3
ATOM      3  C   UNL     1      31.246  32.879  54.208  1.00  0.00     0.000 C 
BRANCH   3   4
ATOM      4  C   UNL     1      31.391  31.853  55.346  1.00  0.00    -0.000 C 
BRANCH   4   5
ATOM      5  C   UNL     1      30.695  32.296  56.643  1.00  0.00    -0.000 C 
BRANCH   5   6
ATOM      6  C   UNL     1      29.508  31.391  57.019  1.00  0.00    -0.000 C 
BRANCH   6   7
ATOM      7  C   UNL     1      28.409  31.364  55.940  1.00  0.00    -0.000 C 
BRANCH   7   8
ATOM      8  C   UNL     1      27.758  29.989  55.701  1.00  0.00    -0.000 C 
BRANCH   8   9
ATOM      9  C   UNL     1      28.473  29.166  54.619  1.00  0.00    -0.000 C 
BRANCH   9  10
ATOM     10  C   UNL     1      28.309  29.809  53.237  1.00  0.00    -0.000 C 
BRANCH  10  11
ATOM     11  C   UNL     1      29.642  29.824  52.478  1.00  0.00    -0.003 C 
ATOM     12  C   UNL     1      30.730  29.092  53.260  1.00  0.00     0.004 C 
ENDBRANCH  10  11
ENDBRANCH   9  10
ENDBRANCH   8   9
ENDBRANCH   7   8
ENDBRANCH   6   7
ENDBRANCH   5   6
ENDBRANCH   4   5
ENDBRANCH   3   4
ENDBRANCH   2   3
ENDBRANCH   1   2
BRANCH   1  13
ATOM     13  C   UNL     1      28.965  33.561  52.682  1.00  0.00     0.000 C 
BRANCH  13  14
ATOM     14  C   UNL     1      27.491  33.209  52.448  1.00  0.00     0.000 C 
BRANCH  14  15
ATOM     15  C   UNL     1      26.602  33.776  53.567  1.00  0.00     0.000 C 
BRANCH  15  16
ATOM     16  C   UNL     1      25.283  32.990  53.717  1.00  0.00     0.000 C 
BRANCH  16  17
ATOM     17  C   UNL     1      25.207  31.728  52.840  1.00  0.00     0.000 C 
BRANCH  17  18
ATOM     18  C   UNL     1      24.573  30.533  53.568  1.00  0.00     0.000 C 
BRANCH  18  19
ATOM     19  C   UNL     1      24.451  30.746  55.089  1.00  0.00     0.000 C 
BRANCH  19  20
ATOM     20  C   UNL     1      23.464  29.804  55.810  1.00  0.00     0.006 C 
BRANCH  20  21
ATOM     21  C   UNL     1      22.141  29.564  55.064  1.00  0.00     0.053 C 
BRANCH  21  22
ATOM     22  C   UNL     1      20.954  29.961  55.886  1.00  0.00     0.041 C 
ATOM     23  O   UNL     1      19.807  29.999  55.368  1.00  0.00    -0.550 OA
ATOM     24  O   UNL     1      21.108  30.256  57.235  1.00  0.00    -0.550 OA
ENDBRANCH  21  22
ENDBRANCH  20  21
ENDBRANCH  19  20
ENDBRANCH  18  19
ENDBRANCH  17  18
ENDBRANCH  16  17
ENDBRANCH  15  16
ENDBRANCH  14  15
ENDBRANCH  13  14
ENDBRANCH   1  13
TORSDOF 20
ENDMDL
MODEL 3
REMARK VINA RESULT:    -2.992     16.840     19.205
REMARK INTER + INTRA:         -10.236
REMARK INTER:                  -6.810
REMARK INTRA:                  -3.426
REMARK UNBOUND:                -3.746
REMARK SMILES CCCCCCCCCCCCCCCCCCCCCC(=O)[O-]
REMARK SMILES IDX 12 1 11 2 10 3 9 4 8 5 7 6 6 7 5 8 4 9 3 10 2 11 1 12 13 13
REMARK SMILES IDX 14 14 15 15 16 16 17 17 18 18 19 19 20 20 21 21 22 22 23 23
REMARK SMILES IDX 24 24
REMARK H PARENT
REMARK Flexibility Score: inf
ROOT
ATOM      1  C   UNL     1      21.260  21.085  43.146  1.00  0.00     0.000 C 
ENDROOT
BRANCH   1   2
ATOM      2  C   UNL     1      20.312  20.304  44.075  1.00  0.00     0.000 C 
BRANCH   2   3
ATOM      3  C   UNL     1      20.874  18.976  44.615  1.00  0.00     0.000 C 
BRANCH   3   4
ATOM      4  C   UNL     1      22.337  19.092  45.078  1.00  0.00    -0.000 C 
BRANCH   4   5
ATOM      5  C   UNL     1      23.275  18.120  44.344  1.00  0.00    -0.000 C 
BRANCH   5   6
ATOM      6  C   UNL     1      22.570  17.360  43.207  1.00  0.00    -0.000 C 
BRANCH   6   7
ATOM      7  C   UNL     1      22.949  17.886  41.809  1.00  0.00    -0.000 C 
BRANCH   7   8
ATOM      8  C   UNL     1      24.055  18.957  41.789  1.00  0.00    -0.000 C 
BRANCH   8   9
ATOM      9  C   UNL     1      23.878  19.983  40.660  1.00  0.00    -0.000 C 
BRANCH   9  10
ATOM     10  C   UNL     1      24.560  21.312  41.009  1.00  0.00    -0.000 C 
BRANCH  10  11
ATOM     11  C   UNL     1      25.440  21.164  42.257  1.00  0.00    -0.003 C 
ATOM     12  C   UNL     1      26.919  21.316  41.910  1.00  0.00     0.004 C 
ENDBRANCH  10  11
ENDBRANCH   9  10
ENDBRANCH   8   9
ENDBRANCH   7   8
ENDBRANCH   6   7
ENDBRANCH   5   6
ENDBRANCH   4   5
ENDBRANCH   3   4
ENDBRANCH   2   3
ENDBRANCH   1   2
BRANCH   1  13
ATOM     13  C   UNL     1      20.634  21.398  41.779  1.00  0.00     0.000 C 
BRANCH  13  14
ATOM     14  C   UNL     1      20.063  20.130  41.133  1.00  0.00     0.000 C 
BRANCH  14  15
ATOM     15  C   UNL     1      18.731  20.422  40.424  1.00  0.00     0.000 C 
BRANCH  15  16
ATOM     16  C   UNL     1      17.513  20.015  41.280  1.00  0.00     0.000 C 
BRANCH  16  17
ATOM     17  C   UNL     1      16.683  21.208  41.784  1.00  0.00     0.000 C 
BRANCH  17  18
ATOM     18  C   UNL     1      17.150  21.725  43.154  1.00  0.00     0.000 C 
BRANCH  18  19
ATOM     19  C   UNL     1      16.228  21.294  44.310  1.00  0.00     0.000 C 
BRANCH  19  20
ATOM     20  C   UNL     1      16.928  20.568  45.477  1.00  0.00     0.006 C 
BRANCH  20  21
ATOM     21  C   UNL     1      17.095  19.052  45.284  1.00  0.00     0.053 C 
BRANCH  21  22
ATOM     22  C   UNL     1      16.505  18.274  46.419  1.00  0.00     0.041 C 
ATOM     23  O   UNL     1      17.167  18.090  47.474  1.00  0.00    -0.550 OA
ATOM     24  O   UNL     1      15.210  17.780  46.327  1.00  0.00    -0.550 OA
ENDBRANCH  21  22
ENDBRANCH  20  21
ENDBRANCH  19  20
ENDBRANCH  18  19
ENDBRANCH  17  18
ENDBRANCH  16  17
ENDBRANCH  15  16
ENDBRANCH  14  15
ENDBRANCH  13  14
ENDBRANCH   1  13
TORSDOF 20
ENDMDL
MODEL 4
REMARK VINA RESULT:    -2.981      2.426      4.883
REMARK INTER + INTRA:         -10.211
REMARK INTER:                  -6.512
REMARK INTRA:                  -3.700
REMARK UNBOUND:                -3.746
REMARK SMILES CCCCCCCCCCCCCCCCCCCCCC(=O)[O-]
REMARK SMILES IDX 12 1 11 2 10 3 9 4 8 5 7 6 6 7 5 8 4 9 3 10 2 11 1 12 13 13
REMARK SMILES IDX 14 14 15 15 16 16 17 17 18 18 19 19 20 20 21 21 22 22 23 23
REMARK SMILES IDX 24 24
REMARK H PARENT
REMARK Flexibility Score: inf
ROOT
ATOM      1  C   UNL     1      30.533  33.007  53.000  1.00  0.00     0.000 C 
ENDROOT
BRANCH   1   2
ATOM      2  C   UNL     1      29.398  33.981  53.369  1.00  0.00     0.000 C 
BRANCH   2   3
ATOM      3  C   UNL     1      28.121  33.318  53.917  1.00  0.00     0.000 C 
BRANCH   3   4
ATOM      4  C   UNL     1      26.879  34.215  53.780  1.00  0.00    -0.000 C 
BRANCH   4   5
ATOM      5  C   UNL     1      25.611  33.427  53.410  1.00  0.00    -0.000 C 
BRANCH   5   6
ATOM      6  C   UNL     1      25.796  32.563  52.150  1.00  0.00    -0.000 C 
BRANCH   6   7
ATOM      7  C   UNL     1      25.544  33.342  50.846  1.00  0.00    -0.000 C 
BRANCH   7   8
ATOM      8  C   UNL     1      26.629  33.181  49.765  1.00  0.00    -0.000 C 
BRANCH   8   9
ATOM      9  C   UNL     1      27.847  32.382  50.251  1.00  0.00    -0.000 C 
BRANCH   9  10
ATOM     10  C   UNL     1      29.136  32.882  49.587  1.00  0.00    -0.000 C 
BRANCH  10  11
ATOM     11  C   UNL     1      29.729  31.809  48.665  1.00  0.00    -0.003 C 
ATOM     12  C   UNL     1      30.651  30.867  49.435  1.00  0.00     0.004 C 
ENDBRANCH  10  11
ENDBRANCH   9  10
ENDBRANCH   8   9
ENDBRANCH   7   8
ENDBRANCH   6   7
ENDBRANCH   5   6
ENDBRANCH   4   5
ENDBRANCH   3   4
ENDBRANCH   2   3
ENDBRANCH   1   2
BRANCH   1  13
ATOM     13  C   UNL     1      30.093  31.536  53.031  1.00  0.00     0.000 C 
BRANCH  13  14
ATOM     14  C   UNL     1      31.275  30.617  53.362  1.00  0.00     0.000 C 
BRANCH  14  15
ATOM     15  C   UNL     1      32.361  31.373  54.144  1.00  0.00     0.000 C 
BRANCH  15  16
ATOM     16  C   UNL     1      32.815  30.604  55.402  1.00  0.00     0.000 C 
BRANCH  16  17
ATOM     17  C   UNL     1      32.285  31.197  56.719  1.00  0.00     0.000 C 
BRANCH  17  18
ATOM     18  C   UNL     1      31.465  32.479  56.508  1.00  0.00     0.000 C 
BRANCH  18  19
ATOM     19  C   UNL     1      30.035  32.382  57.074  1.00  0.00     0.000 C 
BRANCH  19  20
ATOM     20  C   UNL     1      29.490  30.950  57.248  1.00  0.00     0.006 C 
BRANCH  20  21
ATOM     21  C   UNL     1      28.552  30.477  56.125  1.00  0.00     0.053 C 
BRANCH  21  22
ATOM     22  C   UNL     1      27.260  29.942  56.661  1.00  0.00     0.041 C 
ATOM     23  O   UNL     1      26.492  29.277  55.918  1.00  0.00    -0.550 OA
ATOM     24  O   UNL     1      26.920  30.149  57.992  1.00  0.00    -0.550 OA
ENDBRANCH  21  22
ENDBRANCH  20  21
ENDBRANCH  19  20
ENDBRANCH  18  19
ENDBRANCH  17  18
ENDBRANCH  16  17
ENDBRANCH  15  16
ENDBRANCH  14  15
ENDBRANCH  13  14
ENDBRANCH   1  13
TORSDOF 20
ENDMDL
MODEL 5
REMARK VINA RESULT:    -2.975      3.267      5.896
REMARK INTER + INTRA:         -10.199
REMARK INTER:                  -6.305
REMARK INTRA:                  -3.894
REMARK UNBOUND:                -3.746
REMARK SMILES CCCCCCCCCCCCCCCCCCCCCC(=O)[O-]
REMARK SMILES IDX 12 1 11 2 10 3 9 4 8 5 7 6 6 7 5 8 4 9 3 10 2 11 1 12 13 13
REMARK SMILES IDX 14 14 15 15 16 16 17 17 18 18 19 19 20 20 21 21 22 22 23 23
REMARK SMILES IDX 24 24
REMARK H PARENT
REMARK Flexibility Score: inf
ROOT
ATOM      1  C   UNL     1      31.318  30.103  52.299  1.00  0.00     0.000 C 
ENDROOT
BRANCH   1   2
ATOM      2  C   UNL     1      32.164  29.982  53.580  1.00  0.00     0.000 C 
BRANCH   2   3
ATOM      3  C   UNL     1      32.392  31.302  54.339  1.00  0.00     0.000 C 
BRANCH   3   4
ATOM      4  C   UNL     1      33.037  31.091  55.720  1.00  0.00    -0.000 C 
BRANCH   4   5
ATOM      5  C   UNL     1      32.284  31.814  56.849  1.00  0.00    -0.000 C 
BRANCH   5   6
ATOM      6  C   UNL     1      30.986  32.482  56.363  1.00  0.00    -0.000 C 
BRANCH   6   7
ATOM      7  C   UNL     1      29.718  31.789  56.896  1.00  0.00    -0.000 C 
BRANCH   7   8
ATOM      8  C   UNL     1      29.250  30.564  56.089  1.00  0.00    -0.000 C 
BRANCH   8   9
ATOM      9  C   UNL     1      29.351  29.250  56.876  1.00  0.00    -0.000 C 
BRANCH   9  10
ATOM     10  C   UNL     1      30.484  28.368  56.336  1.00  0.00    -0.000 C 
BRANCH  10  11
ATOM     11  C   UNL     1      31.336  27.809  57.482  1.00  0.00    -0.003 C 
ATOM     12  C   UNL     1      31.291  28.726  58.702  1.00  0.00     0.004 C 
ENDBRANCH  10  11
ENDBRANCH   9  10
ENDBRANCH   8   9
ENDBRANCH   7   8
ENDBRANCH   6   7
ENDBRANCH   5   6
ENDBRANCH   4   5
ENDBRANCH   3   4
ENDBRANCH   2   3
ENDBRANCH   1   2
BRANCH   1  13
ATOM     13  C   UNL     1      30.081  30.995  52.481  1.00  0.00     0.000 C 
BRANCH  13  14
ATOM     14  C   UNL     1      29.825  31.840  51.227  1.00  0.00     0.000 C 
BRANCH  14  15
ATOM     15  C   UNL     1      29.595  33.315  51.591  1.00  0.00     0.000 C 
BRANCH  15  16
ATOM     16  C   UNL     1      29.725  33.568  53.107  1.00  0.00     0.000 C 
BRANCH  16  17
ATOM     17  C   UNL     1      28.437  34.095  53.762  1.00  0.00     0.000 C 
BRANCH  17  18
ATOM     18  C   UNL     1      27.400  32.989  54.016  1.00  0.00     0.000 C 
BRANCH  18  19
ATOM     19  C   UNL     1      25.948  33.466  53.821  1.00  0.00     0.000 C 
BRANCH  19  20
ATOM     20  C   UNL     1      25.475  33.558  52.356  1.00  0.00     0.006 C 
BRANCH  20  21
ATOM     21  C   UNL     1      26.011  32.449  51.435  1.00  0.00     0.053 C 
BRANCH  21  22
ATOM     22  C   UNL     1      25.863  32.802  49.987  1.00  0.00     0.041 C 
ATOM     23  O   UNL     1      24.813  32.495  49.363  1.00  0.00    -0.550 OA
ATOM     24  O   UNL     1      26.870  33.502  49.335  1.00  0.00    -0.550 OA
ENDBRANCH  21  22
ENDBRANCH  20  21
ENDBRANCH  19  20
ENDBRANCH  18  19
ENDBRANCH  17  18
ENDBRANCH  16  17
ENDBRANCH  15  16
ENDBRANCH  14  15
ENDBRANCH  13  14
ENDBRANCH   1  13
TORSDOF 20
ENDMDL
MODEL 6
REMARK VINA RESULT:    -2.902     15.538     17.942
REMARK INTER + INTRA:         -10.042
REMARK INTER:                  -6.334
REMARK INTRA:                  -3.708
REMARK UNBOUND:                -3.746
REMARK SMILES CCCCCCCCCCCCCCCCCCCCCC(=O)[O-]
REMARK SMILES IDX 12 1 11 2 10 3 9 4 8 5 7 6 6 7 5 8 4 9 3 10 2 11 1 12 13 13
REMARK SMILES IDX 14 14 15 15 16 16 17 17 18 18 19 19 20 20 21 21 22 22 23 23
REMARK SMILES IDX 24 24
REMARK H PARENT
REMARK Flexibility Score: inf
ROOT
ATOM      1  C   UNL     1      24.395  20.467  41.277  1.00  0.00     0.000 C 
ENDROOT
BRANCH   1   2
ATOM      2  C   UNL     1      24.075  18.970  41.105  1.00  0.00     0.000 C 
BRANCH   2   3
ATOM      3  C   UNL     1      22.678  18.541  41.591  1.00  0.00     0.000 C 
BRANCH   3   4
ATOM      4  C   UNL     1      22.733  17.616  42.819  1.00  0.00    -0.000 C 
BRANCH   4   5
ATOM      5  C   UNL     1      22.094  18.243  44.069  1.00  0.00    -0.000 C 
BRANCH   5   6
ATOM      6  C   UNL     1      23.054  19.187  44.816  1.00  0.00    -0.000 C 
BRANCH   6   7
ATOM      7  C   UNL     1      24.424  18.545  45.102  1.00  0.00    -0.000 C 
BRANCH   7   8
ATOM      8  C   UNL     1      25.643  19.363  44.636  1.00  0.00    -0.000 C 
BRANCH   8   9
ATOM      9  C   UNL     1      25.439  20.879  44.779  1.00  0.00    -0.000 C 
BRANCH   9  10
ATOM     10  C   UNL     1      26.662  21.651  44.269  1.00  0.00    -0.000 C 
BRANCH  10  11
ATOM     11  C   UNL     1      27.650  20.710  43.567  1.00  0.00    -0.003 C 
ATOM     12  C   UNL     1      27.814  21.080  42.095  1.00  0.00     0.004 C 
ENDBRANCH  10  11
ENDBRANCH   9  10
ENDBRANCH   8   9
ENDBRANCH   7   8
ENDBRANCH   6   7
ENDBRANCH   5   6
ENDBRANCH   4   5
ENDBRANCH   3   4
ENDBRANCH   2   3
ENDBRANCH   1   2
BRANCH   1  13
ATOM     13  C   UNL     1      23.144  21.357  41.220  1.00  0.00     0.000 C 
BRANCH  13  14
ATOM     14  C   UNL     1      22.987  22.166  42.513  1.00  0.00     0.000 C 
BRANCH  14  15
ATOM     15  C   UNL     1      21.559  22.048  43.069  1.00  0.00     0.000 C 
BRANCH  15  16
ATOM     16  C   UNL     1      20.567  21.513  42.016  1.00  0.00     0.000 C 
BRANCH  16  17
ATOM     17  C   UNL     1      19.549  20.505  42.578  1.00  0.00     0.000 C 
BRANCH  17  18
ATOM     18  C   UNL     1      19.293  20.690  44.082  1.00  0.00     0.000 C 
BRANCH  18  19
ATOM     19  C   UNL     1      18.026  19.963  44.573  1.00  0.00     0.000 C 
BRANCH  19  20
ATOM     20  C   UNL     1      18.274  18.789  45.543  1.00  0.00     0.006 C 
BRANCH  20  21
ATOM     21  C   UNL     1      17.174  18.583  46.598  1.00  0.00     0.053 C 
BRANCH  21  22
ATOM     22  C   UNL     1      17.569  19.133  47.934  1.00  0.00     0.041 C 
ATOM     23  O   UNL     1      17.701  20.375  48.096  1.00  0.00    -0.550 OA
ATOM     24  O   UNL     1      17.760  18.276  49.011  1.00  0.00    -0.550 OA
ENDBRANCH  21  22
ENDBRANCH  20  21
ENDBRANCH  19  20
ENDBRANCH  18  19
ENDBRANCH  17  18
ENDBRANCH  16  17
ENDBRANCH  15  16
ENDBRANCH  14  15
ENDBRANCH  13  14
ENDBRANCH   1  13
TORSDOF 20
ENDMDL
MODEL 7
REMARK VINA RESULT:    -2.885      3.568      6.233
REMARK INTER + INTRA:         -10.004
REMARK INTER:                  -6.787
REMARK INTRA:                  -3.217
REMARK UNBOUND:                -3.746
REMARK SMILES CCCCCCCCCCCCCCCCCCCCCC(=O)[O-]
REMARK SMILES IDX 12 1 11 2 10 3 9 4 8 5 7 6 6 7 5 8 4 9 3 10 2 11 1 12 13 13
REMARK SMILES IDX 14 14 15 15 16 16 17 17 18 18 19 19 20 20 21 21 22 22 23 23
REMARK SMILES IDX 24 24
REMARK H PARENT
REMARK Flexibility Score: inf
ROOT
ATOM      1  C   UNL     1      30.581  30.924  55.562  1.00  0.00     0.000 C 
ENDROOT
BRANCH   1   2
ATOM      2  C   UNL     1      31.499  32.153  55.432  1.00  0.00     0.000 C 
BRANCH   2   3
ATOM      3  C   UNL     1      30.874  33.486  55.885  1.00  0.00     0.000 C 
BRANCH   3   4
ATOM      4  C   UNL     1      30.539  34.418  54.708  1.00  0.00    -0.000 C 
BRANCH   4   5
ATOM      5  C   UNL     1      29.179  34.103  54.064  1.00  0.00    -0.000 C 
BRANCH   5   6
ATOM      6  C   UNL     1      29.309  33.612  52.612  1.00  0.00    -0.000 C 
BRANCH   6   7
ATOM      7  C   UNL     1      29.033  32.104  52.460  1.00  0.00    -0.000 C 
BRANCH   7   8
ATOM      8  C   UNL     1      27.866  31.742  51.523  1.00  0.00    -0.000 C 
BRANCH   8   9
ATOM      9  C   UNL     1      26.693  32.729  51.613  1.00  0.00    -0.000 C 
BRANCH   9  10
ATOM     10  C   UNL     1      25.515  32.118  52.382  1.00  0.00    -0.000 C 
BRANCH  10  11
ATOM     11  C   UNL     1      25.357  32.778  53.757  1.00  0.00    -0.003 C 
ATOM     12  C   UNL     1      25.619  34.281  53.682  1.00  0.00     0.004 C 
ENDBRANCH  10  11
ENDBRANCH   9  10
ENDBRANCH   8   9
ENDBRANCH   7   8
ENDBRANCH   6   7
ENDBRANCH   5   6
ENDBRANCH   4   5
ENDBRANCH   3   4
ENDBRANCH   2   3
ENDBRANCH   1   2
BRANCH   1  13
ATOM     13  C   UNL     1      30.149  30.650  57.010  1.00  0.00     0.000 C 
BRANCH  13  14
ATOM     14  C   UNL     1      28.663  30.973  57.209  1.00  0.00     0.000 C 
BRANCH  14  15
ATOM     15  C   UNL     1      27.939  31.103  55.859  1.00  0.00     0.000 C 
BRANCH  15  16
ATOM     16  C   UNL     1      27.028  29.892  55.568  1.00  0.00     0.000 C 
BRANCH  16  17
ATOM     17  C   UNL     1      26.511  29.185  56.833  1.00  0.00     0.000 C 
BRANCH  17  18
ATOM     18  C   UNL     1      25.015  29.430  57.085  1.00  0.00     0.000 C 
BRANCH  18  19
ATOM     19  C   UNL     1      24.247  29.839  55.814  1.00  0.00     0.000 C 
BRANCH  19  20
ATOM     20  C   UNL     1      22.917  30.582  56.058  1.00  0.00     0.006 C 
BRANCH  20  21
ATOM     21  C   UNL     1      21.721  29.672  56.379  1.00  0.00     0.053 C 
BRANCH  21  22
ATOM     22  C   UNL     1      21.267  29.824  57.798  1.00  0.00     0.041 C 
ATOM     23  O   UNL     1      20.367  29.074  58.260  1.00  0.00    -0.550 OA
ATOM     24  O   UNL     1      21.861  30.771  58.622  1.00  0.00    -0.550 OA
ENDBRANCH  21  22
ENDBRANCH  20  21
ENDBRANCH  19  20
ENDBRANCH  18  19
ENDBRANCH  17  18
ENDBRANCH  16  17
ENDBRANCH  15  16
ENDBRANCH  14  15
ENDBRANCH  13  14
ENDBRANCH   1  13
TORSDOF 20
ENDMDL
MODEL 8
REMARK VINA RESULT:    -2.869      2.722      5.464
REMARK INTER + INTRA:          -9.969
REMARK INTER:                  -5.832
REMARK INTRA:                  -4.137
REMARK UNBOUND:                -3.746
REMARK SMILES CCCCCCCCCCCCCCCCCCCCCC(=O)[O-]
REMARK SMILES IDX 12 1 11 2 10 3 9 4 8 5 7 6 6 7 5 8 4 9 3 10 2 11 1 12 13 13
REMARK SMILES IDX 14 14 15 15 16 16 17 17 18 18 19 19 20 20 21 21 22 22 23 23
REMARK SMILES IDX 24 24
REMARK H PARENT
REMARK Flexibility Score: inf
ROOT
ATOM      1  C   UNL     1      29.073  30.175  52.371  1.00  0.00     0.000 C 
ENDROOT
BRANCH   1   2
ATOM      2  C   UNL     1      30.175  29.133  52.637  1.00  0.00     0.000 C 
BRANCH   2   3
ATOM      3  C   UNL     1      31.616  29.658  52.502  1.00  0.00     0.000 C 
BRANCH   3   4
ATOM      4  C   UNL     1      32.275  29.948  53.862  1.00  0.00    -0.000 C 
BRANCH   4   5
ATOM      5  C   UNL     1      32.174  31.427  54.272  1.00  0.00    -0.000 C 
BRANCH   5   6
ATOM      6  C   UNL     1      32.151  31.619  55.798  1.00  0.00    -0.000 C 
BRANCH   6   7
ATOM      7  C   UNL     1      30.879  32.330  56.295  1.00  0.00    -0.000 C 
BRANCH   7   8
ATOM      8  C   UNL     1      29.833  32.639  55.208  1.00  0.00    -0.000 C 
BRANCH   8   9
ATOM      9  C   UNL     1      28.525  31.854  55.390  1.00  0.00    -0.000 C 
BRANCH   9  10
ATOM     10  C   UNL     1      28.641  30.850  56.544  1.00  0.00    -0.000 C 
BRANCH  10  11
ATOM     11  C   UNL     1      28.585  29.408  56.023  1.00  0.00    -0.003 C 
ATOM     12  C   UNL     1      29.871  28.653  56.350  1.00  0.00     0.004 C 
ENDBRANCH  10  11
ENDBRANCH   9  10
ENDBRANCH   8   9
ENDBRANCH   7   8
ENDBRANCH   6   7
ENDBRANCH   5   6
ENDBRANCH   4   5
ENDBRANCH   3   4
ENDBRANCH   2   3
ENDBRANCH   1   2
BRANCH   1  13
ATOM     13  C   UNL     1      29.355  31.042  51.135  1.00  0.00     0.000 C 
BRANCH  13  14
ATOM     14  C   UNL     1      29.597  32.503  51.534  1.00  0.00     0.000 C 
BRANCH  14  15
ATOM     15  C   UNL     1      28.271  33.228  51.809  1.00  0.00     0.000 C 
BRANCH  15  16
ATOM     16  C   UNL     1      27.189  32.880  50.765  1.00  0.00     0.000 C 
BRANCH  16  17
ATOM     17  C   UNL     1      25.781  32.714  51.361  1.00  0.00     0.000 C 
BRANCH  17  18
ATOM     18  C   UNL     1      25.590  33.497  52.670  1.00  0.00     0.000 C 
BRANCH  18  19
ATOM     19  C   UNL     1      25.298  32.590  53.880  1.00  0.00     0.000 C 
BRANCH  19  20
ATOM     20  C   UNL     1      24.873  31.147  53.537  1.00  0.00     0.006 C 
BRANCH  20  21
ATOM     21  C   UNL     1      25.298  30.088  54.567  1.00  0.00     0.053 C 
BRANCH  21  22
ATOM     22  C   UNL     1      24.558  30.236  55.861  1.00  0.00     0.041 C 
ATOM     23  O   UNL     1      23.352  30.596  55.863  1.00  0.00    -0.550 OA
ATOM     24  O   UNL     1      25.190  29.942  57.062  1.00  0.00    -0.550 OA
ENDBRANCH  21  22
ENDBRANCH  20  21
ENDBRANCH  19  20
ENDBRANCH  18  19
ENDBRANCH  17  18
ENDBRANCH  16  17
ENDBRANCH  15  16
ENDBRANCH  14  15
ENDBRANCH  13  14
ENDBRANCH   1  13
TORSDOF 20
ENDMDL
MODEL 9
REMARK VINA RESULT:    -2.799      3.276      6.083
REMARK INTER + INTRA:          -9.818
REMARK INTER:                  -5.261
REMARK INTRA:                  -4.557
REMARK UNBOUND:                -3.746
REMARK SMILES CCCCCCCCCCCCCCCCCCCCCC(=O)[O-]
REMARK SMILES IDX 12 1 11 2 10 3 9 4 8 5 7 6 6 7 5 8 4 9 3 10 2 11 1 12 13 13
REMARK SMILES IDX 14 14 15 15 16 16 17 17 18 18 19 19 20 20 21 21 22 22 23 23
REMARK SMILES IDX 24 24
REMARK H PARENT
REMARK Flexibility Score: inf
ROOT
ATOM      1  C   UNL     1      28.857  30.813  52.421  1.00  0.00     0.000 C 
ENDROOT
BRANCH   1   2
ATOM      2  C   UNL     1      29.443  29.420  52.124  1.00  0.00     0.000 C 
BRANCH   2   3
ATOM      3  C   UNL     1      30.473  28.912  53.150  1.00  0.00     0.000 C 
BRANCH   3   4
ATOM      4  C   UNL     1      31.866  29.536  52.956  1.00  0.00    -0.000 C 
BRANCH   4   5
ATOM      5  C   UNL     1      32.348  30.318  54.189  1.00  0.00    -0.000 C 
BRANCH   5   6
ATOM      6  C   UNL     1      32.000  31.815  54.115  1.00  0.00    -0.000 C 
BRANCH   6   7
ATOM      7  C   UNL     1      31.247  32.318  55.362  1.00  0.00    -0.000 C 
BRANCH   7   8
ATOM      8  C   UNL     1      30.561  31.223  56.201  1.00  0.00    -0.000 C 
BRANCH   8   9
ATOM      9  C   UNL     1      29.033  31.372  56.249  1.00  0.00    -0.000 C 
BRANCH   9  10
ATOM     10  C   UNL     1      28.340  30.021  56.037  1.00  0.00    -0.000 C 
BRANCH  10  11
ATOM     11  C   UNL     1      26.913  30.215  55.509  1.00  0.00    -0.003 C 
ATOM     12  C   UNL     1      26.457  29.007  54.694  1.00  0.00     0.004 C 
ENDBRANCH  10  11
ENDBRANCH   9  10
ENDBRANCH   8   9
ENDBRANCH   7   8
ENDBRANCH   6   7
ENDBRANCH   5   6
ENDBRANCH   4   5
ENDBRANCH   3   4
ENDBRANCH   2   3
ENDBRANCH   1   2
BRANCH   1  13
ATOM     13  C   UNL     1      29.397  31.902  51.482  1.00  0.00     0.000 C 
BRANCH  13  14
ATOM     14  C   UNL     1      28.723  33.251  51.763  1.00  0.00     0.000 C 
BRANCH  14  15
ATOM     15  C   UNL     1      28.698  33.553  53.270  1.00  0.00     0.000 C 
BRANCH  15  16
ATOM     16  C   UNL     1      27.266  33.799  53.791  1.00  0.00     0.000 C 
BRANCH  16  17
ATOM     17  C   UNL     1      26.170  33.542  52.742  1.00  0.00     0.000 C 
BRANCH  17  18
ATOM     18  C   UNL     1      25.269  32.350  53.099  1.00  0.00     0.000 C 
BRANCH  18  19
ATOM     19  C   UNL     1      25.238  31.266  52.005  1.00  0.00     0.000 C 
BRANCH  19  20
ATOM     20  C   UNL     1      25.177  31.792  50.556  1.00  0.00     0.006 C 
BRANCH  20  21
ATOM     21  C   UNL     1      26.340  31.339  49.658  1.00  0.00     0.053 C 
BRANCH  21  22
ATOM     22  C   UNL     1      26.673  32.361  48.615  1.00  0.00     0.041 C 
ATOM     23  O   UNL     1      26.699  33.584  48.911  1.00  0.00    -0.550 OA
ATOM     24  O   UNL     1      26.989  31.960  47.323  1.00  0.00    -0.550 OA
ENDBRANCH  21  22
ENDBRANCH  20  21
ENDBRANCH  19  20
ENDBRANCH  18  19
ENDBRANCH  17  18
ENDBRANCH  16  17
ENDBRANCH  15  16
ENDBRANCH  14  15
ENDBRANCH  13  14
ENDBRANCH   1  13
TORSDOF 20
ENDMDL
