MODEL 1
REMARK VINA RESULT:    -7.209      0.000      0.000
REMARK INTER + INTRA:          -8.400
REMARK INTER:                  -8.473
REMARK INTRA:                   0.073
REMARK UNBOUND:                 0.073
REMARK SMILES O=C([O-])C=Cc1ccc(O)c(O)c1
REMARK SMILES IDX 6 1 13 2 7 3 11 4 8 5 9 6 5 7 4 8 2 9 1 10 3 11 12 12 10 14
REMARK H PARENT 12 13 10 15
REMARK Flexibility Score: inf
ROOT
ATOM      1  C   UNL     1      12.580   7.885  28.154  1.00  0.00    -0.022 A 
ATOM      2  C   UNL     1      11.278   7.659  27.683  1.00  0.00     0.058 A 
ATOM      3  C   UNL     1      12.772   8.711  29.275  1.00  0.00     0.012 A 
ATOM      4  C   UNL     1      10.175   8.208  28.355  1.00  0.00     0.157 A 
ATOM      5  C   UNL     1      11.675   9.258  29.944  1.00  0.00     0.051 A 
ATOM      6  C   UNL     1      10.374   9.005  29.489  1.00  0.00     0.157 A 
ENDROOT
BRANCH   1   7
ATOM      7  C   UNL     1      13.727   7.339  27.399  1.00  0.00     0.010 C 
ATOM      8  C   UNL     1      14.335   6.168  27.647  1.00  0.00     0.025 C 
BRANCH   8   9
ATOM      9  C   UNL     1      13.865   5.135  28.591  1.00  0.00     0.064 C 
ATOM     10  O   UNL     1      13.897   3.911  28.296  1.00  0.00    -0.545 OA
ATOM     11  O   UNL     1      13.443   5.517  29.856  1.00  0.00    -0.545 OA
ENDBRANCH   8   9
ENDBRANCH   1   7
BRANCH   4  12
ATOM     12  O   UNL     1       8.880   7.968  27.898  1.00  0.00    -0.504 OA
ATOM     13  H   UNL     1       8.623   7.084  27.475  1.00  0.00     0.293 HD
ENDBRANCH   4  12
BRANCH   6  14
ATOM     14  O   UNL     1       9.276   9.547  30.154  1.00  0.00    -0.504 OA
ATOM     15  H   UNL     1       8.554  10.058  29.658  1.00  0.00     0.293 HD
ENDBRANCH   6  14
TORSDOF 4
ENDMDL
MODEL 2
REMARK VINA RESULT:    -6.705      0.954      1.968
REMARK INTER + INTRA:          -7.808
REMARK INTER:                  -7.827
REMARK INTRA:                   0.019
REMARK UNBOUND:                 0.073
REMARK SMILES O=C([O-])C=Cc1ccc(O)c(O)c1
REMARK SMILES IDX 6 1 13 2 7 3 11 4 8 5 9 6 5 7 4 8 2 9 1 10 3 11 12 12 10 14
REMARK H PARENT 12 13 10 15
REMARK Flexibility Score: inf
ROOT
ATOM      1  C   UNL     1      12.360   8.264  28.277  1.00  0.00    -0.022 A 
ATOM      2  C   UNL     1      12.539   9.019  29.444  1.00  0.00     0.058 A 
ATOM      3  C   UNL     1      11.057   7.959  27.848  1.00  0.00     0.012 A 
ATOM      4  C   UNL     1      11.430   9.511  30.149  1.00  0.00     0.157 A 
ATOM      5  C   UNL     1       9.952   8.447  28.549  1.00  0.00     0.051 A 
ATOM      6  C   UNL     1      10.134   9.228  29.699  1.00  0.00     0.157 A 
ENDROOT
BRANCH   1   7
ATOM      7  C   UNL     1      13.542   7.714  27.582  1.00  0.00     0.010 C 
ATOM      8  C   UNL     1      14.158   6.560  27.887  1.00  0.00     0.025 C 
BRANCH   8   9
ATOM      9  C   UNL     1      13.668   5.548  28.843  1.00  0.00     0.064 C 
ATOM     10  O   UNL     1      13.580   4.332  28.527  1.00  0.00    -0.545 OA
ATOM     11  O   UNL     1      13.362   5.936  30.140  1.00  0.00    -0.545 OA
ENDBRANCH   8   9
ENDBRANCH   1   7
BRANCH   4  12
ATOM     12  O   UNL     1      11.609  10.278  31.299  1.00  0.00    -0.504 OA
ATOM     13  H   UNL     1      12.509  10.339  31.762  1.00  0.00     0.293 HD
ENDBRANCH   4  12
BRANCH   6  14
ATOM     14  O   UNL     1       9.035   9.719  30.400  1.00  0.00    -0.504 OA
ATOM     15  H   UNL     1       8.922  10.710  30.581  1.00  0.00     0.293 HD
ENDBRANCH   6  14
TORSDOF 4
ENDMDL
MODEL 3
REMARK VINA RESULT:    -6.377      2.305      3.347
REMARK INTER + INTRA:          -7.422
REMARK INTER:                  -7.757
REMARK INTRA:                   0.336
REMARK UNBOUND:                 0.073
REMARK SMILES O=C([O-])C=Cc1ccc(O)c(O)c1
REMARK SMILES IDX 6 1 13 2 7 3 11 4 8 5 9 6 5 7 4 8 2 9 1 10 3 11 12 12 10 14
REMARK H PARENT 12 13 10 15
REMARK Flexibility Score: inf
ROOT
ATOM      1  C   UNL     1      11.190   9.153  28.844  1.00  0.00    -0.022 A 
ATOM      2  C   UNL     1      12.152   9.148  29.865  1.00  0.00     0.058 A 
ATOM      3  C   UNL     1      10.363  10.278  28.683  1.00  0.00     0.012 A 
ATOM      4  C   UNL     1      12.323  10.274  30.684  1.00  0.00     0.157 A 
ATOM      5  C   UNL     1      10.532  11.399  29.498  1.00  0.00     0.051 A 
ATOM      6  C   UNL     1      11.515  11.403  30.498  1.00  0.00     0.157 A 
ENDROOT
BRANCH   1   7
ATOM      7  C   UNL     1      10.994   7.936  28.029  1.00  0.00     0.010 C 
ATOM      8  C   UNL     1      11.975   7.171  27.524  1.00  0.00     0.025 C 
BRANCH   8   9
ATOM      9  C   UNL     1      13.413   7.296  27.834  1.00  0.00     0.064 C 
ATOM     10  O   UNL     1      14.138   8.151  27.260  1.00  0.00    -0.545 OA
ATOM     11  O   UNL     1      13.961   6.499  28.829  1.00  0.00    -0.545 OA
ENDBRANCH   8   9
ENDBRANCH   1   7
BRANCH   4  12
ATOM     12  O   UNL     1      13.292  10.276  31.686  1.00  0.00    -0.504 OA
ATOM     13  H   UNL     1      13.177  10.821  32.533  1.00  0.00     0.293 HD
ENDBRANCH   4  12
BRANCH   6  14
ATOM     14  O   UNL     1      11.690  12.520  31.312  1.00  0.00    -0.504 OA
ATOM     15  H   UNL     1      12.466  12.587  31.961  1.00  0.00     0.293 HD
ENDBRANCH   6  14
TORSDOF 4
ENDMDL
MODEL 4
REMARK VINA RESULT:    -6.367      1.743      2.557
REMARK INTER + INTRA:          -7.410
REMARK INTER:                  -7.854
REMARK INTRA:                   0.444
REMARK UNBOUND:                 0.073
REMARK SMILES O=C([O-])C=Cc1ccc(O)c(O)c1
REMARK SMILES IDX 6 1 13 2 7 3 11 4 8 5 9 6 5 7 4 8 2 9 1 10 3 11 12 12 10 14
REMARK H PARENT 12 13 10 15
REMARK Flexibility Score: inf
ROOT
ATOM      1  C   UNL     1      10.974   8.833  28.447  1.00  0.00    -0.022 A 
ATOM      2  C   UNL     1       9.718   9.269  28.893  1.00  0.00     0.058 A 
ATOM      3  C   UNL     1      12.122   9.559  28.804  1.00  0.00     0.012 A 
ATOM      4  C   UNL     1       9.613  10.388  29.732  1.00  0.00     0.157 A 
ATOM      5  C   UNL     1      12.019  10.674  29.639  1.00  0.00     0.051 A 
ATOM      6  C   UNL     1      10.766  11.090  30.109  1.00  0.00     0.157 A 
ENDROOT
BRANCH   1   7
ATOM      7  C   UNL     1      11.054   7.683  27.522  1.00  0.00     0.010 C 
ATOM      8  C   UNL     1      12.154   6.952  27.282  1.00  0.00     0.025 C 
BRANCH   8   9
ATOM      9  C   UNL     1      13.428   7.043  28.020  1.00  0.00     0.064 C 
ATOM     10  O   UNL     1      13.564   6.535  29.165  1.00  0.00    -0.545 OA
ATOM     11  O   UNL     1      14.521   7.643  27.411  1.00  0.00    -0.545 OA
ENDBRANCH   8   9
ENDBRANCH   1   7
BRANCH   4  12
ATOM     12  O   UNL     1       8.367  10.811  30.192  1.00  0.00    -0.504 OA
ATOM     13  H   UNL     1       7.621  11.055  29.550  1.00  0.00     0.293 HD
ENDBRANCH   4  12
BRANCH   6  14
ATOM     14  O   UNL     1      10.657  12.200  30.944  1.00  0.00    -0.504 OA
ATOM     15  H   UNL     1       9.979  12.932  30.767  1.00  0.00     0.293 HD
ENDBRANCH   6  14
TORSDOF 4
ENDMDL
MODEL 5
REMARK VINA RESULT:    -6.243      1.160      4.942
REMARK INTER + INTRA:          -7.265
REMARK INTER:                  -6.991
REMARK INTRA:                  -0.273
REMARK UNBOUND:                 0.073
REMARK SMILES O=C([O-])C=Cc1ccc(O)c(O)c1
REMARK SMILES IDX 6 1 13 2 7 3 11 4 8 5 9 6 5 7 4 8 2 9 1 10 3 11 12 12 10 14
REMARK H PARENT 12 13 10 15
REMARK Flexibility Score: inf
ROOT
ATOM      1  C   UNL     1      13.417   7.944  28.939  1.00  0.00    -0.022 A 
ATOM      2  C   UNL     1      13.360   6.935  29.911  1.00  0.00     0.058 A 
ATOM      3  C   UNL     1      13.757   7.608  27.618  1.00  0.00     0.012 A 
ATOM      4  C   UNL     1      13.588   5.596  29.558  1.00  0.00     0.157 A 
ATOM      5  C   UNL     1      13.985   6.276  27.265  1.00  0.00     0.051 A 
ATOM      6  C   UNL     1      13.896   5.266  28.233  1.00  0.00     0.157 A 
ENDROOT
BRANCH   1   7
ATOM      7  C   UNL     1      13.225   9.352  29.345  1.00  0.00     0.010 C 
ATOM      8  C   UNL     1      12.047   9.997  29.384  1.00  0.00     0.025 C 
BRANCH   8   9
ATOM      9  C   UNL     1      10.719   9.379  29.204  1.00  0.00     0.064 C 
ATOM     10  O   UNL     1      10.012   9.039  30.189  1.00  0.00    -0.545 OA
ATOM     11  O   UNL     1      10.211   9.233  27.921  1.00  0.00    -0.545 OA
ENDBRANCH   8   9
ENDBRANCH   1   7
BRANCH   4  12
ATOM     12  O   UNL     1      13.512   4.591  30.521  1.00  0.00    -0.504 OA
ATOM     13  H   UNL     1      12.621   4.255  30.868  1.00  0.00     0.293 HD
ENDBRANCH   4  12
BRANCH   6  14
ATOM     14  O   UNL     1      14.120   3.935  27.886  1.00  0.00    -0.504 OA
ATOM     15  H   UNL     1      14.165   3.639  26.918  1.00  0.00     0.293 HD
ENDBRANCH   6  14
TORSDOF 4
ENDMDL
MODEL 6
REMARK VINA RESULT:    -6.222      2.059      5.286
REMARK INTER + INTRA:          -7.239
REMARK INTER:                  -7.165
REMARK INTRA:                  -0.074
REMARK UNBOUND:                 0.073
REMARK SMILES O=C([O-])C=Cc1ccc(O)c(O)c1
REMARK SMILES IDX 6 1 13 2 7 3 11 4 8 5 9 6 5 7 4 8 2 9 1 10 3 11 12 12 10 14
REMARK H PARENT 12 13 10 15
REMARK Flexibility Score: inf
ROOT
ATOM      1  C   UNL     1      10.930   8.444  28.979  1.00  0.00    -0.022 A 
ATOM      2  C   UNL     1      12.069   8.286  29.781  1.00  0.00     0.058 A 
ATOM      3  C   UNL     1      10.921   7.903  27.683  1.00  0.00     0.012 A 
ATOM      4  C   UNL     1      13.169   7.549  29.315  1.00  0.00     0.157 A 
ATOM      5  C   UNL     1      12.015   7.170  27.217  1.00  0.00     0.051 A 
ATOM      6  C   UNL     1      13.140   6.987  28.033  1.00  0.00     0.157 A 
ENDROOT
BRANCH   1   7
ATOM      7  C   UNL     1       9.807   9.268  29.473  1.00  0.00     0.010 C 
ATOM      8  C   UNL     1       9.883  10.565  29.812  1.00  0.00     0.025 C 
BRANCH   8   9
ATOM      9  C   UNL     1      11.044  11.448  29.587  1.00  0.00     0.064 C 
ATOM     10  O   UNL     1      11.731  11.889  30.546  1.00  0.00    -0.545 OA
ATOM     11  O   UNL     1      11.427  11.744  28.287  1.00  0.00    -0.545 OA
ENDBRANCH   8   9
ENDBRANCH   1   7
BRANCH   4  12
ATOM     12  O   UNL     1      14.294   7.376  30.120  1.00  0.00    -0.504 OA
ATOM     13  H   UNL     1      14.501   8.008  30.885  1.00  0.00     0.293 HD
ENDBRANCH   4  12
BRANCH   6  14
ATOM     14  O   UNL     1      14.233   6.255  27.574  1.00  0.00    -0.504 OA
ATOM     15  H   UNL     1      14.175   5.254  27.422  1.00  0.00     0.293 HD
ENDBRANCH   6  14
TORSDOF 4
ENDMDL
MODEL 7
REMARK VINA RESULT:    -6.002      1.665      4.916
REMARK INTER + INTRA:          -6.982
REMARK INTER:                  -6.878
REMARK INTRA:                  -0.103
REMARK UNBOUND:                 0.073
REMARK SMILES O=C([O-])C=Cc1ccc(O)c(O)c1
REMARK SMILES IDX 6 1 13 2 7 3 11 4 8 5 9 6 5 7 4 8 2 9 1 10 3 11 12 12 10 14
REMARK H PARENT 12 13 10 15
REMARK Flexibility Score: inf
ROOT
ATOM      1  C   UNL     1      12.746   9.147  29.038  1.00  0.00    -0.022 A 
ATOM      2  C   UNL     1      13.520   8.733  27.944  1.00  0.00     0.058 A 
ATOM      3  C   UNL     1      12.447   8.227  30.057  1.00  0.00     0.012 A 
ATOM      4  C   UNL     1      14.036   7.430  27.893  1.00  0.00     0.157 A 
ATOM      5  C   UNL     1      12.959   6.929  30.007  1.00  0.00     0.051 A 
ATOM      6  C   UNL     1      13.759   6.527  28.928  1.00  0.00     0.157 A 
ENDROOT
BRANCH   1   7
ATOM      7  C   UNL     1      12.171  10.508  29.043  1.00  0.00     0.010 C 
ATOM      8  C   UNL     1      10.907  10.821  28.716  1.00  0.00     0.025 C 
BRANCH   8   9
ATOM      9  C   UNL     1       9.817   9.857  28.468  1.00  0.00     0.064 C 
ATOM     10  O   UNL     1       8.762   9.864  29.156  1.00  0.00    -0.545 OA
ATOM     11  O   UNL     1       9.930   8.968  27.408  1.00  0.00    -0.545 OA
ENDBRANCH   8   9
ENDBRANCH   1   7
BRANCH   4  12
ATOM     12  O   UNL     1      14.821   7.024  26.815  1.00  0.00    -0.504 OA
ATOM     13  H   UNL     1      15.831   6.969  26.886  1.00  0.00     0.293 HD
ENDBRANCH   4  12
BRANCH   6  14
ATOM     14  O   UNL     1      14.274   5.234  28.874  1.00  0.00    -0.504 OA
ATOM     15  H   UNL     1      13.668   4.421  28.865  1.00  0.00     0.293 HD
ENDBRANCH   6  14
TORSDOF 4
ENDMDL
MODEL 8
REMARK VINA RESULT:    -5.993      1.278      1.465
REMARK INTER + INTRA:          -6.970
REMARK INTER:                  -7.000
REMARK INTRA:                   0.030
REMARK UNBOUND:                 0.073
REMARK SMILES O=C([O-])C=Cc1ccc(O)c(O)c1
REMARK SMILES IDX 6 1 13 2 7 3 11 4 8 5 9 6 5 7 4 8 2 9 1 10 3 11 12 12 10 14
REMARK H PARENT 12 13 10 15
REMARK Flexibility Score: inf
ROOT
ATOM      1  C   UNL     1      12.210   9.234  28.728  1.00  0.00    -0.022 A 
ATOM      2  C   UNL     1      11.137   8.474  28.241  1.00  0.00     0.058 A 
ATOM      3  C   UNL     1      11.947  10.406  29.458  1.00  0.00     0.012 A 
ATOM      4  C   UNL     1       9.815   8.848  28.524  1.00  0.00     0.157 A 
ATOM      5  C   UNL     1      10.632  10.781  29.740  1.00  0.00     0.051 A 
ATOM      6  C   UNL     1       9.562  10.001  29.278  1.00  0.00     0.157 A 
ENDROOT
BRANCH   1   7
ATOM      7  C   UNL     1      13.591   8.848  28.373  1.00  0.00     0.010 C 
ATOM      8  C   UNL     1      14.162   7.663  28.645  1.00  0.00     0.025 C 
BRANCH   8   9
ATOM      9  C   UNL     1      13.470   6.475  29.182  1.00  0.00     0.064 C 
ATOM     10  O   UNL     1      13.169   5.499  28.445  1.00  0.00    -0.545 OA
ATOM     11  O   UNL     1      13.207   6.404  30.542  1.00  0.00    -0.545 OA
ENDBRANCH   8   9
ENDBRANCH   1   7
BRANCH   4  12
ATOM     12  O   UNL     1       8.749   8.082  28.056  1.00  0.00    -0.504 OA
ATOM     13  H   UNL     1       8.547   7.165  28.438  1.00  0.00     0.293 HD
ENDBRANCH   4  12
BRANCH   6  14
ATOM     14  O   UNL     1       8.247  10.369  29.559  1.00  0.00    -0.504 OA
ATOM     15  H   UNL     1       7.621   9.753  30.063  1.00  0.00     0.293 HD
ENDBRANCH   6  14
TORSDOF 4
ENDMDL
MODEL 9
REMARK VINA RESULT:    -5.921      1.891      2.881
REMARK INTER + INTRA:          -6.886
REMARK INTER:                  -6.993
REMARK INTRA:                   0.108
REMARK UNBOUND:                 0.073
REMARK SMILES O=C([O-])C=Cc1ccc(O)c(O)c1
REMARK SMILES IDX 6 1 13 2 7 3 11 4 8 5 9 6 5 7 4 8 2 9 1 10 3 11 12 12 10 14
REMARK H PARENT 12 13 10 15
REMARK Flexibility Score: inf
ROOT
ATOM      1  C   UNL     1      11.832   8.335  29.446  1.00  0.00    -0.022 A 
ATOM      2  C   UNL     1      11.638   9.517  30.176  1.00  0.00     0.058 A 
ATOM      3  C   UNL     1      10.969   8.037  28.378  1.00  0.00     0.012 A 
ATOM      4  C   UNL     1      10.627  10.418  29.812  1.00  0.00     0.157 A 
ATOM      5  C   UNL     1       9.960   8.933  28.015  1.00  0.00     0.051 A 
ATOM      6  C   UNL     1       9.789  10.128  28.728  1.00  0.00     0.157 A 
ENDROOT
BRANCH   1   7
ATOM      7  C   UNL     1      12.870   7.378  29.881  1.00  0.00     0.010 C 
ATOM      8  C   UNL     1      13.802   6.826  29.087  1.00  0.00     0.025 C 
BRANCH   8   9
ATOM      9  C   UNL     1      14.076   7.204  27.686  1.00  0.00     0.064 C 
ATOM     10  O   UNL     1      14.269   8.404  27.354  1.00  0.00    -0.545 OA
ATOM     11  O   UNL     1      14.189   6.208  26.728  1.00  0.00    -0.545 OA
ENDBRANCH   8   9
ENDBRANCH   1   7
BRANCH   4  12
ATOM     12  O   UNL     1      10.446  11.601  30.527  1.00  0.00    -0.504 OA
ATOM     13  H   UNL     1       9.785  12.308  30.224  1.00  0.00     0.293 HD
ENDBRANCH   4  12
BRANCH   6  14
ATOM     14  O   UNL     1       8.786  11.027  28.369  1.00  0.00    -0.504 OA
ATOM     15  H   UNL     1       8.210  11.484  29.066  1.00  0.00     0.293 HD
ENDBRANCH   6  14
TORSDOF 4
ENDMDL
