MODEL 1
REMARK VINA RESULT:    -7.041      0.000      0.000
REMARK INTER + INTRA:         -12.109
REMARK INTER:                 -10.333
REMARK INTRA:                  -1.776
REMARK UNBOUND:                -1.776
REMARK SMILES O=c1c(O[C@H]2O[C@H](CO)[C@@H](O)[C@H](O)[C@H]2O)c(-c2ccc(O)c(O)c2)oc2cc(O)cc(O)c12
REMARK SMILES IDX 4 1 3 2 16 3 25 4 2 5 26 6 1 7 33 8 27 9 31 10 28 11 30 12
REMARK SMILES IDX 17 13 18 14 19 15 20 16 24 17 22 18 21 19 23 21 32 23 29 25
REMARK SMILES IDX 5 27 14 28 6 29 12 30 7 31 10 32 15 33 13 35 8 37 9 38 11 40
REMARK H PARENT 21 20 23 22 32 24 29 26 15 34 13 36 9 39 11 41
REMARK Flexibility Score: inf
ROOT
ATOM      1  O   UNL     1      14.571 -35.896  -1.080  1.00  0.00    -0.454 OA
ENDROOT
BRANCH   1   2
ATOM      2  C   UNL     1      14.008 -36.525  -2.198  1.00  0.00     0.214 A 
ATOM      3  C   UNL     1      14.739 -37.435  -2.987  1.00  0.00     0.180 A 
ATOM      4  O   UNL     1      14.129 -38.094  -3.965  1.00  0.00    -0.452 OA
ATOM      5  C   UNL     1      12.676 -36.257  -2.531  1.00  0.00     0.239 A 
ATOM      6  C   UNL     1      12.858 -37.897  -4.296  1.00  0.00     0.146 A 
ATOM      7  O   UNL     1      12.030 -35.455  -1.808  1.00  0.00    -0.285 OA
ATOM      8  C   UNL     1      12.072 -36.923  -3.625  1.00  0.00     0.111 A 
ATOM      9  C   UNL     1      12.308 -38.668  -5.322  1.00  0.00     0.094 A 
ATOM     10  C   UNL     1      10.731 -36.714  -4.062  1.00  0.00     0.134 A 
ATOM     11  C   UNL     1      10.976 -38.494  -5.702  1.00  0.00     0.123 A 
ATOM     12  C   UNL     1      10.198 -37.525  -5.071  1.00  0.00     0.093 A 
BRANCH   3  13
ATOM     13  C   UNL     1      16.181 -37.683  -2.773  1.00  0.00     0.025 A 
ATOM     14  C   UNL     1      17.150 -37.026  -3.547  1.00  0.00     0.016 A 
ATOM     15  C   UNL     1      18.507 -37.276  -3.339  1.00  0.00     0.051 A 
ATOM     16  C   UNL     1      18.922 -38.196  -2.370  1.00  0.00     0.157 A 
ATOM     17  C   UNL     1      16.592 -38.624  -1.819  1.00  0.00     0.062 A 
ATOM     18  C   UNL     1      17.951 -38.883  -1.603  1.00  0.00     0.158 A 
BRANCH  16  19
ATOM     19  O   UNL     1      20.294 -38.396  -2.206  1.00  0.00    -0.504 OA
ATOM     20  H   UNL     1      20.970 -37.648  -2.141  1.00  0.00     0.293 HD
ENDBRANCH  16  19
BRANCH  18  21
ATOM     21  O   UNL     1      18.289 -39.822  -0.625  1.00  0.00    -0.504 OA
ATOM     22  H   UNL     1      18.448 -39.594   0.345  1.00  0.00     0.293 HD
ENDBRANCH  18  21
ENDBRANCH   3  13
BRANCH  10  23
ATOM     23  O   UNL     1       9.895 -35.712  -3.559  1.00  0.00    -0.507 OA
ATOM     24  H   UNL     1       9.437 -35.740  -2.660  1.00  0.00     0.293 HD
ENDBRANCH  10  23
BRANCH  11  25
ATOM     25  O   UNL     1      10.417 -39.274  -6.711  1.00  0.00    -0.508 OA
ATOM     26  H   UNL     1       9.845 -40.084  -6.499  1.00  0.00     0.293 HD
ENDBRANCH  11  25
ENDBRANCH   1   2
BRANCH   1  27
ATOM     27  C   UNL     1      14.137 -36.152   0.262  1.00  0.00     0.339 C 
ATOM     28  C   UNL     1      13.921 -34.835   1.030  1.00  0.00     0.214 C 
ATOM     29  O   UNL     1      15.060 -36.986   0.942  1.00  0.00    -0.332 OA
ATOM     30  C   UNL     1      15.260 -34.117   1.235  1.00  0.00     0.180 C 
ATOM     31  C   UNL     1      16.345 -36.390   1.026  1.00  0.00     0.179 C 
ATOM     32  C   UNL     1      16.287 -35.083   1.856  1.00  0.00     0.177 C 
BRANCH  28  33
ATOM     33  O   UNL     1      13.043 -33.995   0.325  1.00  0.00    -0.384 OA
ATOM     34  H   UNL     1      13.601 -33.298  -0.110  1.00  0.00     0.211 HD
ENDBRANCH  28  33
BRANCH  30  35
ATOM     35  O   UNL     1      15.064 -33.013   2.081  1.00  0.00    -0.387 OA
ATOM     36  H   UNL     1      14.536 -33.336   2.860  1.00  0.00     0.211 HD
ENDBRANCH  30  35
BRANCH  31  37
ATOM     37  C   UNL     1      17.295 -37.415   1.661  1.00  0.00     0.191 C 
BRANCH  37  38
ATOM     38  O   UNL     1      18.604 -37.225   1.199  1.00  0.00    -0.394 OA
ATOM     39  H   UNL     1      18.531 -37.059   0.223  1.00  0.00     0.210 HD
ENDBRANCH  37  38
ENDBRANCH  31  37
BRANCH  32  40
ATOM     40  O   UNL     1      17.552 -34.473   1.872  1.00  0.00    -0.387 OA
ATOM     41  H   UNL     1      17.413 -33.523   2.123  1.00  0.00     0.211 HD
ENDBRANCH  32  40
ENDBRANCH   1  27
TORSDOF 12
ENDMDL
MODEL 2
REMARK VINA RESULT:    -6.813      1.009      2.357
REMARK INTER + INTRA:         -11.775
REMARK INTER:                 -10.439
REMARK INTRA:                  -1.336
REMARK UNBOUND:                -1.776
REMARK SMILES O=c1c(O[C@H]2O[C@H](CO)[C@@H](O)[C@H](O)[C@H]2O)c(-c2ccc(O)c(O)c2)oc2cc(O)cc(O)c12
REMARK SMILES IDX 4 1 3 2 16 3 25 4 2 5 26 6 1 7 33 8 27 9 31 10 28 11 30 12
REMARK SMILES IDX 17 13 18 14 19 15 20 16 24 17 22 18 21 19 23 21 32 23 29 25
REMARK SMILES IDX 5 27 14 28 6 29 12 30 7 31 10 32 15 33 13 35 8 37 9 38 11 40
REMARK H PARENT 21 20 23 22 32 24 29 26 15 34 13 36 9 39 11 41
REMARK Flexibility Score: inf
ROOT
ATOM      1  O   UNL     1      14.842 -36.038  -0.894  1.00  0.00    -0.454 OA
ENDROOT
BRANCH   1   2
ATOM      2  C   UNL     1      14.245 -36.610  -2.025  1.00  0.00     0.214 A 
ATOM      3  C   UNL     1      14.951 -37.479  -2.881  1.00  0.00     0.180 A 
ATOM      4  O   UNL     1      14.311 -38.087  -3.872  1.00  0.00    -0.452 OA
ATOM      5  C   UNL     1      12.905 -36.323  -2.306  1.00  0.00     0.239 A 
ATOM      6  C   UNL     1      13.032 -37.873  -4.156  1.00  0.00     0.146 A 
ATOM      7  O   UNL     1      12.281 -35.559  -1.525  1.00  0.00    -0.285 OA
ATOM      8  C   UNL     1      12.268 -36.933  -3.414  1.00  0.00     0.111 A 
ATOM      9  C   UNL     1      12.451 -38.591  -5.204  1.00  0.00     0.094 A 
ATOM     10  C   UNL     1      10.915 -36.701  -3.800  1.00  0.00     0.134 A 
ATOM     11  C   UNL     1      11.109 -38.397  -5.535  1.00  0.00     0.123 A 
ATOM     12  C   UNL     1      10.352 -37.460  -4.833  1.00  0.00     0.093 A 
BRANCH   3  13
ATOM     13  C   UNL     1      16.399 -37.738  -2.721  1.00  0.00     0.025 A 
ATOM     14  C   UNL     1      17.342 -37.090  -3.533  1.00  0.00     0.016 A 
ATOM     15  C   UNL     1      18.704 -37.351  -3.376  1.00  0.00     0.051 A 
ATOM     16  C   UNL     1      19.148 -38.273  -2.422  1.00  0.00     0.157 A 
ATOM     17  C   UNL     1      16.838 -38.681  -1.782  1.00  0.00     0.062 A 
ATOM     18  C   UNL     1      18.202 -38.952  -1.618  1.00  0.00     0.158 A 
BRANCH  16  19
ATOM     19  O   UNL     1      20.524 -38.484  -2.311  1.00  0.00    -0.504 OA
ATOM     20  H   UNL     1      21.156 -38.514  -3.097  1.00  0.00     0.293 HD
ENDBRANCH  16  19
BRANCH  18  21
ATOM     21  O   UNL     1      18.569 -39.893  -0.653  1.00  0.00    -0.504 OA
ATOM     22  H   UNL     1      17.998 -40.681  -0.387  1.00  0.00     0.293 HD
ENDBRANCH  18  21
ENDBRANCH   3  13
BRANCH  10  23
ATOM     23  O   UNL     1      10.096 -35.725  -3.224  1.00  0.00    -0.507 OA
ATOM     24  H   UNL     1      10.100 -34.748  -3.475  1.00  0.00     0.293 HD
ENDBRANCH  10  23
BRANCH  11  25
ATOM     25  O   UNL     1      10.519 -39.124  -6.566  1.00  0.00    -0.508 OA
ATOM     26  H   UNL     1       9.985 -38.668  -7.297  1.00  0.00     0.293 HD
ENDBRANCH  11  25
ENDBRANCH   1   2
BRANCH   1  27
ATOM     27  C   UNL     1      15.530 -34.781  -0.925  1.00  0.00     0.339 C 
ATOM     28  C   UNL     1      16.750 -34.800   0.015  1.00  0.00     0.214 C 
ATOM     29  O   UNL     1      14.655 -33.717  -0.592  1.00  0.00    -0.332 OA
ATOM     30  C   UNL     1      16.291 -34.904   1.474  1.00  0.00     0.180 C 
ATOM     31  C   UNL     1      14.116 -33.866   0.713  1.00  0.00     0.179 C 
ATOM     32  C   UNL     1      15.243 -33.817   1.776  1.00  0.00     0.177 C 
BRANCH  28  33
ATOM     33  O   UNL     1      17.587 -35.886  -0.291  1.00  0.00    -0.384 OA
ATOM     34  H   UNL     1      17.341 -36.188  -1.205  1.00  0.00     0.211 HD
ENDBRANCH  28  33
BRANCH  30  35
ATOM     35  O   UNL     1      17.405 -34.746   2.317  1.00  0.00    -0.387 OA
ATOM     36  H   UNL     1      18.190 -35.115   1.831  1.00  0.00     0.211 HD
ENDBRANCH  30  35
BRANCH  31  37
ATOM     37  C   UNL     1      13.094 -32.742   0.928  1.00  0.00     0.191 C 
BRANCH  37  38
ATOM     38  O   UNL     1      13.684 -31.661   1.597  1.00  0.00    -0.394 OA
ATOM     39  H   UNL     1      14.320 -31.253   0.955  1.00  0.00     0.210 HD
ENDBRANCH  37  38
ENDBRANCH  31  37
BRANCH  32  40
ATOM     40  O   UNL     1      14.700 -34.032   3.054  1.00  0.00    -0.387 OA
ATOM     41  H   UNL     1      14.745 -35.009   3.227  1.00  0.00     0.211 HD
ENDBRANCH  32  40
ENDBRANCH   1  27
TORSDOF 12
ENDMDL
MODEL 3
REMARK VINA RESULT:    -6.738      2.321      4.212
REMARK INTER + INTRA:         -11.665
REMARK INTER:                  -9.691
REMARK INTRA:                  -1.974
REMARK UNBOUND:                -1.776
REMARK SMILES O=c1c(O[C@H]2O[C@H](CO)[C@@H](O)[C@H](O)[C@H]2O)c(-c2ccc(O)c(O)c2)oc2cc(O)cc(O)c12
REMARK SMILES IDX 4 1 3 2 16 3 25 4 2 5 26 6 1 7 33 8 27 9 31 10 28 11 30 12
REMARK SMILES IDX 17 13 18 14 19 15 20 16 24 17 22 18 21 19 23 21 32 23 29 25
REMARK SMILES IDX 5 27 14 28 6 29 12 30 7 31 10 32 15 33 13 35 8 37 9 38 11 40
REMARK H PARENT 21 20 23 22 32 24 29 26 15 34 13 36 9 39 11 41
REMARK Flexibility Score: inf
ROOT
ATOM      1  O   UNL     1      12.712 -36.149  -3.291  1.00  0.00    -0.454 OA
ENDROOT
BRANCH   1   2
ATOM      2  C   UNL     1      13.013 -37.463  -3.671  1.00  0.00     0.214 A 
ATOM      3  C   UNL     1      14.144 -38.141  -3.175  1.00  0.00     0.180 A 
ATOM      4  O   UNL     1      14.324 -39.422  -3.472  1.00  0.00    -0.452 OA
ATOM      5  C   UNL     1      12.157 -38.129  -4.555  1.00  0.00     0.239 A 
ATOM      6  C   UNL     1      13.520 -40.105  -4.279  1.00  0.00     0.146 A 
ATOM      7  O   UNL     1      11.141 -37.517  -4.977  1.00  0.00    -0.285 OA
ATOM      8  C   UNL     1      12.414 -39.475  -4.909  1.00  0.00     0.111 A 
ATOM      9  C   UNL     1      13.786 -41.458  -4.498  1.00  0.00     0.094 A 
ATOM     10  C   UNL     1      11.619 -40.242  -5.812  1.00  0.00     0.134 A 
ATOM     11  C   UNL     1      12.966 -42.213  -5.339  1.00  0.00     0.123 A 
ATOM     12  C   UNL     1      11.891 -41.604  -5.985  1.00  0.00     0.093 A 
BRANCH   3  13
ATOM     13  C   UNL     1      15.158 -37.471  -2.332  1.00  0.00     0.025 A 
ATOM     14  C   UNL     1      15.267 -37.764  -0.964  1.00  0.00     0.016 A 
ATOM     15  C   UNL     1      16.224 -37.118  -0.179  1.00  0.00     0.051 A 
ATOM     16  C   UNL     1      17.075 -36.159  -0.739  1.00  0.00     0.157 A 
ATOM     17  C   UNL     1      15.992 -36.493  -2.891  1.00  0.00     0.062 A 
ATOM     18  C   UNL     1      16.954 -35.838  -2.112  1.00  0.00     0.158 A 
BRANCH  16  19
ATOM     19  O   UNL     1      18.015 -35.554   0.098  1.00  0.00    -0.504 OA
ATOM     20  H   UNL     1      18.590 -34.770  -0.173  1.00  0.00     0.293 HD
ENDBRANCH  16  19
BRANCH  18  21
ATOM     21  O   UNL     1      17.762 -34.885  -2.737  1.00  0.00    -0.504 OA
ATOM     22  H   UNL     1      17.929 -34.852  -3.732  1.00  0.00     0.293 HD
ENDBRANCH  18  21
ENDBRANCH   3  13
BRANCH  10  23
ATOM     23  O   UNL     1      10.576 -39.711  -6.577  1.00  0.00    -0.507 OA
ATOM     24  H   UNL     1       9.618 -39.637  -6.271  1.00  0.00     0.293 HD
ENDBRANCH  10  23
BRANCH  11  25
ATOM     25  O   UNL     1      13.215 -43.568  -5.545  1.00  0.00    -0.508 OA
ATOM     26  H   UNL     1      12.733 -44.091  -6.268  1.00  0.00     0.293 HD
ENDBRANCH  11  25
ENDBRANCH   1   2
BRANCH   1  27
ATOM     27  C   UNL     1      11.920 -35.831  -2.139  1.00  0.00     0.339 C 
ATOM     28  C   UNL     1      10.822 -34.810  -2.492  1.00  0.00     0.214 C 
ATOM     29  O   UNL     1      12.734 -35.349  -1.083  1.00  0.00    -0.332 OA
ATOM     30  C   UNL     1      11.452 -33.461  -2.857  1.00  0.00     0.180 C 
ATOM     31  C   UNL     1      13.429 -34.168  -1.450  1.00  0.00     0.179 C 
ATOM     32  C   UNL     1      12.432 -33.021  -1.754  1.00  0.00     0.177 C 
BRANCH  28  33
ATOM     33  O   UNL     1      10.051 -35.275  -3.570  1.00  0.00    -0.384 OA
ATOM     34  H   UNL     1      10.660 -35.802  -4.151  1.00  0.00     0.211 HD
ENDBRANCH  28  33
BRANCH  30  35
ATOM     35  O   UNL     1      10.433 -32.505  -3.006  1.00  0.00    -0.387 OA
ATOM     36  H   UNL     1      10.140 -32.541  -3.955  1.00  0.00     0.211 HD
ENDBRANCH  30  35
BRANCH  31  37
ATOM     37  C   UNL     1      14.370 -33.800  -0.295  1.00  0.00     0.191 C 
BRANCH  37  38
ATOM     38  O   UNL     1      13.935 -32.630   0.341  1.00  0.00    -0.394 OA
ATOM     39  H   UNL     1      14.577 -31.919   0.078  1.00  0.00     0.210 HD
ENDBRANCH  37  38
ENDBRANCH  31  37
BRANCH  32  40
ATOM     40  O   UNL     1      13.134 -31.881  -2.180  1.00  0.00    -0.387 OA
ATOM     41  H   UNL     1      13.706 -32.160  -2.941  1.00  0.00     0.211 HD
ENDBRANCH  32  40
ENDBRANCH   1  27
TORSDOF 12
ENDMDL
MODEL 4
REMARK VINA RESULT:    -6.665      1.335      2.740
REMARK INTER + INTRA:         -11.557
REMARK INTER:                 -10.336
REMARK INTRA:                  -1.221
REMARK UNBOUND:                -1.776
REMARK SMILES O=c1c(O[C@H]2O[C@H](CO)[C@@H](O)[C@H](O)[C@H]2O)c(-c2ccc(O)c(O)c2)oc2cc(O)cc(O)c12
REMARK SMILES IDX 4 1 3 2 16 3 25 4 2 5 26 6 1 7 33 8 27 9 31 10 28 11 30 12
REMARK SMILES IDX 17 13 18 14 19 15 20 16 24 17 22 18 21 19 23 21 32 23 29 25
REMARK SMILES IDX 5 27 14 28 6 29 12 30 7 31 10 32 15 33 13 35 8 37 9 38 11 40
REMARK H PARENT 21 20 23 22 32 24 29 26 15 34 13 36 9 39 11 41
REMARK Flexibility Score: inf
ROOT
ATOM      1  O   UNL     1      14.286 -36.044  -1.286  1.00  0.00    -0.454 OA
ENDROOT
BRANCH   1   2
ATOM      2  C   UNL     1      13.783 -36.730  -2.398  1.00  0.00     0.214 A 
ATOM      3  C   UNL     1      14.571 -37.642  -3.129  1.00  0.00     0.180 A 
ATOM      4  O   UNL     1      14.016 -38.355  -4.102  1.00  0.00    -0.452 OA
ATOM      5  C   UNL     1      12.455 -36.518  -2.786  1.00  0.00     0.239 A 
ATOM      6  C   UNL     1      12.753 -38.213  -4.483  1.00  0.00     0.146 A 
ATOM      7  O   UNL     1      11.759 -35.714  -2.115  1.00  0.00    -0.285 OA
ATOM      8  C   UNL     1      11.913 -37.242  -3.874  1.00  0.00     0.111 A 
ATOM      9  C   UNL     1      12.264 -39.037  -5.499  1.00  0.00     0.094 A 
ATOM     10  C   UNL     1      10.581 -37.093  -4.364  1.00  0.00     0.134 A 
ATOM     11  C   UNL     1      10.941 -38.921  -5.929  1.00  0.00     0.123 A 
ATOM     12  C   UNL     1      10.111 -37.957  -5.360  1.00  0.00     0.093 A 
BRANCH   3  13
ATOM     13  C   UNL     1      16.012 -37.834  -2.857  1.00  0.00     0.025 A 
ATOM     14  C   UNL     1      16.986 -37.264  -3.691  1.00  0.00     0.016 A 
ATOM     15  C   UNL     1      18.342 -37.461  -3.426  1.00  0.00     0.051 A 
ATOM     16  C   UNL     1      18.751 -38.241  -2.339  1.00  0.00     0.157 A 
ATOM     17  C   UNL     1      16.417 -38.637  -1.782  1.00  0.00     0.062 A 
ATOM     18  C   UNL     1      17.775 -38.842  -1.509  1.00  0.00     0.158 A 
BRANCH  16  19
ATOM     19  O   UNL     1      20.122 -38.393  -2.125  1.00  0.00    -0.504 OA
ATOM     20  H   UNL     1      20.536 -39.185  -1.654  1.00  0.00     0.293 HD
ENDBRANCH  16  19
BRANCH  18  21
ATOM     21  O   UNL     1      18.107 -39.641  -0.413  1.00  0.00    -0.504 OA
ATOM     22  H   UNL     1      18.971 -39.562   0.102  1.00  0.00     0.293 HD
ENDBRANCH  18  21
ENDBRANCH   3  13
BRANCH  10  23
ATOM     23  O   UNL     1       9.696 -36.103  -3.926  1.00  0.00    -0.507 OA
ATOM     24  H   UNL     1       9.779 -35.600  -3.056  1.00  0.00     0.293 HD
ENDBRANCH  10  23
BRANCH  11  25
ATOM     25  O   UNL     1      10.443 -39.754  -6.928  1.00  0.00    -0.508 OA
ATOM     26  H   UNL     1      10.003 -39.378  -7.761  1.00  0.00     0.293 HD
ENDBRANCH  11  25
ENDBRANCH   1   2
BRANCH   1  27
ATOM     27  C   UNL     1      15.259 -34.996  -1.388  1.00  0.00     0.339 C 
ATOM     28  C   UNL     1      15.884 -34.692  -0.014  1.00  0.00     0.214 C 
ATOM     29  O   UNL     1      14.688 -33.828  -1.952  1.00  0.00    -0.332 OA
ATOM     30  C   UNL     1      14.831 -34.089   0.923  1.00  0.00     0.180 C 
ATOM     31  C   UNL     1      13.620 -33.329  -1.161  1.00  0.00     0.179 C 
ATOM     32  C   UNL     1      14.133 -32.900   0.237  1.00  0.00     0.177 C 
BRANCH  28  33
ATOM     33  O   UNL     1      16.405 -35.864   0.559  1.00  0.00    -0.384 OA
ATOM     34  H   UNL     1      15.705 -36.221   1.166  1.00  0.00     0.211 HD
ENDBRANCH  28  33
BRANCH  30  35
ATOM     35  O   UNL     1      15.460 -33.662   2.105  1.00  0.00    -0.387 OA
ATOM     36  H   UNL     1      15.247 -32.697   2.214  1.00  0.00     0.211 HD
ENDBRANCH  30  35
BRANCH  31  37
ATOM     37  C   UNL     1      12.993 -32.149  -1.914  1.00  0.00     0.191 C 
BRANCH  37  38
ATOM     38  O   UNL     1      11.771 -32.524  -2.488  1.00  0.00    -0.394 OA
ATOM     39  H   UNL     1      11.631 -31.918  -3.262  1.00  0.00     0.210 HD
ENDBRANCH  37  38
ENDBRANCH  31  37
BRANCH  32  40
ATOM     40  O   UNL     1      13.053 -32.472   1.028  1.00  0.00    -0.387 OA
ATOM     41  H   UNL     1      12.535 -33.283   1.275  1.00  0.00     0.211 HD
ENDBRANCH  32  40
ENDBRANCH   1  27
TORSDOF 12
ENDMDL
MODEL 5
REMARK VINA RESULT:    -6.559      1.796      4.793
REMARK INTER + INTRA:         -11.402
REMARK INTER:                  -9.941
REMARK INTRA:                  -1.461
REMARK UNBOUND:                -1.776
REMARK SMILES O=c1c(O[C@H]2O[C@H](CO)[C@@H](O)[C@H](O)[C@H]2O)c(-c2ccc(O)c(O)c2)oc2cc(O)cc(O)c12
REMARK SMILES IDX 4 1 3 2 16 3 25 4 2 5 26 6 1 7 33 8 27 9 31 10 28 11 30 12
REMARK SMILES IDX 17 13 18 14 19 15 20 16 24 17 22 18 21 19 23 21 32 23 29 25
REMARK SMILES IDX 5 27 14 28 6 29 12 30 7 31 10 32 15 33 13 35 8 37 9 38 11 40
REMARK H PARENT 21 20 23 22 32 24 29 26 15 34 13 36 9 39 11 41
REMARK Flexibility Score: inf
ROOT
ATOM      1  O   UNL     1      15.322 -37.790  -1.855  1.00  0.00    -0.454 OA
ENDROOT
BRANCH   1   2
ATOM      2  C   UNL     1      14.220 -37.962  -2.701  1.00  0.00     0.214 A 
ATOM      3  C   UNL     1      13.271 -36.940  -2.905  1.00  0.00     0.180 A 
ATOM      4  O   UNL     1      12.309 -37.108  -3.805  1.00  0.00    -0.452 OA
ATOM      5  C   UNL     1      14.064 -39.177  -3.377  1.00  0.00     0.239 A 
ATOM      6  C   UNL     1      12.142 -38.230  -4.495  1.00  0.00     0.146 A 
ATOM      7  O   UNL     1      14.927 -40.075  -3.198  1.00  0.00    -0.285 OA
ATOM      8  C   UNL     1      12.986 -39.352  -4.278  1.00  0.00     0.111 A 
ATOM      9  C   UNL     1      11.115 -38.287  -5.439  1.00  0.00     0.094 A 
ATOM     10  C   UNL     1      12.723 -40.550  -5.005  1.00  0.00     0.134 A 
ATOM     11  C   UNL     1      10.904 -39.447  -6.187  1.00  0.00     0.123 A 
ATOM     12  C   UNL     1      11.707 -40.565  -5.969  1.00  0.00     0.093 A 
BRANCH   3  13
ATOM     13  C   UNL     1      13.299 -35.674  -2.141  1.00  0.00     0.025 A 
ATOM     14  C   UNL     1      13.681 -34.470  -2.753  1.00  0.00     0.016 A 
ATOM     15  C   UNL     1      13.709 -33.285  -2.017  1.00  0.00     0.051 A 
ATOM     16  C   UNL     1      13.376 -33.280  -0.658  1.00  0.00     0.157 A 
ATOM     17  C   UNL     1      12.989 -35.678  -0.775  1.00  0.00     0.062 A 
ATOM     18  C   UNL     1      13.016 -34.495  -0.027  1.00  0.00     0.158 A 
BRANCH  16  19
ATOM     19  O   UNL     1      13.418 -32.060   0.019  1.00  0.00    -0.504 OA
ATOM     20  H   UNL     1      14.245 -31.689   0.464  1.00  0.00     0.293 HD
ENDBRANCH  16  19
BRANCH  18  21
ATOM     21  O   UNL     1      12.681 -34.570   1.327  1.00  0.00    -0.504 OA
ATOM     22  H   UNL     1      12.405 -35.421   1.794  1.00  0.00     0.293 HD
ENDBRANCH  18  21
ENDBRANCH   3  13
BRANCH  10  23
ATOM     23  O   UNL     1      13.409 -41.752  -4.802  1.00  0.00    -0.507 OA
ATOM     24  H   UNL     1      13.551 -42.188  -3.903  1.00  0.00     0.293 HD
ENDBRANCH  10  23
BRANCH  11  25
ATOM     25  O   UNL     1       9.894 -39.502  -7.143  1.00  0.00    -0.508 OA
ATOM     26  H   UNL     1       8.956 -39.806  -6.906  1.00  0.00     0.293 HD
ENDBRANCH  11  25
ENDBRANCH   1   2
BRANCH   1  27
ATOM     27  C   UNL     1      16.386 -36.870  -2.134  1.00  0.00     0.339 C 
ATOM     28  C   UNL     1      17.651 -37.618  -2.595  1.00  0.00     0.214 C 
ATOM     29  O   UNL     1      16.663 -36.058  -1.006  1.00  0.00    -0.332 OA
ATOM     30  C   UNL     1      18.218 -38.456  -1.443  1.00  0.00     0.180 C 
ATOM     31  C   UNL     1      17.065 -36.833   0.113  1.00  0.00     0.179 C 
ATOM     32  C   UNL     1      18.389 -37.580  -0.188  1.00  0.00     0.177 C 
BRANCH  28  33
ATOM     33  O   UNL     1      17.356 -38.455  -3.684  1.00  0.00    -0.384 OA
ATOM     34  H   UNL     1      16.809 -37.919  -4.316  1.00  0.00     0.211 HD
ENDBRANCH  28  33
BRANCH  30  35
ATOM     35  O   UNL     1      19.459 -38.988  -1.832  1.00  0.00    -0.387 OA
ATOM     36  H   UNL     1      20.134 -38.269  -1.709  1.00  0.00     0.211 HD
ENDBRANCH  30  35
BRANCH  31  37
ATOM     37  C   UNL     1      17.219 -35.882   1.309  1.00  0.00     0.191 C 
BRANCH  37  38
ATOM     38  O   UNL     1      18.464 -35.240   1.271  1.00  0.00    -0.394 OA
ATOM     39  H   UNL     1      18.700 -35.040   2.214  1.00  0.00     0.210 HD
ENDBRANCH  37  38
ENDBRANCH  31  37
BRANCH  32  40
ATOM     40  O   UNL     1      18.736 -38.392   0.905  1.00  0.00    -0.387 OA
ATOM     41  H   UNL     1      18.333 -39.285   0.742  1.00  0.00     0.211 HD
ENDBRANCH  32  40
ENDBRANCH   1  27
TORSDOF 12
ENDMDL
MODEL 6
REMARK VINA RESULT:    -6.266      1.793      3.642
REMARK INTER + INTRA:         -10.972
REMARK INTER:                  -9.532
REMARK INTRA:                  -1.439
REMARK UNBOUND:                -1.776
REMARK SMILES O=c1c(O[C@H]2O[C@H](CO)[C@@H](O)[C@H](O)[C@H]2O)c(-c2ccc(O)c(O)c2)oc2cc(O)cc(O)c12
REMARK SMILES IDX 4 1 3 2 16 3 25 4 2 5 26 6 1 7 33 8 27 9 31 10 28 11 30 12
REMARK SMILES IDX 17 13 18 14 19 15 20 16 24 17 22 18 21 19 23 21 32 23 29 25
REMARK SMILES IDX 5 27 14 28 6 29 12 30 7 31 10 32 15 33 13 35 8 37 9 38 11 40
REMARK H PARENT 21 20 23 22 32 24 29 26 15 34 13 36 9 39 11 41
REMARK Flexibility Score: inf
ROOT
ATOM      1  O   UNL     1      13.456 -36.259  -2.285  1.00  0.00    -0.454 OA
ENDROOT
BRANCH   1   2
ATOM      2  C   UNL     1      13.184 -37.277  -3.207  1.00  0.00     0.214 A 
ATOM      3  C   UNL     1      14.107 -38.308  -3.472  1.00  0.00     0.180 A 
ATOM      4  O   UNL     1      13.758 -39.314  -4.265  1.00  0.00    -0.452 OA
ATOM      5  C   UNL     1      11.954 -37.281  -3.874  1.00  0.00     0.239 A 
ATOM      6  C   UNL     1      12.590 -39.378  -4.893  1.00  0.00     0.146 A 
ATOM      7  O   UNL     1      11.133 -36.363  -3.616  1.00  0.00    -0.285 OA
ATOM      8  C   UNL     1      11.638 -38.330  -4.770  1.00  0.00     0.111 A 
ATOM      9  C   UNL     1      12.315 -40.497  -5.680  1.00  0.00     0.094 A 
ATOM     10  C   UNL     1      10.424 -38.424  -5.513  1.00  0.00     0.134 A 
ATOM     11  C   UNL     1      11.098 -40.605  -6.357  1.00  0.00     0.123 A 
ATOM     12  C   UNL     1      10.164 -39.574  -6.267  1.00  0.00     0.093 A 
BRANCH   3  13
ATOM     13  C   UNL     1      15.471 -38.312  -2.899  1.00  0.00     0.025 A 
ATOM     14  C   UNL     1      15.710 -38.804  -1.607  1.00  0.00     0.016 A 
ATOM     15  C   UNL     1      17.001 -38.794  -1.077  1.00  0.00     0.051 A 
ATOM     16  C   UNL     1      18.071 -38.279  -1.817  1.00  0.00     0.157 A 
ATOM     17  C   UNL     1      16.536 -37.773  -3.633  1.00  0.00     0.062 A 
ATOM     18  C   UNL     1      17.835 -37.756  -3.110  1.00  0.00     0.158 A 
BRANCH  16  19
ATOM     19  O   UNL     1      19.340 -38.305  -1.232  1.00  0.00    -0.504 OA
ATOM     20  H   UNL     1      19.519 -38.087  -0.263  1.00  0.00     0.293 HD
ENDBRANCH  16  19
BRANCH  18  21
ATOM     21  O   UNL     1      18.851 -37.217  -3.902  1.00  0.00    -0.504 OA
ATOM     22  H   UNL     1      19.050 -37.516  -4.846  1.00  0.00     0.293 HD
ENDBRANCH  18  21
ENDBRANCH   3  13
BRANCH  10  23
ATOM     23  O   UNL     1       9.462 -37.412  -5.565  1.00  0.00    -0.507 OA
ATOM     24  H   UNL     1       9.603 -36.503  -5.979  1.00  0.00     0.293 HD
ENDBRANCH  10  23
BRANCH  11  25
ATOM     25  O   UNL     1      10.811 -41.729  -7.128  1.00  0.00    -0.508 OA
ATOM     26  H   UNL     1      10.029 -41.742  -7.774  1.00  0.00     0.293 HD
ENDBRANCH  11  25
ENDBRANCH   1   2
BRANCH   1  27
ATOM     27  C   UNL     1      14.066 -35.015  -2.651  1.00  0.00     0.339 C 
ATOM     28  C   UNL     1      14.943 -34.475  -1.506  1.00  0.00     0.214 C 
ATOM     29  O   UNL     1      13.087 -34.062  -3.028  1.00  0.00    -0.332 OA
ATOM     30  C   UNL     1      14.067 -34.086  -0.309  1.00  0.00     0.180 C 
ATOM     31  C   UNL     1      12.184 -33.787  -1.968  1.00  0.00     0.179 C 
ATOM     32  C   UNL     1      12.931 -33.153  -0.767  1.00  0.00     0.177 C 
BRANCH  28  33
ATOM     33  O   UNL     1      15.879 -35.443  -1.107  1.00  0.00    -0.384 OA
ATOM     34  H   UNL     1      16.352 -35.075  -0.315  1.00  0.00     0.211 HD
ENDBRANCH  28  33
BRANCH  30  35
ATOM     35  O   UNL     1      14.864 -33.440   0.651  1.00  0.00    -0.387 OA
ATOM     36  H   UNL     1      15.309 -32.678   0.193  1.00  0.00     0.211 HD
ENDBRANCH  30  35
BRANCH  31  37
ATOM     37  C   UNL     1      11.098 -32.849  -2.510  1.00  0.00     0.191 C 
BRANCH  37  38
ATOM     38  O   UNL     1      10.496 -33.400  -3.650  1.00  0.00    -0.394 OA
ATOM     39  H   UNL     1       9.885 -34.110  -3.322  1.00  0.00     0.210 HD
ENDBRANCH  37  38
ENDBRANCH  31  37
BRANCH  32  40
ATOM     40  O   UNL     1      12.035 -32.950   0.296  1.00  0.00    -0.387 OA
ATOM     41  H   UNL     1      11.773 -31.993   0.276  1.00  0.00     0.211 HD
ENDBRANCH  32  40
ENDBRANCH   1  27
TORSDOF 12
ENDMDL
MODEL 7
REMARK VINA RESULT:    -6.113      2.232      5.564
REMARK INTER + INTRA:         -10.748
REMARK INTER:                  -8.686
REMARK INTRA:                  -2.062
REMARK UNBOUND:                -1.776
REMARK SMILES O=c1c(O[C@H]2O[C@H](CO)[C@@H](O)[C@H](O)[C@H]2O)c(-c2ccc(O)c(O)c2)oc2cc(O)cc(O)c12
REMARK SMILES IDX 4 1 3 2 16 3 25 4 2 5 26 6 1 7 33 8 27 9 31 10 28 11 30 12
REMARK SMILES IDX 17 13 18 14 19 15 20 16 24 17 22 18 21 19 23 21 32 23 29 25
REMARK SMILES IDX 5 27 14 28 6 29 12 30 7 31 10 32 15 33 13 35 8 37 9 38 11 40
REMARK H PARENT 21 20 23 22 32 24 29 26 15 34 13 36 9 39 11 41
REMARK Flexibility Score: inf
ROOT
ATOM      1  O   UNL     1      13.915 -37.230  -2.769  1.00  0.00    -0.454 OA
ENDROOT
BRANCH   1   2
ATOM      2  C   UNL     1      12.987 -37.905  -3.572  1.00  0.00     0.214 A 
ATOM      3  C   UNL     1      11.748 -37.332  -3.921  1.00  0.00     0.180 A 
ATOM      4  O   UNL     1      10.952 -37.960  -4.777  1.00  0.00    -0.452 OA
ATOM      5  C   UNL     1      13.304 -39.180  -4.055  1.00  0.00     0.239 A 
ATOM      6  C   UNL     1      11.226 -39.154  -5.288  1.00  0.00     0.146 A 
ATOM      7  O   UNL     1      14.420 -39.673  -3.749  1.00  0.00    -0.285 OA
ATOM      8  C   UNL     1      12.402 -39.856  -4.911  1.00  0.00     0.111 A 
ATOM      9  C   UNL     1      10.331 -39.710  -6.205  1.00  0.00     0.094 A 
ATOM     10  C   UNL     1      12.616 -41.161  -5.447  1.00  0.00     0.134 A 
ATOM     11  C   UNL     1      10.582 -40.963  -6.767  1.00  0.00     0.123 A 
ATOM     12  C   UNL     1      11.718 -41.676  -6.389  1.00  0.00     0.093 A 
BRANCH   3  13
ATOM     13  C   UNL     1      11.289 -36.044  -3.357  1.00  0.00     0.025 A 
ATOM     14  C   UNL     1      11.125 -34.915  -4.175  1.00  0.00     0.016 A 
ATOM     15  C   UNL     1      10.698 -33.704  -3.628  1.00  0.00     0.051 A 
ATOM     16  C   UNL     1      10.445 -33.592  -2.257  1.00  0.00     0.157 A 
ATOM     17  C   UNL     1      11.060 -35.928  -1.979  1.00  0.00     0.062 A 
ATOM     18  C   UNL     1      10.633 -34.717  -1.420  1.00  0.00     0.158 A 
BRANCH  16  19
ATOM     19  O   UNL     1      10.014 -32.355  -1.773  1.00  0.00    -0.504 OA
ATOM     20  H   UNL     1       9.110 -32.197  -1.350  1.00  0.00     0.293 HD
ENDBRANCH  16  19
BRANCH  18  21
ATOM     21  O   UNL     1      10.410 -34.678  -0.042  1.00  0.00    -0.504 OA
ATOM     22  H   UNL     1      10.376 -35.496   0.548  1.00  0.00     0.293 HD
ENDBRANCH  18  21
ENDBRANCH   3  13
BRANCH  10  23
ATOM     23  O   UNL     1      13.672 -41.995  -5.069  1.00  0.00    -0.507 OA
ATOM     24  H   UNL     1      13.937 -42.842  -5.548  1.00  0.00     0.293 HD
ENDBRANCH  10  23
BRANCH  11  25
ATOM     25  O   UNL     1       9.703 -41.513  -7.697  1.00  0.00    -0.508 OA
ATOM     26  H   UNL     1       9.277 -42.422  -7.550  1.00  0.00     0.293 HD
ENDBRANCH  11  25
ENDBRANCH   1   2
BRANCH   1  27
ATOM     27  C   UNL     1      14.800 -36.223  -3.277  1.00  0.00     0.339 C 
ATOM     28  C   UNL     1      16.265 -36.559  -2.940  1.00  0.00     0.214 C 
ATOM     29  O   UNL     1      14.449 -34.943  -2.780  1.00  0.00    -0.332 OA
ATOM     30  C   UNL     1      16.490 -36.479  -1.425  1.00  0.00     0.180 C 
ATOM     31  C   UNL     1      14.526 -34.889  -1.364  1.00  0.00     0.179 C 
ATOM     32  C   UNL     1      15.981 -35.129  -0.887  1.00  0.00     0.177 C 
BRANCH  28  33
ATOM     33  O   UNL     1      16.589 -37.848  -3.395  1.00  0.00    -0.384 OA
ATOM     34  H   UNL     1      16.602 -38.438  -2.596  1.00  0.00     0.211 HD
ENDBRANCH  28  33
BRANCH  30  35
ATOM     35  O   UNL     1      17.862 -36.618  -1.158  1.00  0.00    -0.387 OA
ATOM     36  H   UNL     1      18.298 -36.881  -2.011  1.00  0.00     0.211 HD
ENDBRANCH  30  35
BRANCH  31  37
ATOM     37  C   UNL     1      14.010 -33.514  -0.919  1.00  0.00     0.191 C 
BRANCH  37  38
ATOM     38  O   UNL     1      13.383 -33.603   0.330  1.00  0.00    -0.394 OA
ATOM     39  H   UNL     1      12.914 -34.478   0.342  1.00  0.00     0.210 HD
ENDBRANCH  37  38
ENDBRANCH  31  37
BRANCH  32  40
ATOM     40  O   UNL     1      16.026 -35.139   0.517  1.00  0.00    -0.387 OA
ATOM     41  H   UNL     1      16.182 -34.203   0.809  1.00  0.00     0.211 HD
ENDBRANCH  32  40
ENDBRANCH   1  27
TORSDOF 12
ENDMDL
MODEL 8
REMARK VINA RESULT:    -6.088      1.900      5.986
REMARK INTER + INTRA:         -10.710
REMARK INTER:                  -9.568
REMARK INTRA:                  -1.142
REMARK UNBOUND:                -1.776
REMARK SMILES O=c1c(O[C@H]2O[C@H](CO)[C@@H](O)[C@H](O)[C@H]2O)c(-c2ccc(O)c(O)c2)oc2cc(O)cc(O)c12
REMARK SMILES IDX 4 1 3 2 16 3 25 4 2 5 26 6 1 7 33 8 27 9 31 10 28 11 30 12
REMARK SMILES IDX 17 13 18 14 19 15 20 16 24 17 22 18 21 19 23 21 32 23 29 25
REMARK SMILES IDX 5 27 14 28 6 29 12 30 7 31 10 32 15 33 13 35 8 37 9 38 11 40
REMARK H PARENT 21 20 23 22 32 24 29 26 15 34 13 36 9 39 11 41
REMARK Flexibility Score: inf
ROOT
ATOM      1  O   UNL     1      13.712 -37.903  -2.028  1.00  0.00    -0.454 OA
ENDROOT
BRANCH   1   2
ATOM      2  C   UNL     1      13.896 -36.775  -1.218  1.00  0.00     0.214 A 
ATOM      3  C   UNL     1      15.178 -36.334  -0.837  1.00  0.00     0.180 A 
ATOM      4  O   UNL     1      15.308 -35.195  -0.167  1.00  0.00    -0.452 OA
ATOM      5  C   UNL     1      12.775 -36.056  -0.788  1.00  0.00     0.239 A 
ATOM      6  C   UNL     1      14.277 -34.461   0.233  1.00  0.00     0.146 A 
ATOM      7  O   UNL     1      11.637 -36.452  -1.149  1.00  0.00    -0.285 OA
ATOM      8  C   UNL     1      12.943 -34.883  -0.014  1.00  0.00     0.111 A 
ATOM      9  C   UNL     1      14.529 -33.263   0.905  1.00  0.00     0.094 A 
ATOM     10  C   UNL     1      11.873 -34.084   0.490  1.00  0.00     0.134 A 
ATOM     11  C   UNL     1      13.473 -32.461   1.342  1.00  0.00     0.123 A 
ATOM     12  C   UNL     1      12.159 -32.872   1.130  1.00  0.00     0.093 A 
BRANCH   3  13
ATOM     13  C   UNL     1      16.403 -37.102  -1.150  1.00  0.00     0.025 A 
ATOM     14  C   UNL     1      17.169 -36.806  -2.288  1.00  0.00     0.016 A 
ATOM     15  C   UNL     1      18.318 -37.546  -2.574  1.00  0.00     0.051 A 
ATOM     16  C   UNL     1      18.713 -38.601  -1.745  1.00  0.00     0.157 A 
ATOM     17  C   UNL     1      16.781 -38.174  -0.330  1.00  0.00     0.062 A 
ATOM     18  C   UNL     1      17.930 -38.923  -0.610  1.00  0.00     0.158 A 
BRANCH  16  19
ATOM     19  O   UNL     1      19.875 -39.296  -2.083  1.00  0.00    -0.504 OA
ATOM     20  H   UNL     1      20.021 -40.277  -1.894  1.00  0.00     0.293 HD
ENDBRANCH  16  19
BRANCH  18  21
ATOM     21  O   UNL     1      18.256 -39.968   0.258  1.00  0.00    -0.504 OA
ATOM     22  H   UNL     1      18.826 -39.859   1.083  1.00  0.00     0.293 HD
ENDBRANCH  18  21
ENDBRANCH   3  13
BRANCH  10  23
ATOM     23  O   UNL     1      10.526 -34.447   0.411  1.00  0.00    -0.507 OA
ATOM     24  H   UNL     1      10.013 -34.576  -0.449  1.00  0.00     0.293 HD
ENDBRANCH  10  23
BRANCH  11  25
ATOM     25  O   UNL     1      13.720 -31.256   1.995  1.00  0.00    -0.508 OA
ATOM     26  H   UNL     1      14.366 -31.198   2.774  1.00  0.00     0.293 HD
ENDBRANCH  11  25
ENDBRANCH   1   2
BRANCH   1  27
ATOM     27  C   UNL     1      14.158 -37.969  -3.389  1.00  0.00     0.339 C 
ATOM     28  C   UNL     1      13.067 -37.458  -4.349  1.00  0.00     0.214 C 
ATOM     29  O   UNL     1      14.551 -39.288  -3.729  1.00  0.00    -0.332 OA
ATOM     30  C   UNL     1      11.865 -38.409  -4.337  1.00  0.00     0.180 C 
ATOM     31  C   UNL     1      13.479 -40.208  -3.597  1.00  0.00     0.179 C 
ATOM     32  C   UNL     1      12.334 -39.855  -4.580  1.00  0.00     0.177 C 
BRANCH  28  33
ATOM     33  O   UNL     1      12.650 -36.170  -3.975  1.00  0.00    -0.384 OA
ATOM     34  H   UNL     1      13.052 -35.538  -4.627  1.00  0.00     0.211 HD
ENDBRANCH  28  33
BRANCH  30  35
ATOM     35  O   UNL     1      10.962 -38.019  -5.340  1.00  0.00    -0.387 OA
ATOM     36  H   UNL     1      11.319 -38.366  -6.201  1.00  0.00     0.211 HD
ENDBRANCH  30  35
BRANCH  31  37
ATOM     37  C   UNL     1      14.034 -41.613  -3.864  1.00  0.00     0.191 C 
BRANCH  37  38
ATOM     38  O   UNL     1      13.682 -42.045  -5.150  1.00  0.00    -0.394 OA
ATOM     39  H   UNL     1      12.693 -42.132  -5.151  1.00  0.00     0.210 HD
ENDBRANCH  37  38
ENDBRANCH  31  37
BRANCH  32  40
ATOM     40  O   UNL     1      11.255 -40.735  -4.389  1.00  0.00    -0.387 OA
ATOM     41  H   UNL     1      11.381 -41.490  -5.021  1.00  0.00     0.211 HD
ENDBRANCH  32  40
ENDBRANCH   1  27
TORSDOF 12
ENDMDL
MODEL 9
REMARK VINA RESULT:    -6.022      2.142      6.356
REMARK INTER + INTRA:         -10.614
REMARK INTER:                  -9.635
REMARK INTRA:                  -0.979
REMARK UNBOUND:                -1.776
REMARK SMILES O=c1c(O[C@H]2O[C@H](CO)[C@@H](O)[C@H](O)[C@H]2O)c(-c2ccc(O)c(O)c2)oc2cc(O)cc(O)c12
REMARK SMILES IDX 4 1 3 2 16 3 25 4 2 5 26 6 1 7 33 8 27 9 31 10 28 11 30 12
REMARK SMILES IDX 17 13 18 14 19 15 20 16 24 17 22 18 21 19 23 21 32 23 29 25
REMARK SMILES IDX 5 27 14 28 6 29 12 30 7 31 10 32 15 33 13 35 8 37 9 38 11 40
REMARK H PARENT 21 20 23 22 32 24 29 26 15 34 13 36 9 39 11 41
REMARK Flexibility Score: inf
ROOT
ATOM      1  O   UNL     1      13.163 -37.054  -2.293  1.00  0.00    -0.454 OA
ENDROOT
BRANCH   1   2
ATOM      2  C   UNL     1      13.362 -36.034  -1.354  1.00  0.00     0.214 A 
ATOM      3  C   UNL     1      14.623 -35.436  -1.162  1.00  0.00     0.180 A 
ATOM      4  O   UNL     1      14.738 -34.395  -0.345  1.00  0.00    -0.452 OA
ATOM      5  C   UNL     1      12.275 -35.584  -0.597  1.00  0.00     0.239 A 
ATOM      6  C   UNL     1      13.728 -33.911   0.368  1.00  0.00     0.146 A 
ATOM      7  O   UNL     1      11.151 -36.116  -0.791  1.00  0.00    -0.285 OA
ATOM      8  C   UNL     1      12.444 -34.517   0.319  1.00  0.00     0.111 A 
ATOM      9  C   UNL     1      13.954 -32.792   1.172  1.00  0.00     0.094 A 
ATOM     10  C   UNL     1      11.412 -33.991   1.150  1.00  0.00     0.134 A 
ATOM     11  C   UNL     1      12.920 -32.251   1.938  1.00  0.00     0.123 A 
ATOM     12  C   UNL     1      11.660 -32.849   1.921  1.00  0.00     0.093 A 
BRANCH   3  13
ATOM     13  C   UNL     1      15.843 -35.932  -1.835  1.00  0.00     0.025 A 
ATOM     14  C   UNL     1      16.243 -37.272  -1.709  1.00  0.00     0.016 A 
ATOM     15  C   UNL     1      17.401 -37.724  -2.343  1.00  0.00     0.051 A 
ATOM     16  C   UNL     1      18.188 -36.848  -3.099  1.00  0.00     0.157 A 
ATOM     17  C   UNL     1      16.642 -35.047  -2.570  1.00  0.00     0.062 A 
ATOM     18  C   UNL     1      17.806 -35.490  -3.210  1.00  0.00     0.158 A 
BRANCH  16  19
ATOM     19  O   UNL     1      19.330 -37.364  -3.715  1.00  0.00    -0.504 OA
ATOM     20  H   UNL     1      19.312 -38.068  -4.439  1.00  0.00     0.293 HD
ENDBRANCH  16  19
BRANCH  18  21
ATOM     21  O   UNL     1      18.547 -34.556  -3.938  1.00  0.00    -0.504 OA
ATOM     22  H   UNL     1      19.463 -34.737  -4.322  1.00  0.00     0.293 HD
ENDBRANCH  18  21
ENDBRANCH   3  13
BRANCH  10  23
ATOM     23  O   UNL     1      10.144 -34.565   1.276  1.00  0.00    -0.507 OA
ATOM     24  H   UNL     1       9.292 -34.050   1.440  1.00  0.00     0.293 HD
ENDBRANCH  10  23
BRANCH  11  25
ATOM     25  O   UNL     1      13.134 -31.123   2.726  1.00  0.00    -0.508 OA
ATOM     26  H   UNL     1      14.051 -30.907   3.104  1.00  0.00     0.293 HD
ENDBRANCH  11  25
ENDBRANCH   1   2
BRANCH   1  27
ATOM     27  C   UNL     1      13.287 -36.851  -3.706  1.00  0.00     0.339 C 
ATOM     28  C   UNL     1      11.962 -36.343  -4.306  1.00  0.00     0.214 C 
ATOM     29  O   UNL     1      13.710 -38.038  -4.354  1.00  0.00    -0.332 OA
ATOM     30  C   UNL     1      10.888 -37.432  -4.211  1.00  0.00     0.180 C 
ATOM     31  C   UNL     1      12.787 -39.099  -4.165  1.00  0.00     0.179 C 
ATOM     32  C   UNL     1      11.419 -38.750  -4.804  1.00  0.00     0.177 C 
BRANCH  28  33
ATOM     33  O   UNL     1      11.526 -35.193  -3.627  1.00  0.00    -0.384 OA
ATOM     34  H   UNL     1      11.716 -35.341  -2.663  1.00  0.00     0.211 HD
ENDBRANCH  28  33
BRANCH  30  35
ATOM     35  O   UNL     1       9.746 -37.012  -4.915  1.00  0.00    -0.387 OA
ATOM     36  H   UNL     1       9.701 -36.023  -4.830  1.00  0.00     0.211 HD
ENDBRANCH  30  35
BRANCH  31  37
ATOM     37  C   UNL     1      13.392 -40.363  -4.792  1.00  0.00     0.191 C 
BRANCH  37  38
ATOM     38  O   UNL     1      12.758 -40.663  -6.005  1.00  0.00    -0.394 OA
ATOM     39  H   UNL     1      12.038 -39.988  -6.114  1.00  0.00     0.210 HD
ENDBRANCH  37  38
ENDBRANCH  31  37
BRANCH  32  40
ATOM     40  O   UNL     1      10.498 -39.781  -4.550  1.00  0.00    -0.387 OA
ATOM     41  H   UNL     1      11.024 -40.581  -4.287  1.00  0.00     0.211 HD
ENDBRANCH  32  40
ENDBRANCH   1  27
TORSDOF 12
ENDMDL
