MODEL 1
REMARK VINA RESULT:    -7.909      0.000      0.000
REMARK INTER + INTRA:          -9.582
REMARK INTER:                  -9.296
REMARK INTRA:                  -0.287
REMARK UNBOUND:                -0.287
REMARK SMILES O=c1c(O)c(-c2ccc(O)cc2)oc2cc(O)cc(O)c12
REMARK SMILES IDX 5 1 3 2 2 3 1 4 21 5 19 6 18 7 16 8 15 9 14 10 13 11 6 12
REMARK SMILES IDX 7 13 8 14 9 15 12 16 11 17 10 18 4 20 20 22 17 24
REMARK H PARENT 10 19 4 21 20 23 17 25
REMARK Flexibility Score: inf
ROOT
ATOM      1  C   UNL     1      12.988  44.887   6.201  1.00  0.00     0.180 A 
ATOM      2  C   UNL     1      13.324  44.551   4.877  1.00  0.00     0.208 A 
ATOM      3  C   UNL     1      14.625  44.102   4.598  1.00  0.00     0.238 A 
ATOM      4  O   UNL     1      14.896  43.733   3.425  1.00  0.00    -0.285 OA
ATOM      5  C   UNL     1      15.589  44.046   5.633  1.00  0.00     0.111 A 
ATOM      6  C   UNL     1      16.950  43.649   5.455  1.00  0.00     0.134 A 
ATOM      7  C   UNL     1      17.785  43.529   6.573  1.00  0.00     0.093 A 
ATOM      8  C   UNL     1      17.330  43.855   7.852  1.00  0.00     0.123 A 
ATOM      9  C   UNL     1      16.021  44.296   8.028  1.00  0.00     0.094 A 
ATOM     10  C   UNL     1      15.152  44.389   6.939  1.00  0.00     0.146 A 
ATOM     11  O   UNL     1      13.906  44.793   7.156  1.00  0.00    -0.452 OA
ENDROOT
BRANCH   1  12
ATOM     12  C   UNL     1      11.635  45.355   6.576  1.00  0.00     0.021 A 
ATOM     13  C   UNL     1      11.276  46.712   6.483  1.00  0.00     0.016 A 
ATOM     14  C   UNL     1       9.983  47.126   6.819  1.00  0.00     0.047 A 
ATOM     15  C   UNL     1       9.031  46.188   7.237  1.00  0.00     0.115 A 
ATOM     16  C   UNL     1      10.666  44.418   6.975  1.00  0.00     0.016 A 
ATOM     17  C   UNL     1       9.375  44.836   7.311  1.00  0.00     0.047 A 
BRANCH  15  18
ATOM     18  O   UNL     1       7.740  46.590   7.576  1.00  0.00    -0.508 OA
ATOM     19  H   UNL     1       6.985  45.921   7.671  1.00  0.00     0.293 HD
ENDBRANCH  15  18
ENDBRANCH   1  12
BRANCH   2  20
ATOM     20  O   UNL     1      12.381  44.687   3.856  1.00  0.00    -0.502 OA
ATOM     21  H   UNL     1      12.620  44.592   2.877  1.00  0.00     0.293 HD
ENDBRANCH   2  20
BRANCH   6  22
ATOM     22  O   UNL     1      17.533  43.386   4.212  1.00  0.00    -0.507 OA
ATOM     23  H   UNL     1      17.576  44.038   3.445  1.00  0.00     0.293 HD
ENDBRANCH   6  22
BRANCH   8  24
ATOM     24  O   UNL     1      18.174  43.751   8.956  1.00  0.00    -0.508 OA
ATOM     25  H   UNL     1      19.127  44.092   8.927  1.00  0.00     0.293 HD
ENDBRANCH   8  24
TORSDOF 5
ENDMDL
MODEL 2
REMARK VINA RESULT:    -7.593      1.929      7.140
REMARK INTER + INTRA:          -9.212
REMARK INTER:                  -8.923
REMARK INTRA:                  -0.289
REMARK UNBOUND:                -0.287
REMARK SMILES O=c1c(O)c(-c2ccc(O)cc2)oc2cc(O)cc(O)c12
REMARK SMILES IDX 5 1 3 2 2 3 1 4 21 5 19 6 18 7 16 8 15 9 14 10 13 11 6 12
REMARK SMILES IDX 7 13 8 14 9 15 12 16 11 17 10 18 4 20 20 22 17 24
REMARK H PARENT 10 19 4 21 20 23 17 25
REMARK Flexibility Score: inf
ROOT
ATOM      1  C   UNL     1      13.367  45.066   7.558  1.00  0.00     0.180 A 
ATOM      2  C   UNL     1      12.618  44.495   8.603  1.00  0.00     0.208 A 
ATOM      3  C   UNL     1      11.294  44.920   8.801  1.00  0.00     0.238 A 
ATOM      4  O   UNL     1      10.606  44.351   9.689  1.00  0.00    -0.285 OA
ATOM      5  C   UNL     1      10.753  45.946   7.990  1.00  0.00     0.111 A 
ATOM      6  C   UNL     1       9.438  46.486   8.132  1.00  0.00     0.134 A 
ATOM      7  C   UNL     1       8.974  47.425   7.203  1.00  0.00     0.093 A 
ATOM      8  C   UNL     1       9.798  47.894   6.178  1.00  0.00     0.123 A 
ATOM      9  C   UNL     1      11.101  47.415   6.065  1.00  0.00     0.094 A 
ATOM     10  C   UNL     1      11.580  46.448   6.952  1.00  0.00     0.146 A 
ATOM     11  O   UNL     1      12.821  46.004   6.794  1.00  0.00    -0.452 OA
ENDROOT
BRANCH   1  12
ATOM     12  C   UNL     1      14.763  44.661   7.278  1.00  0.00     0.021 A 
ATOM     13  C   UNL     1      15.851  45.298   7.904  1.00  0.00     0.016 A 
ATOM     14  C   UNL     1      17.160  44.881   7.642  1.00  0.00     0.047 A 
ATOM     15  C   UNL     1      17.396  43.815   6.764  1.00  0.00     0.115 A 
ATOM     16  C   UNL     1      15.009  43.579   6.416  1.00  0.00     0.016 A 
ATOM     17  C   UNL     1      16.319  43.165   6.156  1.00  0.00     0.047 A 
BRANCH  15  18
ATOM     18  O   UNL     1      18.697  43.392   6.495  1.00  0.00    -0.508 OA
ATOM     19  H   UNL     1      18.910  42.816   5.690  1.00  0.00     0.293 HD
ENDBRANCH  15  18
ENDBRANCH   1  12
BRANCH   2  20
ATOM     20  O   UNL     1      13.195  43.539   9.441  1.00  0.00    -0.502 OA
ATOM     21  H   UNL     1      12.842  43.345  10.370  1.00  0.00     0.293 HD
ENDBRANCH   2  20
BRANCH   6  22
ATOM     22  O   UNL     1       8.564  46.154   9.170  1.00  0.00    -0.507 OA
ATOM     23  H   UNL     1       8.844  45.799  10.071  1.00  0.00     0.293 HD
ENDBRANCH   6  22
BRANCH   8  24
ATOM     24  O   UNL     1       9.334  48.843   5.269  1.00  0.00    -0.508 OA
ATOM     25  H   UNL     1       8.506  49.395   5.457  1.00  0.00     0.293 HD
ENDBRANCH   8  24
TORSDOF 5
ENDMDL
MODEL 3
REMARK VINA RESULT:    -7.531      2.449      4.020
REMARK INTER + INTRA:          -9.138
REMARK INTER:                  -8.900
REMARK INTRA:                  -0.238
REMARK UNBOUND:                -0.287
REMARK SMILES O=c1c(O)c(-c2ccc(O)cc2)oc2cc(O)cc(O)c12
REMARK SMILES IDX 5 1 3 2 2 3 1 4 21 5 19 6 18 7 16 8 15 9 14 10 13 11 6 12
REMARK SMILES IDX 7 13 8 14 9 15 12 16 11 17 10 18 4 20 20 22 17 24
REMARK H PARENT 10 19 4 21 20 23 17 25
REMARK Flexibility Score: inf
ROOT
ATOM      1  C   UNL     1      11.865  44.754   7.434  1.00  0.00     0.180 A 
ATOM      2  C   UNL     1      13.088  45.447   7.480  1.00  0.00     0.208 A 
ATOM      3  C   UNL     1      14.000  45.289   6.424  1.00  0.00     0.238 A 
ATOM      4  O   UNL     1      15.058  45.970   6.436  1.00  0.00    -0.285 OA
ATOM      5  C   UNL     1      13.702  44.401   5.362  1.00  0.00     0.111 A 
ATOM      6  C   UNL     1      14.573  44.130   4.263  1.00  0.00     0.134 A 
ATOM      7  C   UNL     1      14.127  43.313   3.216  1.00  0.00     0.093 A 
ATOM      8  C   UNL     1      12.871  42.705   3.260  1.00  0.00     0.123 A 
ATOM      9  C   UNL     1      12.037  42.919   4.354  1.00  0.00     0.094 A 
ATOM     10  C   UNL     1      12.437  43.760   5.396  1.00  0.00     0.146 A 
ATOM     11  O   UNL     1      11.601  43.952   6.410  1.00  0.00    -0.452 OA
ENDROOT
BRANCH   1  12
ATOM     12  C   UNL     1      10.848  44.879   8.503  1.00  0.00     0.021 A 
ATOM     13  C   UNL     1       9.673  45.630   8.314  1.00  0.00     0.016 A 
ATOM     14  C   UNL     1       8.715  45.712   9.329  1.00  0.00     0.047 A 
ATOM     15  C   UNL     1       8.913  45.034  10.539  1.00  0.00     0.115 A 
ATOM     16  C   UNL     1      11.027  44.185   9.711  1.00  0.00     0.016 A 
ATOM     17  C   UNL     1      10.068  44.270  10.725  1.00  0.00     0.047 A 
BRANCH  15  18
ATOM     18  O   UNL     1       7.965  45.110  11.559  1.00  0.00    -0.508 OA
ATOM     19  H   UNL     1       7.158  44.498  11.577  1.00  0.00     0.293 HD
ENDBRANCH  15  18
ENDBRANCH   1  12
BRANCH   2  20
ATOM     20  O   UNL     1      13.395  46.259   8.574  1.00  0.00    -0.502 OA
ATOM     21  H   UNL     1      13.353  45.925   9.530  1.00  0.00     0.293 HD
ENDBRANCH   2  20
BRANCH   6  22
ATOM     22  O   UNL     1      15.880  44.613   4.161  1.00  0.00    -0.507 OA
ATOM     23  H   UNL     1      16.546  44.641   4.917  1.00  0.00     0.293 HD
ENDBRANCH   6  22
BRANCH   8  24
ATOM     24  O   UNL     1      12.444  41.878   2.222  1.00  0.00    -0.508 OA
ATOM     25  H   UNL     1      11.720  42.170   1.576  1.00  0.00     0.293 HD
ENDBRANCH   8  24
TORSDOF 5
ENDMDL
MODEL 4
REMARK VINA RESULT:    -7.517      1.614      6.560
REMARK INTER + INTRA:          -9.122
REMARK INTER:                  -8.834
REMARK INTRA:                  -0.288
REMARK UNBOUND:                -0.287
REMARK SMILES O=c1c(O)c(-c2ccc(O)cc2)oc2cc(O)cc(O)c12
REMARK SMILES IDX 5 1 3 2 2 3 1 4 21 5 19 6 18 7 16 8 15 9 14 10 13 11 6 12
REMARK SMILES IDX 7 13 8 14 9 15 12 16 11 17 10 18 4 20 20 22 17 24
REMARK H PARENT 10 19 4 21 20 23 17 25
REMARK Flexibility Score: inf
ROOT
ATOM      1  C   UNL     1      13.762  45.276   6.507  1.00  0.00     0.180 A 
ATOM      2  C   UNL     1      13.709  45.714   5.172  1.00  0.00     0.208 A 
ATOM      3  C   UNL     1      12.558  46.381   4.720  1.00  0.00     0.238 A 
ATOM      4  O   UNL     1      12.548  46.836   3.546  1.00  0.00    -0.285 OA
ATOM      5  C   UNL     1      11.455  46.553   5.590  1.00  0.00     0.111 A 
ATOM      6  C   UNL     1      10.222  47.174   5.224  1.00  0.00     0.134 A 
ATOM      7  C   UNL     1       9.239  47.384   6.201  1.00  0.00     0.093 A 
ATOM      8  C   UNL     1       9.419  46.938   7.512  1.00  0.00     0.123 A 
ATOM      9  C   UNL     1      10.595  46.281   7.864  1.00  0.00     0.094 A 
ATOM     10  C   UNL     1      11.610  46.091   6.923  1.00  0.00     0.146 A 
ATOM     11  O   UNL     1      12.723  45.480   7.308  1.00  0.00    -0.452 OA
ENDROOT
BRANCH   1  12
ATOM     12  C   UNL     1      14.944  44.578   7.061  1.00  0.00     0.021 A 
ATOM     13  C   UNL     1      15.093  43.183   6.949  1.00  0.00     0.016 A 
ATOM     14  C   UNL     1      16.231  42.550   7.458  1.00  0.00     0.047 A 
ATOM     15  C   UNL     1      17.240  43.304   8.071  1.00  0.00     0.115 A 
ATOM     16  C   UNL     1      15.973  45.328   7.657  1.00  0.00     0.016 A 
ATOM     17  C   UNL     1      17.109  44.692   8.165  1.00  0.00     0.047 A 
BRANCH  15  18
ATOM     18  O   UNL     1      18.379  42.683   8.582  1.00  0.00    -0.508 OA
ATOM     19  H   UNL     1      19.309  43.008   8.348  1.00  0.00     0.293 HD
ENDBRANCH  15  18
ENDBRANCH   1  12
BRANCH   2  20
ATOM     20  O   UNL     1      14.778  45.467   4.308  1.00  0.00    -0.502 OA
ATOM     21  H   UNL     1      15.714  45.808   4.488  1.00  0.00     0.293 HD
ENDBRANCH   2  20
BRANCH   6  22
ATOM     22  O   UNL     1       9.903  47.578   3.925  1.00  0.00    -0.507 OA
ATOM     23  H   UNL     1       9.067  47.316   3.427  1.00  0.00     0.293 HD
ENDBRANCH   6  22
BRANCH   8  24
ATOM     24  O   UNL     1       8.427  47.134   8.472  1.00  0.00    -0.508 OA
ATOM     25  H   UNL     1       8.529  47.827   9.203  1.00  0.00     0.293 HD
ENDBRANCH   8  24
TORSDOF 5
ENDMDL
MODEL 5
REMARK VINA RESULT:    -7.414      1.756      6.521
REMARK INTER + INTRA:          -9.000
REMARK INTER:                  -8.716
REMARK INTRA:                  -0.284
REMARK UNBOUND:                -0.287
REMARK SMILES O=c1c(O)c(-c2ccc(O)cc2)oc2cc(O)cc(O)c12
REMARK SMILES IDX 5 1 3 2 2 3 1 4 21 5 19 6 18 7 16 8 15 9 14 10 13 11 6 12
REMARK SMILES IDX 7 13 8 14 9 15 12 16 11 17 10 18 4 20 20 22 17 24
REMARK H PARENT 10 19 4 21 20 23 17 25
REMARK Flexibility Score: inf
ROOT
ATOM      1  C   UNL     1      13.811  45.295   6.863  1.00  0.00     0.180 A 
ATOM      2  C   UNL     1      13.760  45.868   5.579  1.00  0.00     0.208 A 
ATOM      3  C   UNL     1      12.584  46.517   5.170  1.00  0.00     0.238 A 
ATOM      4  O   UNL     1      12.572  47.092   4.050  1.00  0.00    -0.285 OA
ATOM      5  C   UNL     1      11.456  46.538   6.025  1.00  0.00     0.111 A 
ATOM      6  C   UNL     1      10.198  47.129   5.695  1.00  0.00     0.134 A 
ATOM      7  C   UNL     1       9.186  47.183   6.662  1.00  0.00     0.093 A 
ATOM      8  C   UNL     1       9.364  46.611   7.924  1.00  0.00     0.123 A 
ATOM      9  C   UNL     1      10.567  45.984   8.236  1.00  0.00     0.094 A 
ATOM     10  C   UNL     1      11.609  45.948   7.306  1.00  0.00     0.146 A 
ATOM     11  O   UNL     1      12.747  45.359   7.654  1.00  0.00    -0.452 OA
ENDROOT
BRANCH   1  12
ATOM     12  C   UNL     1      15.019  44.606   7.370  1.00  0.00     0.021 A 
ATOM     13  C   UNL     1      16.093  45.324   7.929  1.00  0.00     0.016 A 
ATOM     14  C   UNL     1      17.213  44.649   8.425  1.00  0.00     0.047 A 
ATOM     15  C   UNL     1      17.266  43.249   8.382  1.00  0.00     0.115 A 
ATOM     16  C   UNL     1      15.072  43.202   7.352  1.00  0.00     0.016 A 
ATOM     17  C   UNL     1      16.194  42.530   7.848  1.00  0.00     0.047 A 
BRANCH  15  18
ATOM     18  O   UNL     1      18.378  42.566   8.873  1.00  0.00    -0.508 OA
ATOM     19  H   UNL     1      18.563  41.604   8.616  1.00  0.00     0.293 HD
ENDBRANCH  15  18
ENDBRANCH   1  12
BRANCH   2  20
ATOM     20  O   UNL     1      14.858  45.770   4.721  1.00  0.00    -0.502 OA
ATOM     21  H   UNL     1      15.008  44.970   4.118  1.00  0.00     0.293 HD
ENDBRANCH   2  20
BRANCH   6  22
ATOM     22  O   UNL     1       9.883  47.650   4.437  1.00  0.00    -0.507 OA
ATOM     23  H   UNL     1      10.294  48.478   4.036  1.00  0.00     0.293 HD
ENDBRANCH   6  22
BRANCH   8  24
ATOM     24  O   UNL     1       8.344  46.653   8.874  1.00  0.00    -0.508 OA
ATOM     25  H   UNL     1       7.369  46.660   8.603  1.00  0.00     0.293 HD
ENDBRANCH   8  24
TORSDOF 5
ENDMDL
MODEL 6
REMARK VINA RESULT:    -7.259      2.436      3.502
REMARK INTER + INTRA:          -8.819
REMARK INTER:                  -8.600
REMARK INTRA:                  -0.219
REMARK UNBOUND:                -0.287
REMARK SMILES O=c1c(O)c(-c2ccc(O)cc2)oc2cc(O)cc(O)c12
REMARK SMILES IDX 5 1 3 2 2 3 1 4 21 5 19 6 18 7 16 8 15 9 14 10 13 11 6 12
REMARK SMILES IDX 7 13 8 14 9 15 12 16 11 17 10 18 4 20 20 22 17 24
REMARK H PARENT 10 19 4 21 20 23 17 25
REMARK Flexibility Score: inf
ROOT
ATOM      1  C   UNL     1      13.988  44.643   7.028  1.00  0.00     0.180 A 
ATOM      2  C   UNL     1      15.319  45.092   7.091  1.00  0.00     0.208 A 
ATOM      3  C   UNL     1      16.295  44.252   7.651  1.00  0.00     0.238 A 
ATOM      4  O   UNL     1      17.496  44.630   7.636  1.00  0.00    -0.285 OA
ATOM      5  C   UNL     1      15.921  42.998   8.191  1.00  0.00     0.111 A 
ATOM      6  C   UNL     1      16.820  42.085   8.824  1.00  0.00     0.134 A 
ATOM      7  C   UNL     1      16.355  40.827   9.225  1.00  0.00     0.093 A 
ATOM      8  C   UNL     1      15.012  40.473   9.077  1.00  0.00     0.123 A 
ATOM      9  C   UNL     1      14.117  41.377   8.512  1.00  0.00     0.094 A 
ATOM     10  C   UNL     1      14.557  42.625   8.066  1.00  0.00     0.146 A 
ATOM     11  O   UNL     1      13.674  43.448   7.514  1.00  0.00    -0.452 OA
ENDROOT
BRANCH   1  12
ATOM     12  C   UNL     1      12.906  45.464   6.440  1.00  0.00     0.021 A 
ATOM     13  C   UNL     1      11.970  46.134   7.250  1.00  0.00     0.016 A 
ATOM     14  C   UNL     1      10.972  46.925   6.672  1.00  0.00     0.047 A 
ATOM     15  C   UNL     1      10.907  47.067   5.280  1.00  0.00     0.115 A 
ATOM     16  C   UNL     1      12.846  45.631   5.046  1.00  0.00     0.016 A 
ATOM     17  C   UNL     1      11.846  46.422   4.471  1.00  0.00     0.047 A 
BRANCH  15  18
ATOM     18  O   UNL     1       9.916  47.853   4.693  1.00  0.00    -0.508 OA
ATOM     19  H   UNL     1       9.901  48.027   3.695  1.00  0.00     0.293 HD
ENDBRANCH  15  18
ENDBRANCH   1  12
BRANCH   2  20
ATOM     20  O   UNL     1      15.654  46.364   6.622  1.00  0.00    -0.502 OA
ATOM     21  H   UNL     1      16.047  47.080   7.223  1.00  0.00     0.293 HD
ENDBRANCH   2  20
BRANCH   6  22
ATOM     22  O   UNL     1      18.159  42.371   9.101  1.00  0.00    -0.507 OA
ATOM     23  H   UNL     1      18.949  41.931   8.654  1.00  0.00     0.293 HD
ENDBRANCH   6  22
BRANCH   8  24
ATOM     24  O   UNL     1      14.555  39.224   9.497  1.00  0.00    -0.508 OA
ATOM     25  H   UNL     1      14.280  38.511   8.833  1.00  0.00     0.293 HD
ENDBRANCH   8  24
TORSDOF 5
ENDMDL
MODEL 7
REMARK VINA RESULT:    -7.120      1.318      3.112
REMARK INTER + INTRA:          -8.655
REMARK INTER:                  -8.392
REMARK INTRA:                  -0.263
REMARK UNBOUND:                -0.287
REMARK SMILES O=c1c(O)c(-c2ccc(O)cc2)oc2cc(O)cc(O)c12
REMARK SMILES IDX 5 1 3 2 2 3 1 4 21 5 19 6 18 7 16 8 15 9 14 10 13 11 6 12
REMARK SMILES IDX 7 13 8 14 9 15 12 16 11 17 10 18 4 20 20 22 17 24
REMARK H PARENT 10 19 4 21 20 23 17 25
REMARK Flexibility Score: inf
ROOT
ATOM      1  C   UNL     1      12.844  44.537   7.232  1.00  0.00     0.180 A 
ATOM      2  C   UNL     1      13.394  44.196   8.480  1.00  0.00     0.208 A 
ATOM      3  C   UNL     1      14.723  43.745   8.538  1.00  0.00     0.238 A 
ATOM      4  O   UNL     1      15.232  43.513   9.666  1.00  0.00    -0.285 OA
ATOM      5  C   UNL     1      15.467  43.588   7.343  1.00  0.00     0.111 A 
ATOM      6  C   UNL     1      16.806  43.095   7.280  1.00  0.00     0.134 A 
ATOM      7  C   UNL     1      17.479  43.084   6.051  1.00  0.00     0.093 A 
ATOM      8  C   UNL     1      16.841  43.484   4.876  1.00  0.00     0.123 A 
ATOM      9  C   UNL     1      15.517  43.913   4.919  1.00  0.00     0.094 A 
ATOM     10  C   UNL     1      14.831  43.973   6.135  1.00  0.00     0.146 A 
ATOM     11  O   UNL     1      13.577  44.409   6.133  1.00  0.00    -0.452 OA
ENDROOT
BRANCH   1  12
ATOM     12  C   UNL     1      11.456  45.032   7.092  1.00  0.00     0.021 A 
ATOM     13  C   UNL     1      10.358  44.153   7.106  1.00  0.00     0.016 A 
ATOM     14  C   UNL     1       9.054  44.647   6.998  1.00  0.00     0.047 A 
ATOM     15  C   UNL     1       8.832  46.026   6.888  1.00  0.00     0.115 A 
ATOM     16  C   UNL     1      11.222  46.415   7.004  1.00  0.00     0.016 A 
ATOM     17  C   UNL     1       9.917  46.906   6.895  1.00  0.00     0.047 A 
BRANCH  15  18
ATOM     18  O   UNL     1       7.537  46.529   6.779  1.00  0.00    -0.508 OA
ATOM     19  H   UNL     1       6.956  46.678   7.595  1.00  0.00     0.293 HD
ENDBRANCH  15  18
ENDBRANCH   1  12
BRANCH   2  20
ATOM     20  O   UNL     1      12.619  44.285   9.639  1.00  0.00    -0.502 OA
ATOM     21  H   UNL     1      12.480  45.157  10.135  1.00  0.00     0.293 HD
ENDBRANCH   2  20
BRANCH   6  22
ATOM     22  O   UNL     1      17.507  42.589   8.377  1.00  0.00    -0.507 OA
ATOM     23  H   UNL     1      18.097  41.771   8.360  1.00  0.00     0.293 HD
ENDBRANCH   6  22
BRANCH   8  24
ATOM     24  O   UNL     1      17.513  43.451   3.655  1.00  0.00    -0.508 OA
ATOM     25  H   UNL     1      17.897  42.590   3.286  1.00  0.00     0.293 HD
ENDBRANCH   8  24
TORSDOF 5
ENDMDL
MODEL 8
REMARK VINA RESULT:    -7.025      2.289      2.850
REMARK INTER + INTRA:          -8.544
REMARK INTER:                  -8.517
REMARK INTRA:                  -0.027
REMARK UNBOUND:                -0.287
REMARK SMILES O=c1c(O)c(-c2ccc(O)cc2)oc2cc(O)cc(O)c12
REMARK SMILES IDX 5 1 3 2 2 3 1 4 21 5 19 6 18 7 16 8 15 9 14 10 13 11 6 12
REMARK SMILES IDX 7 13 8 14 9 15 12 16 11 17 10 18 4 20 20 22 17 24
REMARK H PARENT 10 19 4 21 20 23 17 25
REMARK Flexibility Score: inf
ROOT
ATOM      1  C   UNL     1      12.200  44.603   8.379  1.00  0.00     0.180 A 
ATOM      2  C   UNL     1      12.569  45.562   7.419  1.00  0.00     0.208 A 
ATOM      3  C   UNL     1      13.905  45.615   6.988  1.00  0.00     0.238 A 
ATOM      4  O   UNL     1      14.210  46.425   6.074  1.00  0.00    -0.285 OA
ATOM      5  C   UNL     1      14.866  44.748   7.561  1.00  0.00     0.111 A 
ATOM      6  C   UNL     1      16.256  44.746   7.233  1.00  0.00     0.134 A 
ATOM      7  C   UNL     1      17.094  43.771   7.787  1.00  0.00     0.093 A 
ATOM      8  C   UNL     1      16.607  42.839   8.706  1.00  0.00     0.123 A 
ATOM      9  C   UNL     1      15.265  42.868   9.075  1.00  0.00     0.094 A 
ATOM     10  C   UNL     1      14.395  43.804   8.511  1.00  0.00     0.146 A 
ATOM     11  O   UNL     1      13.119  43.782   8.875  1.00  0.00    -0.452 OA
ENDROOT
BRANCH   1  12
ATOM     12  C   UNL     1      10.811  44.476   8.872  1.00  0.00     0.021 A 
ATOM     13  C   UNL     1       9.728  44.321   7.987  1.00  0.00     0.016 A 
ATOM     14  C   UNL     1       8.427  44.178   8.478  1.00  0.00     0.047 A 
ATOM     15  C   UNL     1       8.194  44.172   9.859  1.00  0.00     0.115 A 
ATOM     16  C   UNL     1      10.569  44.447  10.257  1.00  0.00     0.016 A 
ATOM     17  C   UNL     1       9.267  44.304  10.745  1.00  0.00     0.047 A 
BRANCH  15  18
ATOM     18  O   UNL     1       6.900  44.031  10.360  1.00  0.00    -0.508 OA
ATOM     19  H   UNL     1       6.533  43.126  10.628  1.00  0.00     0.293 HD
ENDBRANCH  15  18
ENDBRANCH   1  12
BRANCH   2  20
ATOM     20  O   UNL     1      11.621  46.459   6.922  1.00  0.00    -0.502 OA
ATOM     21  H   UNL     1      10.935  46.195   6.225  1.00  0.00     0.293 HD
ENDBRANCH   2  20
BRANCH   6  22
ATOM     22  O   UNL     1      16.864  45.685   6.395  1.00  0.00    -0.507 OA
ATOM     23  H   UNL     1      16.888  46.679   6.562  1.00  0.00     0.293 HD
ENDBRANCH   6  22
BRANCH   8  24
ATOM     24  O   UNL     1      17.453  41.884   9.267  1.00  0.00    -0.508 OA
ATOM     25  H   UNL     1      17.141  41.273  10.012  1.00  0.00     0.293 HD
ENDBRANCH   8  24
TORSDOF 5
ENDMDL
MODEL 9
REMARK VINA RESULT:    -7.020      1.629      6.711
REMARK INTER + INTRA:          -8.538
REMARK INTER:                  -8.249
REMARK INTRA:                  -0.289
REMARK UNBOUND:                -0.287
REMARK SMILES O=c1c(O)c(-c2ccc(O)cc2)oc2cc(O)cc(O)c12
REMARK SMILES IDX 5 1 3 2 2 3 1 4 21 5 19 6 18 7 16 8 15 9 14 10 13 11 6 12
REMARK SMILES IDX 7 13 8 14 9 15 12 16 11 17 10 18 4 20 20 22 17 24
REMARK H PARENT 10 19 4 21 20 23 17 25
REMARK Flexibility Score: inf
ROOT
ATOM      1  C   UNL     1      13.233  45.156   6.660  1.00  0.00     0.180 A 
ATOM      2  C   UNL     1      12.727  45.960   5.623  1.00  0.00     0.208 A 
ATOM      3  C   UNL     1      11.404  46.425   5.705  1.00  0.00     0.238 A 
ATOM      4  O   UNL     1      10.984  47.205   4.811  1.00  0.00    -0.285 OA
ATOM      5  C   UNL     1      10.587  46.037   6.794  1.00  0.00     0.111 A 
ATOM      6  C   UNL     1       9.218  46.413   6.956  1.00  0.00     0.134 A 
ATOM      7  C   UNL     1       8.540  46.057   8.129  1.00  0.00     0.093 A 
ATOM      8  C   UNL     1       9.158  45.285   9.114  1.00  0.00     0.123 A 
ATOM      9  C   UNL     1      10.475  44.866   8.939  1.00  0.00     0.094 A 
ATOM     10  C   UNL     1      11.191  45.238   7.799  1.00  0.00     0.146 A 
ATOM     11  O   UNL     1      12.451  44.835   7.684  1.00  0.00    -0.452 OA
ENDROOT
BRANCH   1  12
ATOM     12  C   UNL     1      14.619  44.639   6.651  1.00  0.00     0.021 A 
ATOM     13  C   UNL     1      14.941  43.410   6.045  1.00  0.00     0.016 A 
ATOM     14  C   UNL     1      16.263  42.954   6.027  1.00  0.00     0.047 A 
ATOM     15  C   UNL     1      17.280  43.727   6.601  1.00  0.00     0.115 A 
ATOM     16  C   UNL     1      15.650  45.417   7.204  1.00  0.00     0.016 A 
ATOM     17  C   UNL     1      16.971  44.958   7.186  1.00  0.00     0.047 A 
BRANCH  15  18
ATOM     18  O   UNL     1      18.601  43.282   6.590  1.00  0.00    -0.508 OA
ATOM     19  H   UNL     1      19.357  43.875   6.267  1.00  0.00     0.293 HD
ENDBRANCH  15  18
ENDBRANCH   1  12
BRANCH   2  20
ATOM     20  O   UNL     1      13.526  46.268   4.519  1.00  0.00    -0.502 OA
ATOM     21  H   UNL     1      14.311  46.906   4.576  1.00  0.00     0.293 HD
ENDBRANCH   2  20
BRANCH   6  22
ATOM     22  O   UNL     1       8.478  47.108   5.996  1.00  0.00    -0.507 OA
ATOM     23  H   UNL     1       7.586  46.815   5.630  1.00  0.00     0.293 HD
ENDBRANCH   6  22
BRANCH   8  24
ATOM     24  O   UNL     1       8.469  44.919  10.269  1.00  0.00    -0.508 OA
ATOM     25  H   UNL     1       8.666  45.353  11.163  1.00  0.00     0.293 HD
ENDBRANCH   8  24
TORSDOF 5
ENDMDL
