MODEL 1
REMARK VINA RESULT:    -5.592      0.000      0.000
REMARK INTER + INTRA:          -6.138
REMARK INTER:                  -6.082
REMARK INTRA:                  -0.055
REMARK UNBOUND:                -0.055
REMARK SMILES COc1cc2ccc(=O)oc2cc1O
REMARK SMILES IDX 3 1 13 2 12 3 11 4 5 5 4 6 6 7 7 8 8 9 9 10 10 11 2 12 1 13
REMARK SMILES IDX 14 14
REMARK H PARENT 14 15
REMARK Flexibility Score: inf
ROOT
ATOM      1  C   UNL     1     -33.106  -3.497 -19.383  1.00  0.00     0.161 A 
ATOM      2  C   UNL     1     -33.724  -4.364 -20.299  1.00  0.00     0.161 A 
ATOM      3  C   UNL     1     -34.859  -5.098 -19.924  1.00  0.00     0.098 A 
ATOM      4  C   UNL     1     -35.384  -4.974 -18.635  1.00  0.00     0.142 A 
ATOM      5  C   UNL     1     -34.769  -4.105 -17.709  1.00  0.00     0.022 A 
ATOM      6  C   UNL     1     -33.635  -3.371 -18.083  1.00  0.00     0.062 A 
ATOM      7  C   UNL     1     -35.319  -4.002 -16.427  1.00  0.00     0.019 A 
ATOM      8  C   UNL     1     -36.448  -4.753 -16.103  1.00  0.00     0.094 A 
ATOM      9  C   UNL     1     -37.003  -5.594 -17.073  1.00  0.00     0.336 A 
ATOM     10  O   UNL     1     -38.023  -6.281 -16.800  1.00  0.00    -0.246 OA
ATOM     11  O   UNL     1     -36.460  -5.674 -18.285  1.00  0.00    -0.423 OA
ENDROOT
BRANCH   1  12
ATOM     12  O   UNL     1     -31.974  -2.781 -19.802  1.00  0.00    -0.493 OA
ATOM     13  C   UNL     1     -30.740  -2.737 -19.093  1.00  0.00     0.278 C 
ENDBRANCH   1  12
BRANCH   2  14
ATOM     14  O   UNL     1     -33.202  -4.490 -21.585  1.00  0.00    -0.504 OA
ATOM     15  H   UNL     1     -32.377  -3.979 -21.876  1.00  0.00     0.293 HD
ENDBRANCH   2  14
TORSDOF 2
ENDMDL
MODEL 2
REMARK VINA RESULT:    -5.454      6.190      7.699
REMARK INTER + INTRA:          -5.988
REMARK INTER:                  -5.940
REMARK INTRA:                  -0.047
REMARK UNBOUND:                -0.055
REMARK SMILES COc1cc2ccc(=O)oc2cc1O
REMARK SMILES IDX 3 1 13 2 12 3 11 4 5 5 4 6 6 7 7 8 8 9 9 10 10 11 2 12 1 13
REMARK SMILES IDX 14 14
REMARK H PARENT 14 15
REMARK Flexibility Score: inf
ROOT
ATOM      1  C   UNL     1     -38.322  -7.752 -14.609  1.00  0.00     0.161 A 
ATOM      2  C   UNL     1     -39.605  -7.974 -14.082  1.00  0.00     0.161 A 
ATOM      3  C   UNL     1     -40.167  -7.060 -13.179  1.00  0.00     0.098 A 
ATOM      4  C   UNL     1     -39.455  -5.921 -12.795  1.00  0.00     0.142 A 
ATOM      5  C   UNL     1     -38.166  -5.690 -13.320  1.00  0.00     0.022 A 
ATOM      6  C   UNL     1     -37.604  -6.603 -14.223  1.00  0.00     0.062 A 
ATOM      7  C   UNL     1     -37.479  -4.541 -12.917  1.00  0.00     0.019 A 
ATOM      8  C   UNL     1     -38.081  -3.663 -12.016  1.00  0.00     0.094 A 
ATOM      9  C   UNL     1     -39.361  -3.958 -11.537  1.00  0.00     0.336 A 
ATOM     10  O   UNL     1     -39.923  -3.177 -10.723  1.00  0.00    -0.246 OA
ATOM     11  O   UNL     1     -39.993  -5.058 -11.937  1.00  0.00    -0.423 OA
ENDROOT
BRANCH   1  12
ATOM     12  O   UNL     1     -37.800  -8.693 -15.512  1.00  0.00    -0.493 OA
ATOM     13  C   UNL     1     -36.411  -8.932 -15.712  1.00  0.00     0.278 C 
ENDBRANCH   1  12
BRANCH   2  14
ATOM     14  O   UNL     1     -40.317  -9.110 -14.463  1.00  0.00    -0.504 OA
ATOM     15  H   UNL     1     -41.267  -9.049 -14.811  1.00  0.00     0.293 HD
ENDBRANCH   2  14
TORSDOF 2
ENDMDL
MODEL 3
REMARK VINA RESULT:    -5.419      3.380      4.925
REMARK INTER + INTRA:          -5.949
REMARK INTER:                  -5.908
REMARK INTRA:                  -0.041
REMARK UNBOUND:                -0.055
REMARK SMILES COc1cc2ccc(=O)oc2cc1O
REMARK SMILES IDX 3 1 13 2 12 3 11 4 5 5 4 6 6 7 7 8 8 9 9 10 10 11 2 12 1 13
REMARK SMILES IDX 14 14
REMARK H PARENT 14 15
REMARK Flexibility Score: inf
ROOT
ATOM      1  C   UNL     1     -36.384  -4.541 -15.719  1.00  0.00     0.161 A 
ATOM      2  C   UNL     1     -36.199  -5.705 -16.484  1.00  0.00     0.161 A 
ATOM      3  C   UNL     1     -36.946  -6.859 -16.207  1.00  0.00     0.098 A 
ATOM      4  C   UNL     1     -37.880  -6.862 -15.168  1.00  0.00     0.142 A 
ATOM      5  C   UNL     1     -38.072  -5.697 -14.395  1.00  0.00     0.022 A 
ATOM      6  C   UNL     1     -37.326  -4.542 -14.671  1.00  0.00     0.062 A 
ATOM      7  C   UNL     1     -39.014  -5.730 -13.363  1.00  0.00     0.019 A 
ATOM      8  C   UNL     1     -39.731  -6.903 -13.127  1.00  0.00     0.094 A 
ATOM      9  C   UNL     1     -39.487  -8.019 -13.934  1.00  0.00     0.336 A 
ATOM     10  O   UNL     1     -40.124  -9.088 -13.737  1.00  0.00    -0.246 OA
ATOM     11  O   UNL     1     -38.585  -7.960 -14.910  1.00  0.00    -0.423 OA
ENDROOT
BRANCH   1  12
ATOM     12  O   UNL     1     -35.616  -3.408 -16.033  1.00  0.00    -0.493 OA
ATOM     13  C   UNL     1     -36.013  -2.393 -16.948  1.00  0.00     0.278 C 
ENDBRANCH   1  12
BRANCH   2  14
ATOM     14  O   UNL     1     -35.268  -5.705 -17.521  1.00  0.00    -0.504 OA
ATOM     15  H   UNL     1     -35.141  -4.898 -18.121  1.00  0.00     0.293 HD
ENDBRANCH   2  14
TORSDOF 2
ENDMDL
MODEL 4
REMARK VINA RESULT:    -5.406      2.733      3.754
REMARK INTER + INTRA:          -5.935
REMARK INTER:                  -5.870
REMARK INTRA:                  -0.065
REMARK UNBOUND:                -0.055
REMARK SMILES COc1cc2ccc(=O)oc2cc1O
REMARK SMILES IDX 3 1 13 2 12 3 11 4 5 5 4 6 6 7 7 8 8 9 9 10 10 11 2 12 1 13
REMARK SMILES IDX 14 14
REMARK H PARENT 14 15
REMARK Flexibility Score: inf
ROOT
ATOM      1  C   UNL     1     -36.010  -3.073 -16.715  1.00  0.00     0.161 A 
ATOM      2  C   UNL     1     -35.832  -3.855 -17.868  1.00  0.00     0.161 A 
ATOM      3  C   UNL     1     -35.828  -5.255 -17.780  1.00  0.00     0.098 A 
ATOM      4  C   UNL     1     -36.000  -5.883 -16.544  1.00  0.00     0.142 A 
ATOM      5  C   UNL     1     -36.179  -5.104 -15.381  1.00  0.00     0.022 A 
ATOM      6  C   UNL     1     -36.184  -3.705 -15.468  1.00  0.00     0.062 A 
ATOM      7  C   UNL     1     -36.350  -5.763 -14.159  1.00  0.00     0.019 A 
ATOM      8  C   UNL     1     -36.337  -7.157 -14.124  1.00  0.00     0.094 A 
ATOM      9  C   UNL     1     -36.153  -7.862 -15.317  1.00  0.00     0.336 A 
ATOM     10  O   UNL     1     -36.140  -9.122 -15.307  1.00  0.00    -0.246 OA
ATOM     11  O   UNL     1     -35.994  -7.211 -16.467  1.00  0.00    -0.423 OA
ENDROOT
BRANCH   1  12
ATOM     12  O   UNL     1     -36.009  -1.675 -16.851  1.00  0.00    -0.493 OA
ATOM     13  C   UNL     1     -37.173  -0.858 -16.790  1.00  0.00     0.278 C 
ENDBRANCH   1  12
BRANCH   2  14
ATOM     14  O   UNL     1     -35.660  -3.231 -19.102  1.00  0.00    -0.504 OA
ATOM     15  H   UNL     1     -35.646  -3.759 -19.967  1.00  0.00     0.293 HD
ENDBRANCH   2  14
TORSDOF 2
ENDMDL
MODEL 5
REMARK VINA RESULT:    -5.340      2.645      4.632
REMARK INTER + INTRA:          -5.863
REMARK INTER:                  -5.798
REMARK INTRA:                  -0.065
REMARK UNBOUND:                -0.055
REMARK SMILES COc1cc2ccc(=O)oc2cc1O
REMARK SMILES IDX 3 1 13 2 12 3 11 4 5 5 4 6 6 7 7 8 8 9 9 10 10 11 2 12 1 13
REMARK SMILES IDX 14 14
REMARK H PARENT 14 15
REMARK Flexibility Score: inf
ROOT
ATOM      1  C   UNL     1     -36.425  -5.319 -17.463  1.00  0.00     0.161 A 
ATOM      2  C   UNL     1     -37.736  -4.858 -17.262  1.00  0.00     0.161 A 
ATOM      3  C   UNL     1     -38.617  -5.570 -16.434  1.00  0.00     0.098 A 
ATOM      4  C   UNL     1     -38.197  -6.743 -15.802  1.00  0.00     0.142 A 
ATOM      5  C   UNL     1     -36.881  -7.212 -15.998  1.00  0.00     0.022 A 
ATOM      6  C   UNL     1     -36.000  -6.502 -16.826  1.00  0.00     0.062 A 
ATOM      7  C   UNL     1     -36.490  -8.389 -15.352  1.00  0.00     0.019 A 
ATOM      8  C   UNL     1     -37.404  -9.060 -14.539  1.00  0.00     0.094 A 
ATOM      9  C   UNL     1     -38.692  -8.535 -14.392  1.00  0.00     0.336 A 
ATOM     10  O   UNL     1     -39.531  -9.125 -13.661  1.00  0.00    -0.246 OA
ATOM     11  O   UNL     1     -39.037  -7.413 -15.018  1.00  0.00    -0.423 OA
ENDROOT
BRANCH   1  12
ATOM     12  O   UNL     1     -35.577  -4.574 -18.299  1.00  0.00    -0.493 OA
ATOM     13  C   UNL     1     -34.529  -3.729 -17.837  1.00  0.00     0.278 C 
ENDBRANCH   1  12
BRANCH   2  14
ATOM     14  O   UNL     1     -38.158  -3.688 -17.891  1.00  0.00    -0.504 OA
ATOM     15  H   UNL     1     -38.012  -2.777 -17.471  1.00  0.00     0.293 HD
ENDBRANCH   2  14
TORSDOF 2
ENDMDL
MODEL 6
REMARK VINA RESULT:    -5.268      3.787      6.278
REMARK INTER + INTRA:          -5.785
REMARK INTER:                  -5.726
REMARK INTRA:                  -0.059
REMARK UNBOUND:                -0.055
REMARK SMILES COc1cc2ccc(=O)oc2cc1O
REMARK SMILES IDX 3 1 13 2 12 3 11 4 5 5 4 6 6 7 7 8 8 9 9 10 10 11 2 12 1 13
REMARK SMILES IDX 14 14
REMARK H PARENT 14 15
REMARK Flexibility Score: inf
ROOT
ATOM      1  C   UNL     1     -37.498  -7.668 -14.531  1.00  0.00     0.161 A 
ATOM      2  C   UNL     1     -36.595  -7.838 -15.592  1.00  0.00     0.161 A 
ATOM      3  C   UNL     1     -36.045  -6.721 -16.239  1.00  0.00     0.098 A 
ATOM      4  C   UNL     1     -36.392  -5.431 -15.833  1.00  0.00     0.142 A 
ATOM      5  C   UNL     1     -37.299  -5.251 -14.767  1.00  0.00     0.022 A 
ATOM      6  C   UNL     1     -37.849  -6.366 -14.120  1.00  0.00     0.062 A 
ATOM      7  C   UNL     1     -37.626  -3.947 -14.384  1.00  0.00     0.019 A 
ATOM      8  C   UNL     1     -37.053  -2.870 -15.059  1.00  0.00     0.094 A 
ATOM      9  C   UNL     1     -36.162  -3.125 -16.107  1.00  0.00     0.336 A 
ATOM     10  O   UNL     1     -35.633  -2.166 -16.729  1.00  0.00    -0.246 OA
ATOM     11  O   UNL     1     -35.868  -4.376 -16.451  1.00  0.00    -0.423 OA
ENDROOT
BRANCH   1  12
ATOM     12  O   UNL     1     -38.023  -8.814 -13.911  1.00  0.00    -0.493 OA
ATOM     13  C   UNL     1     -39.411  -9.115 -13.815  1.00  0.00     0.278 C 
ENDBRANCH   1  12
BRANCH   2  14
ATOM     14  O   UNL     1     -36.247  -9.125 -15.999  1.00  0.00    -0.504 OA
ATOM     15  H   UNL     1     -36.733  -9.592 -16.755  1.00  0.00     0.293 HD
ENDBRANCH   2  14
TORSDOF 2
ENDMDL
MODEL 7
REMARK VINA RESULT:    -5.263      5.051      5.959
REMARK INTER + INTRA:          -5.780
REMARK INTER:                  -5.725
REMARK INTRA:                  -0.055
REMARK UNBOUND:                -0.055
REMARK SMILES COc1cc2ccc(=O)oc2cc1O
REMARK SMILES IDX 3 1 13 2 12 3 11 4 5 5 4 6 6 7 7 8 8 9 9 10 10 11 2 12 1 13
REMARK SMILES IDX 14 14
REMARK H PARENT 14 15
REMARK Flexibility Score: inf
ROOT
ATOM      1  C   UNL     1     -38.395  -4.734 -16.337  1.00  0.00     0.161 A 
ATOM      2  C   UNL     1     -37.911  -4.071 -15.199  1.00  0.00     0.161 A 
ATOM      3  C   UNL     1     -37.082  -4.742 -14.287  1.00  0.00     0.098 A 
ATOM      4  C   UNL     1     -36.732  -6.077 -14.504  1.00  0.00     0.142 A 
ATOM      5  C   UNL     1     -37.214  -6.751 -15.647  1.00  0.00     0.022 A 
ATOM      6  C   UNL     1     -38.042  -6.081 -16.558  1.00  0.00     0.062 A 
ATOM      7  C   UNL     1     -36.845  -8.086 -15.836  1.00  0.00     0.019 A 
ATOM      8  C   UNL     1     -36.020  -8.709 -14.901  1.00  0.00     0.094 A 
ATOM      9  C   UNL     1     -35.581  -7.977 -13.792  1.00  0.00     0.336 A 
ATOM     10  O   UNL     1     -34.835  -8.521 -12.936  1.00  0.00    -0.246 OA
ATOM     11  O   UNL     1     -35.947  -6.708 -13.635  1.00  0.00    -0.423 OA
ENDROOT
BRANCH   1  12
ATOM     12  O   UNL     1     -39.220  -4.023 -17.224  1.00  0.00    -0.493 OA
ATOM     13  C   UNL     1     -39.023  -3.957 -18.632  1.00  0.00     0.278 C 
ENDBRANCH   1  12
BRANCH   2  14
ATOM     14  O   UNL     1     -38.259  -2.739 -14.979  1.00  0.00    -0.504 OA
ATOM     15  H   UNL     1     -38.337  -2.358 -14.043  1.00  0.00     0.293 HD
ENDBRANCH   2  14
TORSDOF 2
ENDMDL
MODEL 8
REMARK VINA RESULT:    -5.216      2.520      6.369
REMARK INTER + INTRA:          -5.729
REMARK INTER:                  -5.677
REMARK INTRA:                  -0.052
REMARK UNBOUND:                -0.055
REMARK SMILES COc1cc2ccc(=O)oc2cc1O
REMARK SMILES IDX 3 1 13 2 12 3 11 4 5 5 4 6 6 7 7 8 8 9 9 10 10 11 2 12 1 13
REMARK SMILES IDX 14 14
REMARK H PARENT 14 15
REMARK Flexibility Score: inf
ROOT
ATOM      1  C   UNL     1     -38.369  -6.812 -14.378  1.00  0.00     0.161 A 
ATOM      2  C   UNL     1     -38.268  -7.573 -15.554  1.00  0.00     0.161 A 
ATOM      3  C   UNL     1     -37.426  -7.156 -16.596  1.00  0.00     0.098 A 
ATOM      4  C   UNL     1     -36.682  -5.980 -16.472  1.00  0.00     0.142 A 
ATOM      5  C   UNL     1     -36.777  -5.211 -15.293  1.00  0.00     0.022 A 
ATOM      6  C   UNL     1     -37.618  -5.627 -14.252  1.00  0.00     0.062 A 
ATOM      7  C   UNL     1     -36.019  -4.040 -15.199  1.00  0.00     0.019 A 
ATOM      8  C   UNL     1     -35.197  -3.668 -16.263  1.00  0.00     0.094 A 
ATOM      9  C   UNL     1     -35.154  -4.481 -17.401  1.00  0.00     0.336 A 
ATOM     10  O   UNL     1     -34.417  -4.163 -18.372  1.00  0.00    -0.246 OA
ATOM     11  O   UNL     1     -35.885  -5.590 -17.464  1.00  0.00    -0.423 OA
ENDROOT
BRANCH   1  12
ATOM     12  O   UNL     1     -39.223  -7.268 -13.360  1.00  0.00    -0.493 OA
ATOM     13  C   UNL     1     -40.106  -6.436 -12.616  1.00  0.00     0.278 C 
ENDBRANCH   1  12
BRANCH   2  14
ATOM     14  O   UNL     1     -39.010  -8.746 -15.680  1.00  0.00    -0.504 OA
ATOM     15  H   UNL     1     -38.586  -9.658 -15.556  1.00  0.00     0.293 HD
ENDBRANCH   2  14
TORSDOF 2
ENDMDL
MODEL 9
REMARK VINA RESULT:    -5.164      5.835      7.454
REMARK INTER + INTRA:          -5.672
REMARK INTER:                  -5.623
REMARK INTRA:                  -0.050
REMARK UNBOUND:                -0.055
REMARK SMILES COc1cc2ccc(=O)oc2cc1O
REMARK SMILES IDX 3 1 13 2 12 3 11 4 5 5 4 6 6 7 7 8 8 9 9 10 10 11 2 12 1 13
REMARK SMILES IDX 14 14
REMARK H PARENT 14 15
REMARK Flexibility Score: inf
ROOT
ATOM      1  C   UNL     1     -38.157  -7.265 -14.151  1.00  0.00     0.161 A 
ATOM      2  C   UNL     1     -36.766  -7.099 -14.252  1.00  0.00     0.161 A 
ATOM      3  C   UNL     1     -36.150  -5.953 -13.727  1.00  0.00     0.098 A 
ATOM      4  C   UNL     1     -36.915  -4.966 -13.102  1.00  0.00     0.142 A 
ATOM      5  C   UNL     1     -38.313  -5.125 -12.996  1.00  0.00     0.022 A 
ATOM      6  C   UNL     1     -38.930  -6.270 -13.520  1.00  0.00     0.062 A 
ATOM      7  C   UNL     1     -39.051  -4.120 -12.364  1.00  0.00     0.019 A 
ATOM      8  C   UNL     1     -38.392  -2.999 -11.859  1.00  0.00     0.094 A 
ATOM      9  C   UNL     1     -37.003  -2.911 -12.001  1.00  0.00     0.336 A 
ATOM     10  O   UNL     1     -36.389  -1.907 -11.552  1.00  0.00    -0.246 OA
ATOM     11  O   UNL     1     -36.325  -3.881 -12.607  1.00  0.00    -0.423 OA
ENDROOT
BRANCH   1  12
ATOM     12  O   UNL     1     -38.731  -8.428 -14.689  1.00  0.00    -0.493 OA
ATOM     13  C   UNL     1     -39.830  -9.125 -14.113  1.00  0.00     0.278 C 
ENDBRANCH   1  12
BRANCH   2  14
ATOM     14  O   UNL     1     -36.000  -8.083 -14.876  1.00  0.00    -0.504 OA
ATOM     15  H   UNL     1     -36.289  -8.505 -15.751  1.00  0.00     0.293 HD
ENDBRANCH   2  14
TORSDOF 2
ENDMDL
