MODEL 1
REMARK VINA RESULT:    -3.918      0.000      0.000
REMARK INTER + INTRA:         -13.404
REMARK INTER:                  -8.956
REMARK INTRA:                  -4.447
REMARK UNBOUND:                -4.447
REMARK SMILES CCCCCCCCCCCCCCCCCCCCCCCC(=O)[O-]
REMARK SMILES IDX 13 1 14 2 15 3 16 4 17 5 18 6 19 7 20 8 21 9 22 10 23 11
REMARK SMILES IDX 24 12 25 13 26 14 12 15 11 16 10 17 9 18 8 19 7 20 6 21 5 22
REMARK SMILES IDX 4 23 3 24 2 25 1 26
REMARK H PARENT
REMARK Flexibility Score: inf
ROOT
ATOM      1  C   UNL     1      31.607   6.888  33.634  1.00  0.00     0.000 C 
ENDROOT
BRANCH   1   2
ATOM      2  C   UNL     1      31.066   7.804  32.520  1.00  0.00     0.000 C 
BRANCH   2   3
ATOM      3  C   UNL     1      31.434   7.311  31.110  1.00  0.00     0.000 C 
BRANCH   3   4
ATOM      4  C   UNL     1      30.207   6.878  30.293  1.00  0.00     0.000 C 
BRANCH   4   5
ATOM      5  C   UNL     1      30.274   7.329  28.826  1.00  0.00     0.000 C 
BRANCH   5   6
ATOM      6  C   UNL     1      31.635   7.968  28.511  1.00  0.00     0.000 C 
BRANCH   6   7
ATOM      7  C   UNL     1      31.509   9.227  27.639  1.00  0.00     0.000 C 
BRANCH   7   8
ATOM      8  C   UNL     1      30.416  10.183  28.139  1.00  0.00     0.000 C 
BRANCH   8   9
ATOM      9  C   UNL     1      30.856  10.901  29.420  1.00  0.00     0.000 C 
BRANCH   9  10
ATOM     10  C   UNL     1      29.834  10.689  30.547  1.00  0.00     0.006 C 
BRANCH  10  11
ATOM     11  C   UNL     1      28.407  11.051  30.115  1.00  0.00     0.053 C 
BRANCH  11  12
ATOM     12  C   UNL     1      28.018  12.423  30.571  1.00  0.00     0.041 C 
ATOM     13  O   UNL     1      27.022  12.581  31.326  1.00  0.00    -0.550 OA
ATOM     14  O   UNL     1      28.776  13.524  30.194  1.00  0.00    -0.550 OA
ENDBRANCH  11  12
ENDBRANCH  10  11
ENDBRANCH   9  10
ENDBRANCH   8   9
ENDBRANCH   7   8
ENDBRANCH   6   7
ENDBRANCH   5   6
ENDBRANCH   4   5
ENDBRANCH   3   4
ENDBRANCH   2   3
ENDBRANCH   1   2
BRANCH   1  15
ATOM     15  C   UNL     1      32.935   7.341  34.275  1.00  0.00     0.000 C 
BRANCH  15  16
ATOM     16  C   UNL     1      32.876   8.670  35.049  1.00  0.00     0.000 C 
BRANCH  16  17
ATOM     17  C   UNL     1      33.663   9.798  34.359  1.00  0.00     0.000 C 
BRANCH  17  18
ATOM     18  C   UNL     1      32.746  10.876  33.760  1.00  0.00    -0.000 C 
BRANCH  18  19
ATOM     19  C   UNL     1      33.052  11.160  32.281  1.00  0.00    -0.000 C 
BRANCH  19  20
ATOM     20  C   UNL     1      34.332  10.437  31.839  1.00  0.00    -0.000 C 
BRANCH  20  21
ATOM     21  C   UNL     1      34.177   9.705  30.492  1.00  0.00    -0.000 C 
BRANCH  21  22
ATOM     22  C   UNL     1      35.066   8.457  30.310  1.00  0.00    -0.000 C 
BRANCH  22  23
ATOM     23  C   UNL     1      35.158   7.533  31.542  1.00  0.00    -0.000 C 
BRANCH  23  24
ATOM     24  C   UNL     1      36.593   7.057  31.858  1.00  0.00    -0.000 C 
BRANCH  24  25
ATOM     25  C   UNL     1      37.114   7.543  33.219  1.00  0.00    -0.003 C 
ATOM     26  C   UNL     1      36.642   6.670  34.381  1.00  0.00     0.004 C 
ENDBRANCH  24  25
ENDBRANCH  23  24
ENDBRANCH  22  23
ENDBRANCH  21  22
ENDBRANCH  20  21
ENDBRANCH  19  20
ENDBRANCH  18  19
ENDBRANCH  17  18
ENDBRANCH  16  17
ENDBRANCH  15  16
ENDBRANCH   1  15
TORSDOF 22
ENDMDL
MODEL 2
REMARK VINA RESULT:    -3.910      1.347      3.836
REMARK INTER + INTRA:         -13.387
REMARK INTER:                  -9.264
REMARK INTRA:                  -4.122
REMARK UNBOUND:                -4.447
REMARK SMILES CCCCCCCCCCCCCCCCCCCCCCCC(=O)[O-]
REMARK SMILES IDX 13 1 14 2 15 3 16 4 17 5 18 6 19 7 20 8 21 9 22 10 23 11
REMARK SMILES IDX 24 12 25 13 26 14 12 15 11 16 10 17 9 18 8 19 7 20 6 21 5 22
REMARK SMILES IDX 4 23 3 24 2 25 1 26
REMARK H PARENT
REMARK Flexibility Score: inf
ROOT
ATOM      1  C   UNL     1      29.880   6.745  29.846  1.00  0.00     0.000 C 
ENDROOT
BRANCH   1   2
ATOM      2  C   UNL     1      30.247   7.535  31.116  1.00  0.00     0.000 C 
BRANCH   2   3
ATOM      3  C   UNL     1      31.430   6.920  31.881  1.00  0.00     0.000 C 
BRANCH   3   4
ATOM      4  C   UNL     1      31.729   7.650  33.200  1.00  0.00     0.000 C 
BRANCH   4   5
ATOM      5  C   UNL     1      31.016   9.006  33.310  1.00  0.00     0.000 C 
BRANCH   5   6
ATOM      6  C   UNL     1      31.982  10.094  33.802  1.00  0.00     0.000 C 
BRANCH   6   7
ATOM      7  C   UNL     1      31.430  11.513  33.593  1.00  0.00     0.000 C 
BRANCH   7   8
ATOM      8  C   UNL     1      32.346  12.379  32.715  1.00  0.00     0.000 C 
BRANCH   8   9
ATOM      9  C   UNL     1      31.616  12.848  31.451  1.00  0.00     0.000 C 
BRANCH   9  10
ATOM     10  C   UNL     1      30.377  11.982  31.179  1.00  0.00     0.006 C 
BRANCH  10  11
ATOM     11  C   UNL     1      29.441  12.615  30.142  1.00  0.00     0.053 C 
BRANCH  11  12
ATOM     12  C   UNL     1      28.061  12.038  30.209  1.00  0.00     0.041 C 
ATOM     13  O   UNL     1      27.685  11.196  29.350  1.00  0.00    -0.550 OA
ATOM     14  O   UNL     1      27.204  12.397  31.240  1.00  0.00    -0.550 OA
ENDBRANCH  11  12
ENDBRANCH  10  11
ENDBRANCH   9  10
ENDBRANCH   8   9
ENDBRANCH   7   8
ENDBRANCH   6   7
ENDBRANCH   5   6
ENDBRANCH   4   5
ENDBRANCH   3   4
ENDBRANCH   2   3
ENDBRANCH   1   2
BRANCH   1  15
ATOM     15  C   UNL     1      30.314   7.394  28.515  1.00  0.00     0.000 C 
BRANCH  15  16
ATOM     16  C   UNL     1      30.241   8.931  28.475  1.00  0.00     0.000 C 
BRANCH  16  17
ATOM     17  C   UNL     1      31.628   9.595  28.493  1.00  0.00     0.000 C 
BRANCH  17  18
ATOM     18  C   UNL     1      32.769   8.585  28.291  1.00  0.00    -0.000 C 
BRANCH  18  19
ATOM     19  C   UNL     1      33.707   8.497  29.504  1.00  0.00    -0.000 C 
BRANCH  19  20
ATOM     20  C   UNL     1      33.531   9.718  30.419  1.00  0.00    -0.000 C 
BRANCH  20  21
ATOM     21  C   UNL     1      34.862  10.240  30.991  1.00  0.00    -0.000 C 
BRANCH  21  22
ATOM     22  C   UNL     1      36.134   9.726  30.285  1.00  0.00    -0.000 C 
BRANCH  22  23
ATOM     23  C   UNL     1      36.848   8.556  30.993  1.00  0.00    -0.000 C 
BRANCH  23  24
ATOM     24  C   UNL     1      36.306   8.261  32.409  1.00  0.00    -0.000 C 
BRANCH  24  25
ATOM     25  C   UNL     1      35.475   6.970  32.492  1.00  0.00    -0.003 C 
ATOM     26  C   UNL     1      35.130   6.578  33.927  1.00  0.00     0.004 C 
ENDBRANCH  24  25
ENDBRANCH  23  24
ENDBRANCH  22  23
ENDBRANCH  21  22
ENDBRANCH  20  21
ENDBRANCH  19  20
ENDBRANCH  18  19
ENDBRANCH  17  18
ENDBRANCH  16  17
ENDBRANCH  15  16
ENDBRANCH   1  15
TORSDOF 22
ENDMDL
MODEL 3
REMARK VINA RESULT:    -3.877      1.657      4.672
REMARK INTER + INTRA:         -13.311
REMARK INTER:                  -9.198
REMARK INTRA:                  -4.113
REMARK UNBOUND:                -4.447
REMARK SMILES CCCCCCCCCCCCCCCCCCCCCCCC(=O)[O-]
REMARK SMILES IDX 13 1 14 2 15 3 16 4 17 5 18 6 19 7 20 8 21 9 22 10 23 11
REMARK SMILES IDX 24 12 25 13 26 14 12 15 11 16 10 17 9 18 8 19 7 20 6 21 5 22
REMARK SMILES IDX 4 23 3 24 2 25 1 26
REMARK H PARENT
REMARK Flexibility Score: inf
ROOT
ATOM      1  C   UNL     1      33.476   9.755  30.156  1.00  0.00     0.000 C 
ENDROOT
BRANCH   1   2
ATOM      2  C   UNL     1      34.959   9.940  30.525  1.00  0.00     0.000 C 
BRANCH   2   3
ATOM      3  C   UNL     1      35.224  11.241  31.302  1.00  0.00     0.000 C 
BRANCH   3   4
ATOM      4  C   UNL     1      34.902  11.115  32.799  1.00  0.00     0.000 C 
BRANCH   4   5
ATOM      5  C   UNL     1      33.923  12.190  33.294  1.00  0.00     0.000 C 
BRANCH   5   6
ATOM      6  C   UNL     1      33.408  13.041  32.124  1.00  0.00     0.000 C 
BRANCH   6   7
ATOM      7  C   UNL     1      31.873  13.067  32.044  1.00  0.00     0.000 C 
BRANCH   7   8
ATOM      8  C   UNL     1      31.236  11.748  32.507  1.00  0.00     0.000 C 
BRANCH   8   9
ATOM      9  C   UNL     1      30.261  11.208  31.455  1.00  0.00     0.000 C 
BRANCH   9  10
ATOM     10  C   UNL     1      29.887  12.299  30.440  1.00  0.00     0.006 C 
BRANCH  10  11
ATOM     11  C   UNL     1      30.216  11.891  28.999  1.00  0.00     0.053 C 
BRANCH  11  12
ATOM     12  C   UNL     1      29.031  11.297  28.303  1.00  0.00     0.041 C 
ATOM     13  O   UNL     1      27.926  11.204  28.900  1.00  0.00    -0.550 OA
ATOM     14  O   UNL     1      29.134  10.882  26.981  1.00  0.00    -0.550 OA
ENDBRANCH  11  12
ENDBRANCH  10  11
ENDBRANCH   9  10
ENDBRANCH   8   9
ENDBRANCH   7   8
ENDBRANCH   6   7
ENDBRANCH   5   6
ENDBRANCH   4   5
ENDBRANCH   3   4
ENDBRANCH   2   3
ENDBRANCH   1   2
BRANCH   1  15
ATOM     15  C   UNL     1      33.189   8.672  29.094  1.00  0.00     0.000 C 
BRANCH  15  16
ATOM     16  C   UNL     1      31.892   8.864  28.288  1.00  0.00     0.000 C 
BRANCH  16  17
ATOM     17  C   UNL     1      30.862   7.749  28.542  1.00  0.00     0.000 C 
BRANCH  17  18
ATOM     18  C   UNL     1      30.128   7.918  29.882  1.00  0.00    -0.000 C 
BRANCH  18  19
ATOM     19  C   UNL     1      30.635   6.951  30.963  1.00  0.00    -0.000 C 
BRANCH  19  20
ATOM     20  C   UNL     1      31.146   7.722  32.189  1.00  0.00    -0.000 C 
BRANCH  20  21
ATOM     21  C   UNL     1      32.220   6.953  32.981  1.00  0.00    -0.000 C 
BRANCH  21  22
ATOM     22  C   UNL     1      33.576   7.673  33.130  1.00  0.00    -0.000 C 
BRANCH  22  23
ATOM     23  C   UNL     1      34.795   6.744  33.308  1.00  0.00    -0.000 C 
BRANCH  23  24
ATOM     24  C   UNL     1      36.147   7.490  33.339  1.00  0.00    -0.000 C 
BRANCH  24  25
ATOM     25  C   UNL     1      37.097   7.085  32.200  1.00  0.00    -0.003 C 
ATOM     26  C   UNL     1      37.836   8.277  31.593  1.00  0.00     0.004 C 
ENDBRANCH  24  25
ENDBRANCH  23  24
ENDBRANCH  22  23
ENDBRANCH  21  22
ENDBRANCH  20  21
ENDBRANCH  19  20
ENDBRANCH  18  19
ENDBRANCH  17  18
ENDBRANCH  16  17
ENDBRANCH  15  16
ENDBRANCH   1  15
TORSDOF 22
ENDMDL
MODEL 4
REMARK VINA RESULT:    -3.847      1.010      3.184
REMARK INTER + INTRA:         -13.242
REMARK INTER:                  -9.007
REMARK INTRA:                  -4.235
REMARK UNBOUND:                -4.447
REMARK SMILES CCCCCCCCCCCCCCCCCCCCCCCC(=O)[O-]
REMARK SMILES IDX 13 1 14 2 15 3 16 4 17 5 18 6 19 7 20 8 21 9 22 10 23 11
REMARK SMILES IDX 24 12 25 13 26 14 12 15 11 16 10 17 9 18 8 19 7 20 6 21 5 22
REMARK SMILES IDX 4 23 3 24 2 25 1 26
REMARK H PARENT
REMARK Flexibility Score: inf
ROOT
ATOM      1  C   UNL     1      31.693   7.046  34.192  1.00  0.00     0.000 C 
ENDROOT
BRANCH   1   2
ATOM      2  C   UNL     1      30.987   8.349  33.774  1.00  0.00     0.000 C 
BRANCH   2   3
ATOM      3  C   UNL     1      30.988   8.567  32.252  1.00  0.00     0.000 C 
BRANCH   3   4
ATOM      4  C   UNL     1      31.552   7.364  31.479  1.00  0.00     0.000 C 
BRANCH   4   5
ATOM      5  C   UNL     1      30.507   6.682  30.584  1.00  0.00     0.000 C 
BRANCH   5   6
ATOM      6  C   UNL     1      30.460   7.340  29.198  1.00  0.00     0.000 C 
BRANCH   6   7
ATOM      7  C   UNL     1      31.796   7.995  28.809  1.00  0.00     0.000 C 
BRANCH   7   8
ATOM      8  C   UNL     1      31.606   9.340  28.092  1.00  0.00     0.000 C 
BRANCH   8   9
ATOM      9  C   UNL     1      31.128  10.422  29.067  1.00  0.00     0.000 C 
BRANCH   9  10
ATOM     10  C   UNL     1      29.771  10.996  28.630  1.00  0.00     0.006 C 
BRANCH  10  11
ATOM     11  C   UNL     1      28.693  10.823  29.707  1.00  0.00     0.053 C 
BRANCH  11  12
ATOM     12  C   UNL     1      28.379  12.116  30.394  1.00  0.00     0.041 C 
ATOM     13  O   UNL     1      29.164  13.096  30.289  1.00  0.00    -0.550 OA
ATOM     14  O   UNL     1      27.202  12.253  31.118  1.00  0.00    -0.550 OA
ENDBRANCH  11  12
ENDBRANCH  10  11
ENDBRANCH   9  10
ENDBRANCH   8   9
ENDBRANCH   7   8
ENDBRANCH   6   7
ENDBRANCH   5   6
ENDBRANCH   4   5
ENDBRANCH   3   4
ENDBRANCH   2   3
ENDBRANCH   1   2
BRANCH   1  15
ATOM     15  C   UNL     1      33.071   7.228  34.863  1.00  0.00     0.000 C 
BRANCH  15  16
ATOM     16  C   UNL     1      34.265   6.635  34.092  1.00  0.00     0.000 C 
BRANCH  16  17
ATOM     17  C   UNL     1      34.891   7.632  33.102  1.00  0.00     0.000 C 
BRANCH  17  18
ATOM     18  C   UNL     1      35.759   6.941  32.038  1.00  0.00    -0.000 C 
BRANCH  18  19
ATOM     19  C   UNL     1      35.724   7.662  30.683  1.00  0.00    -0.000 C 
BRANCH  19  20
ATOM     20  C   UNL     1      34.826   8.906  30.749  1.00  0.00    -0.000 C 
BRANCH  20  21
ATOM     21  C   UNL     1      35.612  10.225  30.633  1.00  0.00    -0.000 C 
BRANCH  21  22
ATOM     22  C   UNL     1      34.998  11.430  31.377  1.00  0.00    -0.000 C 
BRANCH  22  23
ATOM     23  C   UNL     1      33.577  11.202  31.932  1.00  0.00    -0.000 C 
BRANCH  23  24
ATOM     24  C   UNL     1      33.521  11.090  33.472  1.00  0.00    -0.000 C 
BRANCH  24  25
ATOM     25  C   UNL     1      32.288  11.767  34.092  1.00  0.00    -0.003 C 
ATOM     26  C   UNL     1      31.254  12.185  33.048  1.00  0.00     0.004 C 
ENDBRANCH  24  25
ENDBRANCH  23  24
ENDBRANCH  22  23
ENDBRANCH  21  22
ENDBRANCH  20  21
ENDBRANCH  19  20
ENDBRANCH  18  19
ENDBRANCH  17  18
ENDBRANCH  16  17
ENDBRANCH  15  16
ENDBRANCH   1  15
TORSDOF 22
ENDMDL
MODEL 5
REMARK VINA RESULT:    -3.838      1.367      3.837
REMARK INTER + INTRA:         -13.221
REMARK INTER:                  -9.197
REMARK INTRA:                  -4.025
REMARK UNBOUND:                -4.447
REMARK SMILES CCCCCCCCCCCCCCCCCCCCCCCC(=O)[O-]
REMARK SMILES IDX 13 1 14 2 15 3 16 4 17 5 18 6 19 7 20 8 21 9 22 10 23 11
REMARK SMILES IDX 24 12 25 13 26 14 12 15 11 16 10 17 9 18 8 19 7 20 6 21 5 22
REMARK SMILES IDX 4 23 3 24 2 25 1 26
REMARK H PARENT
REMARK Flexibility Score: inf
ROOT
ATOM      1  C   UNL     1      30.532   7.769  28.661  1.00  0.00     0.000 C 
ENDROOT
BRANCH   1   2
ATOM      2  C   UNL     1      31.544   8.918  28.824  1.00  0.00     0.000 C 
BRANCH   2   3
ATOM      3  C   UNL     1      32.999   8.467  28.611  1.00  0.00     0.000 C 
BRANCH   3   4
ATOM      4  C   UNL     1      33.820   8.476  29.910  1.00  0.00     0.000 C 
BRANCH   4   5
ATOM      5  C   UNL     1      34.132   9.893  30.413  1.00  0.00     0.000 C 
BRANCH   5   6
ATOM      6  C   UNL     1      33.483  10.143  31.783  1.00  0.00     0.000 C 
BRANCH   6   7
ATOM      7  C   UNL     1      32.296  11.116  31.706  1.00  0.00     0.000 C 
BRANCH   7   8
ATOM      8  C   UNL     1      31.457  11.126  32.993  1.00  0.00     0.000 C 
BRANCH   8   9
ATOM      9  C   UNL     1      29.991  10.790  32.698  1.00  0.00     0.000 C 
BRANCH   9  10
ATOM     10  C   UNL     1      29.481  11.576  31.481  1.00  0.00     0.006 C 
BRANCH  10  11
ATOM     11  C   UNL     1      28.782  10.674  30.456  1.00  0.00     0.053 C 
BRANCH  11  12
ATOM     12  C   UNL     1      28.516  11.392  29.170  1.00  0.00     0.041 C 
ATOM     13  O   UNL     1      28.237  12.620  29.176  1.00  0.00    -0.550 OA
ATOM     14  O   UNL     1      28.614  10.716  27.961  1.00  0.00    -0.550 OA
ENDBRANCH  11  12
ENDBRANCH  10  11
ENDBRANCH   9  10
ENDBRANCH   8   9
ENDBRANCH   7   8
ENDBRANCH   6   7
ENDBRANCH   5   6
ENDBRANCH   4   5
ENDBRANCH   3   4
ENDBRANCH   2   3
ENDBRANCH   1   2
BRANCH   1  15
ATOM     15  C   UNL     1      29.855   7.295  29.964  1.00  0.00     0.000 C 
BRANCH  15  16
ATOM     16  C   UNL     1      30.782   6.594  30.974  1.00  0.00     0.000 C 
BRANCH  16  17
ATOM     17  C   UNL     1      31.072   7.455  32.216  1.00  0.00     0.000 C 
BRANCH  17  18
ATOM     18  C   UNL     1      31.619   6.629  33.391  1.00  0.00    -0.000 C 
BRANCH  18  19
ATOM     19  C   UNL     1      31.821   7.467  34.663  1.00  0.00    -0.000 C 
BRANCH  19  20
ATOM     20  C   UNL     1      33.233   8.069  34.702  1.00  0.00    -0.000 C 
BRANCH  20  21
ATOM     21  C   UNL     1      34.284   7.190  33.997  1.00  0.00    -0.000 C 
BRANCH  21  22
ATOM     22  C   UNL     1      35.653   7.858  33.755  1.00  0.00    -0.000 C 
BRANCH  22  23
ATOM     23  C   UNL     1      36.856   6.893  33.722  1.00  0.00    -0.000 C 
BRANCH  23  24
ATOM     24  C   UNL     1      37.761   7.068  32.482  1.00  0.00    -0.000 C 
BRANCH  24  25
ATOM     25  C   UNL     1      37.015   7.608  31.251  1.00  0.00    -0.003 C 
ATOM     26  C   UNL     1      37.708   8.815  30.621  1.00  0.00     0.004 C 
ENDBRANCH  24  25
ENDBRANCH  23  24
ENDBRANCH  22  23
ENDBRANCH  21  22
ENDBRANCH  20  21
ENDBRANCH  19  20
ENDBRANCH  18  19
ENDBRANCH  17  18
ENDBRANCH  16  17
ENDBRANCH  15  16
ENDBRANCH   1  15
TORSDOF 22
ENDMDL
MODEL 6
REMARK VINA RESULT:    -3.820      1.639      3.540
REMARK INTER + INTRA:         -13.181
REMARK INTER:                  -8.602
REMARK INTRA:                  -4.579
REMARK UNBOUND:                -4.447
REMARK SMILES CCCCCCCCCCCCCCCCCCCCCCCC(=O)[O-]
REMARK SMILES IDX 13 1 14 2 15 3 16 4 17 5 18 6 19 7 20 8 21 9 22 10 23 11
REMARK SMILES IDX 24 12 25 13 26 14 12 15 11 16 10 17 9 18 8 19 7 20 6 21 5 22
REMARK SMILES IDX 4 23 3 24 2 25 1 26
REMARK H PARENT
REMARK Flexibility Score: inf
ROOT
ATOM      1  C   UNL     1      30.131   7.770  30.368  1.00  0.00     0.000 C 
ENDROOT
BRANCH   1   2
ATOM      2  C   UNL     1      30.527   7.420  28.922  1.00  0.00     0.000 C 
BRANCH   2   3
ATOM      3  C   UNL     1      31.653   8.316  28.377  1.00  0.00     0.000 C 
BRANCH   3   4
ATOM      4  C   UNL     1      31.199   9.765  28.141  1.00  0.00     0.000 C 
BRANCH   4   5
ATOM      5  C   UNL     1      29.845   9.858  27.421  1.00  0.00     0.000 C 
BRANCH   5   6
ATOM      6  C   UNL     1      29.052  11.082  27.904  1.00  0.00     0.000 C 
BRANCH   6   7
ATOM      7  C   UNL     1      29.637  11.697  29.185  1.00  0.00     0.000 C 
BRANCH   7   8
ATOM      8  C   UNL     1      28.789  11.386  30.428  1.00  0.00     0.000 C 
BRANCH   8   9
ATOM      9  C   UNL     1      29.655  11.363  31.694  1.00  0.00     0.000 C 
BRANCH   9  10
ATOM     10  C   UNL     1      31.124  11.661  31.360  1.00  0.00     0.006 C 
BRANCH  10  11
ATOM     11  C   UNL     1      31.734  12.706  32.303  1.00  0.00     0.053 C 
BRANCH  11  12
ATOM     12  C   UNL     1      32.111  13.960  31.576  1.00  0.00     0.041 C 
ATOM     13  O   UNL     1      33.165  14.578  31.884  1.00  0.00    -0.550 OA
ATOM     14  O   UNL     1      31.321  14.426  30.534  1.00  0.00    -0.550 OA
ENDBRANCH  11  12
ENDBRANCH  10  11
ENDBRANCH   9  10
ENDBRANCH   8   9
ENDBRANCH   7   8
ENDBRANCH   6   7
ENDBRANCH   5   6
ENDBRANCH   4   5
ENDBRANCH   3   4
ENDBRANCH   2   3
ENDBRANCH   1   2
BRANCH   1  15
ATOM     15  C   UNL     1      31.306   7.936  31.354  1.00  0.00     0.000 C 
BRANCH  15  16
ATOM     16  C   UNL     1      31.385   6.881  32.472  1.00  0.00     0.000 C 
BRANCH  16  17
ATOM     17  C   UNL     1      32.187   7.365  33.693  1.00  0.00     0.000 C 
BRANCH  17  18
ATOM     18  C   UNL     1      32.350   8.893  33.724  1.00  0.00    -0.000 C 
BRANCH  18  19
ATOM     19  C   UNL     1      33.762   9.331  34.140  1.00  0.00    -0.000 C 
BRANCH  19  20
ATOM     20  C   UNL     1      34.651   8.112  34.425  1.00  0.00    -0.000 C 
BRANCH  20  21
ATOM     21  C   UNL     1      36.128   8.341  34.053  1.00  0.00    -0.000 C 
BRANCH  21  22
ATOM     22  C   UNL     1      36.554   7.804  32.670  1.00  0.00    -0.000 C 
BRANCH  22  23
ATOM     23  C   UNL     1      35.452   7.058  31.889  1.00  0.00    -0.000 C 
BRANCH  23  24
ATOM     24  C   UNL     1      35.111   7.700  30.527  1.00  0.00    -0.000 C 
BRANCH  24  25
ATOM     25  C   UNL     1      35.494   9.186  30.437  1.00  0.00    -0.003 C 
ATOM     26  C   UNL     1      34.302  10.119  30.645  1.00  0.00     0.004 C 
ENDBRANCH  24  25
ENDBRANCH  23  24
ENDBRANCH  22  23
ENDBRANCH  21  22
ENDBRANCH  20  21
ENDBRANCH  19  20
ENDBRANCH  18  19
ENDBRANCH  17  18
ENDBRANCH  16  17
ENDBRANCH  15  16
ENDBRANCH   1  15
TORSDOF 22
ENDMDL
MODEL 7
REMARK VINA RESULT:    -3.797      2.127      4.842
REMARK INTER + INTRA:         -13.128
REMARK INTER:                  -9.163
REMARK INTRA:                  -3.965
REMARK UNBOUND:                -4.447
REMARK SMILES CCCCCCCCCCCCCCCCCCCCCCCC(=O)[O-]
REMARK SMILES IDX 13 1 14 2 15 3 16 4 17 5 18 6 19 7 20 8 21 9 22 10 23 11
REMARK SMILES IDX 24 12 25 13 26 14 12 15 11 16 10 17 9 18 8 19 7 20 6 21 5 22
REMARK SMILES IDX 4 23 3 24 2 25 1 26
REMARK H PARENT
REMARK Flexibility Score: inf
ROOT
ATOM      1  C   UNL     1      31.257   7.800  28.548  1.00  0.00     0.000 C 
ENDROOT
BRANCH   1   2
ATOM      2  C   UNL     1      30.464   8.093  29.836  1.00  0.00     0.000 C 
BRANCH   2   3
ATOM      3  C   UNL     1      30.462   6.910  30.818  1.00  0.00     0.000 C 
BRANCH   3   4
ATOM      4  C   UNL     1      31.521   7.054  31.923  1.00  0.00     0.000 C 
BRANCH   4   5
ATOM      5  C   UNL     1      31.028   7.877  33.123  1.00  0.00     0.000 C 
BRANCH   5   6
ATOM      6  C   UNL     1      31.351   9.366  32.934  1.00  0.00     0.000 C 
BRANCH   6   7
ATOM      7  C   UNL     1      30.237  10.284  33.462  1.00  0.00     0.000 C 
BRANCH   7   8
ATOM      8  C   UNL     1      29.768  11.304  32.414  1.00  0.00     0.000 C 
BRANCH   8   9
ATOM      9  C   UNL     1      30.821  11.491  31.316  1.00  0.00     0.000 C 
BRANCH   9  10
ATOM     10  C   UNL     1      30.263  12.331  30.157  1.00  0.00     0.006 C 
BRANCH  10  11
ATOM     11  C   UNL     1      30.298  11.575  28.822  1.00  0.00     0.053 C 
BRANCH  11  12
ATOM     12  C   UNL     1      28.922  11.234  28.339  1.00  0.00     0.041 C 
ATOM     13  O   UNL     1      27.976  11.105  29.160  1.00  0.00    -0.550 OA
ATOM     14  O   UNL     1      28.675  11.098  26.979  1.00  0.00    -0.550 OA
ENDBRANCH  11  12
ENDBRANCH  10  11
ENDBRANCH   9  10
ENDBRANCH   8   9
ENDBRANCH   7   8
ENDBRANCH   6   7
ENDBRANCH   5   6
ENDBRANCH   4   5
ENDBRANCH   3   4
ENDBRANCH   2   3
ENDBRANCH   1   2
BRANCH   1  15
ATOM     15  C   UNL     1      32.647   8.465  28.463  1.00  0.00     0.000 C 
BRANCH  15  16
ATOM     16  C   UNL     1      33.056   9.302  29.688  1.00  0.00     0.000 C 
BRANCH  16  17
ATOM     17  C   UNL     1      34.569   9.260  29.961  1.00  0.00     0.000 C 
BRANCH  17  18
ATOM     18  C   UNL     1      34.966   8.121  30.915  1.00  0.00    -0.000 C 
BRANCH  18  19
ATOM     19  C   UNL     1      34.932   8.545  32.391  1.00  0.00    -0.000 C 
BRANCH  19  20
ATOM     20  C   UNL     1      35.220  10.046  32.536  1.00  0.00    -0.000 C 
BRANCH  20  21
ATOM     21  C   UNL     1      34.456  10.697  33.704  1.00  0.00    -0.000 C 
BRANCH  21  22
ATOM     22  C   UNL     1      34.375  12.238  33.667  1.00  0.00    -0.000 C 
BRANCH  22  23
ATOM     23  C   UNL     1      34.502  12.867  32.263  1.00  0.00    -0.000 C 
BRANCH  23  24
ATOM     24  C   UNL     1      34.137  14.367  32.218  1.00  0.00    -0.000 C 
BRANCH  24  25
ATOM     25  C   UNL     1      32.689  14.634  31.777  1.00  0.00    -0.003 C 
ATOM     26  C   UNL     1      32.227  16.056  32.090  1.00  0.00     0.004 C 
ENDBRANCH  24  25
ENDBRANCH  23  24
ENDBRANCH  22  23
ENDBRANCH  21  22
ENDBRANCH  20  21
ENDBRANCH  19  20
ENDBRANCH  18  19
ENDBRANCH  17  18
ENDBRANCH  16  17
ENDBRANCH  15  16
ENDBRANCH   1  15
TORSDOF 22
ENDMDL
MODEL 8
REMARK VINA RESULT:    -3.767      2.328      6.208
REMARK INTER + INTRA:         -13.060
REMARK INTER:                  -8.999
REMARK INTRA:                  -4.061
REMARK UNBOUND:                -4.447
REMARK SMILES CCCCCCCCCCCCCCCCCCCCCCCC(=O)[O-]
REMARK SMILES IDX 13 1 14 2 15 3 16 4 17 5 18 6 19 7 20 8 21 9 22 10 23 11
REMARK SMILES IDX 24 12 25 13 26 14 12 15 11 16 10 17 9 18 8 19 7 20 6 21 5 22
REMARK SMILES IDX 4 23 3 24 2 25 1 26
REMARK H PARENT
REMARK Flexibility Score: inf
ROOT
ATOM      1  C   UNL     1      31.055   7.628  31.991  1.00  0.00     0.000 C 
ENDROOT
BRANCH   1   2
ATOM      2  C   UNL     1      32.358   7.376  32.771  1.00  0.00     0.000 C 
BRANCH   2   3
ATOM      3  C   UNL     1      33.588   8.013  32.102  1.00  0.00     0.000 C 
BRANCH   3   4
ATOM      4  C   UNL     1      34.914   7.462  32.648  1.00  0.00     0.000 C 
BRANCH   4   5
ATOM      5  C   UNL     1      35.880   7.018  31.539  1.00  0.00     0.000 C 
BRANCH   5   6
ATOM      6  C   UNL     1      36.011   8.103  30.460  1.00  0.00     0.000 C 
BRANCH   6   7
ATOM      7  C   UNL     1      37.388   8.784  30.470  1.00  0.00     0.000 C 
BRANCH   7   8
ATOM      8  C   UNL     1      37.305  10.277  30.821  1.00  0.00     0.000 C 
BRANCH   8   9
ATOM      9  C   UNL     1      35.866  10.793  30.699  1.00  0.00     0.000 C 
BRANCH   9  10
ATOM     10  C   UNL     1      35.543  11.793  31.819  1.00  0.00     0.006 C 
BRANCH  10  11
ATOM     11  C   UNL     1      35.316  11.101  33.169  1.00  0.00     0.053 C 
BRANCH  11  12
ATOM     12  C   UNL     1      34.109  11.638  33.875  1.00  0.00     0.041 C 
ATOM     13  O   UNL     1      33.765  12.839  33.716  1.00  0.00    -0.550 OA
ATOM     14  O   UNL     1      33.342  10.803  34.677  1.00  0.00    -0.550 OA
ENDBRANCH  11  12
ENDBRANCH  10  11
ENDBRANCH   9  10
ENDBRANCH   8   9
ENDBRANCH   7   8
ENDBRANCH   6   7
ENDBRANCH   5   6
ENDBRANCH   4   5
ENDBRANCH   3   4
ENDBRANCH   2   3
ENDBRANCH   1   2
BRANCH   1  15
ATOM     15  C   UNL     1      30.791   6.661  30.817  1.00  0.00     0.000 C 
BRANCH  15  16
ATOM     16  C   UNL     1      30.543   7.330  29.453  1.00  0.00     0.000 C 
BRANCH  16  17
ATOM     17  C   UNL     1      31.758   8.129  28.951  1.00  0.00     0.000 C 
BRANCH  17  18
ATOM     18  C   UNL     1      31.367   9.233  27.955  1.00  0.00    -0.000 C 
BRANCH  18  19
ATOM     19  C   UNL     1      29.850   9.465  27.890  1.00  0.00    -0.000 C 
BRANCH  19  20
ATOM     20  C   UNL     1      29.535  10.948  27.647  1.00  0.00    -0.000 C 
BRANCH  20  21
ATOM     21  C   UNL     1      28.340  11.455  28.477  1.00  0.00    -0.000 C 
BRANCH  21  22
ATOM     22  C   UNL     1      28.697  12.406  29.639  1.00  0.00    -0.000 C 
BRANCH  22  23
ATOM     23  C   UNL     1      28.507  11.815  31.051  1.00  0.00    -0.000 C 
BRANCH  23  24
ATOM     24  C   UNL     1      29.584  10.779  31.442  1.00  0.00    -0.000 C 
BRANCH  24  25
ATOM     25  C   UNL     1      30.906  11.413  31.905  1.00  0.00    -0.003 C 
ATOM     26  C   UNL     1      32.045  11.200  30.910  1.00  0.00     0.004 C 
ENDBRANCH  24  25
ENDBRANCH  23  24
ENDBRANCH  22  23
ENDBRANCH  21  22
ENDBRANCH  20  21
ENDBRANCH  19  20
ENDBRANCH  18  19
ENDBRANCH  17  18
ENDBRANCH  16  17
ENDBRANCH  15  16
ENDBRANCH   1  15
TORSDOF 22
ENDMDL
MODEL 9
REMARK VINA RESULT:    -3.755      1.531      4.990
REMARK INTER + INTRA:         -13.032
REMARK INTER:                  -8.724
REMARK INTRA:                  -4.308
REMARK UNBOUND:                -4.447
REMARK SMILES CCCCCCCCCCCCCCCCCCCCCCCC(=O)[O-]
REMARK SMILES IDX 13 1 14 2 15 3 16 4 17 5 18 6 19 7 20 8 21 9 22 10 23 11
REMARK SMILES IDX 24 12 25 13 26 14 12 15 11 16 10 17 9 18 8 19 7 20 6 21 5 22
REMARK SMILES IDX 4 23 3 24 2 25 1 26
REMARK H PARENT
REMARK Flexibility Score: inf
ROOT
ATOM      1  C   UNL     1      34.608   8.173  30.876  1.00  0.00     0.000 C 
ENDROOT
BRANCH   1   2
ATOM      2  C   UNL     1      34.497   9.630  30.391  1.00  0.00     0.000 C 
BRANCH   2   3
ATOM      3  C   UNL     1      35.727  10.478  30.759  1.00  0.00     0.000 C 
BRANCH   3   4
ATOM      4  C   UNL     1      35.371  11.697  31.624  1.00  0.00     0.000 C 
BRANCH   4   5
ATOM      5  C   UNL     1      34.758  11.313  32.979  1.00  0.00     0.000 C 
BRANCH   5   6
ATOM      6  C   UNL     1      33.275  11.707  33.039  1.00  0.00     0.000 C 
BRANCH   6   7
ATOM      7  C   UNL     1      32.995  13.063  32.370  1.00  0.00     0.000 C 
BRANCH   7   8
ATOM      8  C   UNL     1      31.763  13.024  31.454  1.00  0.00     0.000 C 
BRANCH   8   9
ATOM      9  C   UNL     1      31.192  11.604  31.356  1.00  0.00     0.000 C 
BRANCH   9  10
ATOM     10  C   UNL     1      31.123  11.139  29.894  1.00  0.00     0.006 C 
BRANCH  10  11
ATOM     11  C   UNL     1      30.327  12.109  29.012  1.00  0.00     0.053 C 
BRANCH  11  12
ATOM     12  C   UNL     1      29.012  11.530  28.591  1.00  0.00     0.041 C 
ATOM     13  O   UNL     1      28.881  11.022  27.446  1.00  0.00    -0.550 OA
ATOM     14  O   UNL     1      27.942  11.514  29.476  1.00  0.00    -0.550 OA
ENDBRANCH  11  12
ENDBRANCH  10  11
ENDBRANCH   9  10
ENDBRANCH   8   9
ENDBRANCH   7   8
ENDBRANCH   6   7
ENDBRANCH   5   6
ENDBRANCH   4   5
ENDBRANCH   3   4
ENDBRANCH   2   3
ENDBRANCH   1   2
BRANCH   1  15
ATOM     15  C   UNL     1      36.047   7.641  31.047  1.00  0.00     0.000 C 
BRANCH  15  16
ATOM     16  C   UNL     1      36.470   7.334  32.495  1.00  0.00     0.000 C 
BRANCH  16  17
ATOM     17  C   UNL     1      35.432   7.799  33.531  1.00  0.00     0.000 C 
BRANCH  17  18
ATOM     18  C   UNL     1      34.743   6.625  34.245  1.00  0.00    -0.000 C 
BRANCH  18  19
ATOM     19  C   UNL     1      33.226   6.594  34.008  1.00  0.00    -0.000 C 
BRANCH  19  20
ATOM     20  C   UNL     1      32.618   7.994  34.177  1.00  0.00    -0.000 C 
BRANCH  20  21
ATOM     21  C   UNL     1      31.665   8.381  33.030  1.00  0.00    -0.000 C 
BRANCH  21  22
ATOM     22  C   UNL     1      31.373   7.264  32.006  1.00  0.00    -0.000 C 
BRANCH  22  23
ATOM     23  C   UNL     1      30.322   7.618  30.933  1.00  0.00    -0.000 C 
BRANCH  23  24
ATOM     24  C   UNL     1      30.624   7.017  29.543  1.00  0.00    -0.000 C 
BRANCH  24  25
ATOM     25  C   UNL     1      30.765   8.074  28.436  1.00  0.00    -0.003 C 
ATOM     26  C   UNL     1      32.201   8.218  27.933  1.00  0.00     0.004 C 
ENDBRANCH  24  25
ENDBRANCH  23  24
ENDBRANCH  22  23
ENDBRANCH  21  22
ENDBRANCH  20  21
ENDBRANCH  19  20
ENDBRANCH  18  19
ENDBRANCH  17  18
ENDBRANCH  16  17
ENDBRANCH  15  16
ENDBRANCH   1  15
TORSDOF 22
ENDMDL
