MODEL 1
REMARK VINA RESULT:    -6.720      0.000      0.000
REMARK INTER + INTRA:          -7.979
REMARK INTER:                  -8.094
REMARK INTRA:                   0.116
REMARK UNBOUND:                 0.116
REMARK SMILES O=c1c(O)c(-c2ccc(O)c(O)c2)oc2cc(O)cc(O)c12
REMARK SMILES IDX 5 1 3 2 2 3 1 4 22 5 20 6 19 7 17 8 16 9 15 10 14 11 6 12
REMARK SMILES IDX 7 13 8 14 9 15 13 16 11 17 10 18 12 20 4 22 21 24 18 26
REMARK H PARENT 10 19 12 21 4 23 21 25 18 27
REMARK Flexibility Score: inf
ROOT
ATOM      1  C   UNL     1       2.008  24.077  48.508  1.00  0.00     0.180 A 
ATOM      2  C   UNL     1       1.993  25.457  48.239  1.00  0.00     0.208 A 
ATOM      3  C   UNL     1       2.165  25.894  46.915  1.00  0.00     0.238 A 
ATOM      4  O   UNL     1       2.075  27.125  46.670  1.00  0.00    -0.285 OA
ATOM      5  C   UNL     1       2.407  24.950  45.887  1.00  0.00     0.111 A 
ATOM      6  C   UNL     1       2.640  25.283  44.517  1.00  0.00     0.134 A 
ATOM      7  C   UNL     1       2.762  24.260  43.569  1.00  0.00     0.093 A 
ATOM      8  C   UNL     1       2.723  22.919  43.947  1.00  0.00     0.123 A 
ATOM      9  C   UNL     1       2.551  22.582  45.290  1.00  0.00     0.094 A 
ATOM     10  C   UNL     1       2.387  23.579  46.255  1.00  0.00     0.146 A 
ATOM     11  O   UNL     1       2.205  23.214  47.518  1.00  0.00    -0.452 OA
ENDROOT
BRANCH   1  12
ATOM     12  C   UNL     1       1.819  23.540  49.874  1.00  0.00     0.025 A 
ATOM     13  C   UNL     1       0.878  24.096  50.757  1.00  0.00     0.016 A 
ATOM     14  C   UNL     1       0.700  23.556  52.034  1.00  0.00     0.051 A 
ATOM     15  C   UNL     1       1.448  22.443  52.441  1.00  0.00     0.157 A 
ATOM     16  C   UNL     1       2.551  22.411  50.280  1.00  0.00     0.062 A 
ATOM     17  C   UNL     1       2.376  21.868  51.558  1.00  0.00     0.158 A 
BRANCH  15  18
ATOM     18  O   UNL     1       1.270  21.908  53.716  1.00  0.00    -0.504 OA
ATOM     19  H   UNL     1       0.365  21.577  54.031  1.00  0.00     0.293 HD
ENDBRANCH  15  18
BRANCH  17  20
ATOM     20  O   UNL     1       3.131  20.756  51.930  1.00  0.00    -0.504 OA
ATOM     21  H   UNL     1       2.702  19.870  52.173  1.00  0.00     0.293 HD
ENDBRANCH  17  20
ENDBRANCH   1  12
BRANCH   2  22
ATOM     22  O   UNL     1       1.829  26.376  49.278  1.00  0.00    -0.502 OA
ATOM     23  H   UNL     1       0.933  26.548  49.716  1.00  0.00     0.293 HD
ENDBRANCH   2  22
BRANCH   6  24
ATOM     24  O   UNL     1       2.785  26.590  44.043  1.00  0.00    -0.507 OA
ATOM     25  H   UNL     1       3.389  27.289  44.448  1.00  0.00     0.293 HD
ENDBRANCH   6  24
BRANCH   8  26
ATOM     26  O   UNL     1       2.866  21.926  42.979  1.00  0.00    -0.508 OA
ATOM     27  H   UNL     1       2.102  21.304  42.743  1.00  0.00     0.293 HD
ENDBRANCH   8  26
TORSDOF 6
ENDMDL
MODEL 2
REMARK VINA RESULT:    -6.520      3.611      6.644
REMARK INTER + INTRA:          -7.738
REMARK INTER:                  -7.410
REMARK INTRA:                  -0.328
REMARK UNBOUND:                 0.116
REMARK SMILES O=c1c(O)c(-c2ccc(O)c(O)c2)oc2cc(O)cc(O)c12
REMARK SMILES IDX 5 1 3 2 2 3 1 4 22 5 20 6 19 7 17 8 16 9 15 10 14 11 6 12
REMARK SMILES IDX 7 13 8 14 9 15 13 16 11 17 10 18 12 20 4 22 21 24 18 26
REMARK H PARENT 10 19 12 21 4 23 21 25 18 27
REMARK Flexibility Score: inf
ROOT
ATOM      1  C   UNL     1       0.659  24.404  53.928  1.00  0.00     0.180 A 
ATOM      2  C   UNL     1       1.243  23.125  53.933  1.00  0.00     0.208 A 
ATOM      3  C   UNL     1       1.804  22.629  52.745  1.00  0.00     0.238 A 
ATOM      4  O   UNL     1       2.392  21.516  52.775  1.00  0.00    -0.285 OA
ATOM      5  C   UNL     1       1.724  23.392  51.555  1.00  0.00     0.111 A 
ATOM      6  C   UNL     1       2.219  22.968  50.284  1.00  0.00     0.134 A 
ATOM      7  C   UNL     1       2.179  23.852  49.198  1.00  0.00     0.093 A 
ATOM      8  C   UNL     1       1.607  25.117  49.319  1.00  0.00     0.123 A 
ATOM      9  C   UNL     1       1.071  25.521  50.542  1.00  0.00     0.094 A 
ATOM     10  C   UNL     1       1.130  24.677  51.654  1.00  0.00     0.146 A 
ATOM     11  O   UNL     1       0.627  25.109  52.804  1.00  0.00    -0.452 OA
ENDROOT
BRANCH   1  12
ATOM     12  C   UNL     1       0.060  25.000  55.143  1.00  0.00     0.025 A 
ATOM     13  C   UNL     1       0.843  25.697  56.080  1.00  0.00     0.016 A 
ATOM     14  C   UNL     1       0.250  26.273  57.207  1.00  0.00     0.051 A 
ATOM     15  C   UNL     1      -1.133  26.175  57.408  1.00  0.00     0.157 A 
ATOM     16  C   UNL     1      -1.330  24.924  55.338  1.00  0.00     0.062 A 
ATOM     17  C   UNL     1      -1.926  25.499  56.466  1.00  0.00     0.158 A 
BRANCH  15  18
ATOM     18  O   UNL     1      -1.721  26.749  58.534  1.00  0.00    -0.504 OA
ATOM     19  H   UNL     1      -1.584  27.727  58.763  1.00  0.00     0.293 HD
ENDBRANCH  15  18
BRANCH  17  20
ATOM     20  O   UNL     1      -3.306  25.389  56.632  1.00  0.00    -0.504 OA
ATOM     21  H   UNL     1      -3.771  25.684  57.483  1.00  0.00     0.293 HD
ENDBRANCH  17  20
ENDBRANCH   1  12
BRANCH   2  22
ATOM     22  O   UNL     1       1.244  22.356  55.100  1.00  0.00    -0.502 OA
ATOM     23  H   UNL     1       0.844  21.427  55.139  1.00  0.00     0.293 HD
ENDBRANCH   2  22
BRANCH   6  24
ATOM     24  O   UNL     1       2.731  21.692  50.028  1.00  0.00    -0.507 OA
ATOM     25  H   UNL     1       3.394  21.471  49.301  1.00  0.00     0.293 HD
ENDBRANCH   6  24
BRANCH   8  26
ATOM     26  O   UNL     1       1.568  25.964  48.212  1.00  0.00    -0.508 OA
ATOM     27  H   UNL     1       2.203  25.844  47.432  1.00  0.00     0.293 HD
ENDBRANCH   8  26
TORSDOF 6
ENDMDL
MODEL 3
REMARK VINA RESULT:    -6.512      1.404      6.764
REMARK INTER + INTRA:          -7.728
REMARK INTER:                  -7.693
REMARK INTRA:                  -0.036
REMARK UNBOUND:                 0.116
REMARK SMILES O=c1c(O)c(-c2ccc(O)c(O)c2)oc2cc(O)cc(O)c12
REMARK SMILES IDX 5 1 3 2 2 3 1 4 22 5 20 6 19 7 17 8 16 9 15 10 14 11 6 12
REMARK SMILES IDX 7 13 8 14 9 15 13 16 11 17 10 18 12 20 4 22 21 24 18 26
REMARK H PARENT 10 19 12 21 4 23 21 25 18 27
REMARK Flexibility Score: inf
ROOT
ATOM      1  C   UNL     1       1.817  24.506  48.885  1.00  0.00     0.180 A 
ATOM      2  C   UNL     1       1.086  25.365  49.723  1.00  0.00     0.208 A 
ATOM      3  C   UNL     1       0.956  25.041  51.084  1.00  0.00     0.238 A 
ATOM      4  O   UNL     1       0.365  25.853  51.844  1.00  0.00    -0.285 OA
ATOM      5  C   UNL     1       1.510  23.835  51.577  1.00  0.00     0.111 A 
ATOM      6  C   UNL     1       1.402  23.384  52.928  1.00  0.00     0.134 A 
ATOM      7  C   UNL     1       2.081  22.226  53.326  1.00  0.00     0.093 A 
ATOM      8  C   UNL     1       2.811  21.469  52.412  1.00  0.00     0.123 A 
ATOM      9  C   UNL     1       2.879  21.870  51.078  1.00  0.00     0.094 A 
ATOM     10  C   UNL     1       2.245  23.041  50.658  1.00  0.00     0.146 A 
ATOM     11  O   UNL     1       2.353  23.398  49.383  1.00  0.00    -0.452 OA
ENDROOT
BRANCH   1  12
ATOM     12  C   UNL     1       2.009  24.787  47.445  1.00  0.00     0.025 A 
ATOM     13  C   UNL     1       2.493  26.029  46.999  1.00  0.00     0.016 A 
ATOM     14  C   UNL     1       2.690  26.262  45.635  1.00  0.00     0.051 A 
ATOM     15  C   UNL     1       2.421  25.255  44.699  1.00  0.00     0.157 A 
ATOM     16  C   UNL     1       1.762  23.773  46.504  1.00  0.00     0.062 A 
ATOM     17  C   UNL     1       1.957  24.004  45.137  1.00  0.00     0.158 A 
BRANCH  15  18
ATOM     18  O   UNL     1       2.616  25.491  43.338  1.00  0.00    -0.504 OA
ATOM     19  H   UNL     1       1.846  25.464  42.680  1.00  0.00     0.293 HD
ENDBRANCH  15  18
BRANCH  17  20
ATOM     20  O   UNL     1       1.687  22.978  44.232  1.00  0.00    -0.504 OA
ATOM     21  H   UNL     1       1.010  23.083  43.486  1.00  0.00     0.293 HD
ENDBRANCH  17  20
ENDBRANCH   1  12
BRANCH   2  22
ATOM     22  O   UNL     1       0.482  26.512  49.202  1.00  0.00    -0.502 OA
ATOM     23  H   UNL     1       0.492  26.731  48.214  1.00  0.00     0.293 HD
ENDBRANCH   2  22
BRANCH   6  24
ATOM     24  O   UNL     1       0.625  24.015  53.905  1.00  0.00    -0.507 OA
ATOM     25  H   UNL     1      -0.086  24.706  53.721  1.00  0.00     0.293 HD
ENDBRANCH   6  24
BRANCH   8  26
ATOM     26  O   UNL     1       3.460  20.311  52.840  1.00  0.00    -0.508 OA
ATOM     27  H   UNL     1       3.588  19.518  52.223  1.00  0.00     0.293 HD
ENDBRANCH   8  26
TORSDOF 6
ENDMDL
MODEL 4
REMARK VINA RESULT:    -6.490      9.919     12.238
REMARK INTER + INTRA:          -7.702
REMARK INTER:                  -7.372
REMARK INTRA:                  -0.330
REMARK UNBOUND:                 0.116
REMARK SMILES O=c1c(O)c(-c2ccc(O)c(O)c2)oc2cc(O)cc(O)c12
REMARK SMILES IDX 5 1 3 2 2 3 1 4 22 5 20 6 19 7 17 8 16 9 15 10 14 11 6 12
REMARK SMILES IDX 7 13 8 14 9 15 13 16 11 17 10 18 12 20 4 22 21 24 18 26
REMARK H PARENT 10 19 12 21 4 23 21 25 18 27
REMARK Flexibility Score: inf
ROOT
ATOM      1  C   UNL     1       3.006  21.614  58.791  1.00  0.00     0.180 A 
ATOM      2  C   UNL     1       2.851  20.667  59.818  1.00  0.00     0.208 A 
ATOM      3  C   UNL     1       3.871  19.725  60.035  1.00  0.00     0.238 A 
ATOM      4  O   UNL     1       3.761  18.929  61.003  1.00  0.00    -0.285 OA
ATOM      5  C   UNL     1       5.004  19.706  59.186  1.00  0.00     0.111 A 
ATOM      6  C   UNL     1       6.078  18.769  59.285  1.00  0.00     0.134 A 
ATOM      7  C   UNL     1       7.199  18.912  58.458  1.00  0.00     0.093 A 
ATOM      8  C   UNL     1       7.259  19.918  57.495  1.00  0.00     0.123 A 
ATOM      9  C   UNL     1       6.193  20.806  57.352  1.00  0.00     0.094 A 
ATOM     10  C   UNL     1       5.078  20.713  58.188  1.00  0.00     0.146 A 
ATOM     11  O   UNL     1       4.095  21.592  58.032  1.00  0.00    -0.452 OA
ENDROOT
BRANCH   1  12
ATOM     12  C   UNL     1       1.981  22.646  58.512  1.00  0.00     0.025 A 
ATOM     13  C   UNL     1       1.972  23.873  59.197  1.00  0.00     0.016 A 
ATOM     14  C   UNL     1       1.010  24.842  58.898  1.00  0.00     0.051 A 
ATOM     15  C   UNL     1       0.054  24.605  57.901  1.00  0.00     0.157 A 
ATOM     16  C   UNL     1       1.034  22.423  57.498  1.00  0.00     0.062 A 
ATOM     17  C   UNL     1       0.069  23.390  57.197  1.00  0.00     0.158 A 
BRANCH  15  18
ATOM     18  O   UNL     1      -0.906  25.573  57.606  1.00  0.00    -0.504 OA
ATOM     19  H   UNL     1      -0.644  26.514  57.337  1.00  0.00     0.293 HD
ENDBRANCH  15  18
BRANCH  17  20
ATOM     20  O   UNL     1      -0.864  23.127  56.194  1.00  0.00    -0.504 OA
ATOM     21  H   UNL     1      -1.695  22.574  56.364  1.00  0.00     0.293 HD
ENDBRANCH  17  20
ENDBRANCH   1  12
BRANCH   2  22
ATOM     22  O   UNL     1       1.690  20.653  60.596  1.00  0.00    -0.502 OA
ATOM     23  H   UNL     1       0.989  19.928  60.514  1.00  0.00     0.293 HD
ENDBRANCH   2  22
BRANCH   6  24
ATOM     24  O   UNL     1       6.082  17.671  60.152  1.00  0.00    -0.507 OA
ATOM     25  H   UNL     1       6.889  17.106  60.365  1.00  0.00     0.293 HD
ENDBRANCH   6  24
BRANCH   8  26
ATOM     26  O   UNL     1       8.383  20.020  56.677  1.00  0.00    -0.508 OA
ATOM     27  H   UNL     1       9.250  20.422  57.016  1.00  0.00     0.293 HD
ENDBRANCH   8  26
TORSDOF 6
ENDMDL
MODEL 5
REMARK VINA RESULT:    -6.459      8.781     11.206
REMARK INTER + INTRA:          -7.664
REMARK INTER:                  -7.866
REMARK INTRA:                   0.202
REMARK UNBOUND:                 0.116
REMARK SMILES O=c1c(O)c(-c2ccc(O)c(O)c2)oc2cc(O)cc(O)c12
REMARK SMILES IDX 5 1 3 2 2 3 1 4 22 5 20 6 19 7 17 8 16 9 15 10 14 11 6 12
REMARK SMILES IDX 7 13 8 14 9 15 13 16 11 17 10 18 12 20 4 22 21 24 18 26
REMARK H PARENT 10 19 12 21 4 23 21 25 18 27
REMARK Flexibility Score: inf
ROOT
ATOM      1  C   UNL     1       3.116  21.810  57.379  1.00  0.00     0.180 A 
ATOM      2  C   UNL     1       4.139  22.345  56.578  1.00  0.00     0.208 A 
ATOM      3  C   UNL     1       5.419  21.770  56.635  1.00  0.00     0.238 A 
ATOM      4  O   UNL     1       6.311  22.205  55.860  1.00  0.00    -0.285 OA
ATOM      5  C   UNL     1       5.675  20.706  57.533  1.00  0.00     0.111 A 
ATOM      6  C   UNL     1       6.945  20.077  57.707  1.00  0.00     0.134 A 
ATOM      7  C   UNL     1       7.055  18.962  58.548  1.00  0.00     0.093 A 
ATOM      8  C   UNL     1       5.958  18.493  59.269  1.00  0.00     0.123 A 
ATOM      9  C   UNL     1       4.724  19.133  59.149  1.00  0.00     0.094 A 
ATOM     10  C   UNL     1       4.574  20.224  58.288  1.00  0.00     0.146 A 
ATOM     11  O   UNL     1       3.377  20.790  58.188  1.00  0.00    -0.452 OA
ENDROOT
BRANCH   1  12
ATOM     12  C   UNL     1       1.738  22.353  57.363  1.00  0.00     0.025 A 
ATOM     13  C   UNL     1       0.997  22.505  58.547  1.00  0.00     0.016 A 
ATOM     14  C   UNL     1      -0.292  23.043  58.510  1.00  0.00     0.051 A 
ATOM     15  C   UNL     1      -0.854  23.450  57.292  1.00  0.00     0.157 A 
ATOM     16  C   UNL     1       1.179  22.783  56.148  1.00  0.00     0.062 A 
ATOM     17  C   UNL     1      -0.112  23.321  56.107  1.00  0.00     0.158 A 
BRANCH  15  18
ATOM     18  O   UNL     1      -2.141  23.985  57.258  1.00  0.00    -0.504 OA
ATOM     19  H   UNL     1      -2.483  24.591  57.995  1.00  0.00     0.293 HD
ENDBRANCH  15  18
BRANCH  17  20
ATOM     20  O   UNL     1      -0.639  23.724  54.880  1.00  0.00    -0.504 OA
ATOM     21  H   UNL     1      -0.737  24.701  54.631  1.00  0.00     0.293 HD
ENDBRANCH  17  20
ENDBRANCH   1  12
BRANCH   2  22
ATOM     22  O   UNL     1       3.887  23.445  55.754  1.00  0.00    -0.502 OA
ATOM     23  H   UNL     1       2.966  23.855  55.660  1.00  0.00     0.293 HD
ENDBRANCH   2  22
BRANCH   6  24
ATOM     24  O   UNL     1       8.127  20.518  57.104  1.00  0.00    -0.507 OA
ATOM     25  H   UNL     1       8.988  20.713  57.593  1.00  0.00     0.293 HD
ENDBRANCH   6  24
BRANCH   8  26
ATOM     26  O   UNL     1       6.107  17.392  60.110  1.00  0.00    -0.508 OA
ATOM     27  H   UNL     1       6.822  16.693  59.945  1.00  0.00     0.293 HD
ENDBRANCH   8  26
TORSDOF 6
ENDMDL
MODEL 6
REMARK VINA RESULT:    -6.411      5.398      8.249
REMARK INTER + INTRA:          -7.606
REMARK INTER:                  -7.276
REMARK INTRA:                  -0.331
REMARK UNBOUND:                 0.116
REMARK SMILES O=c1c(O)c(-c2ccc(O)c(O)c2)oc2cc(O)cc(O)c12
REMARK SMILES IDX 5 1 3 2 2 3 1 4 22 5 20 6 19 7 17 8 16 9 15 10 14 11 6 12
REMARK SMILES IDX 7 13 8 14 9 15 13 16 11 17 10 18 12 20 4 22 21 24 18 26
REMARK H PARENT 10 19 12 21 4 23 21 25 18 27
REMARK Flexibility Score: inf
ROOT
ATOM      1  C   UNL     1       4.850  22.071  55.749  1.00  0.00     0.180 A 
ATOM      2  C   UNL     1       4.643  23.402  56.152  1.00  0.00     0.208 A 
ATOM      3  C   UNL     1       4.085  24.310  55.237  1.00  0.00     0.238 A 
ATOM      4  O   UNL     1       3.833  25.480  55.627  1.00  0.00    -0.285 OA
ATOM      5  C   UNL     1       3.794  23.892  53.916  1.00  0.00     0.111 A 
ATOM      6  C   UNL     1       3.268  24.738  52.893  1.00  0.00     0.134 A 
ATOM      7  C   UNL     1       2.919  24.189  51.653  1.00  0.00     0.093 A 
ATOM      8  C   UNL     1       3.135  22.840  51.377  1.00  0.00     0.123 A 
ATOM      9  C   UNL     1       3.699  22.014  52.350  1.00  0.00     0.094 A 
ATOM     10  C   UNL     1       4.022  22.525  53.610  1.00  0.00     0.146 A 
ATOM     11  O   UNL     1       4.537  21.700  54.514  1.00  0.00    -0.452 OA
ENDROOT
BRANCH   1  12
ATOM     12  C   UNL     1       5.420  21.053  56.660  1.00  0.00     0.025 A 
ATOM     13  C   UNL     1       4.596  20.244  57.463  1.00  0.00     0.016 A 
ATOM     14  C   UNL     1       5.157  19.272  58.297  1.00  0.00     0.051 A 
ATOM     15  C   UNL     1       6.545  19.084  58.330  1.00  0.00     0.157 A 
ATOM     16  C   UNL     1       6.809  20.845  56.681  1.00  0.00     0.062 A 
ATOM     17  C   UNL     1       7.374  19.873  57.516  1.00  0.00     0.158 A 
BRANCH  15  18
ATOM     18  O   UNL     1       7.101  18.115  59.165  1.00  0.00    -0.504 OA
ATOM     19  H   UNL     1       6.844  18.047  60.143  1.00  0.00     0.293 HD
ENDBRANCH  15  18
BRANCH  17  20
ATOM     20  O   UNL     1       8.758  19.706  57.520  1.00  0.00    -0.504 OA
ATOM     21  H   UNL     1       9.360  20.183  56.860  1.00  0.00     0.293 HD
ENDBRANCH  17  20
ENDBRANCH   1  12
BRANCH   2  22
ATOM     22  O   UNL     1       5.008  23.815  57.436  1.00  0.00    -0.502 OA
ATOM     23  H   UNL     1       4.494  24.521  57.946  1.00  0.00     0.293 HD
ENDBRANCH   2  22
BRANCH   6  24
ATOM     24  O   UNL     1       3.095  26.119  53.031  1.00  0.00    -0.507 OA
ATOM     25  H   UNL     1       3.023  26.772  52.266  1.00  0.00     0.293 HD
ENDBRANCH   6  24
BRANCH   8  26
ATOM     26  O   UNL     1       2.792  22.330  50.125  1.00  0.00    -0.508 OA
ATOM     27  H   UNL     1       3.499  22.093  49.439  1.00  0.00     0.293 HD
ENDBRANCH   8  26
TORSDOF 6
ENDMDL
MODEL 7
REMARK VINA RESULT:    -6.280      5.004      9.485
REMARK INTER + INTRA:          -7.450
REMARK INTER:                  -7.425
REMARK INTRA:                  -0.024
REMARK UNBOUND:                 0.116
REMARK SMILES O=c1c(O)c(-c2ccc(O)c(O)c2)oc2cc(O)cc(O)c12
REMARK SMILES IDX 5 1 3 2 2 3 1 4 22 5 20 6 19 7 17 8 16 9 15 10 14 11 6 12
REMARK SMILES IDX 7 13 8 14 9 15 13 16 11 17 10 18 12 20 4 22 21 24 18 26
REMARK H PARENT 10 19 12 21 4 23 21 25 18 27
REMARK Flexibility Score: inf
ROOT
ATOM      1  C   UNL     1       2.681  23.146  54.672  1.00  0.00     0.180 A 
ATOM      2  C   UNL     1       2.914  22.396  55.837  1.00  0.00     0.208 A 
ATOM      3  C   UNL     1       1.914  22.340  56.822  1.00  0.00     0.238 A 
ATOM      4  O   UNL     1       2.099  21.606  57.828  1.00  0.00    -0.285 OA
ATOM      5  C   UNL     1       0.719  23.080  56.656  1.00  0.00     0.111 A 
ATOM      6  C   UNL     1      -0.344  23.133  57.609  1.00  0.00     0.134 A 
ATOM      7  C   UNL     1      -1.525  23.814  57.290  1.00  0.00     0.093 A 
ATOM      8  C   UNL     1      -1.660  24.496  56.082  1.00  0.00     0.123 A 
ATOM      9  C   UNL     1      -0.608  24.497  55.166  1.00  0.00     0.094 A 
ATOM     10  C   UNL     1       0.569  23.795  55.438  1.00  0.00     0.146 A 
ATOM     11  O   UNL     1       1.536  23.804  54.529  1.00  0.00    -0.452 OA
ENDROOT
BRANCH   1  12
ATOM     12  C   UNL     1       3.680  23.241  53.583  1.00  0.00     0.025 A 
ATOM     13  C   UNL     1       5.008  23.623  53.840  1.00  0.00     0.016 A 
ATOM     14  C   UNL     1       5.940  23.681  52.800  1.00  0.00     0.051 A 
ATOM     15  C   UNL     1       5.563  23.346  51.493  1.00  0.00     0.157 A 
ATOM     16  C   UNL     1       3.313  22.884  52.275  1.00  0.00     0.062 A 
ATOM     17  C   UNL     1       4.243  22.943  51.231  1.00  0.00     0.158 A 
BRANCH  15  18
ATOM     18  O   UNL     1       6.494  23.407  50.457  1.00  0.00    -0.504 OA
ATOM     19  H   UNL     1       6.209  23.546  49.494  1.00  0.00     0.293 HD
ENDBRANCH  15  18
BRANCH  17  20
ATOM     20  O   UNL     1       3.838  22.595  49.943  1.00  0.00    -0.504 OA
ATOM     21  H   UNL     1       3.477  21.675  49.722  1.00  0.00     0.293 HD
ENDBRANCH  17  20
ENDBRANCH   1  12
BRANCH   2  22
ATOM     22  O   UNL     1       4.131  21.734  56.017  1.00  0.00    -0.502 OA
ATOM     23  H   UNL     1       4.930  21.892  55.416  1.00  0.00     0.293 HD
ENDBRANCH   2  22
BRANCH   6  24
ATOM     24  O   UNL     1      -0.281  22.562  58.884  1.00  0.00    -0.507 OA
ATOM     25  H   UNL     1       0.568  22.405  59.406  1.00  0.00     0.293 HD
ENDBRANCH   6  24
BRANCH   8  26
ATOM     26  O   UNL     1      -2.844  25.178  55.805  1.00  0.00    -0.508 OA
ATOM     27  H   UNL     1      -2.837  26.104  55.394  1.00  0.00     0.293 HD
ENDBRANCH   8  26
TORSDOF 6
ENDMDL
MODEL 8
REMARK VINA RESULT:    -6.264      1.761      2.681
REMARK INTER + INTRA:          -7.430
REMARK INTER:                  -7.404
REMARK INTRA:                  -0.026
REMARK UNBOUND:                 0.116
REMARK SMILES O=c1c(O)c(-c2ccc(O)c(O)c2)oc2cc(O)cc(O)c12
REMARK SMILES IDX 5 1 3 2 2 3 1 4 22 5 20 6 19 7 17 8 16 9 15 10 14 11 6 12
REMARK SMILES IDX 7 13 8 14 9 15 13 16 11 17 10 18 12 20 4 22 21 24 18 26
REMARK H PARENT 10 19 12 21 4 23 21 25 18 27
REMARK Flexibility Score: inf
ROOT
ATOM      1  C   UNL     1       2.162  24.895  46.567  1.00  0.00     0.180 A 
ATOM      2  C   UNL     1       2.856  25.881  45.846  1.00  0.00     0.208 A 
ATOM      3  C   UNL     1       3.212  25.624  44.512  1.00  0.00     0.238 A 
ATOM      4  O   UNL     1       3.766  26.539  43.848  1.00  0.00    -0.285 OA
ATOM      5  C   UNL     1       2.921  24.364  43.935  1.00  0.00     0.111 A 
ATOM      6  C   UNL     1       3.276  23.978  42.606  1.00  0.00     0.134 A 
ATOM      7  C   UNL     1       2.842  22.743  42.107  1.00  0.00     0.093 A 
ATOM      8  C   UNL     1       2.123  21.855  42.905  1.00  0.00     0.123 A 
ATOM      9  C   UNL     1       1.818  22.199  44.222  1.00  0.00     0.094 A 
ATOM     10  C   UNL     1       2.203  23.439  44.737  1.00  0.00     0.146 A 
ATOM     11  O   UNL     1       1.874  23.735  45.989  1.00  0.00    -0.452 OA
ENDROOT
BRANCH   1  12
ATOM     12  C   UNL     1       1.740  25.098  47.972  1.00  0.00     0.025 A 
ATOM     13  C   UNL     1       1.031  26.246  48.366  1.00  0.00     0.016 A 
ATOM     14  C   UNL     1       0.621  26.403  49.693  1.00  0.00     0.051 A 
ATOM     15  C   UNL     1       0.901  25.411  50.641  1.00  0.00     0.157 A 
ATOM     16  C   UNL     1       1.998  24.096  48.923  1.00  0.00     0.062 A 
ATOM     17  C   UNL     1       1.590  24.251  50.253  1.00  0.00     0.158 A 
BRANCH  15  18
ATOM     18  O   UNL     1       0.493  25.572  51.965  1.00  0.00    -0.504 OA
ATOM     19  H   UNL     1      -0.330  25.103  52.327  1.00  0.00     0.293 HD
ENDBRANCH  15  18
BRANCH  17  20
ATOM     20  O   UNL     1       1.877  23.241  51.171  1.00  0.00    -0.504 OA
ATOM     21  H   UNL     1       2.749  22.725  51.149  1.00  0.00     0.293 HD
ENDBRANCH  17  20
ENDBRANCH   1  12
BRANCH   2  22
ATOM     22  O   UNL     1       3.201  27.089  46.457  1.00  0.00    -0.502 OA
ATOM     23  H   UNL     1       3.512  27.143  47.418  1.00  0.00     0.293 HD
ENDBRANCH   2  22
BRANCH   6  24
ATOM     24  O   UNL     1       4.068  24.750  41.750  1.00  0.00    -0.507 OA
ATOM     25  H   UNL     1       4.845  24.401  41.210  1.00  0.00     0.293 HD
ENDBRANCH   6  24
BRANCH   8  26
ATOM     26  O   UNL     1       1.722  20.628  42.381  1.00  0.00    -0.508 OA
ATOM     27  H   UNL     1       2.194  19.766  42.631  1.00  0.00     0.293 HD
ENDBRANCH   8  26
TORSDOF 6
ENDMDL
MODEL 9
REMARK VINA RESULT:    -6.195      5.925     10.986
REMARK INTER + INTRA:          -7.347
REMARK INTER:                  -7.115
REMARK INTRA:                  -0.232
REMARK UNBOUND:                 0.116
REMARK SMILES O=c1c(O)c(-c2ccc(O)c(O)c2)oc2cc(O)cc(O)c12
REMARK SMILES IDX 5 1 3 2 2 3 1 4 22 5 20 6 19 7 17 8 16 9 15 10 14 11 6 12
REMARK SMILES IDX 7 13 8 14 9 15 13 16 11 17 10 18 12 20 4 22 21 24 18 26
REMARK H PARENT 10 19 12 21 4 23 21 25 18 27
REMARK Flexibility Score: inf
ROOT
ATOM      1  C   UNL     1       4.806  22.226  55.787  1.00  0.00     0.180 A 
ATOM      2  C   UNL     1       4.468  23.192  56.751  1.00  0.00     0.208 A 
ATOM      3  C   UNL     1       4.679  22.902  58.109  1.00  0.00     0.238 A 
ATOM      4  O   UNL     1       4.446  23.798  58.961  1.00  0.00    -0.285 OA
ATOM      5  C   UNL     1       5.171  21.630  58.489  1.00  0.00     0.111 A 
ATOM      6  C   UNL     1       5.382  21.210  59.839  1.00  0.00     0.134 A 
ATOM      7  C   UNL     1       5.973  19.966  60.091  1.00  0.00     0.093 A 
ATOM      8  C   UNL     1       6.303  19.101  59.049  1.00  0.00     0.123 A 
ATOM      9  C   UNL     1       6.052  19.477  57.730  1.00  0.00     0.094 A 
ATOM     10  C   UNL     1       5.498  20.727  57.444  1.00  0.00     0.146 A 
ATOM     11  O   UNL     1       5.296  21.054  56.173  1.00  0.00    -0.452 OA
ENDROOT
BRANCH   1  12
ATOM     12  C   UNL     1       4.625  22.464  54.337  1.00  0.00     0.025 A 
ATOM     13  C   UNL     1       5.427  23.384  53.640  1.00  0.00     0.016 A 
ATOM     14  C   UNL     1       5.254  23.573  52.266  1.00  0.00     0.051 A 
ATOM     15  C   UNL     1       4.290  22.836  51.567  1.00  0.00     0.157 A 
ATOM     16  C   UNL     1       3.675  21.711  53.627  1.00  0.00     0.062 A 
ATOM     17  C   UNL     1       3.499  21.899  52.251  1.00  0.00     0.158 A 
BRANCH  15  18
ATOM     18  O   UNL     1       4.119  23.029  50.196  1.00  0.00    -0.504 OA
ATOM     19  H   UNL     1       4.200  23.947  49.775  1.00  0.00     0.293 HD
ENDBRANCH  15  18
BRANCH  17  20
ATOM     20  O   UNL     1       2.535  21.145  51.583  1.00  0.00    -0.504 OA
ATOM     21  H   UNL     1       2.519  21.065  50.573  1.00  0.00     0.293 HD
ENDBRANCH  17  20
ENDBRANCH   1  12
BRANCH   2  22
ATOM     22  O   UNL     1       3.912  24.413  56.360  1.00  0.00    -0.502 OA
ATOM     23  H   UNL     1       4.452  25.268  56.320  1.00  0.00     0.293 HD
ENDBRANCH   2  22
BRANCH   6  24
ATOM     24  O   UNL     1       5.008  21.959  60.959  1.00  0.00    -0.507 OA
ATOM     25  H   UNL     1       4.332  22.708  60.955  1.00  0.00     0.293 HD
ENDBRANCH   6  24
BRANCH   8  26
ATOM     26  O   UNL     1       6.874  17.863  59.338  1.00  0.00    -0.508 OA
ATOM     27  H   UNL     1       6.392  17.177  59.908  1.00  0.00     0.293 HD
ENDBRANCH   8  26
TORSDOF 6
ENDMDL
