MODEL 1
REMARK VINA RESULT:    -5.320      0.000      0.000
REMARK INTER + INTRA:         -11.016
REMARK INTER:                  -9.986
REMARK INTRA:                  -1.031
REMARK UNBOUND:                -1.031
REMARK SMILES CCCCCCCCC=CCCCCCCCC(=O)[O-]
REMARK SMILES IDX 10 1 9 2 11 3 12 4 13 5 14 6 15 7 16 8 17 9 18 10 19 11
REMARK SMILES IDX 20 12 8 13 7 14 6 15 5 16 4 17 3 18 2 19 1 20
REMARK H PARENT
REMARK Flexibility Score: inf
ROOT
ATOM      1  C   UNL     1       2.783   9.939  83.570  1.00  0.00    -0.031 C 
ATOM      2  C   UNL     1       3.139  10.354  84.794  1.00  0.00    -0.031 C 
ENDROOT
BRANCH   1   3
ATOM      3  C   UNL     1       3.731  10.017  82.403  1.00  0.00     0.027 C 
BRANCH   3   4
ATOM      4  C   UNL     1       4.669   8.799  82.318  1.00  0.00     0.004 C 
BRANCH   4   5
ATOM      5  C   UNL     1       6.062   9.103  81.731  1.00  0.00     0.000 C 
BRANCH   5   6
ATOM      6  C   UNL     1       6.639   7.999  80.827  1.00  0.00     0.000 C 
BRANCH   6   7
ATOM      7  C   UNL     1       8.045   8.334  80.299  1.00  0.00     0.000 C 
BRANCH   7   8
ATOM      8  C   UNL     1       8.415   7.522  79.049  1.00  0.00     0.006 C 
BRANCH   8   9
ATOM      9  C   UNL     1       9.627   6.608  79.277  1.00  0.00     0.053 C 
BRANCH   9  10
ATOM     10  C   UNL     1       9.180   5.237  79.675  1.00  0.00     0.041 C 
ATOM     11  O   UNL     1      10.026   4.319  79.849  1.00  0.00    -0.550 OA
ATOM     12  O   UNL     1       7.832   4.984  79.900  1.00  0.00    -0.550 OA
ENDBRANCH   9  10
ENDBRANCH   8   9
ENDBRANCH   7   8
ENDBRANCH   6   7
ENDBRANCH   5   6
ENDBRANCH   4   5
ENDBRANCH   3   4
ENDBRANCH   1   3
BRANCH   2  13
ATOM     13  C   UNL     1       2.166  10.278  85.942  1.00  0.00     0.027 C 
BRANCH  13  14
ATOM     14  C   UNL     1       2.604   9.270  87.013  1.00  0.00     0.004 C 
BRANCH  14  15
ATOM     15  C   UNL     1       1.581   8.134  87.191  1.00  0.00     0.000 C 
BRANCH  15  16
ATOM     16  C   UNL     1       1.496   7.221  85.957  1.00  0.00     0.000 C 
BRANCH  16  17
ATOM     17  C   UNL     1       2.861   6.623  85.571  1.00  0.00    -0.000 C 
BRANCH  17  18
ATOM     18  C   UNL     1       2.821   5.090  85.455  1.00  0.00    -0.000 C 
BRANCH  18  19
ATOM     19  C   UNL     1       2.146   4.427  86.665  1.00  0.00    -0.003 C 
ATOM     20  C   UNL     1       2.897   3.168  87.089  1.00  0.00     0.004 C 
ENDBRANCH  18  19
ENDBRANCH  17  18
ENDBRANCH  16  17
ENDBRANCH  15  16
ENDBRANCH  14  15
ENDBRANCH  13  14
ENDBRANCH   2  13
TORSDOF 15
ENDMDL
MODEL 2
REMARK VINA RESULT:    -4.977      1.440      2.599
REMARK INTER + INTRA:         -10.373
REMARK INTER:                  -8.642
REMARK INTRA:                  -1.731
REMARK UNBOUND:                -1.031
REMARK SMILES CCCCCCCCC=CCCCCCCCC(=O)[O-]
REMARK SMILES IDX 10 1 9 2 11 3 12 4 13 5 14 6 15 7 16 8 17 9 18 10 19 11
REMARK SMILES IDX 20 12 8 13 7 14 6 15 5 16 4 17 3 18 2 19 1 20
REMARK H PARENT
REMARK Flexibility Score: inf
ROOT
ATOM      1  C   UNL     1       1.665  10.003  84.154  1.00  0.00    -0.031 C 
ATOM      2  C   UNL     1       2.336  10.792  85.004  1.00  0.00    -0.031 C 
ENDROOT
BRANCH   1   3
ATOM      3  C   UNL     1       1.940  10.021  82.674  1.00  0.00     0.027 C 
BRANCH   3   4
ATOM      4  C   UNL     1       2.617  11.324  82.212  1.00  0.00     0.004 C 
BRANCH   4   5
ATOM      5  C   UNL     1       4.042  11.140  81.650  1.00  0.00     0.000 C 
BRANCH   5   6
ATOM      6  C   UNL     1       4.978  10.289  82.526  1.00  0.00     0.000 C 
BRANCH   6   7
ATOM      7  C   UNL     1       5.161   8.858  81.989  1.00  0.00     0.000 C 
BRANCH   7   8
ATOM      8  C   UNL     1       6.611   8.562  81.579  1.00  0.00     0.006 C 
BRANCH   8   9
ATOM      9  C   UNL     1       6.711   7.450  80.526  1.00  0.00     0.053 C 
BRANCH   9  10
ATOM     10  C   UNL     1       8.102   7.368  79.983  1.00  0.00     0.041 C 
ATOM     11  O   UNL     1       8.529   6.288  79.493  1.00  0.00    -0.550 OA
ATOM     12  O   UNL     1       8.912   8.496  79.975  1.00  0.00    -0.550 OA
ENDBRANCH   9  10
ENDBRANCH   8   9
ENDBRANCH   7   8
ENDBRANCH   6   7
ENDBRANCH   5   6
ENDBRANCH   4   5
ENDBRANCH   3   4
ENDBRANCH   1   3
BRANCH   2  13
ATOM     13  C   UNL     1       2.032  10.764  86.479  1.00  0.00     0.027 C 
BRANCH  13  14
ATOM     14  C   UNL     1       2.869   9.718  87.229  1.00  0.00     0.004 C 
BRANCH  14  15
ATOM     15  C   UNL     1       2.033   8.939  88.260  1.00  0.00     0.000 C 
BRANCH  15  16
ATOM     16  C   UNL     1       0.696   8.446  87.681  1.00  0.00     0.000 C 
BRANCH  16  17
ATOM     17  C   UNL     1       0.667   6.921  87.480  1.00  0.00    -0.000 C 
BRANCH  17  18
ATOM     18  C   UNL     1       0.725   6.521  85.997  1.00  0.00    -0.000 C 
BRANCH  18  19
ATOM     19  C   UNL     1       1.965   5.680  85.662  1.00  0.00    -0.003 C 
ATOM     20  C   UNL     1       3.107   6.559  85.161  1.00  0.00     0.004 C 
ENDBRANCH  18  19
ENDBRANCH  17  18
ENDBRANCH  16  17
ENDBRANCH  15  16
ENDBRANCH  14  15
ENDBRANCH  13  14
ENDBRANCH   2  13
TORSDOF 15
ENDMDL
MODEL 3
REMARK VINA RESULT:    -4.957      2.899      7.640
REMARK INTER + INTRA:         -10.334
REMARK INTER:                  -8.890
REMARK INTRA:                  -1.444
REMARK UNBOUND:                -1.031
REMARK SMILES CCCCCCCCC=CCCCCCCCC(=O)[O-]
REMARK SMILES IDX 10 1 9 2 11 3 12 4 13 5 14 6 15 7 16 8 17 9 18 10 19 11
REMARK SMILES IDX 20 12 8 13 7 14 6 15 5 16 4 17 3 18 2 19 1 20
REMARK H PARENT
REMARK Flexibility Score: inf
ROOT
ATOM      1  C   UNL     1       3.073  10.434  84.398  1.00  0.00    -0.031 C 
ATOM      2  C   UNL     1       2.718   9.595  83.415  1.00  0.00    -0.031 C 
ENDROOT
BRANCH   1   3
ATOM      3  C   UNL     1       2.049  11.197  85.195  1.00  0.00     0.027 C 
BRANCH   3   4
ATOM      4  C   UNL     1       1.914  10.680  86.638  1.00  0.00     0.004 C 
BRANCH   4   5
ATOM      5  C   UNL     1       2.884   9.538  87.003  1.00  0.00     0.000 C 
BRANCH   5   6
ATOM      6  C   UNL     1       2.217   8.170  87.230  1.00  0.00     0.000 C 
BRANCH   6   7
ATOM      7  C   UNL     1       0.967   7.963  86.358  1.00  0.00     0.000 C 
BRANCH   7   8
ATOM      8  C   UNL     1       1.033   6.673  85.526  1.00  0.00     0.006 C 
BRANCH   8   9
ATOM      9  C   UNL     1       2.418   6.013  85.573  1.00  0.00     0.053 C 
BRANCH   9  10
ATOM     10  C   UNL     1       2.341   4.685  86.258  1.00  0.00     0.041 C 
ATOM     11  O   UNL     1       3.193   3.792  86.007  1.00  0.00    -0.550 OA
ATOM     12  O   UNL     1       1.356   4.451  87.209  1.00  0.00    -0.550 OA
ENDBRANCH   9  10
ENDBRANCH   8   9
ENDBRANCH   7   8
ENDBRANCH   6   7
ENDBRANCH   5   6
ENDBRANCH   4   5
ENDBRANCH   3   4
ENDBRANCH   1   3
BRANCH   2  13
ATOM     13  C   UNL     1       3.764   8.854  82.624  1.00  0.00     0.027 C 
BRANCH  13  14
ATOM     14  C   UNL     1       4.949   9.751  82.239  1.00  0.00     0.004 C 
BRANCH  14  15
ATOM     15  C   UNL     1       6.232   8.939  81.991  1.00  0.00     0.000 C 
BRANCH  15  16
ATOM     16  C   UNL     1       6.794   9.147  80.575  1.00  0.00     0.000 C 
BRANCH  16  17
ATOM     17  C   UNL     1       7.907   8.142  80.229  1.00  0.00    -0.000 C 
BRANCH  17  18
ATOM     18  C   UNL     1       7.355   6.756  79.858  1.00  0.00    -0.000 C 
BRANCH  18  19
ATOM     19  C   UNL     1       8.468   5.727  79.608  1.00  0.00    -0.003 C 
ATOM     20  C   UNL     1       9.776   6.415  79.229  1.00  0.00     0.004 C 
ENDBRANCH  18  19
ENDBRANCH  17  18
ENDBRANCH  16  17
ENDBRANCH  15  16
ENDBRANCH  14  15
ENDBRANCH  13  14
ENDBRANCH   2  13
TORSDOF 15
ENDMDL
MODEL 4
REMARK VINA RESULT:    -4.924      1.865      3.464
REMARK INTER + INTRA:         -10.273
REMARK INTER:                  -8.573
REMARK INTRA:                  -1.700
REMARK UNBOUND:                -1.031
REMARK SMILES CCCCCCCCC=CCCCCCCCC(=O)[O-]
REMARK SMILES IDX 10 1 9 2 11 3 12 4 13 5 14 6 15 7 16 8 17 9 18 10 19 11
REMARK SMILES IDX 20 12 8 13 7 14 6 15 5 16 4 17 3 18 2 19 1 20
REMARK H PARENT
REMARK Flexibility Score: inf
ROOT
ATOM      1  C   UNL     1       2.298   8.791  84.443  1.00  0.00    -0.031 C 
ATOM      2  C   UNL     1       2.764   7.593  84.823  1.00  0.00    -0.031 C 
ENDROOT
BRANCH   1   3
ATOM      3  C   UNL     1       2.859   9.516  83.250  1.00  0.00     0.027 C 
BRANCH   3   4
ATOM      4  C   UNL     1       4.032   8.763  82.596  1.00  0.00     0.004 C 
BRANCH   4   5
ATOM      5  C   UNL     1       5.228   9.657  82.206  1.00  0.00     0.000 C 
BRANCH   5   6
ATOM      6  C   UNL     1       6.437   8.903  81.626  1.00  0.00     0.000 C 
BRANCH   6   7
ATOM      7  C   UNL     1       6.039   7.607  80.898  1.00  0.00     0.000 C 
BRANCH   7   8
ATOM      8  C   UNL     1       7.187   7.026  80.057  1.00  0.00     0.006 C 
BRANCH   8   9
ATOM      9  C   UNL     1       7.916   8.098  79.236  1.00  0.00     0.053 C 
BRANCH   9  10
ATOM     10  C   UNL     1       9.397   7.969  79.407  1.00  0.00     0.041 C 
ATOM     11  O   UNL     1       9.997   6.944  78.984  1.00  0.00    -0.550 OA
ATOM     12  O   UNL     1      10.121   8.999  79.993  1.00  0.00    -0.550 OA
ENDBRANCH   9  10
ENDBRANCH   8   9
ENDBRANCH   7   8
ENDBRANCH   6   7
ENDBRANCH   5   6
ENDBRANCH   4   5
ENDBRANCH   3   4
ENDBRANCH   1   3
BRANCH   2  13
ATOM     13  C   UNL     1       2.194   6.895  86.030  1.00  0.00     0.027 C 
BRANCH  13  14
ATOM     14  C   UNL     1       0.674   6.702  85.928  1.00  0.00     0.004 C 
BRANCH  14  15
ATOM     15  C   UNL     1      -0.038   7.013  87.256  1.00  0.00     0.000 C 
BRANCH  15  16
ATOM     16  C   UNL     1      -0.759   8.371  87.232  1.00  0.00     0.000 C 
BRANCH  16  17
ATOM     17  C   UNL     1      -0.148   9.381  88.219  1.00  0.00    -0.000 C 
BRANCH  17  18
ATOM     18  C   UNL     1       0.623  10.506  87.508  1.00  0.00    -0.000 C 
BRANCH  18  19
ATOM     19  C   UNL     1       2.145  10.344  87.629  1.00  0.00    -0.003 C 
ATOM     20  C   UNL     1       2.510   9.458  88.816  1.00  0.00     0.004 C 
ENDBRANCH  18  19
ENDBRANCH  17  18
ENDBRANCH  16  17
ENDBRANCH  15  16
ENDBRANCH  14  15
ENDBRANCH  13  14
ENDBRANCH   2  13
TORSDOF 15
ENDMDL
MODEL 5
REMARK VINA RESULT:    -4.900      1.265      1.792
REMARK INTER + INTRA:         -10.228
REMARK INTER:                  -9.008
REMARK INTRA:                  -1.220
REMARK UNBOUND:                -1.031
REMARK SMILES CCCCCCCCC=CCCCCCCCC(=O)[O-]
REMARK SMILES IDX 10 1 9 2 11 3 12 4 13 5 14 6 15 7 16 8 17 9 18 10 19 11
REMARK SMILES IDX 20 12 8 13 7 14 6 15 5 16 4 17 3 18 2 19 1 20
REMARK H PARENT
REMARK Flexibility Score: inf
ROOT
ATOM      1  C   UNL     1       4.314  10.755  83.462  1.00  0.00    -0.031 C 
ATOM      2  C   UNL     1       3.014  10.508  83.671  1.00  0.00    -0.031 C 
ENDROOT
BRANCH   1   3
ATOM      3  C   UNL     1       4.987  10.400  82.163  1.00  0.00     0.027 C 
BRANCH   3   4
ATOM      4  C   UNL     1       5.288   8.895  82.043  1.00  0.00     0.004 C 
BRANCH   4   5
ATOM      5  C   UNL     1       6.760   8.561  81.723  1.00  0.00     0.000 C 
BRANCH   5   6
ATOM      6  C   UNL     1       7.233   8.994  80.324  1.00  0.00     0.000 C 
BRANCH   6   7
ATOM      7  C   UNL     1       8.720   8.690  80.076  1.00  0.00     0.000 C 
BRANCH   7   8
ATOM      8  C   UNL     1       8.933   7.654  78.961  1.00  0.00     0.006 C 
BRANCH   8   9
ATOM      9  C   UNL     1       9.945   6.568  79.352  1.00  0.00     0.053 C 
BRANCH   9  10
ATOM     10  C   UNL     1       9.237   5.299  79.710  1.00  0.00     0.041 C 
ATOM     11  O   UNL     1       9.891   4.236  79.885  1.00  0.00    -0.550 OA
ATOM     12  O   UNL     1       7.860   5.301  79.897  1.00  0.00    -0.550 OA
ENDBRANCH   9  10
ENDBRANCH   8   9
ENDBRANCH   7   8
ENDBRANCH   6   7
ENDBRANCH   5   6
ENDBRANCH   4   5
ENDBRANCH   3   4
ENDBRANCH   1   3
BRANCH   2  13
ATOM     13  C   UNL     1       2.368  10.861  84.986  1.00  0.00     0.027 C 
BRANCH  13  14
ATOM     14  C   UNL     1       3.142  10.297  86.186  1.00  0.00     0.004 C 
BRANCH  14  15
ATOM     15  C   UNL     1       2.234  10.083  87.409  1.00  0.00     0.000 C 
BRANCH  15  16
ATOM     16  C   UNL     1       2.241   8.625  87.899  1.00  0.00     0.000 C 
BRANCH  16  17
ATOM     17  C   UNL     1       0.893   7.919  87.668  1.00  0.00    -0.000 C 
BRANCH  17  18
ATOM     18  C   UNL     1       1.018   6.698  86.742  1.00  0.00    -0.000 C 
BRANCH  18  19
ATOM     19  C   UNL     1       1.634   7.054  85.381  1.00  0.00    -0.003 C 
ATOM     20  C   UNL     1       2.994   6.386  85.202  1.00  0.00     0.004 C 
ENDBRANCH  18  19
ENDBRANCH  17  18
ENDBRANCH  16  17
ENDBRANCH  15  16
ENDBRANCH  14  15
ENDBRANCH  13  14
ENDBRANCH   2  13
TORSDOF 15
ENDMDL
MODEL 6
REMARK VINA RESULT:    -4.812      1.544      2.644
REMARK INTER + INTRA:         -10.062
REMARK INTER:                  -8.932
REMARK INTRA:                  -1.129
REMARK UNBOUND:                -1.031
REMARK SMILES CCCCCCCCC=CCCCCCCCC(=O)[O-]
REMARK SMILES IDX 10 1 9 2 11 3 12 4 13 5 14 6 15 7 16 8 17 9 18 10 19 11
REMARK SMILES IDX 20 12 8 13 7 14 6 15 5 16 4 17 3 18 2 19 1 20
REMARK H PARENT
REMARK Flexibility Score: inf
ROOT
ATOM      1  C   UNL     1       1.960   8.862  84.338  1.00  0.00    -0.031 C 
ATOM      2  C   UNL     1       2.657   7.869  84.907  1.00  0.00    -0.031 C 
ENDROOT
BRANCH   1   3
ATOM      3  C   UNL     1       2.604   9.837  83.390  1.00  0.00     0.027 C 
BRANCH   3   4
ATOM      4  C   UNL     1       3.752  10.629  84.041  1.00  0.00     0.004 C 
BRANCH   4   5
ATOM      5  C   UNL     1       4.925  10.954  83.092  1.00  0.00     0.000 C 
BRANCH   5   6
ATOM      6  C   UNL     1       4.996  10.078  81.829  1.00  0.00     0.000 C 
BRANCH   6   7
ATOM      7  C   UNL     1       5.794   8.781  82.046  1.00  0.00     0.000 C 
BRANCH   7   8
ATOM      8  C   UNL     1       6.922   8.602  81.018  1.00  0.00     0.006 C 
BRANCH   8   9
ATOM      9  C   UNL     1       6.804   7.285  80.238  1.00  0.00     0.053 C 
BRANCH   9  10
ATOM     10  C   UNL     1       8.138   6.880  79.693  1.00  0.00     0.041 C 
ATOM     11  O   UNL     1       8.458   5.663  79.640  1.00  0.00    -0.550 OA
ATOM     12  O   UNL     1       9.007   7.845  79.199  1.00  0.00    -0.550 OA
ENDBRANCH   9  10
ENDBRANCH   8   9
ENDBRANCH   7   8
ENDBRANCH   6   7
ENDBRANCH   5   6
ENDBRANCH   4   5
ENDBRANCH   3   4
ENDBRANCH   1   3
BRANCH   2  13
ATOM     13  C   UNL     1       1.991   6.915  85.865  1.00  0.00     0.027 C 
BRANCH  13  14
ATOM     14  C   UNL     1       1.226   7.645  86.977  1.00  0.00     0.004 C 
BRANCH  14  15
ATOM     15  C   UNL     1       0.287   6.701  87.748  1.00  0.00     0.000 C 
BRANCH  15  16
ATOM     16  C   UNL     1       0.062   5.368  87.015  1.00  0.00     0.000 C 
BRANCH  16  17
ATOM     17  C   UNL     1      -0.154   4.191  87.983  1.00  0.00    -0.000 C 
BRANCH  17  18
ATOM     18  C   UNL     1       1.170   3.590  88.483  1.00  0.00    -0.000 C 
BRANCH  18  19
ATOM     19  C   UNL     1       2.242   3.535  87.385  1.00  0.00    -0.003 C 
ATOM     20  C   UNL     1       3.072   2.259  87.492  1.00  0.00     0.004 C 
ENDBRANCH  18  19
ENDBRANCH  17  18
ENDBRANCH  16  17
ENDBRANCH  15  16
ENDBRANCH  14  15
ENDBRANCH  13  14
ENDBRANCH   2  13
TORSDOF 15
ENDMDL
MODEL 7
REMARK VINA RESULT:    -4.759      1.633      2.890
REMARK INTER + INTRA:          -9.963
REMARK INTER:                  -8.641
REMARK INTRA:                  -1.323
REMARK UNBOUND:                -1.031
REMARK SMILES CCCCCCCCC=CCCCCCCCC(=O)[O-]
REMARK SMILES IDX 10 1 9 2 11 3 12 4 13 5 14 6 15 7 16 8 17 9 18 10 19 11
REMARK SMILES IDX 20 12 8 13 7 14 6 15 5 16 4 17 3 18 2 19 1 20
REMARK H PARENT
REMARK Flexibility Score: inf
ROOT
ATOM      1  C   UNL     1       3.740  11.752  81.836  1.00  0.00    -0.031 C 
ATOM      2  C   UNL     1       2.580  11.125  81.594  1.00  0.00    -0.031 C 
ENDROOT
BRANCH   1   3
ATOM      3  C   UNL     1       5.023  10.990  82.035  1.00  0.00     0.027 C 
BRANCH   3   4
ATOM      4  C   UNL     1       4.787   9.504  82.358  1.00  0.00     0.004 C 
BRANCH   4   5
ATOM      5  C   UNL     1       5.621   8.523  81.506  1.00  0.00     0.000 C 
BRANCH   5   6
ATOM      6  C   UNL     1       7.139   8.767  81.541  1.00  0.00     0.000 C 
BRANCH   6   7
ATOM      7  C   UNL     1       7.738   9.006  80.144  1.00  0.00     0.000 C 
BRANCH   7   8
ATOM      8  C   UNL     1       7.565   7.796  79.213  1.00  0.00     0.006 C 
BRANCH   8   9
ATOM      9  C   UNL     1       8.842   6.951  79.102  1.00  0.00     0.053 C 
BRANCH   9  10
ATOM     10  C   UNL     1       8.606   5.576  79.643  1.00  0.00     0.041 C 
ATOM     11  O   UNL     1       7.441   5.208  79.953  1.00  0.00    -0.550 OA
ATOM     12  O   UNL     1       9.666   4.686  79.762  1.00  0.00    -0.550 OA
ENDBRANCH   9  10
ENDBRANCH   8   9
ENDBRANCH   7   8
ENDBRANCH   6   7
ENDBRANCH   5   6
ENDBRANCH   4   5
ENDBRANCH   3   4
ENDBRANCH   1   3
BRANCH   2  13
ATOM     13  C   UNL     1       1.307  11.911  81.412  1.00  0.00     0.027 C 
BRANCH  13  14
ATOM     14  C   UNL     1       0.107  11.245  82.100  1.00  0.00     0.004 C 
BRANCH  14  15
ATOM     15  C   UNL     1       0.366   9.758  82.402  1.00  0.00     0.000 C 
BRANCH  15  16
ATOM     16  C   UNL     1       0.366   9.456  83.910  1.00  0.00     0.000 C 
BRANCH  16  17
ATOM     17  C   UNL     1       1.757   9.052  84.430  1.00  0.00    -0.000 C 
BRANCH  17  18
ATOM     18  C   UNL     1       1.689   7.932  85.482  1.00  0.00    -0.000 C 
BRANCH  18  19
ATOM     19  C   UNL     1       2.860   6.944  85.365  1.00  0.00    -0.003 C 
ATOM     20  C   UNL     1       2.395   5.511  85.607  1.00  0.00     0.004 C 
ENDBRANCH  18  19
ENDBRANCH  17  18
ENDBRANCH  16  17
ENDBRANCH  15  16
ENDBRANCH  14  15
ENDBRANCH  13  14
ENDBRANCH   2  13
TORSDOF 15
ENDMDL
MODEL 8
REMARK VINA RESULT:    -4.726      2.987      7.822
REMARK INTER + INTRA:          -9.901
REMARK INTER:                  -8.645
REMARK INTRA:                  -1.256
REMARK UNBOUND:                -1.031
REMARK SMILES CCCCCCCCC=CCCCCCCCC(=O)[O-]
REMARK SMILES IDX 10 1 9 2 11 3 12 4 13 5 14 6 15 7 16 8 17 9 18 10 19 11
REMARK SMILES IDX 20 12 8 13 7 14 6 15 5 16 4 17 3 18 2 19 1 20
REMARK H PARENT
REMARK Flexibility Score: inf
ROOT
ATOM      1  C   UNL     1       4.909  10.923  82.300  1.00  0.00    -0.031 C 
ATOM      2  C   UNL     1       4.735   9.596  82.229  1.00  0.00    -0.031 C 
ENDROOT
BRANCH   1   3
ATOM      3  C   UNL     1       3.769  11.854  82.613  1.00  0.00     0.027 C 
BRANCH   3   4
ATOM      4  C   UNL     1       2.393  11.178  82.469  1.00  0.00     0.004 C 
BRANCH   4   5
ATOM      5  C   UNL     1       1.731  10.784  83.806  1.00  0.00     0.000 C 
BRANCH   5   6
ATOM      6  C   UNL     1       2.566  11.099  85.059  1.00  0.00     0.000 C 
BRANCH   6   7
ATOM      7  C   UNL     1       2.916   9.842  85.875  1.00  0.00     0.000 C 
BRANCH   7   8
ATOM      8  C   UNL     1       2.144   8.600  85.405  1.00  0.00     0.006 C 
BRANCH   8   9
ATOM      9  C   UNL     1       2.376   7.385  86.314  1.00  0.00     0.053 C 
BRANCH   9  10
ATOM     10  C   UNL     1       1.840   6.143  85.672  1.00  0.00     0.041 C 
ATOM     11  O   UNL     1       0.660   6.118  85.229  1.00  0.00    -0.550 OA
ATOM     12  O   UNL     1       2.658   5.031  85.521  1.00  0.00    -0.550 OA
ENDBRANCH   9  10
ENDBRANCH   8   9
ENDBRANCH   7   8
ENDBRANCH   6   7
ENDBRANCH   5   6
ENDBRANCH   4   5
ENDBRANCH   3   4
ENDBRANCH   1   3
BRANCH   2  13
ATOM     13  C   UNL     1       5.890   8.687  81.900  1.00  0.00     0.027 C 
BRANCH  13  14
ATOM     14  C   UNL     1       6.697   9.183  80.692  1.00  0.00     0.004 C 
BRANCH  14  15
ATOM     15  C   UNL     1       8.117   8.592  80.664  1.00  0.00     0.000 C 
BRANCH  15  16
ATOM     16  C   UNL     1       8.553   8.178  79.248  1.00  0.00     0.000 C 
BRANCH  16  17
ATOM     17  C   UNL     1       9.147   6.759  79.205  1.00  0.00    -0.000 C 
BRANCH  17  18
ATOM     18  C   UNL     1       8.170   5.696  79.734  1.00  0.00    -0.000 C 
BRANCH  18  19
ATOM     19  C   UNL     1       8.874   4.380  80.098  1.00  0.00    -0.003 C 
ATOM     20  C   UNL     1      10.381   4.488  79.889  1.00  0.00     0.004 C 
ENDBRANCH  18  19
ENDBRANCH  17  18
ENDBRANCH  16  17
ENDBRANCH  15  16
ENDBRANCH  14  15
ENDBRANCH  13  14
ENDBRANCH   2  13
TORSDOF 15
ENDMDL
MODEL 9
REMARK VINA RESULT:    -4.670      3.069      7.824
REMARK INTER + INTRA:          -9.795
REMARK INTER:                  -8.481
REMARK INTRA:                  -1.313
REMARK UNBOUND:                -1.031
REMARK SMILES CCCCCCCCC=CCCCCCCCC(=O)[O-]
REMARK SMILES IDX 10 1 9 2 11 3 12 4 13 5 14 6 15 7 16 8 17 9 18 10 19 11
REMARK SMILES IDX 20 12 8 13 7 14 6 15 5 16 4 17 3 18 2 19 1 20
REMARK H PARENT
REMARK Flexibility Score: inf
ROOT
ATOM      1  C   UNL     1       2.751  11.616  81.730  1.00  0.00    -0.031 C 
ATOM      2  C   UNL     1       3.593  10.827  82.412  1.00  0.00    -0.031 C 
ENDROOT
BRANCH   1   3
ATOM      3  C   UNL     1       1.376  11.939  82.247  1.00  0.00     0.027 C 
BRANCH   3   4
ATOM      4  C   UNL     1       0.328  10.883  81.850  1.00  0.00     0.004 C 
BRANCH   4   5
ATOM      5  C   UNL     1       0.089   9.788  82.910  1.00  0.00     0.000 C 
BRANCH   5   6
ATOM      6  C   UNL     1       0.039  10.293  84.362  1.00  0.00     0.000 C 
BRANCH   6   7
ATOM      7  C   UNL     1       1.218   9.787  85.211  1.00  0.00     0.000 C 
BRANCH   7   8
ATOM      8  C   UNL     1       1.754   8.431  84.728  1.00  0.00     0.006 C 
BRANCH   8   9
ATOM      9  C   UNL     1       1.015   7.245  85.363  1.00  0.00     0.053 C 
BRANCH   9  10
ATOM     10  C   UNL     1       1.972   6.137  85.671  1.00  0.00     0.041 C 
ATOM     11  O   UNL     1       3.094   6.091  85.098  1.00  0.00    -0.550 OA
ATOM     12  O   UNL     1       1.645   5.181  86.624  1.00  0.00    -0.550 OA
ENDBRANCH   9  10
ENDBRANCH   8   9
ENDBRANCH   7   8
ENDBRANCH   6   7
ENDBRANCH   5   6
ENDBRANCH   4   5
ENDBRANCH   3   4
ENDBRANCH   1   3
BRANCH   2  13
ATOM     13  C   UNL     1       4.959  10.508  81.865  1.00  0.00     0.027 C 
BRANCH  13  14
ATOM     14  C   UNL     1       5.415   9.087  82.226  1.00  0.00     0.004 C 
BRANCH  14  15
ATOM     15  C   UNL     1       6.722   8.701  81.511  1.00  0.00     0.000 C 
BRANCH  15  16
ATOM     16  C   UNL     1       6.529   7.541  80.520  1.00  0.00     0.000 C 
BRANCH  16  17
ATOM     17  C   UNL     1       7.450   7.654  79.292  1.00  0.00    -0.000 C 
BRANCH  17  18
ATOM     18  C   UNL     1       8.706   6.776  79.415  1.00  0.00    -0.000 C 
BRANCH  18  19
ATOM     19  C   UNL     1      10.000   7.560  79.156  1.00  0.00    -0.003 C 
ATOM     20  C   UNL     1       9.990   8.896  79.894  1.00  0.00     0.004 C 
ENDBRANCH  18  19
ENDBRANCH  17  18
ENDBRANCH  16  17
ENDBRANCH  15  16
ENDBRANCH  14  15
ENDBRANCH  13  14
ENDBRANCH   2  13
TORSDOF 15
ENDMDL
