MODEL 1
REMARK VINA RESULT:    -7.299      0.000      0.000
REMARK INTER + INTRA:          -9.126
REMARK INTER:                  -8.792
REMARK INTRA:                  -0.334
REMARK UNBOUND:                -0.334
REMARK SMILES O=c1c(O)c(-c2ccc(O)c(O)c2)oc2cc(O)cc(O)c12
REMARK SMILES IDX 5 1 3 2 2 3 1 4 22 5 20 6 19 7 17 8 16 9 15 10 14 11 6 12
REMARK SMILES IDX 7 13 8 14 9 15 13 16 11 17 10 18 12 20 4 22 21 24 18 26
REMARK H PARENT 10 19 12 21 4 23 21 25 18 27
REMARK Flexibility Score: inf
ROOT
ATOM      1  C   UNL     1       6.807  21.378  32.161  1.00  0.00     0.180 A 
ATOM      2  C   UNL     1       6.604  22.416  33.086  1.00  0.00     0.208 A 
ATOM      3  C   UNL     1       6.254  22.092  34.408  1.00  0.00     0.238 A 
ATOM      4  O   UNL     1       6.127  23.023  35.245  1.00  0.00    -0.285 OA
ATOM      5  C   UNL     1       6.097  20.736  34.782  1.00  0.00     0.111 A 
ATOM      6  C   UNL     1       5.706  20.293  36.082  1.00  0.00     0.134 A 
ATOM      7  C   UNL     1       5.709  18.925  36.376  1.00  0.00     0.093 A 
ATOM      8  C   UNL     1       6.025  17.978  35.397  1.00  0.00     0.123 A 
ATOM      9  C   UNL     1       6.350  18.397  34.110  1.00  0.00     0.094 A 
ATOM     10  C   UNL     1       6.391  19.758  33.796  1.00  0.00     0.146 A 
ATOM     11  O   UNL     1       6.716  20.114  32.559  1.00  0.00    -0.452 OA
ENDROOT
BRANCH   1  12
ATOM     12  C   UNL     1       7.152  21.642  30.746  1.00  0.00     0.025 A 
ATOM     13  C   UNL     1       8.500  21.656  30.354  1.00  0.00     0.016 A 
ATOM     14  C   UNL     1       8.848  21.881  29.020  1.00  0.00     0.051 A 
ATOM     15  C   UNL     1       7.857  22.082  28.055  1.00  0.00     0.157 A 
ATOM     16  C   UNL     1       6.155  21.823  29.769  1.00  0.00     0.062 A 
ATOM     17  C   UNL     1       6.503  22.048  28.430  1.00  0.00     0.158 A 
BRANCH  15  18
ATOM     18  O   UNL     1       8.234  22.308  26.732  1.00  0.00    -0.504 OA
ATOM     19  H   UNL     1       8.338  23.241  26.354  1.00  0.00     0.293 HD
ENDBRANCH  15  18
BRANCH  17  20
ATOM     20  O   UNL     1       5.509  22.234  27.470  1.00  0.00    -0.504 OA
ATOM     21  H   UNL     1       5.721  22.594  26.547  1.00  0.00     0.293 HD
ENDBRANCH  17  20
ENDBRANCH   1  12
BRANCH   2  22
ATOM     22  O   UNL     1       6.785  23.747  32.701  1.00  0.00    -0.502 OA
ATOM     23  H   UNL     1       6.196  24.497  33.043  1.00  0.00     0.293 HD
ENDBRANCH   2  22
BRANCH   6  24
ATOM     24  O   UNL     1       5.283  21.150  37.103  1.00  0.00    -0.507 OA
ATOM     25  H   UNL     1       4.320  21.363  37.313  1.00  0.00     0.293 HD
ENDBRANCH   6  24
BRANCH   8  26
ATOM     26  O   UNL     1       6.010  16.617  35.694  1.00  0.00    -0.508 OA
ATOM     27  H   UNL     1       6.201  16.277  36.629  1.00  0.00     0.293 HD
ENDBRANCH   8  26
TORSDOF 6
ENDMDL
MODEL 2
REMARK VINA RESULT:    -6.952      2.035      7.093
REMARK INTER + INTRA:          -8.709
REMARK INTER:                  -8.380
REMARK INTRA:                  -0.329
REMARK UNBOUND:                -0.334
REMARK SMILES O=c1c(O)c(-c2ccc(O)c(O)c2)oc2cc(O)cc(O)c12
REMARK SMILES IDX 5 1 3 2 2 3 1 4 22 5 20 6 19 7 17 8 16 9 15 10 14 11 6 12
REMARK SMILES IDX 7 13 8 14 9 15 13 16 11 17 10 18 12 20 4 22 21 24 18 26
REMARK H PARENT 10 19 12 21 4 23 21 25 18 27
REMARK Flexibility Score: inf
ROOT
ATOM      1  C   UNL     1       7.743  20.878  31.311  1.00  0.00     0.180 A 
ATOM      2  C   UNL     1       6.944  21.141  30.185  1.00  0.00     0.208 A 
ATOM      3  C   UNL     1       7.553  21.220  28.921  1.00  0.00     0.238 A 
ATOM      4  O   UNL     1       6.826  21.402  27.911  1.00  0.00    -0.285 OA
ATOM      5  C   UNL     1       8.953  21.051  28.803  1.00  0.00     0.111 A 
ATOM      6  C   UNL     1       9.682  21.150  27.579  1.00  0.00     0.134 A 
ATOM      7  C   UNL     1      11.045  20.835  27.559  1.00  0.00     0.093 A 
ATOM      8  C   UNL     1      11.722  20.489  28.732  1.00  0.00     0.123 A 
ATOM      9  C   UNL     1      11.033  20.447  29.941  1.00  0.00     0.094 A 
ATOM     10  C   UNL     1       9.664  20.721  29.987  1.00  0.00     0.146 A 
ATOM     11  O   UNL     1       9.044  20.660  31.159  1.00  0.00    -0.452 OA
ENDROOT
BRANCH   1  12
ATOM     12  C   UNL     1       7.177  20.806  32.677  1.00  0.00     0.025 A 
ATOM     13  C   UNL     1       6.874  19.553  33.234  1.00  0.00     0.016 A 
ATOM     14  C   UNL     1       6.359  19.460  34.530  1.00  0.00     0.051 A 
ATOM     15  C   UNL     1       6.152  20.612  35.293  1.00  0.00     0.157 A 
ATOM     16  C   UNL     1       6.989  21.962  33.456  1.00  0.00     0.062 A 
ATOM     17  C   UNL     1       6.473  21.870  34.756  1.00  0.00     0.158 A 
BRANCH  15  18
ATOM     18  O   UNL     1       5.635  20.488  36.582  1.00  0.00    -0.504 OA
ATOM     19  H   UNL     1       4.894  19.835  36.805  1.00  0.00     0.293 HD
ENDBRANCH  15  18
BRANCH  17  20
ATOM     20  O   UNL     1       6.283  23.022  35.517  1.00  0.00    -0.504 OA
ATOM     21  H   UNL     1       7.063  23.592  35.825  1.00  0.00     0.293 HD
ENDBRANCH  17  20
ENDBRANCH   1  12
BRANCH   2  22
ATOM     22  O   UNL     1       5.561  21.284  30.321  1.00  0.00    -0.502 OA
ATOM     23  H   UNL     1       5.116  22.185  30.442  1.00  0.00     0.293 HD
ENDBRANCH   2  22
BRANCH   6  24
ATOM     24  O   UNL     1       9.122  21.576  26.371  1.00  0.00    -0.507 OA
ATOM     25  H   UNL     1       8.132  21.649  26.190  1.00  0.00     0.293 HD
ENDBRANCH   6  24
BRANCH   8  26
ATOM     26  O   UNL     1      13.083  20.192  28.706  1.00  0.00    -0.508 OA
ATOM     27  H   UNL     1      13.753  20.816  28.270  1.00  0.00     0.293 HD
ENDBRANCH   8  26
TORSDOF 6
ENDMDL
MODEL 3
REMARK VINA RESULT:    -6.867      2.620      2.692
REMARK INTER + INTRA:          -8.606
REMARK INTER:                  -8.277
REMARK INTRA:                  -0.329
REMARK UNBOUND:                -0.334
REMARK SMILES O=c1c(O)c(-c2ccc(O)c(O)c2)oc2cc(O)cc(O)c12
REMARK SMILES IDX 5 1 3 2 2 3 1 4 22 5 20 6 19 7 17 8 16 9 15 10 14 11 6 12
REMARK SMILES IDX 7 13 8 14 9 15 13 16 11 17 10 18 12 20 4 22 21 24 18 26
REMARK H PARENT 10 19 12 21 4 23 21 25 18 27
REMARK Flexibility Score: inf
ROOT
ATOM      1  C   UNL     1       5.839  21.778  31.204  1.00  0.00     0.180 A 
ATOM      2  C   UNL     1       6.113  22.636  32.283  1.00  0.00     0.208 A 
ATOM      3  C   UNL     1       5.250  22.633  33.392  1.00  0.00     0.238 A 
ATOM      4  O   UNL     1       5.531  23.364  34.378  1.00  0.00    -0.285 OA
ATOM      5  C   UNL     1       4.117  21.785  33.400  1.00  0.00     0.111 A 
ATOM      6  C   UNL     1       3.154  21.728  34.452  1.00  0.00     0.134 A 
ATOM      7  C   UNL     1       2.145  20.759  34.414  1.00  0.00     0.093 A 
ATOM      8  C   UNL     1       2.025  19.886  33.329  1.00  0.00     0.123 A 
ATOM      9  C   UNL     1       2.924  19.972  32.270  1.00  0.00     0.094 A 
ATOM     10  C   UNL     1       3.964  20.906  32.296  1.00  0.00     0.146 A 
ATOM     11  O   UNL     1       4.805  20.947  31.270  1.00  0.00    -0.452 OA
ENDROOT
BRANCH   1  12
ATOM     12  C   UNL     1       6.688  21.744  29.992  1.00  0.00     0.025 A 
ATOM     13  C   UNL     1       7.761  20.842  29.925  1.00  0.00     0.016 A 
ATOM     14  C   UNL     1       8.562  20.777  28.782  1.00  0.00     0.051 A 
ATOM     15  C   UNL     1       8.295  21.600  27.684  1.00  0.00     0.157 A 
ATOM     16  C   UNL     1       6.408  22.555  28.877  1.00  0.00     0.062 A 
ATOM     17  C   UNL     1       7.210  22.491  27.729  1.00  0.00     0.158 A 
BRANCH  15  18
ATOM     18  O   UNL     1       9.113  21.515  26.558  1.00  0.00    -0.504 OA
ATOM     19  H   UNL     1       8.837  21.003  25.730  1.00  0.00     0.293 HD
ENDBRANCH  15  18
BRANCH  17  20
ATOM     20  O   UNL     1       6.929  23.304  26.633  1.00  0.00    -0.504 OA
ATOM     21  H   UNL     1       6.266  23.025  25.919  1.00  0.00     0.293 HD
ENDBRANCH  17  20
ENDBRANCH   1  12
BRANCH   2  22
ATOM     22  O   UNL     1       7.249  23.450  32.264  1.00  0.00    -0.502 OA
ATOM     23  H   UNL     1       7.268  24.368  32.692  1.00  0.00     0.293 HD
ENDBRANCH   2  22
BRANCH   6  24
ATOM     24  O   UNL     1       3.128  22.613  35.535  1.00  0.00    -0.507 OA
ATOM     25  H   UNL     1       3.839  22.668  36.249  1.00  0.00     0.293 HD
ENDBRANCH   6  24
BRANCH   8  26
ATOM     26  O   UNL     1       1.009  18.934  33.291  1.00  0.00    -0.508 OA
ATOM     27  H   UNL     1       0.408  18.769  34.091  1.00  0.00     0.293 HD
ENDBRANCH   8  26
TORSDOF 6
ENDMDL
MODEL 4
REMARK VINA RESULT:    -6.866     12.877     14.556
REMARK INTER + INTRA:          -8.605
REMARK INTER:                  -8.325
REMARK INTRA:                  -0.280
REMARK UNBOUND:                -0.334
REMARK SMILES O=c1c(O)c(-c2ccc(O)c(O)c2)oc2cc(O)cc(O)c12
REMARK SMILES IDX 5 1 3 2 2 3 1 4 22 5 20 6 19 7 17 8 16 9 15 10 14 11 6 12
REMARK SMILES IDX 7 13 8 14 9 15 13 16 11 17 10 18 12 20 4 22 21 24 18 26
REMARK H PARENT 10 19 12 21 4 23 21 25 18 27
REMARK Flexibility Score: inf
ROOT
ATOM      1  C   UNL     1      15.233  11.545  29.144  1.00  0.00     0.180 A 
ATOM      2  C   UNL     1      15.408  11.292  27.773  1.00  0.00     0.208 A 
ATOM      3  C   UNL     1      16.112  10.142  27.377  1.00  0.00     0.238 A 
ATOM      4  O   UNL     1      16.219   9.893  26.148  1.00  0.00    -0.285 OA
ATOM      5  C   UNL     1      16.645   9.271  28.356  1.00  0.00     0.111 A 
ATOM      6  C   UNL     1      17.409   8.099  28.071  1.00  0.00     0.134 A 
ATOM      7  C   UNL     1      17.775   7.241  29.114  1.00  0.00     0.093 A 
ATOM      8  C   UNL     1      17.461   7.545  30.441  1.00  0.00     0.123 A 
ATOM      9  C   UNL     1      16.767   8.716  30.736  1.00  0.00     0.094 A 
ATOM     10  C   UNL     1      16.357   9.574  29.713  1.00  0.00     0.146 A 
ATOM     11  O   UNL     1      15.689  10.675  30.038  1.00  0.00    -0.452 OA
ENDROOT
BRANCH   1  12
ATOM     12  C   UNL     1      14.526  12.748  29.638  1.00  0.00     0.025 A 
ATOM     13  C   UNL     1      15.176  13.992  29.611  1.00  0.00     0.016 A 
ATOM     14  C   UNL     1      14.520  15.144  30.051  1.00  0.00     0.051 A 
ATOM     15  C   UNL     1      13.202  15.075  30.511  1.00  0.00     0.157 A 
ATOM     16  C   UNL     1      13.192  12.685  30.080  1.00  0.00     0.062 A 
ATOM     17  C   UNL     1      12.531  13.840  30.521  1.00  0.00     0.158 A 
BRANCH  15  18
ATOM     18  O   UNL     1      12.573  16.241  30.947  1.00  0.00    -0.504 OA
ATOM     19  H   UNL     1      12.371  17.010  30.320  1.00  0.00     0.293 HD
ENDBRANCH  15  18
BRANCH  17  20
ATOM     20  O   UNL     1      11.212  13.766  30.965  1.00  0.00    -0.504 OA
ATOM     21  H   UNL     1      10.486  13.335  30.405  1.00  0.00     0.293 HD
ENDBRANCH  17  20
ENDBRANCH   1  12
BRANCH   2  22
ATOM     22  O   UNL     1      14.856  12.154  26.822  1.00  0.00    -0.502 OA
ATOM     23  H   UNL     1      14.176  12.866  27.063  1.00  0.00     0.293 HD
ENDBRANCH   2  22
BRANCH   6  24
ATOM     24  O   UNL     1      17.854   7.751  26.792  1.00  0.00    -0.507 OA
ATOM     25  H   UNL     1      18.692   7.224  26.598  1.00  0.00     0.293 HD
ENDBRANCH   6  24
BRANCH   8  26
ATOM     26  O   UNL     1      17.842   6.693  31.475  1.00  0.00    -0.508 OA
ATOM     27  H   UNL     1      18.725   6.196  31.454  1.00  0.00     0.293 HD
ENDBRANCH   8  26
TORSDOF 6
ENDMDL
MODEL 5
REMARK VINA RESULT:    -6.840      5.777      8.514
REMARK INTER + INTRA:          -8.573
REMARK INTER:                  -8.260
REMARK INTRA:                  -0.314
REMARK UNBOUND:                -0.334
REMARK SMILES O=c1c(O)c(-c2ccc(O)c(O)c2)oc2cc(O)cc(O)c12
REMARK SMILES IDX 5 1 3 2 2 3 1 4 22 5 20 6 19 7 17 8 16 9 15 10 14 11 6 12
REMARK SMILES IDX 7 13 8 14 9 15 13 16 11 17 10 18 12 20 4 22 21 24 18 26
REMARK H PARENT 10 19 12 21 4 23 21 25 18 27
REMARK Flexibility Score: inf
ROOT
ATOM      1  C   UNL     1      11.401  17.869  29.690  1.00  0.00     0.180 A 
ATOM      2  C   UNL     1      10.347  18.302  30.513  1.00  0.00     0.208 A 
ATOM      3  C   UNL     1       9.998  19.663  30.513  1.00  0.00     0.238 A 
ATOM      4  O   UNL     1       9.018  20.035  31.210  1.00  0.00    -0.285 OA
ATOM      5  C   UNL     1      10.717  20.575  29.703  1.00  0.00     0.111 A 
ATOM      6  C   UNL     1      10.476  21.981  29.655  1.00  0.00     0.134 A 
ATOM      7  C   UNL     1      11.161  22.767  28.721  1.00  0.00     0.093 A 
ATOM      8  C   UNL     1      12.126  22.209  27.879  1.00  0.00     0.123 A 
ATOM      9  C   UNL     1      12.411  20.848  27.959  1.00  0.00     0.094 A 
ATOM     10  C   UNL     1      11.718  20.031  28.856  1.00  0.00     0.146 A 
ATOM     11  O   UNL     1      12.014  18.737  28.894  1.00  0.00    -0.452 OA
ENDROOT
BRANCH   1  12
ATOM     12  C   UNL     1      11.842  16.457  29.656  1.00  0.00     0.025 A 
ATOM     13  C   UNL     1      12.880  16.036  30.503  1.00  0.00     0.016 A 
ATOM     14  C   UNL     1      13.298  14.704  30.503  1.00  0.00     0.051 A 
ATOM     15  C   UNL     1      12.679  13.768  29.670  1.00  0.00     0.157 A 
ATOM     16  C   UNL     1      11.206  15.509  28.834  1.00  0.00     0.062 A 
ATOM     17  C   UNL     1      11.623  14.170  28.834  1.00  0.00     0.158 A 
BRANCH  15  18
ATOM     18  O   UNL     1      13.119  12.445  29.689  1.00  0.00    -0.504 OA
ATOM     19  H   UNL     1      12.712  11.733  29.096  1.00  0.00     0.293 HD
ENDBRANCH  15  18
BRANCH  17  20
ATOM     20  O   UNL     1      10.992  13.240  28.011  1.00  0.00    -0.504 OA
ATOM     21  H   UNL     1      11.301  12.276  27.962  1.00  0.00     0.293 HD
ENDBRANCH  17  20
ENDBRANCH   1  12
BRANCH   2  22
ATOM     22  O   UNL     1       9.636  17.382  31.288  1.00  0.00    -0.502 OA
ATOM     23  H   UNL     1       8.655  17.501  31.510  1.00  0.00     0.293 HD
ENDBRANCH   2  22
BRANCH   6  24
ATOM     24  O   UNL     1       9.601  22.652  30.514  1.00  0.00    -0.507 OA
ATOM     25  H   UNL     1       8.639  22.392  30.673  1.00  0.00     0.293 HD
ENDBRANCH   6  24
BRANCH   8  26
ATOM     26  O   UNL     1      12.814  23.002  26.963  1.00  0.00    -0.508 OA
ATOM     27  H   UNL     1      13.033  22.667  26.032  1.00  0.00     0.293 HD
ENDBRANCH   8  26
TORSDOF 6
ENDMDL
MODEL 6
REMARK VINA RESULT:    -6.745      4.057      7.071
REMARK INTER + INTRA:          -8.460
REMARK INTER:                  -8.138
REMARK INTRA:                  -0.322
REMARK UNBOUND:                -0.334
REMARK SMILES O=c1c(O)c(-c2ccc(O)c(O)c2)oc2cc(O)cc(O)c12
REMARK SMILES IDX 5 1 3 2 2 3 1 4 22 5 20 6 19 7 17 8 16 9 15 10 14 11 6 12
REMARK SMILES IDX 7 13 8 14 9 15 13 16 11 17 10 18 12 20 4 22 21 24 18 26
REMARK H PARENT 10 19 12 21 4 23 21 25 18 27
REMARK Flexibility Score: inf
ROOT
ATOM      1  C   UNL     1       9.823  19.664  28.929  1.00  0.00     0.180 A 
ATOM      2  C   UNL     1       9.394  19.851  30.254  1.00  0.00     0.208 A 
ATOM      3  C   UNL     1       8.550  20.934  30.551  1.00  0.00     0.238 A 
ATOM      4  O   UNL     1       8.126  21.064  31.728  1.00  0.00    -0.285 OA
ATOM      5  C   UNL     1       8.160  21.825  29.522  1.00  0.00     0.111 A 
ATOM      6  C   UNL     1       7.342  22.978  29.715  1.00  0.00     0.134 A 
ATOM      7  C   UNL     1       6.912  23.714  28.605  1.00  0.00     0.093 A 
ATOM      8  C   UNL     1       7.325  23.378  27.313  1.00  0.00     0.123 A 
ATOM      9  C   UNL     1       8.172  22.289  27.120  1.00  0.00     0.094 A 
ATOM     10  C   UNL     1       8.588  21.514  28.205  1.00  0.00     0.146 A 
ATOM     11  O   UNL     1       9.388  20.479  27.975  1.00  0.00    -0.452 OA
ENDROOT
BRANCH   1  12
ATOM     12  C   UNL     1      10.732  18.561  28.545  1.00  0.00     0.025 A 
ATOM     13  C   UNL     1      12.121  18.764  28.587  1.00  0.00     0.016 A 
ATOM     14  C   UNL     1      12.998  17.730  28.250  1.00  0.00     0.051 A 
ATOM     15  C   UNL     1      12.505  16.476  27.880  1.00  0.00     0.157 A 
ATOM     16  C   UNL     1      10.238  17.292  28.193  1.00  0.00     0.062 A 
ATOM     17  C   UNL     1      11.118  16.253  27.856  1.00  0.00     0.158 A 
BRANCH  15  18
ATOM     18  O   UNL     1      13.404  15.464  27.546  1.00  0.00    -0.504 OA
ATOM     19  H   UNL     1      13.861  15.427  26.644  1.00  0.00     0.293 HD
ENDBRANCH  15  18
BRANCH  17  20
ATOM     20  O   UNL     1      10.619  15.001  27.501  1.00  0.00    -0.504 OA
ATOM     21  H   UNL     1      11.180  14.330  26.988  1.00  0.00     0.293 HD
ENDBRANCH  17  20
ENDBRANCH   1  12
BRANCH   2  22
ATOM     22  O   UNL     1       9.773  18.947  31.250  1.00  0.00    -0.502 OA
ATOM     23  H   UNL     1       9.100  18.481  31.848  1.00  0.00     0.293 HD
ENDBRANCH   2  22
BRANCH   6  24
ATOM     24  O   UNL     1       6.949  23.455  30.970  1.00  0.00    -0.507 OA
ATOM     25  H   UNL     1       7.489  23.357  31.817  1.00  0.00     0.293 HD
ENDBRANCH   6  24
BRANCH   8  26
ATOM     26  O   UNL     1       6.905  24.125  26.215  1.00  0.00    -0.508 OA
ATOM     27  H   UNL     1       6.695  25.113  26.296  1.00  0.00     0.293 HD
ENDBRANCH   8  26
TORSDOF 6
ENDMDL
MODEL 7
REMARK VINA RESULT:    -6.708     14.868     16.537
REMARK INTER + INTRA:          -8.415
REMARK INTER:                  -8.092
REMARK INTRA:                  -0.323
REMARK UNBOUND:                -0.334
REMARK SMILES O=c1c(O)c(-c2ccc(O)c(O)c2)oc2cc(O)cc(O)c12
REMARK SMILES IDX 5 1 3 2 2 3 1 4 22 5 20 6 19 7 17 8 16 9 15 10 14 11 6 12
REMARK SMILES IDX 7 13 8 14 9 15 13 16 11 17 10 18 12 20 4 22 21 24 18 26
REMARK H PARENT 10 19 12 21 4 23 21 25 18 27
REMARK Flexibility Score: inf
ROOT
ATOM      1  C   UNL     1      16.794  10.461  28.272  1.00  0.00     0.180 A 
ATOM      2  C   UNL     1      16.366   9.791  27.113  1.00  0.00     0.208 A 
ATOM      3  C   UNL     1      17.029   8.617  26.720  1.00  0.00     0.238 A 
ATOM      4  O   UNL     1      16.606   7.992  25.713  1.00  0.00    -0.285 OA
ATOM      5  C   UNL     1      18.121   8.136  27.483  1.00  0.00     0.111 A 
ATOM      6  C   UNL     1      18.891   6.980  27.157  1.00  0.00     0.134 A 
ATOM      7  C   UNL     1      19.865   6.524  28.052  1.00  0.00     0.093 A 
ATOM      8  C   UNL     1      20.143   7.220  29.231  1.00  0.00     0.123 A 
ATOM      9  C   UNL     1      19.438   8.383  29.530  1.00  0.00     0.094 A 
ATOM     10  C   UNL     1      18.434   8.843  28.673  1.00  0.00     0.146 A 
ATOM     11  O   UNL     1      17.779   9.951  29.001  1.00  0.00    -0.452 OA
ENDROOT
BRANCH   1  12
ATOM     12  C   UNL     1      16.162  11.718  28.733  1.00  0.00     0.025 A 
ATOM     13  C   UNL     1      16.630  12.947  28.243  1.00  0.00     0.016 A 
ATOM     14  C   UNL     1      16.033  14.144  28.648  1.00  0.00     0.051 A 
ATOM     15  C   UNL     1      14.954  14.132  29.536  1.00  0.00     0.157 A 
ATOM     16  C   UNL     1      15.061  11.706  29.609  1.00  0.00     0.062 A 
ATOM     17  C   UNL     1      14.461  12.907  30.015  1.00  0.00     0.158 A 
BRANCH  15  18
ATOM     18  O   UNL     1      14.381  15.342  29.924  1.00  0.00    -0.504 OA
ATOM     19  H   UNL     1      13.386  15.440  30.081  1.00  0.00     0.293 HD
ENDBRANCH  15  18
BRANCH  17  20
ATOM     20  O   UNL     1      13.376  12.886  30.890  1.00  0.00    -0.504 OA
ATOM     21  H   UNL     1      12.552  13.454  30.729  1.00  0.00     0.293 HD
ENDBRANCH  17  20
ENDBRANCH   1  12
BRANCH   2  22
ATOM     22  O   UNL     1      15.272  10.271  26.387  1.00  0.00    -0.502 OA
ATOM     23  H   UNL     1      14.800  11.136  26.622  1.00  0.00     0.293 HD
ENDBRANCH   2  22
BRANCH   6  24
ATOM     24  O   UNL     1      18.758   6.265  25.962  1.00  0.00    -0.507 OA
ATOM     25  H   UNL     1      17.955   6.310  25.352  1.00  0.00     0.293 HD
ENDBRANCH   6  24
BRANCH   8  26
ATOM     26  O   UNL     1      21.125   6.767  30.110  1.00  0.00    -0.508 OA
ATOM     27  H   UNL     1      22.111   6.856  29.893  1.00  0.00     0.293 HD
ENDBRANCH   8  26
TORSDOF 6
ENDMDL
MODEL 8
REMARK VINA RESULT:    -6.694     14.253     16.016
REMARK INTER + INTRA:          -8.398
REMARK INTER:                  -8.063
REMARK INTRA:                  -0.335
REMARK UNBOUND:                -0.334
REMARK SMILES O=c1c(O)c(-c2ccc(O)c(O)c2)oc2cc(O)cc(O)c12
REMARK SMILES IDX 5 1 3 2 2 3 1 4 22 5 20 6 19 7 17 8 16 9 15 10 14 11 6 12
REMARK SMILES IDX 7 13 8 14 9 15 13 16 11 17 10 18 12 20 4 22 21 24 18 26
REMARK H PARENT 10 19 12 21 4 23 21 25 18 27
REMARK Flexibility Score: inf
ROOT
ATOM      1  C   UNL     1      16.742   9.714  29.195  1.00  0.00     0.180 A 
ATOM      2  C   UNL     1      15.652   9.313  29.988  1.00  0.00     0.208 A 
ATOM      3  C   UNL     1      14.659  10.254  30.305  1.00  0.00     0.238 A 
ATOM      4  O   UNL     1      13.659   9.876  30.969  1.00  0.00    -0.285 OA
ATOM      5  C   UNL     1      14.775  11.586  29.838  1.00  0.00     0.111 A 
ATOM      6  C   UNL     1      13.849  12.632  30.131  1.00  0.00     0.134 A 
ATOM      7  C   UNL     1      13.995  13.878  29.510  1.00  0.00     0.093 A 
ATOM      8  C   UNL     1      15.071  14.136  28.657  1.00  0.00     0.123 A 
ATOM      9  C   UNL     1      16.013  13.141  28.411  1.00  0.00     0.094 A 
ATOM     10  C   UNL     1      15.874  11.876  28.988  1.00  0.00     0.146 A 
ATOM     11  O   UNL     1      16.790  10.952  28.719  1.00  0.00    -0.452 OA
ENDROOT
BRANCH   1  12
ATOM     12  C   UNL     1      17.840   8.786  28.841  1.00  0.00     0.025 A 
ATOM     13  C   UNL     1      17.784   8.079  27.630  1.00  0.00     0.016 A 
ATOM     14  C   UNL     1      18.819   7.215  27.266  1.00  0.00     0.051 A 
ATOM     15  C   UNL     1      19.931   7.053  28.097  1.00  0.00     0.157 A 
ATOM     16  C   UNL     1      18.970   8.639  29.666  1.00  0.00     0.062 A 
ATOM     17  C   UNL     1      20.011   7.773  29.301  1.00  0.00     0.158 A 
BRANCH  15  18
ATOM     18  O   UNL     1      20.948   6.182  27.709  1.00  0.00    -0.504 OA
ATOM     19  H   UNL     1      21.102   5.295  28.171  1.00  0.00     0.293 HD
ENDBRANCH  15  18
BRANCH  17  20
ATOM     20  O   UNL     1      21.123   7.628  30.128  1.00  0.00    -0.504 OA
ATOM     21  H   UNL     1      21.635   8.430  30.478  1.00  0.00     0.293 HD
ENDBRANCH  17  20
ENDBRANCH   1  12
BRANCH   2  22
ATOM     22  O   UNL     1      15.545   7.989  30.419  1.00  0.00    -0.502 OA
ATOM     23  H   UNL     1      16.216   7.566  31.050  1.00  0.00     0.293 HD
ENDBRANCH   2  22
BRANCH   6  24
ATOM     24  O   UNL     1      12.794  12.507  31.039  1.00  0.00    -0.507 OA
ATOM     25  H   UNL     1      12.903  12.372  32.034  1.00  0.00     0.293 HD
ENDBRANCH   6  24
BRANCH   8  26
ATOM     26  O   UNL     1      15.217  15.384  28.055  1.00  0.00    -0.508 OA
ATOM     27  H   UNL     1      16.011  15.596  27.462  1.00  0.00     0.293 HD
ENDBRANCH   8  26
TORSDOF 6
ENDMDL
MODEL 9
REMARK VINA RESULT:    -6.636      2.823      6.541
REMARK INTER + INTRA:          -8.329
REMARK INTER:                  -8.033
REMARK INTRA:                  -0.296
REMARK UNBOUND:                -0.334
REMARK SMILES O=c1c(O)c(-c2ccc(O)c(O)c2)oc2cc(O)cc(O)c12
REMARK SMILES IDX 5 1 3 2 2 3 1 4 22 5 20 6 19 7 17 8 16 9 15 10 14 11 6 12
REMARK SMILES IDX 7 13 8 14 9 15 13 16 11 17 10 18 12 20 4 22 21 24 18 26
REMARK H PARENT 10 19 12 21 4 23 21 25 18 27
REMARK Flexibility Score: inf
ROOT
ATOM      1  C   UNL     1       7.476  20.570  30.918  1.00  0.00     0.180 A 
ATOM      2  C   UNL     1       7.539  21.163  29.646  1.00  0.00     0.208 A 
ATOM      3  C   UNL     1       8.535  20.746  28.748  1.00  0.00     0.238 A 
ATOM      4  O   UNL     1       8.552  21.242  27.591  1.00  0.00    -0.285 OA
ATOM      5  C   UNL     1       9.464  19.752  29.139  1.00  0.00     0.111 A 
ATOM      6  C   UNL     1      10.539  19.281  28.326  1.00  0.00     0.134 A 
ATOM      7  C   UNL     1      11.316  18.204  28.765  1.00  0.00     0.093 A 
ATOM      8  C   UNL     1      11.101  17.622  30.017  1.00  0.00     0.123 A 
ATOM      9  C   UNL     1      10.093  18.113  30.843  1.00  0.00     0.094 A 
ATOM     10  C   UNL     1       9.277  19.164  30.417  1.00  0.00     0.146 A 
ATOM     11  O   UNL     1       8.321  19.595  31.232  1.00  0.00    -0.452 OA
ENDROOT
BRANCH   1  12
ATOM     12  C   UNL     1       6.471  20.976  31.926  1.00  0.00     0.025 A 
ATOM     13  C   UNL     1       5.172  20.448  31.859  1.00  0.00     0.016 A 
ATOM     14  C   UNL     1       4.214  20.800  32.813  1.00  0.00     0.051 A 
ATOM     15  C   UNL     1       4.540  21.672  33.855  1.00  0.00     0.157 A 
ATOM     16  C   UNL     1       6.804  21.836  32.989  1.00  0.00     0.062 A 
ATOM     17  C   UNL     1       5.843  22.190  33.947  1.00  0.00     0.158 A 
BRANCH  15  18
ATOM     18  O   UNL     1       3.562  22.008  34.790  1.00  0.00    -0.504 OA
ATOM     19  H   UNL     1       3.374  22.968  35.051  1.00  0.00     0.293 HD
ENDBRANCH  15  18
BRANCH  17  20
ATOM     20  O   UNL     1       6.180  23.049  34.992  1.00  0.00    -0.504 OA
ATOM     21  H   UNL     1       5.482  23.616  35.460  1.00  0.00     0.293 HD
ENDBRANCH  17  20
ENDBRANCH   1  12
BRANCH   2  22
ATOM     22  O   UNL     1       6.598  22.127  29.272  1.00  0.00    -0.502 OA
ATOM     23  H   UNL     1       6.805  22.857  28.601  1.00  0.00     0.293 HD
ENDBRANCH   2  22
BRANCH   6  24
ATOM     24  O   UNL     1      10.897  19.851  27.101  1.00  0.00    -0.507 OA
ATOM     25  H   UNL     1      11.624  20.541  26.978  1.00  0.00     0.293 HD
ENDBRANCH   6  24
BRANCH   8  26
ATOM     26  O   UNL     1      11.890  16.560  30.453  1.00  0.00    -0.508 OA
ATOM     27  H   UNL     1      11.478  15.688  30.767  1.00  0.00     0.293 HD
ENDBRANCH   8  26
TORSDOF 6
ENDMDL
