MODEL 1
REMARK VINA RESULT:    -4.886      0.000      0.000
REMARK INTER + INTRA:         -18.539
REMARK INTER:                 -12.883
REMARK INTRA:                  -5.656
REMARK UNBOUND:                -5.656
REMARK SMILES CCCCCCCCCCCCCCCCCCCCCCCCCCCCCC(=O)[O-]
REMARK SMILES IDX 16 1 17 2 18 3 19 4 20 5 21 6 22 7 23 8 24 9 25 10 26 11
REMARK SMILES IDX 27 12 28 13 29 14 30 15 31 16 32 17 15 18 14 19 13 20 12 21
REMARK SMILES IDX 11 22 10 23 9 24 8 25 7 26 6 27 5 28 4 29 3 30 2 31 1 32
REMARK H PARENT
REMARK Flexibility Score: inf
ROOT
ATOM      1  C   UNL     1      21.662  -2.635  20.376  1.00  0.00     0.000 C 
ENDROOT
BRANCH   1   2
ATOM      2  C   UNL     1      23.026  -3.033  19.778  1.00  0.00     0.000 C 
BRANCH   2   3
ATOM      3  C   UNL     1      23.053  -3.184  18.242  1.00  0.00     0.000 C 
BRANCH   3   4
ATOM      4  C   UNL     1      21.697  -3.530  17.594  1.00  0.00     0.000 C 
BRANCH   4   5
ATOM      5  C   UNL     1      21.482  -5.030  17.310  1.00  0.00     0.000 C 
BRANCH   5   6
ATOM      6  C   UNL     1      20.249  -5.646  17.998  1.00  0.00     0.000 C 
BRANCH   6   7
ATOM      7  C   UNL     1      20.565  -6.176  19.407  1.00  0.00     0.000 C 
BRANCH   7   8
ATOM      8  C   UNL     1      19.306  -6.602  20.176  1.00  0.00     0.000 C 
BRANCH   8   9
ATOM      9  C   UNL     1      19.090  -5.767  21.452  1.00  0.00     0.000 C 
BRANCH   9  10
ATOM     10  C   UNL     1      18.383  -4.428  21.178  1.00  0.00     0.000 C 
BRANCH  10  11
ATOM     11  C   UNL     1      17.003  -4.543  20.496  1.00  0.00     0.000 C 
BRANCH  11  12
ATOM     12  C   UNL     1      16.913  -3.826  19.133  1.00  0.00     0.000 C 
BRANCH  12  13
ATOM     13  C   UNL     1      15.953  -4.537  18.161  1.00  0.00     0.006 C 
BRANCH  13  14
ATOM     14  C   UNL     1      15.353  -3.575  17.127  1.00  0.00     0.053 C 
BRANCH  14  15
ATOM     15  C   UNL     1      15.626  -4.023  15.722  1.00  0.00     0.041 C 
ATOM     16  O   UNL     1      15.330  -3.281  14.747  1.00  0.00    -0.550 OA
ATOM     17  O   UNL     1      16.195  -5.269  15.489  1.00  0.00    -0.550 OA
ENDBRANCH  14  15
ENDBRANCH  13  14
ENDBRANCH  12  13
ENDBRANCH  11  12
ENDBRANCH  10  11
ENDBRANCH   9  10
ENDBRANCH   8   9
ENDBRANCH   7   8
ENDBRANCH   6   7
ENDBRANCH   5   6
ENDBRANCH   4   5
ENDBRANCH   3   4
ENDBRANCH   2   3
ENDBRANCH   1   2
BRANCH   1  18
ATOM     18  C   UNL     1      21.653  -2.644  21.913  1.00  0.00     0.000 C 
BRANCH  18  19
ATOM     19  C   UNL     1      22.134  -3.980  22.503  1.00  0.00     0.000 C 
BRANCH  19  20
ATOM     20  C   UNL     1      21.464  -4.348  23.844  1.00  0.00     0.000 C 
BRANCH  20  21
ATOM     21  C   UNL     1      20.235  -3.468  24.137  1.00  0.00     0.000 C 
BRANCH  21  22
ATOM     22  C   UNL     1      19.116  -4.241  24.854  1.00  0.00     0.000 C 
BRANCH  22  23
ATOM     23  C   UNL     1      17.927  -3.343  25.238  1.00  0.00     0.000 C 
BRANCH  23  24
ATOM     24  C   UNL     1      16.605  -3.829  24.624  1.00  0.00    -0.000 C 
BRANCH  24  25
ATOM     25  C   UNL     1      15.995  -2.799  23.655  1.00  0.00    -0.000 C 
BRANCH  25  26
ATOM     26  C   UNL     1      16.665  -1.419  23.760  1.00  0.00    -0.000 C 
BRANCH  26  27
ATOM     27  C   UNL     1      16.978  -0.809  22.386  1.00  0.00    -0.000 C 
BRANCH  27  28
ATOM     28  C   UNL     1      18.444  -1.055  22.000  1.00  0.00    -0.000 C 
BRANCH  28  29
ATOM     29  C   UNL     1      19.200   0.259  21.705  1.00  0.00    -0.000 C 
BRANCH  29  30
ATOM     30  C   UNL     1      18.922   0.827  20.299  1.00  0.00    -0.000 C 
BRANCH  30  31
ATOM     31  C   UNL     1      18.651  -0.239  19.223  1.00  0.00    -0.003 C 
ATOM     32  C   UNL     1      17.237  -0.154  18.648  1.00  0.00     0.004 C 
ENDBRANCH  30  31
ENDBRANCH  29  30
ENDBRANCH  28  29
ENDBRANCH  27  28
ENDBRANCH  26  27
ENDBRANCH  25  26
ENDBRANCH  24  25
ENDBRANCH  23  24
ENDBRANCH  22  23
ENDBRANCH  21  22
ENDBRANCH  20  21
ENDBRANCH  19  20
ENDBRANCH  18  19
ENDBRANCH   1  18
TORSDOF 28
ENDMDL
MODEL 2
REMARK VINA RESULT:    -4.824     11.469     15.342
REMARK INTER + INTRA:         -18.378
REMARK INTER:                 -11.924
REMARK INTRA:                  -6.454
REMARK UNBOUND:                -5.656
REMARK SMILES CCCCCCCCCCCCCCCCCCCCCCCCCCCCCC(=O)[O-]
REMARK SMILES IDX 16 1 17 2 18 3 19 4 20 5 21 6 22 7 23 8 24 9 25 10 26 11
REMARK SMILES IDX 27 12 28 13 29 14 30 15 31 16 32 17 15 18 14 19 13 20 12 21
REMARK SMILES IDX 11 22 10 23 9 24 8 25 7 26 6 27 5 28 4 29 3 30 2 31 1 32
REMARK H PARENT
REMARK Flexibility Score: inf
ROOT
ATOM      1  C   UNL     1       8.403   3.217  11.402  1.00  0.00     0.000 C 
ENDROOT
BRANCH   1   2
ATOM      2  C   UNL     1       8.108   4.259  12.500  1.00  0.00     0.000 C 
BRANCH   2   3
ATOM      3  C   UNL     1       8.710   3.945  13.885  1.00  0.00     0.000 C 
BRANCH   3   4
ATOM      4  C   UNL     1       7.783   3.164  14.840  1.00  0.00     0.000 C 
BRANCH   4   5
ATOM      5  C   UNL     1       8.327   1.792  15.287  1.00  0.00     0.000 C 
BRANCH   5   6
ATOM      6  C   UNL     1       8.343   0.715  14.187  1.00  0.00     0.000 C 
BRANCH   6   7
ATOM      7  C   UNL     1       9.371  -0.394  14.466  1.00  0.00     0.000 C 
BRANCH   7   8
ATOM      8  C   UNL     1       8.723  -1.778  14.622  1.00  0.00     0.000 C 
BRANCH   8   9
ATOM      9  C   UNL     1       7.887  -1.890  15.910  1.00  0.00     0.000 C 
BRANCH   9  10
ATOM     10  C   UNL     1       8.744  -2.172  17.157  1.00  0.00     0.000 C 
BRANCH  10  11
ATOM     11  C   UNL     1       8.661  -1.102  18.266  1.00  0.00     0.000 C 
BRANCH  11  12
ATOM     12  C   UNL     1       7.380  -0.244  18.219  1.00  0.00     0.000 C 
BRANCH  12  13
ATOM     13  C   UNL     1       7.618   1.190  18.729  1.00  0.00     0.006 C 
BRANCH  13  14
ATOM     14  C   UNL     1       6.417   2.108  18.469  1.00  0.00     0.053 C 
BRANCH  14  15
ATOM     15  C   UNL     1       6.820   3.552  18.402  1.00  0.00     0.041 C 
ATOM     16  O   UNL     1       6.052   4.405  17.882  1.00  0.00    -0.550 OA
ATOM     17  O   UNL     1       8.053   3.951  18.903  1.00  0.00    -0.550 OA
ENDBRANCH  14  15
ENDBRANCH  13  14
ENDBRANCH  12  13
ENDBRANCH  11  12
ENDBRANCH  10  11
ENDBRANCH   9  10
ENDBRANCH   8   9
ENDBRANCH   7   8
ENDBRANCH   6   7
ENDBRANCH   5   6
ENDBRANCH   4   5
ENDBRANCH   3   4
ENDBRANCH   2   3
ENDBRANCH   1   2
BRANCH   1  18
ATOM     18  C   UNL     1       7.174   2.373  11.027  1.00  0.00     0.000 C 
BRANCH  18  19
ATOM     19  C   UNL     1       5.854   3.001  11.501  1.00  0.00     0.000 C 
BRANCH  19  20
ATOM     20  C   UNL     1       5.141   2.196  12.609  1.00  0.00     0.000 C 
BRANCH  20  21
ATOM     21  C   UNL     1       3.642   2.535  12.698  1.00  0.00     0.000 C 
BRANCH  21  22
ATOM     22  C   UNL     1       3.051   2.226  14.082  1.00  0.00     0.000 C 
BRANCH  22  23
ATOM     23  C   UNL     1       4.129   2.087  15.171  1.00  0.00     0.000 C 
BRANCH  23  24
ATOM     24  C   UNL     1       4.006   0.769  15.951  1.00  0.00    -0.000 C 
BRANCH  24  25
ATOM     25  C   UNL     1       4.734  -0.396  15.253  1.00  0.00    -0.000 C 
BRANCH  25  26
ATOM     26  C   UNL     1       3.772  -1.325  14.496  1.00  0.00    -0.000 C 
BRANCH  26  27
ATOM     27  C   UNL     1       4.130  -1.460  13.009  1.00  0.00    -0.000 C 
BRANCH  27  28
ATOM     28  C   UNL     1       5.640  -1.284  12.791  1.00  0.00    -0.000 C 
BRANCH  28  29
ATOM     29  C   UNL     1       6.009  -1.196  11.294  1.00  0.00    -0.000 C 
BRANCH  29  30
ATOM     30  C   UNL     1       6.686  -2.470  10.750  1.00  0.00    -0.000 C 
BRANCH  30  31
ATOM     31  C   UNL     1       8.214  -2.501  10.918  1.00  0.00    -0.003 C 
ATOM     32  C   UNL     1       8.855  -1.122  10.762  1.00  0.00     0.004 C 
ENDBRANCH  30  31
ENDBRANCH  29  30
ENDBRANCH  28  29
ENDBRANCH  27  28
ENDBRANCH  26  27
ENDBRANCH  25  26
ENDBRANCH  24  25
ENDBRANCH  23  24
ENDBRANCH  22  23
ENDBRANCH  21  22
ENDBRANCH  20  21
ENDBRANCH  19  20
ENDBRANCH  18  19
ENDBRANCH   1  18
TORSDOF 28
ENDMDL
MODEL 3
REMARK VINA RESULT:    -4.771      3.818      6.677
REMARK INTER + INTRA:         -18.236
REMARK INTER:                 -12.296
REMARK INTRA:                  -5.940
REMARK UNBOUND:                -5.656
REMARK SMILES CCCCCCCCCCCCCCCCCCCCCCCCCCCCCC(=O)[O-]
REMARK SMILES IDX 16 1 17 2 18 3 19 4 20 5 21 6 22 7 23 8 24 9 25 10 26 11
REMARK SMILES IDX 27 12 28 13 29 14 30 15 31 16 32 17 15 18 14 19 13 20 12 21
REMARK SMILES IDX 11 22 10 23 9 24 8 25 7 26 6 27 5 28 4 29 3 30 2 31 1 32
REMARK H PARENT
REMARK Flexibility Score: inf
ROOT
ATOM      1  C   UNL     1      21.084   1.706  24.087  1.00  0.00     0.000 C 
ENDROOT
BRANCH   1   2
ATOM      2  C   UNL     1      21.239   0.253  24.580  1.00  0.00     0.000 C 
BRANCH   2   3
ATOM      3  C   UNL     1      20.641  -0.825  23.652  1.00  0.00     0.000 C 
BRANCH   3   4
ATOM      4  C   UNL     1      19.124  -0.704  23.402  1.00  0.00     0.000 C 
BRANCH   4   5
ATOM      5  C   UNL     1      18.262  -0.651  24.679  1.00  0.00     0.000 C 
BRANCH   5   6
ATOM      6  C   UNL     1      16.780  -1.020  24.473  1.00  0.00     0.000 C 
BRANCH   6   7
ATOM      7  C   UNL     1      16.428  -1.230  22.992  1.00  0.00     0.000 C 
BRANCH   7   8
ATOM      8  C   UNL     1      15.753  -2.584  22.729  1.00  0.00     0.000 C 
BRANCH   8   9
ATOM      9  C   UNL     1      16.717  -3.605  22.099  1.00  0.00     0.000 C 
BRANCH   9  10
ATOM     10  C   UNL     1      17.648  -4.266  23.130  1.00  0.00     0.000 C 
BRANCH  10  11
ATOM     11  C   UNL     1      19.020  -4.714  22.584  1.00  0.00     0.000 C 
BRANCH  11  12
ATOM     12  C   UNL     1      19.544  -3.855  21.415  1.00  0.00     0.000 C 
BRANCH  12  13
ATOM     13  C   UNL     1      21.078  -3.719  21.432  1.00  0.00     0.006 C 
BRANCH  13  14
ATOM     14  C   UNL     1      21.577  -2.631  20.472  1.00  0.00     0.053 C 
BRANCH  14  15
ATOM     15  C   UNL     1      21.359  -3.008  19.037  1.00  0.00     0.041 C 
ATOM     16  O   UNL     1      20.815  -2.197  18.240  1.00  0.00    -0.550 OA
ATOM     17  O   UNL     1      21.744  -4.264  18.583  1.00  0.00    -0.550 OA
ENDBRANCH  14  15
ENDBRANCH  13  14
ENDBRANCH  12  13
ENDBRANCH  11  12
ENDBRANCH  10  11
ENDBRANCH   9  10
ENDBRANCH   8   9
ENDBRANCH   7   8
ENDBRANCH   6   7
ENDBRANCH   5   6
ENDBRANCH   4   5
ENDBRANCH   3   4
ENDBRANCH   2   3
ENDBRANCH   1   2
BRANCH   1  18
ATOM     18  C   UNL     1      20.873   2.710  25.231  1.00  0.00     0.000 C 
BRANCH  18  19
ATOM     19  C   UNL     1      20.912   4.171  24.755  1.00  0.00     0.000 C 
BRANCH  19  20
ATOM     20  C   UNL     1      21.219   4.330  23.251  1.00  0.00     0.000 C 
BRANCH  20  21
ATOM     21  C   UNL     1      21.140   5.799  22.796  1.00  0.00     0.000 C 
BRANCH  21  22
ATOM     22  C   UNL     1      20.131   6.616  23.619  1.00  0.00     0.000 C 
BRANCH  22  23
ATOM     23  C   UNL     1      18.936   7.102  22.780  1.00  0.00     0.000 C 
BRANCH  23  24
ATOM     24  C   UNL     1      17.804   6.065  22.718  1.00  0.00    -0.000 C 
BRANCH  24  25
ATOM     25  C   UNL     1      17.335   5.625  24.117  1.00  0.00    -0.000 C 
BRANCH  25  26
ATOM     26  C   UNL     1      16.552   4.302  24.090  1.00  0.00    -0.000 C 
BRANCH  26  27
ATOM     27  C   UNL     1      17.468   3.077  23.953  1.00  0.00    -0.000 C 
BRANCH  27  28
ATOM     28  C   UNL     1      17.214   2.348  22.626  1.00  0.00    -0.000 C 
BRANCH  28  29
ATOM     29  C   UNL     1      18.412   2.460  21.658  1.00  0.00    -0.000 C 
BRANCH  29  30
ATOM     30  C   UNL     1      18.161   1.801  20.288  1.00  0.00    -0.000 C 
BRANCH  30  31
ATOM     31  C   UNL     1      18.991   0.533  20.027  1.00  0.00    -0.003 C 
ATOM     32  C   UNL     1      18.125  -0.702  19.783  1.00  0.00     0.004 C 
ENDBRANCH  30  31
ENDBRANCH  29  30
ENDBRANCH  28  29
ENDBRANCH  27  28
ENDBRANCH  26  27
ENDBRANCH  25  26
ENDBRANCH  24  25
ENDBRANCH  23  24
ENDBRANCH  22  23
ENDBRANCH  21  22
ENDBRANCH  20  21
ENDBRANCH  19  20
ENDBRANCH  18  19
ENDBRANCH   1  18
TORSDOF 28
ENDMDL
MODEL 4
REMARK VINA RESULT:    -4.705      3.386      7.257
REMARK INTER + INTRA:         -18.063
REMARK INTER:                 -11.919
REMARK INTRA:                  -6.143
REMARK UNBOUND:                -5.656
REMARK SMILES CCCCCCCCCCCCCCCCCCCCCCCCCCCCCC(=O)[O-]
REMARK SMILES IDX 16 1 17 2 18 3 19 4 20 5 21 6 22 7 23 8 24 9 25 10 26 11
REMARK SMILES IDX 27 12 28 13 29 14 30 15 31 16 32 17 15 18 14 19 13 20 12 21
REMARK SMILES IDX 11 22 10 23 9 24 8 25 7 26 6 27 5 28 4 29 3 30 2 31 1 32
REMARK H PARENT
REMARK Flexibility Score: inf
ROOT
ATOM      1  C   UNL     1      19.398  -1.233  20.524  1.00  0.00     0.000 C 
ENDROOT
BRANCH   1   2
ATOM      2  C   UNL     1      18.306  -1.996  21.300  1.00  0.00     0.000 C 
BRANCH   2   3
ATOM      3  C   UNL     1      18.462  -1.989  22.836  1.00  0.00     0.000 C 
BRANCH   3   4
ATOM      4  C   UNL     1      18.168  -3.335  23.529  1.00  0.00     0.000 C 
BRANCH   4   5
ATOM      5  C   UNL     1      19.411  -4.206  23.801  1.00  0.00     0.000 C 
BRANCH   5   6
ATOM      6  C   UNL     1      19.721  -5.246  22.707  1.00  0.00     0.000 C 
BRANCH   6   7
ATOM      7  C   UNL     1      20.824  -4.776  21.745  1.00  0.00     0.000 C 
BRANCH   7   8
ATOM      8  C   UNL     1      21.992  -4.091  22.470  1.00  0.00     0.000 C 
BRANCH   8   9
ATOM      9  C   UNL     1      22.570  -2.914  21.665  1.00  0.00     0.000 C 
BRANCH   9  10
ATOM     10  C   UNL     1      22.444  -1.568  22.400  1.00  0.00     0.000 C 
BRANCH  10  11
ATOM     11  C   UNL     1      21.933  -1.659  23.854  1.00  0.00     0.000 C 
BRANCH  11  12
ATOM     12  C   UNL     1      21.545  -0.300  24.472  1.00  0.00     0.000 C 
BRANCH  12  13
ATOM     13  C   UNL     1      20.944   0.664  23.432  1.00  0.00     0.006 C 
BRANCH  13  14
ATOM     14  C   UNL     1      20.694   2.064  24.011  1.00  0.00     0.053 C 
BRANCH  14  15
ATOM     15  C   UNL     1      19.236   2.315  24.255  1.00  0.00     0.041 C 
ATOM     16  O   UNL     1      18.379   1.981  23.394  1.00  0.00    -0.550 OA
ATOM     17  O   UNL     1      18.826   2.933  25.430  1.00  0.00    -0.550 OA
ENDBRANCH  14  15
ENDBRANCH  13  14
ENDBRANCH  12  13
ENDBRANCH  11  12
ENDBRANCH  10  11
ENDBRANCH   9  10
ENDBRANCH   8   9
ENDBRANCH   7   8
ENDBRANCH   6   7
ENDBRANCH   5   6
ENDBRANCH   4   5
ENDBRANCH   3   4
ENDBRANCH   2   3
ENDBRANCH   1   2
BRANCH   1  18
ATOM     18  C   UNL     1      19.455  -1.614  19.036  1.00  0.00     0.000 C 
BRANCH  18  19
ATOM     19  C   UNL     1      20.251  -2.905  18.782  1.00  0.00     0.000 C 
BRANCH  19  20
ATOM     20  C   UNL     1      21.168  -2.840  17.543  1.00  0.00     0.000 C 
BRANCH  20  21
ATOM     21  C   UNL     1      22.651  -3.037  17.908  1.00  0.00     0.000 C 
BRANCH  21  22
ATOM     22  C   UNL     1      23.005  -4.512  18.151  1.00  0.00     0.000 C 
BRANCH  22  23
ATOM     23  C   UNL     1      22.736  -5.397  16.922  1.00  0.00     0.000 C 
BRANCH  23  24
ATOM     24  C   UNL     1      21.813  -6.583  17.245  1.00  0.00    -0.000 C 
BRANCH  24  25
ATOM     25  C   UNL     1      21.573  -6.743  18.758  1.00  0.00    -0.000 C 
BRANCH  25  26
ATOM     26  C   UNL     1      20.186  -7.323  19.079  1.00  0.00    -0.000 C 
BRANCH  26  27
ATOM     27  C   UNL     1      19.077  -6.716  18.208  1.00  0.00    -0.000 C 
BRANCH  27  28
ATOM     28  C   UNL     1      17.758  -6.621  18.988  1.00  0.00    -0.000 C 
BRANCH  28  29
ATOM     29  C   UNL     1      17.651  -5.312  19.800  1.00  0.00    -0.000 C 
BRANCH  29  30
ATOM     30  C   UNL     1      16.344  -4.536  19.548  1.00  0.00    -0.000 C 
BRANCH  30  31
ATOM     31  C   UNL     1      16.380  -3.608  18.322  1.00  0.00    -0.003 C 
ATOM     32  C   UNL     1      15.703  -4.220  17.095  1.00  0.00     0.004 C 
ENDBRANCH  30  31
ENDBRANCH  29  30
ENDBRANCH  28  29
ENDBRANCH  27  28
ENDBRANCH  26  27
ENDBRANCH  25  26
ENDBRANCH  24  25
ENDBRANCH  23  24
ENDBRANCH  22  23
ENDBRANCH  21  22
ENDBRANCH  20  21
ENDBRANCH  19  20
ENDBRANCH  18  19
ENDBRANCH   1  18
TORSDOF 28
ENDMDL
MODEL 5
REMARK VINA RESULT:    -4.704      3.019      6.150
REMARK INTER + INTRA:         -18.060
REMARK INTER:                 -12.432
REMARK INTRA:                  -5.628
REMARK UNBOUND:                -5.656
REMARK SMILES CCCCCCCCCCCCCCCCCCCCCCCCCCCCCC(=O)[O-]
REMARK SMILES IDX 16 1 17 2 18 3 19 4 20 5 21 6 22 7 23 8 24 9 25 10 26 11
REMARK SMILES IDX 27 12 28 13 29 14 30 15 31 16 32 17 15 18 14 19 13 20 12 21
REMARK SMILES IDX 11 22 10 23 9 24 8 25 7 26 6 27 5 28 4 29 3 30 2 31 1 32
REMARK H PARENT
REMARK Flexibility Score: inf
ROOT
ATOM      1  C   UNL     1      17.797  -6.219  18.744  1.00  0.00     0.000 C 
ENDROOT
BRANCH   1   2
ATOM      2  C   UNL     1      16.517  -5.639  19.378  1.00  0.00     0.000 C 
BRANCH   2   3
ATOM      3  C   UNL     1      16.549  -4.122  19.660  1.00  0.00     0.000 C 
BRANCH   3   4
ATOM      4  C   UNL     1      16.698  -3.736  21.145  1.00  0.00     0.000 C 
BRANCH   4   5
ATOM      5  C   UNL     1      18.139  -3.806  21.689  1.00  0.00     0.000 C 
BRANCH   5   6
ATOM      6  C   UNL     1      18.318  -4.705  22.927  1.00  0.00     0.000 C 
BRANCH   6   7
ATOM      7  C   UNL     1      19.774  -5.160  23.117  1.00  0.00     0.000 C 
BRANCH   7   8
ATOM      8  C   UNL     1      20.676  -4.771  21.936  1.00  0.00     0.000 C 
BRANCH   8   9
ATOM      9  C   UNL     1      21.823  -3.836  22.360  1.00  0.00     0.000 C 
BRANCH   9  10
ATOM     10  C   UNL     1      21.612  -2.384  21.897  1.00  0.00     0.000 C 
BRANCH  10  11
ATOM     11  C   UNL     1      22.314  -1.312  22.759  1.00  0.00     0.000 C 
BRANCH  11  12
ATOM     12  C   UNL     1      21.348  -0.325  23.445  1.00  0.00     0.000 C 
BRANCH  12  13
ATOM     13  C   UNL     1      19.890  -0.523  22.992  1.00  0.00     0.006 C 
BRANCH  13  14
ATOM     14  C   UNL     1      19.012  -1.122  24.098  1.00  0.00     0.053 C 
BRANCH  14  15
ATOM     15  C   UNL     1      17.603  -0.611  24.033  1.00  0.00     0.041 C 
ATOM     16  O   UNL     1      16.644  -1.406  23.842  1.00  0.00    -0.550 OA
ATOM     17  O   UNL     1      17.352   0.749  24.168  1.00  0.00    -0.550 OA
ENDBRANCH  14  15
ENDBRANCH  13  14
ENDBRANCH  12  13
ENDBRANCH  11  12
ENDBRANCH  10  11
ENDBRANCH   9  10
ENDBRANCH   8   9
ENDBRANCH   7   8
ENDBRANCH   6   7
ENDBRANCH   5   6
ENDBRANCH   4   5
ENDBRANCH   3   4
ENDBRANCH   2   3
ENDBRANCH   1   2
BRANCH   1  18
ATOM     18  C   UNL     1      18.674  -6.982  19.750  1.00  0.00     0.000 C 
BRANCH  18  19
ATOM     19  C   UNL     1      20.115  -7.180  19.253  1.00  0.00     0.000 C 
BRANCH  19  20
ATOM     20  C   UNL     1      20.453  -6.375  17.981  1.00  0.00     0.000 C 
BRANCH  20  21
ATOM     21  C   UNL     1      21.590  -5.365  18.221  1.00  0.00     0.000 C 
BRANCH  21  22
ATOM     22  C   UNL     1      21.223  -3.945  17.761  1.00  0.00     0.000 C 
BRANCH  22  23
ATOM     23  C   UNL     1      20.058  -3.343  18.567  1.00  0.00     0.000 C 
BRANCH  23  24
ATOM     24  C   UNL     1      20.094  -1.807  18.589  1.00  0.00    -0.000 C 
BRANCH  24  25
ATOM     25  C   UNL     1      19.003  -1.208  19.496  1.00  0.00    -0.000 C 
BRANCH  25  26
ATOM     26  C   UNL     1      18.466   0.132  18.969  1.00  0.00    -0.000 C 
BRANCH  26  27
ATOM     27  C   UNL     1      18.921   1.326  19.821  1.00  0.00    -0.000 C 
BRANCH  27  28
ATOM     28  C   UNL     1      17.848   1.705  20.852  1.00  0.00    -0.000 C 
BRANCH  28  29
ATOM     29  C   UNL     1      16.418   1.443  20.329  1.00  0.00    -0.000 C 
BRANCH  29  30
ATOM     30  C   UNL     1      15.844   2.607  19.497  1.00  0.00    -0.000 C 
BRANCH  30  31
ATOM     31  C   UNL     1      15.492   2.240  18.045  1.00  0.00    -0.003 C 
ATOM     32  C   UNL     1      15.942   3.300  17.040  1.00  0.00     0.004 C 
ENDBRANCH  30  31
ENDBRANCH  29  30
ENDBRANCH  28  29
ENDBRANCH  27  28
ENDBRANCH  26  27
ENDBRANCH  25  26
ENDBRANCH  24  25
ENDBRANCH  23  24
ENDBRANCH  22  23
ENDBRANCH  21  22
ENDBRANCH  20  21
ENDBRANCH  19  20
ENDBRANCH  18  19
ENDBRANCH   1  18
TORSDOF 28
ENDMDL
MODEL 6
REMARK VINA RESULT:    -4.698     11.566     15.288
REMARK INTER + INTRA:         -18.044
REMARK INTER:                 -12.007
REMARK INTRA:                  -6.037
REMARK UNBOUND:                -5.656
REMARK SMILES CCCCCCCCCCCCCCCCCCCCCCCCCCCCCC(=O)[O-]
REMARK SMILES IDX 16 1 17 2 18 3 19 4 20 5 21 6 22 7 23 8 24 9 25 10 26 11
REMARK SMILES IDX 27 12 28 13 29 14 30 15 31 16 32 17 15 18 14 19 13 20 12 21
REMARK SMILES IDX 11 22 10 23 9 24 8 25 7 26 6 27 5 28 4 29 3 30 2 31 1 32
REMARK H PARENT
REMARK Flexibility Score: inf
ROOT
ATOM      1  C   UNL     1       6.318  -1.957  10.863  1.00  0.00     0.000 C 
ENDROOT
BRANCH   1   2
ATOM      2  C   UNL     1       7.724  -2.380  11.333  1.00  0.00     0.000 C 
BRANCH   2   3
ATOM      3  C   UNL     1       8.821  -2.341  10.249  1.00  0.00     0.000 C 
BRANCH   3   4
ATOM      4  C   UNL     1       8.552  -1.372   9.080  1.00  0.00     0.000 C 
BRANCH   4   5
ATOM      5  C   UNL     1       9.267  -0.011   9.192  1.00  0.00     0.000 C 
BRANCH   5   6
ATOM      6  C   UNL     1       8.581   1.004  10.126  1.00  0.00     0.000 C 
BRANCH   6   7
ATOM      7  C   UNL     1       9.556   2.071  10.652  1.00  0.00     0.000 C 
BRANCH   7   8
ATOM      8  C   UNL     1      10.087   1.749  12.056  1.00  0.00     0.000 C 
BRANCH   8   9
ATOM      9  C   UNL     1       9.300   0.611  12.732  1.00  0.00     0.000 C 
BRANCH   9  10
ATOM     10  C   UNL     1       8.589   1.058  14.021  1.00  0.00     0.000 C 
BRANCH  10  11
ATOM     11  C   UNL     1       8.072   2.512  14.014  1.00  0.00     0.000 C 
BRANCH  11  12
ATOM     12  C   UNL     1       6.604   2.657  13.561  1.00  0.00     0.000 C 
BRANCH  12  13
ATOM     13  C   UNL     1       6.463   3.550  12.315  1.00  0.00     0.006 C 
BRANCH  13  14
ATOM     14  C   UNL     1       5.411   3.016  11.332  1.00  0.00     0.053 C 
BRANCH  14  15
ATOM     15  C   UNL     1       4.301   4.001  11.112  1.00  0.00     0.041 C 
ATOM     16  O   UNL     1       4.294   4.734  10.087  1.00  0.00    -0.550 OA
ATOM     17  O   UNL     1       3.282   4.117  12.048  1.00  0.00    -0.550 OA
ENDBRANCH  14  15
ENDBRANCH  13  14
ENDBRANCH  12  13
ENDBRANCH  11  12
ENDBRANCH  10  11
ENDBRANCH   9  10
ENDBRANCH   8   9
ENDBRANCH   7   8
ENDBRANCH   6   7
ENDBRANCH   5   6
ENDBRANCH   4   5
ENDBRANCH   3   4
ENDBRANCH   2   3
ENDBRANCH   1   2
BRANCH   1  18
ATOM     18  C   UNL     1       5.782  -0.721  11.603  1.00  0.00     0.000 C 
BRANCH  18  19
ATOM     19  C   UNL     1       5.678  -0.935  13.121  1.00  0.00     0.000 C 
BRANCH  19  20
ATOM     20  C   UNL     1       4.360  -1.602  13.569  1.00  0.00     0.000 C 
BRANCH  20  21
ATOM     21  C   UNL     1       3.500  -0.661  14.432  1.00  0.00     0.000 C 
BRANCH  21  22
ATOM     22  C   UNL     1       3.406   0.756  13.843  1.00  0.00     0.000 C 
BRANCH  22  23
ATOM     23  C   UNL     1       3.325   1.845  14.927  1.00  0.00     0.000 C 
BRANCH  23  24
ATOM     24  C   UNL     1       3.635   1.299  16.329  1.00  0.00    -0.000 C 
BRANCH  24  25
ATOM     25  C   UNL     1       5.001   1.778  16.856  1.00  0.00    -0.000 C 
BRANCH  25  26
ATOM     26  C   UNL     1       6.062   0.665  16.845  1.00  0.00    -0.000 C 
BRANCH  26  27
ATOM     27  C   UNL     1       6.626   0.374  18.243  1.00  0.00    -0.000 C 
BRANCH  27  28
ATOM     28  C   UNL     1       8.125   0.703  18.308  1.00  0.00    -0.000 C 
BRANCH  28  29
ATOM     29  C   UNL     1       8.979  -0.301  17.502  1.00  0.00    -0.000 C 
BRANCH  29  30
ATOM     30  C   UNL     1       8.898  -1.745  18.035  1.00  0.00    -0.000 C 
BRANCH  30  31
ATOM     31  C   UNL     1       8.564  -2.801  16.968  1.00  0.00    -0.003 C 
ATOM     32  C   UNL     1       8.169  -2.183  15.627  1.00  0.00     0.004 C 
ENDBRANCH  30  31
ENDBRANCH  29  30
ENDBRANCH  28  29
ENDBRANCH  27  28
ENDBRANCH  26  27
ENDBRANCH  25  26
ENDBRANCH  24  25
ENDBRANCH  23  24
ENDBRANCH  22  23
ENDBRANCH  21  22
ENDBRANCH  20  21
ENDBRANCH  19  20
ENDBRANCH  18  19
ENDBRANCH   1  18
TORSDOF 28
ENDMDL
MODEL 7
REMARK VINA RESULT:    -4.656      2.063      5.854
REMARK INTER + INTRA:         -17.934
REMARK INTER:                 -12.079
REMARK INTRA:                  -5.855
REMARK UNBOUND:                -5.656
REMARK SMILES CCCCCCCCCCCCCCCCCCCCCCCCCCCCCC(=O)[O-]
REMARK SMILES IDX 16 1 17 2 18 3 19 4 20 5 21 6 22 7 23 8 24 9 25 10 26 11
REMARK SMILES IDX 27 12 28 13 29 14 30 15 31 16 32 17 15 18 14 19 13 20 12 21
REMARK SMILES IDX 11 22 10 23 9 24 8 25 7 26 6 27 5 28 4 29 3 30 2 31 1 32
REMARK H PARENT
REMARK Flexibility Score: inf
ROOT
ATOM      1  C   UNL     1      20.224  -2.824  20.095  1.00  0.00     0.000 C 
ENDROOT
BRANCH   1   2
ATOM      2  C   UNL     1      21.295  -2.408  21.123  1.00  0.00     0.000 C 
BRANCH   2   3
ATOM      3  C   UNL     1      22.294  -3.516  21.519  1.00  0.00     0.000 C 
BRANCH   3   4
ATOM      4  C   UNL     1      21.865  -4.385  22.719  1.00  0.00     0.000 C 
BRANCH   4   5
ATOM      5  C   UNL     1      21.070  -3.635  23.807  1.00  0.00     0.000 C 
BRANCH   5   6
ATOM      6  C   UNL     1      19.813  -4.370  24.309  1.00  0.00     0.000 C 
BRANCH   6   7
ATOM      7  C   UNL     1      18.988  -4.975  23.161  1.00  0.00     0.000 C 
BRANCH   7   8
ATOM      8  C   UNL     1      17.769  -4.119  22.789  1.00  0.00     0.000 C 
BRANCH   8   9
ATOM      9  C   UNL     1      17.027  -3.590  24.030  1.00  0.00     0.000 C 
BRANCH   9  10
ATOM     10  C   UNL     1      16.688  -2.092  23.931  1.00  0.00     0.000 C 
BRANCH  10  11
ATOM     11  C   UNL     1      17.901  -1.139  23.990  1.00  0.00     0.000 C 
BRANCH  11  12
ATOM     12  C   UNL     1      18.322  -0.569  22.621  1.00  0.00     0.000 C 
BRANCH  12  13
ATOM     13  C   UNL     1      17.111  -0.187  21.750  1.00  0.00     0.006 C 
BRANCH  13  14
ATOM     14  C   UNL     1      17.244  -0.700  20.309  1.00  0.00     0.053 C 
BRANCH  14  15
ATOM     15  C   UNL     1      17.623   0.397  19.358  1.00  0.00     0.041 C 
ATOM     16  O   UNL     1      16.832   0.746  18.440  1.00  0.00    -0.550 OA
ATOM     17  O   UNL     1      18.857   1.022  19.477  1.00  0.00    -0.550 OA
ENDBRANCH  14  15
ENDBRANCH  13  14
ENDBRANCH  12  13
ENDBRANCH  11  12
ENDBRANCH  10  11
ENDBRANCH   9  10
ENDBRANCH   8   9
ENDBRANCH   7   8
ENDBRANCH   6   7
ENDBRANCH   5   6
ENDBRANCH   4   5
ENDBRANCH   3   4
ENDBRANCH   2   3
ENDBRANCH   1   2
BRANCH   1  18
ATOM     18  C   UNL     1      20.359  -2.085  18.754  1.00  0.00     0.000 C 
BRANCH  18  19
ATOM     19  C   UNL     1      20.942  -2.971  17.641  1.00  0.00     0.000 C 
BRANCH  19  20
ATOM     20  C   UNL     1      22.479  -3.101  17.687  1.00  0.00     0.000 C 
BRANCH  20  21
ATOM     21  C   UNL     1      22.935  -4.571  17.738  1.00  0.00     0.000 C 
BRANCH  21  22
ATOM     22  C   UNL     1      21.819  -5.547  17.333  1.00  0.00     0.000 C 
BRANCH  22  23
ATOM     23  C   UNL     1      22.118  -6.997  17.752  1.00  0.00     0.000 C 
BRANCH  23  24
ATOM     24  C   UNL     1      21.082  -7.545  18.745  1.00  0.00    -0.000 C 
BRANCH  24  25
ATOM     25  C   UNL     1      20.729  -6.527  19.846  1.00  0.00    -0.000 C 
BRANCH  25  26
ATOM     26  C   UNL     1      19.239  -6.553  20.220  1.00  0.00    -0.000 C 
BRANCH  26  27
ATOM     27  C   UNL     1      18.383  -7.301  19.187  1.00  0.00    -0.000 C 
BRANCH  27  28
ATOM     28  C   UNL     1      17.053  -6.572  18.947  1.00  0.00    -0.000 C 
BRANCH  28  29
ATOM     29  C   UNL     1      17.159  -5.056  19.222  1.00  0.00    -0.000 C 
BRANCH  29  30
ATOM     30  C   UNL     1      17.437  -4.219  17.958  1.00  0.00    -0.000 C 
BRANCH  30  31
ATOM     31  C   UNL     1      16.482  -4.498  16.785  1.00  0.00    -0.003 C 
ATOM     32  C   UNL     1      15.055  -4.023  17.057  1.00  0.00     0.004 C 
ENDBRANCH  30  31
ENDBRANCH  29  30
ENDBRANCH  28  29
ENDBRANCH  27  28
ENDBRANCH  26  27
ENDBRANCH  25  26
ENDBRANCH  24  25
ENDBRANCH  23  24
ENDBRANCH  22  23
ENDBRANCH  21  22
ENDBRANCH  20  21
ENDBRANCH  19  20
ENDBRANCH  18  19
ENDBRANCH   1  18
TORSDOF 28
ENDMDL
MODEL 8
REMARK VINA RESULT:    -4.643      2.461      4.914
REMARK INTER + INTRA:         -17.898
REMARK INTER:                 -12.338
REMARK INTRA:                  -5.561
REMARK UNBOUND:                -5.656
REMARK SMILES CCCCCCCCCCCCCCCCCCCCCCCCCCCCCC(=O)[O-]
REMARK SMILES IDX 16 1 17 2 18 3 19 4 20 5 21 6 22 7 23 8 24 9 25 10 26 11
REMARK SMILES IDX 27 12 28 13 29 14 30 15 31 16 32 17 15 18 14 19 13 20 12 21
REMARK SMILES IDX 11 22 10 23 9 24 8 25 7 26 6 27 5 28 4 29 3 30 2 31 1 32
REMARK H PARENT
REMARK Flexibility Score: inf
ROOT
ATOM      1  C   UNL     1      22.350  -4.546  20.607  1.00  0.00     0.000 C 
ENDROOT
BRANCH   1   2
ATOM      2  C   UNL     1      21.143  -4.828  19.689  1.00  0.00     0.000 C 
BRANCH   2   3
ATOM      3  C   UNL     1      20.116  -5.838  20.243  1.00  0.00     0.000 C 
BRANCH   3   4
ATOM      4  C   UNL     1      19.273  -6.566  19.176  1.00  0.00     0.000 C 
BRANCH   4   5
ATOM      5  C   UNL     1      17.992  -5.822  18.748  1.00  0.00     0.000 C 
BRANCH   5   6
ATOM      6  C   UNL     1      17.095  -5.361  19.912  1.00  0.00     0.000 C 
BRANCH   6   7
ATOM      7  C   UNL     1      16.466  -3.981  19.658  1.00  0.00     0.000 C 
BRANCH   7   8
ATOM      8  C   UNL     1      17.462  -2.976  19.060  1.00  0.00     0.000 C 
BRANCH   8   9
ATOM      9  C   UNL     1      18.472  -2.464  20.102  1.00  0.00     0.000 C 
BRANCH   9  10
ATOM     10  C   UNL     1      18.077  -1.101  20.698  1.00  0.00     0.000 C 
BRANCH  10  11
ATOM     11  C   UNL     1      18.603   0.129  19.928  1.00  0.00     0.000 C 
BRANCH  11  12
ATOM     12  C   UNL     1      18.208   1.481  20.556  1.00  0.00     0.000 C 
BRANCH  12  13
ATOM     13  C   UNL     1      16.695   1.579  20.830  1.00  0.00     0.006 C 
BRANCH  13  14
ATOM     14  C   UNL     1      16.078   2.856  20.245  1.00  0.00     0.053 C 
BRANCH  14  15
ATOM     15  C   UNL     1      15.202   2.563  19.063  1.00  0.00     0.041 C 
ATOM     16  O   UNL     1      14.413   1.580  19.083  1.00  0.00    -0.550 OA
ATOM     17  O   UNL     1      15.268   3.369  17.934  1.00  0.00    -0.550 OA
ENDBRANCH  14  15
ENDBRANCH  13  14
ENDBRANCH  12  13
ENDBRANCH  11  12
ENDBRANCH  10  11
ENDBRANCH   9  10
ENDBRANCH   8   9
ENDBRANCH   7   8
ENDBRANCH   6   7
ENDBRANCH   5   6
ENDBRANCH   4   5
ENDBRANCH   3   4
ENDBRANCH   2   3
ENDBRANCH   1   2
BRANCH   1  18
ATOM     18  C   UNL     1      22.741  -3.060  20.647  1.00  0.00     0.000 C 
BRANCH  18  19
ATOM     19  C   UNL     1      21.889  -2.248  21.636  1.00  0.00     0.000 C 
BRANCH  19  20
ATOM     20  C   UNL     1      22.710  -1.544  22.737  1.00  0.00     0.000 C 
BRANCH  20  21
ATOM     21  C   UNL     1      21.825  -0.692  23.664  1.00  0.00     0.000 C 
BRANCH  21  22
ATOM     22  C   UNL     1      20.464  -0.358  23.034  1.00  0.00     0.000 C 
BRANCH  22  23
ATOM     23  C   UNL     1      19.653   0.648  23.870  1.00  0.00     0.000 C 
BRANCH  23  24
ATOM     24  C   UNL     1      18.781  -0.041  24.931  1.00  0.00    -0.000 C 
BRANCH  24  25
ATOM     25  C   UNL     1      17.356  -0.327  24.423  1.00  0.00    -0.000 C 
BRANCH  25  26
ATOM     26  C   UNL     1      16.607  -1.343  25.300  1.00  0.00    -0.000 C 
BRANCH  26  27
ATOM     27  C   UNL     1      17.319  -2.703  25.365  1.00  0.00    -0.000 C 
BRANCH  27  28
ATOM     28  C   UNL     1      16.672  -3.707  24.399  1.00  0.00    -0.000 C 
BRANCH  28  29
ATOM     29  C   UNL     1      17.672  -4.230  23.344  1.00  0.00    -0.000 C 
BRANCH  29  30
ATOM     30  C   UNL     1      19.115  -3.737  23.566  1.00  0.00    -0.000 C 
BRANCH  30  31
ATOM     31  C   UNL     1      20.157  -4.860  23.710  1.00  0.00    -0.003 C 
ATOM     32  C   UNL     1      21.309  -4.483  24.642  1.00  0.00     0.004 C 
ENDBRANCH  30  31
ENDBRANCH  29  30
ENDBRANCH  28  29
ENDBRANCH  27  28
ENDBRANCH  26  27
ENDBRANCH  25  26
ENDBRANCH  24  25
ENDBRANCH  23  24
ENDBRANCH  22  23
ENDBRANCH  21  22
ENDBRANCH  20  21
ENDBRANCH  19  20
ENDBRANCH  18  19
ENDBRANCH   1  18
TORSDOF 28
ENDMDL
MODEL 9
REMARK VINA RESULT:    -4.619      3.429      6.785
REMARK INTER + INTRA:         -17.836
REMARK INTER:                 -11.374
REMARK INTRA:                  -6.462
REMARK UNBOUND:                -5.656
REMARK SMILES CCCCCCCCCCCCCCCCCCCCCCCCCCCCCC(=O)[O-]
REMARK SMILES IDX 16 1 17 2 18 3 19 4 20 5 21 6 22 7 23 8 24 9 25 10 26 11
REMARK SMILES IDX 27 12 28 13 29 14 30 15 31 16 32 17 15 18 14 19 13 20 12 21
REMARK SMILES IDX 11 22 10 23 9 24 8 25 7 26 6 27 5 28 4 29 3 30 2 31 1 32
REMARK H PARENT
REMARK Flexibility Score: inf
ROOT
ATOM      1  C   UNL     1      17.655  -6.152  18.420  1.00  0.00     0.000 C 
ENDROOT
BRANCH   1   2
ATOM      2  C   UNL     1      16.390  -5.468  18.977  1.00  0.00     0.000 C 
BRANCH   2   3
ATOM      3  C   UNL     1      16.629  -4.116  19.682  1.00  0.00     0.000 C 
BRANCH   3   4
ATOM      4  C   UNL     1      16.961  -4.211  21.185  1.00  0.00     0.000 C 
BRANCH   4   5
ATOM      5  C   UNL     1      18.468  -4.220  21.513  1.00  0.00     0.000 C 
BRANCH   5   6
ATOM      6  C   UNL     1      18.893  -5.260  22.566  1.00  0.00     0.000 C 
BRANCH   6   7
ATOM      7  C   UNL     1      20.144  -4.827  23.348  1.00  0.00     0.000 C 
BRANCH   7   8
ATOM      8  C   UNL     1      20.926  -3.708  22.645  1.00  0.00     0.000 C 
BRANCH   8   9
ATOM      9  C   UNL     1      21.434  -2.641  23.632  1.00  0.00     0.000 C 
BRANCH   9  10
ATOM     10  C   UNL     1      21.802  -1.316  22.943  1.00  0.00     0.000 C 
BRANCH  10  11
ATOM     11  C   UNL     1      22.009  -0.117  23.894  1.00  0.00     0.000 C 
BRANCH  11  12
ATOM     12  C   UNL     1      20.733   0.712  24.149  1.00  0.00     0.000 C 
BRANCH  12  13
ATOM     13  C   UNL     1      20.916   2.195  23.776  1.00  0.00     0.006 C 
BRANCH  13  14
ATOM     14  C   UNL     1      19.717   2.753  22.998  1.00  0.00     0.053 C 
BRANCH  14  15
ATOM     15  C   UNL     1      18.564   3.072  23.903  1.00  0.00     0.041 C 
ATOM     16  O   UNL     1      18.626   4.054  24.692  1.00  0.00    -0.550 OA
ATOM     17  O   UNL     1      17.426   2.276  23.884  1.00  0.00    -0.550 OA
ENDBRANCH  14  15
ENDBRANCH  13  14
ENDBRANCH  12  13
ENDBRANCH  11  12
ENDBRANCH  10  11
ENDBRANCH   9  10
ENDBRANCH   8   9
ENDBRANCH   7   8
ENDBRANCH   6   7
ENDBRANCH   5   6
ENDBRANCH   4   5
ENDBRANCH   3   4
ENDBRANCH   2   3
ENDBRANCH   1   2
BRANCH   1  18
ATOM     18  C   UNL     1      18.239  -7.206  19.374  1.00  0.00     0.000 C 
BRANCH  18  19
ATOM     19  C   UNL     1      19.680  -7.601  19.014  1.00  0.00     0.000 C 
BRANCH  19  20
ATOM     20  C   UNL     1      20.520  -6.442  18.435  1.00  0.00     0.000 C 
BRANCH  20  21
ATOM     21  C   UNL     1      21.291  -5.682  19.530  1.00  0.00     0.000 C 
BRANCH  21  22
ATOM     22  C   UNL     1      21.633  -4.242  19.118  1.00  0.00     0.000 C 
BRANCH  22  23
ATOM     23  C   UNL     1      20.394  -3.440  18.683  1.00  0.00     0.000 C 
BRANCH  23  24
ATOM     24  C   UNL     1      20.414  -1.998  19.215  1.00  0.00    -0.000 C 
BRANCH  24  25
ATOM     25  C   UNL     1      19.035  -1.319  19.121  1.00  0.00    -0.000 C 
BRANCH  25  26
ATOM     26  C   UNL     1      18.949  -0.035  19.962  1.00  0.00    -0.000 C 
BRANCH  26  27
ATOM     27  C   UNL     1      18.576  -0.312  21.426  1.00  0.00    -0.000 C 
BRANCH  27  28
ATOM     28  C   UNL     1      17.060  -0.503  21.578  1.00  0.00    -0.000 C 
BRANCH  28  29
ATOM     29  C   UNL     1      16.683  -1.134  22.937  1.00  0.00    -0.000 C 
BRANCH  29  30
ATOM     30  C   UNL     1      17.897  -1.642  23.738  1.00  0.00    -0.000 C 
BRANCH  30  31
ATOM     31  C   UNL     1      17.585  -2.028  25.194  1.00  0.00    -0.003 C 
ATOM     32  C   UNL     1      17.000  -3.434  25.321  1.00  0.00     0.004 C 
ENDBRANCH  30  31
ENDBRANCH  29  30
ENDBRANCH  28  29
ENDBRANCH  27  28
ENDBRANCH  26  27
ENDBRANCH  25  26
ENDBRANCH  24  25
ENDBRANCH  23  24
ENDBRANCH  22  23
ENDBRANCH  21  22
ENDBRANCH  20  21
ENDBRANCH  19  20
ENDBRANCH  18  19
ENDBRANCH   1  18
TORSDOF 28
ENDMDL
