MODEL 1
REMARK VINA RESULT:    -7.281      0.000      0.000
REMARK INTER + INTRA:          -8.986
REMARK INTER:                  -8.770
REMARK INTRA:                  -0.216
REMARK UNBOUND:                -0.216
REMARK SMILES O=c1c(O)c(-c2ccc(O)c(O)c2)oc2cc(O)cc(O)c12
REMARK SMILES IDX 5 1 3 2 2 3 1 4 22 5 20 6 19 7 17 8 16 9 15 10 14 11 6 12
REMARK SMILES IDX 7 13 8 14 9 15 13 16 11 17 10 18 12 20 4 22 21 24 18 26
REMARK H PARENT 10 19 12 21 4 23 21 25 18 27
REMARK Flexibility Score: inf
ROOT
ATOM      1  C   UNL     1      41.142  48.720 134.979  1.00  0.00     0.180 A 
ATOM      2  C   UNL     1      41.987  47.863 135.705  1.00  0.00     0.208 A 
ATOM      3  C   UNL     1      43.201  48.364 136.203  1.00  0.00     0.238 A 
ATOM      4  O   UNL     1      43.927  47.608 136.900  1.00  0.00    -0.285 OA
ATOM      5  C   UNL     1      43.562  49.711 135.955  1.00  0.00     0.111 A 
ATOM      6  C   UNL     1      44.786  50.312 136.376  1.00  0.00     0.134 A 
ATOM      7  C   UNL     1      44.980  51.686 136.188  1.00  0.00     0.093 A 
ATOM      8  C   UNL     1      44.025  52.466 135.536  1.00  0.00     0.123 A 
ATOM      9  C   UNL     1      42.852  51.876 135.066  1.00  0.00     0.094 A 
ATOM     10  C   UNL     1      42.613  50.515 135.271  1.00  0.00     0.146 A 
ATOM     11  O   UNL     1      41.479  49.995 134.818  1.00  0.00    -0.452 OA
ENDROOT
BRANCH   1  12
ATOM     12  C   UNL     1      39.859  48.258 134.402  1.00  0.00     0.025 A 
ATOM     13  C   UNL     1      39.823  47.319 133.355  1.00  0.00     0.016 A 
ATOM     14  C   UNL     1      38.602  46.917 132.809  1.00  0.00     0.051 A 
ATOM     15  C   UNL     1      37.403  47.451 133.289  1.00  0.00     0.157 A 
ATOM     16  C   UNL     1      38.654  48.809 134.865  1.00  0.00     0.062 A 
ATOM     17  C   UNL     1      37.427  48.405 134.319  1.00  0.00     0.158 A 
BRANCH  15  18
ATOM     18  O   UNL     1      36.199  47.028 132.725  1.00  0.00    -0.504 OA
ATOM     19  H   UNL     1      35.879  46.069 132.797  1.00  0.00     0.293 HD
ENDBRANCH  15  18
BRANCH  17  20
ATOM     20  O   UNL     1      36.235  48.948 134.797  1.00  0.00    -0.504 OA
ATOM     21  H   UNL     1      36.121  49.947 134.928  1.00  0.00     0.293 HD
ENDBRANCH  17  20
ENDBRANCH   1  12
BRANCH   2  22
ATOM     22  O   UNL     1      41.601  46.544 135.958  1.00  0.00    -0.502 OA
ATOM     23  H   UNL     1      41.218  46.250 136.849  1.00  0.00     0.293 HD
ENDBRANCH   2  22
BRANCH   6  24
ATOM     24  O   UNL     1      45.844  49.606 136.955  1.00  0.00    -0.507 OA
ATOM     25  H   UNL     1      46.181  48.710 136.635  1.00  0.00     0.293 HD
ENDBRANCH   6  24
BRANCH   8  26
ATOM     26  O   UNL     1      44.260  53.827 135.353  1.00  0.00    -0.508 OA
ATOM     27  H   UNL     1      44.301  54.237 134.426  1.00  0.00     0.293 HD
ENDBRANCH   8  26
TORSDOF 6
ENDMDL
MODEL 2
REMARK VINA RESULT:    -6.844      3.514      4.391
REMARK INTER + INTRA:          -8.460
REMARK INTER:                  -8.148
REMARK INTRA:                  -0.312
REMARK UNBOUND:                -0.216
REMARK SMILES O=c1c(O)c(-c2ccc(O)c(O)c2)oc2cc(O)cc(O)c12
REMARK SMILES IDX 5 1 3 2 2 3 1 4 22 5 20 6 19 7 17 8 16 9 15 10 14 11 6 12
REMARK SMILES IDX 7 13 8 14 9 15 13 16 11 17 10 18 12 20 4 22 21 24 18 26
REMARK H PARENT 10 19 12 21 4 23 21 25 18 27
REMARK Flexibility Score: inf
ROOT
ATOM      1  C   UNL     1      41.313  48.772 132.302  1.00  0.00     0.180 A 
ATOM      2  C   UNL     1      41.405  49.537 131.126  1.00  0.00     0.208 A 
ATOM      3  C   UNL     1      42.674  49.906 130.653  1.00  0.00     0.238 A 
ATOM      4  O   UNL     1      42.754  50.543 129.570  1.00  0.00    -0.285 OA
ATOM      5  C   UNL     1      43.834  49.521 131.369  1.00  0.00     0.111 A 
ATOM      6  C   UNL     1      45.167  49.875 131.003  1.00  0.00     0.134 A 
ATOM      7  C   UNL     1      46.245  49.330 131.711  1.00  0.00     0.093 A 
ATOM      8  C   UNL     1      46.038  48.498 132.811  1.00  0.00     0.123 A 
ATOM      9  C   UNL     1      44.737  48.195 133.215  1.00  0.00     0.094 A 
ATOM     10  C   UNL     1      43.641  48.693 132.506  1.00  0.00     0.146 A 
ATOM     11  O   UNL     1      42.421  48.371 132.916  1.00  0.00    -0.452 OA
ENDROOT
BRANCH   1  12
ATOM     12  C   UNL     1      40.010  48.365 132.877  1.00  0.00     0.025 A 
ATOM     13  C   UNL     1      39.440  47.113 132.586  1.00  0.00     0.016 A 
ATOM     14  C   UNL     1      38.198  46.761 133.120  1.00  0.00     0.051 A 
ATOM     15  C   UNL     1      37.502  47.653 133.940  1.00  0.00     0.157 A 
ATOM     16  C   UNL     1      39.298  49.268 133.683  1.00  0.00     0.062 A 
ATOM     17  C   UNL     1      38.051  48.915 134.221  1.00  0.00     0.158 A 
BRANCH  15  18
ATOM     18  O   UNL     1      36.266  47.272 134.460  1.00  0.00    -0.504 OA
ATOM     19  H   UNL     1      36.085  46.329 134.782  1.00  0.00     0.293 HD
ENDBRANCH  15  18
BRANCH  17  20
ATOM     20  O   UNL     1      37.359  49.813 135.032  1.00  0.00    -0.504 OA
ATOM     21  H   UNL     1      36.546  50.316 134.695  1.00  0.00     0.293 HD
ENDBRANCH  17  20
ENDBRANCH   1  12
BRANCH   2  22
ATOM     22  O   UNL     1      40.250  49.887 130.423  1.00  0.00    -0.502 OA
ATOM     23  H   UNL     1      39.865  50.824 130.441  1.00  0.00     0.293 HD
ENDBRANCH   2  22
BRANCH   6  24
ATOM     24  O   UNL     1      45.483  50.771 129.978  1.00  0.00    -0.507 OA
ATOM     25  H   UNL     1      45.490  51.775 130.073  1.00  0.00     0.293 HD
ENDBRANCH   6  24
BRANCH   8  26
ATOM     26  O   UNL     1      47.134  47.987 133.502  1.00  0.00    -0.508 OA
ATOM     27  H   UNL     1      47.832  47.415 133.039  1.00  0.00     0.293 HD
ENDBRANCH   8  26
TORSDOF 6
ENDMDL
MODEL 3
REMARK VINA RESULT:    -6.732      3.774      3.982
REMARK INTER + INTRA:          -8.326
REMARK INTER:                  -7.995
REMARK INTRA:                  -0.330
REMARK UNBOUND:                -0.216
REMARK SMILES O=c1c(O)c(-c2ccc(O)c(O)c2)oc2cc(O)cc(O)c12
REMARK SMILES IDX 5 1 3 2 2 3 1 4 22 5 20 6 19 7 17 8 16 9 15 10 14 11 6 12
REMARK SMILES IDX 7 13 8 14 9 15 13 16 11 17 10 18 12 20 4 22 21 24 18 26
REMARK H PARENT 10 19 12 21 4 23 21 25 18 27
REMARK Flexibility Score: inf
ROOT
ATOM      1  C   UNL     1      41.322  48.648 132.551  1.00  0.00     0.180 A 
ATOM      2  C   UNL     1      42.487  48.339 133.274  1.00  0.00     0.208 A 
ATOM      3  C   UNL     1      43.734  48.704 132.742  1.00  0.00     0.238 A 
ATOM      4  O   UNL     1      44.771  48.475 133.419  1.00  0.00    -0.285 OA
ATOM      5  C   UNL     1      43.802  49.359 131.488  1.00  0.00     0.111 A 
ATOM      6  C   UNL     1      45.014  49.737 130.836  1.00  0.00     0.134 A 
ATOM      7  C   UNL     1      44.958  50.495 129.660  1.00  0.00     0.093 A 
ATOM      8  C   UNL     1      43.736  50.830 129.077  1.00  0.00     0.123 A 
ATOM      9  C   UNL     1      42.546  50.413 129.674  1.00  0.00     0.094 A 
ATOM     10  C   UNL     1      42.569  49.688 130.867  1.00  0.00     0.146 A 
ATOM     11  O   UNL     1      41.414  49.319 131.408  1.00  0.00    -0.452 OA
ENDROOT
BRANCH   1  12
ATOM     12  C   UNL     1      39.973  48.273 133.033  1.00  0.00     0.025 A 
ATOM     13  C   UNL     1      39.385  47.044 132.684  1.00  0.00     0.016 A 
ATOM     14  C   UNL     1      38.102  46.722 133.131  1.00  0.00     0.051 A 
ATOM     15  C   UNL     1      37.381  47.624 133.920  1.00  0.00     0.157 A 
ATOM     16  C   UNL     1      39.238  49.185 133.808  1.00  0.00     0.062 A 
ATOM     17  C   UNL     1      37.949  48.863 134.258  1.00  0.00     0.158 A 
BRANCH  15  18
ATOM     18  O   UNL     1      36.103  47.273 134.354  1.00  0.00    -0.504 OA
ATOM     19  H   UNL     1      35.403  46.903 133.721  1.00  0.00     0.293 HD
ENDBRANCH  15  18
BRANCH  17  20
ATOM     20  O   UNL     1      37.233  49.769 135.039  1.00  0.00    -0.504 OA
ATOM     21  H   UNL     1      37.614  50.147 135.899  1.00  0.00     0.293 HD
ENDBRANCH  17  20
ENDBRANCH   1  12
BRANCH   2  22
ATOM     22  O   UNL     1      42.396  47.714 134.520  1.00  0.00    -0.502 OA
ATOM     23  H   UNL     1      43.071  47.026 134.834  1.00  0.00     0.293 HD
ENDBRANCH   2  22
BRANCH   6  24
ATOM     24  O   UNL     1      46.288  49.375 131.285  1.00  0.00    -0.507 OA
ATOM     25  H   UNL     1      47.143  49.528 130.771  1.00  0.00     0.293 HD
ENDBRANCH   6  24
BRANCH   8  26
ATOM     26  O   UNL     1      43.718  51.572 127.898  1.00  0.00    -0.508 OA
ATOM     27  H   UNL     1      43.794  52.583 127.907  1.00  0.00     0.293 HD
ENDBRANCH   8  26
TORSDOF 6
ENDMDL
MODEL 4
REMARK VINA RESULT:    -6.677      3.109      4.325
REMARK INTER + INTRA:          -8.259
REMARK INTER:                  -7.999
REMARK INTRA:                  -0.260
REMARK UNBOUND:                -0.216
REMARK SMILES O=c1c(O)c(-c2ccc(O)c(O)c2)oc2cc(O)cc(O)c12
REMARK SMILES IDX 5 1 3 2 2 3 1 4 22 5 20 6 19 7 17 8 16 9 15 10 14 11 6 12
REMARK SMILES IDX 7 13 8 14 9 15 13 16 11 17 10 18 12 20 4 22 21 24 18 26
REMARK H PARENT 10 19 12 21 4 23 21 25 18 27
REMARK Flexibility Score: inf
ROOT
ATOM      1  C   UNL     1      42.594  48.603 134.699  1.00  0.00     0.180 A 
ATOM      2  C   UNL     1      41.807  47.915 135.639  1.00  0.00     0.208 A 
ATOM      3  C   UNL     1      42.444  47.211 136.674  1.00  0.00     0.238 A 
ATOM      4  O   UNL     1      41.734  46.643 137.545  1.00  0.00    -0.285 OA
ATOM      5  C   UNL     1      43.858  47.191 136.748  1.00  0.00     0.111 A 
ATOM      6  C   UNL     1      44.608  46.477 137.729  1.00  0.00     0.134 A 
ATOM      7  C   UNL     1      45.999  46.635 137.784  1.00  0.00     0.093 A 
ATOM      8  C   UNL     1      46.672  47.426 136.853  1.00  0.00     0.123 A 
ATOM      9  C   UNL     1      45.953  48.080 135.851  1.00  0.00     0.094 A 
ATOM     10  C   UNL     1      44.562  47.972 135.793  1.00  0.00     0.146 A 
ATOM     11  O   UNL     1      43.915  48.619 134.832  1.00  0.00    -0.452 OA
ENDROOT
BRANCH   1  12
ATOM     12  C   UNL     1      41.996  49.345 133.565  1.00  0.00     0.025 A 
ATOM     13  C   UNL     1      41.901  50.748 133.578  1.00  0.00     0.016 A 
ATOM     14  C   UNL     1      41.312  51.426 132.508  1.00  0.00     0.051 A 
ATOM     15  C   UNL     1      40.798  50.717 131.419  1.00  0.00     0.157 A 
ATOM     16  C   UNL     1      41.460  48.635 132.479  1.00  0.00     0.062 A 
ATOM     17  C   UNL     1      40.868  49.315 131.404  1.00  0.00     0.158 A 
BRANCH  15  18
ATOM     18  O   UNL     1      40.217  51.422 130.364  1.00  0.00    -0.504 OA
ATOM     19  H   UNL     1      39.572  52.187 130.519  1.00  0.00     0.293 HD
ENDBRANCH  15  18
BRANCH  17  20
ATOM     20  O   UNL     1      40.351  48.600 130.324  1.00  0.00    -0.504 OA
ATOM     21  H   UNL     1      39.860  49.062 129.567  1.00  0.00     0.293 HD
ENDBRANCH  17  20
ENDBRANCH   1  12
BRANCH   2  22
ATOM     22  O   UNL     1      40.413  47.966 135.562  1.00  0.00    -0.502 OA
ATOM     23  H   UNL     1      39.814  47.466 136.207  1.00  0.00     0.293 HD
ENDBRANCH   2  22
BRANCH   6  24
ATOM     24  O   UNL     1      44.045  45.589 138.649  1.00  0.00    -0.507 OA
ATOM     25  H   UNL     1      43.106  45.658 139.014  1.00  0.00     0.293 HD
ENDBRANCH   6  24
BRANCH   8  26
ATOM     26  O   UNL     1      48.057  47.546 136.928  1.00  0.00    -0.508 OA
ATOM     27  H   UNL     1      48.639  46.782 137.255  1.00  0.00     0.293 HD
ENDBRANCH   8  26
TORSDOF 6
ENDMDL
MODEL 5
REMARK VINA RESULT:    -6.600      1.485      2.977
REMARK INTER + INTRA:          -8.166
REMARK INTER:                  -7.917
REMARK INTRA:                  -0.250
REMARK UNBOUND:                -0.216
REMARK SMILES O=c1c(O)c(-c2ccc(O)c(O)c2)oc2cc(O)cc(O)c12
REMARK SMILES IDX 5 1 3 2 2 3 1 4 22 5 20 6 19 7 17 8 16 9 15 10 14 11 6 12
REMARK SMILES IDX 7 13 8 14 9 15 13 16 11 17 10 18 12 20 4 22 21 24 18 26
REMARK H PARENT 10 19 12 21 4 23 21 25 18 27
REMARK Flexibility Score: inf
ROOT
ATOM      1  C   UNL     1      41.465  48.932 134.368  1.00  0.00     0.180 A 
ATOM      2  C   UNL     1      41.918  50.158 133.851  1.00  0.00     0.208 A 
ATOM      3  C   UNL     1      43.208  50.601 134.184  1.00  0.00     0.238 A 
ATOM      4  O   UNL     1      43.630  51.672 133.674  1.00  0.00    -0.285 OA
ATOM      5  C   UNL     1      44.022  49.823 135.042  1.00  0.00     0.111 A 
ATOM      6  C   UNL     1      45.329  50.195 135.478  1.00  0.00     0.134 A 
ATOM      7  C   UNL     1      46.093  49.288 136.221  1.00  0.00     0.093 A 
ATOM      8  C   UNL     1      45.575  48.049 136.600  1.00  0.00     0.123 A 
ATOM      9  C   UNL     1      44.276  47.700 136.230  1.00  0.00     0.094 A 
ATOM     10  C   UNL     1      43.502  48.569 135.458  1.00  0.00     0.146 A 
ATOM     11  O   UNL     1      42.275  48.194 135.118  1.00  0.00    -0.452 OA
ENDROOT
BRANCH   1  12
ATOM     12  C   UNL     1      40.108  48.410 134.083  1.00  0.00     0.025 A 
ATOM     13  C   UNL     1      39.905  47.361 133.169  1.00  0.00     0.016 A 
ATOM     14  C   UNL     1      38.614  46.902 132.896  1.00  0.00     0.051 A 
ATOM     15  C   UNL     1      37.509  47.487 133.521  1.00  0.00     0.157 A 
ATOM     16  C   UNL     1      38.994  49.010 134.691  1.00  0.00     0.062 A 
ATOM     17  C   UNL     1      37.698  48.549 134.419  1.00  0.00     0.158 A 
BRANCH  15  18
ATOM     18  O   UNL     1      36.233  47.005 133.231  1.00  0.00    -0.504 OA
ATOM     19  H   UNL     1      36.079  46.067 132.880  1.00  0.00     0.293 HD
ENDBRANCH  15  18
BRANCH  17  20
ATOM     20  O   UNL     1      36.599  49.143 135.040  1.00  0.00    -0.504 OA
ATOM     21  H   UNL     1      36.438  50.143 134.993  1.00  0.00     0.293 HD
ENDBRANCH  17  20
ENDBRANCH   1  12
BRANCH   2  22
ATOM     22  O   UNL     1      41.108  50.900 132.988  1.00  0.00    -0.502 OA
ATOM     23  H   UNL     1      41.384  51.123 132.039  1.00  0.00     0.293 HD
ENDBRANCH   2  22
BRANCH   6  24
ATOM     24  O   UNL     1      45.907  51.444 135.233  1.00  0.00    -0.507 OA
ATOM     25  H   UNL     1      45.686  52.289 135.737  1.00  0.00     0.293 HD
ENDBRANCH   6  24
BRANCH   8  26
ATOM     26  O   UNL     1      46.359  47.178 137.352  1.00  0.00    -0.508 OA
ATOM     27  H   UNL     1      46.036  46.805 138.238  1.00  0.00     0.293 HD
ENDBRANCH   8  26
TORSDOF 6
ENDMDL
MODEL 6
REMARK VINA RESULT:    -6.506      2.213      7.208
REMARK INTER + INTRA:          -8.053
REMARK INTER:                  -7.872
REMARK INTRA:                  -0.181
REMARK UNBOUND:                -0.216
REMARK SMILES O=c1c(O)c(-c2ccc(O)c(O)c2)oc2cc(O)cc(O)c12
REMARK SMILES IDX 5 1 3 2 2 3 1 4 22 5 20 6 19 7 17 8 16 9 15 10 14 11 6 12
REMARK SMILES IDX 7 13 8 14 9 15 13 16 11 17 10 18 12 20 4 22 21 24 18 26
REMARK H PARENT 10 19 12 21 4 23 21 25 18 27
REMARK Flexibility Score: inf
ROOT
ATOM      1  C   UNL     1      43.714  50.601 135.971  1.00  0.00     0.180 A 
ATOM      2  C   UNL     1      43.258  49.374 136.484  1.00  0.00     0.208 A 
ATOM      3  C   UNL     1      42.158  48.749 135.875  1.00  0.00     0.238 A 
ATOM      4  O   UNL     1      41.788  47.624 136.303  1.00  0.00    -0.285 OA
ATOM      5  C   UNL     1      41.518  49.365 134.772  1.00  0.00     0.111 A 
ATOM      6  C   UNL     1      40.370  48.841 134.105  1.00  0.00     0.134 A 
ATOM      7  C   UNL     1      39.900  49.469 132.945  1.00  0.00     0.093 A 
ATOM      8  C   UNL     1      40.494  50.637 132.466  1.00  0.00     0.123 A 
ATOM      9  C   UNL     1      41.579  51.191 133.146  1.00  0.00     0.094 A 
ATOM     10  C   UNL     1      42.094  50.568 134.285  1.00  0.00     0.146 A 
ATOM     11  O   UNL     1      43.134  51.121 134.896  1.00  0.00    -0.452 OA
ENDROOT
BRANCH   1  12
ATOM     12  C   UNL     1      44.852  51.332 136.574  1.00  0.00     0.025 A 
ATOM     13  C   UNL     1      44.672  52.580 137.198  1.00  0.00     0.016 A 
ATOM     14  C   UNL     1      45.764  53.263 137.738  1.00  0.00     0.051 A 
ATOM     15  C   UNL     1      47.050  52.721 137.654  1.00  0.00     0.157 A 
ATOM     16  C   UNL     1      46.148  50.801 136.472  1.00  0.00     0.062 A 
ATOM     17  C   UNL     1      47.245  51.486 137.015  1.00  0.00     0.158 A 
BRANCH  15  18
ATOM     18  O   UNL     1      48.120  53.426 138.205  1.00  0.00    -0.504 OA
ATOM     19  H   UNL     1      47.994  54.315 138.673  1.00  0.00     0.293 HD
ENDBRANCH  15  18
BRANCH  17  20
ATOM     20  O   UNL     1      48.526  50.943 136.920  1.00  0.00    -0.504 OA
ATOM     21  H   UNL     1      48.782  50.312 136.169  1.00  0.00     0.293 HD
ENDBRANCH  17  20
ENDBRANCH   1  12
BRANCH   2  22
ATOM     22  O   UNL     1      43.918  48.772 137.558  1.00  0.00    -0.502 OA
ATOM     23  H   UNL     1      44.710  49.203 138.021  1.00  0.00     0.293 HD
ENDBRANCH   2  22
BRANCH   6  24
ATOM     24  O   UNL     1      39.646  47.732 134.552  1.00  0.00    -0.507 OA
ATOM     25  H   UNL     1      39.419  47.545 135.517  1.00  0.00     0.293 HD
ENDBRANCH   6  24
BRANCH   8  26
ATOM     26  O   UNL     1      39.989  51.242 131.318  1.00  0.00    -0.508 OA
ATOM     27  H   UNL     1      40.165  50.859 130.396  1.00  0.00     0.293 HD
ENDBRANCH   8  26
TORSDOF 6
ENDMDL
MODEL 7
REMARK VINA RESULT:    -6.429      1.615      2.021
REMARK INTER + INTRA:          -7.961
REMARK INTER:                  -7.653
REMARK INTRA:                  -0.308
REMARK UNBOUND:                -0.216
REMARK SMILES O=c1c(O)c(-c2ccc(O)c(O)c2)oc2cc(O)cc(O)c12
REMARK SMILES IDX 5 1 3 2 2 3 1 4 22 5 20 6 19 7 17 8 16 9 15 10 14 11 6 12
REMARK SMILES IDX 7 13 8 14 9 15 13 16 11 17 10 18 12 20 4 22 21 24 18 26
REMARK H PARENT 10 19 12 21 4 23 21 25 18 27
REMARK Flexibility Score: inf
ROOT
ATOM      1  C   UNL     1      41.440  49.986 134.273  1.00  0.00     0.180 A 
ATOM      2  C   UNL     1      42.266  49.713 135.377  1.00  0.00     0.208 A 
ATOM      3  C   UNL     1      43.369  50.546 135.625  1.00  0.00     0.238 A 
ATOM      4  O   UNL     1      44.073  50.330 136.646  1.00  0.00    -0.285 OA
ATOM      5  C   UNL     1      43.642  51.631 134.757  1.00  0.00     0.111 A 
ATOM      6  C   UNL     1      44.755  52.514 134.889  1.00  0.00     0.134 A 
ATOM      7  C   UNL     1      44.853  53.631 134.050  1.00  0.00     0.093 A 
ATOM      8  C   UNL     1      43.916  53.860 133.043  1.00  0.00     0.123 A 
ATOM      9  C   UNL     1      42.857  52.969 132.866  1.00  0.00     0.094 A 
ATOM     10  C   UNL     1      42.712  51.866 133.710  1.00  0.00     0.146 A 
ATOM     11  O   UNL     1      41.684  51.049 133.516  1.00  0.00    -0.452 OA
ENDROOT
BRANCH   1  12
ATOM     12  C   UNL     1      40.273  49.139 133.933  1.00  0.00     0.025 A 
ATOM     13  C   UNL     1      40.357  48.141 132.947  1.00  0.00     0.016 A 
ATOM     14  C   UNL     1      39.237  47.370 132.625  1.00  0.00     0.051 A 
ATOM     15  C   UNL     1      38.017  47.591 133.271  1.00  0.00     0.157 A 
ATOM     16  C   UNL     1      39.041  49.373 134.564  1.00  0.00     0.062 A 
ATOM     17  C   UNL     1      37.916  48.599 134.243  1.00  0.00     0.158 A 
BRANCH  15  18
ATOM     18  O   UNL     1      36.917  46.804 132.930  1.00  0.00    -0.504 OA
ATOM     19  H   UNL     1      36.171  47.149 132.339  1.00  0.00     0.293 HD
ENDBRANCH  15  18
BRANCH  17  20
ATOM     20  O   UNL     1      36.701  48.830 134.887  1.00  0.00    -0.504 OA
ATOM     21  H   UNL     1      36.320  48.171 135.555  1.00  0.00     0.293 HD
ENDBRANCH  17  20
ENDBRANCH   1  12
BRANCH   2  22
ATOM     22  O   UNL     1      41.966  48.650 136.233  1.00  0.00    -0.502 OA
ATOM     23  H   UNL     1      41.389  48.763 137.058  1.00  0.00     0.293 HD
ENDBRANCH   2  22
BRANCH   6  24
ATOM     24  O   UNL     1      45.796  52.326 135.802  1.00  0.00    -0.507 OA
ATOM     25  H   UNL     1      45.831  52.730 136.726  1.00  0.00     0.293 HD
ENDBRANCH   6  24
BRANCH   8  26
ATOM     26  O   UNL     1      44.055  54.973 132.217  1.00  0.00    -0.508 OA
ATOM     27  H   UNL     1      44.873  55.100 131.631  1.00  0.00     0.293 HD
ENDBRANCH   8  26
TORSDOF 6
ENDMDL
MODEL 8
REMARK VINA RESULT:    -6.319      1.501      2.083
REMARK INTER + INTRA:          -7.828
REMARK INTER:                  -7.553
REMARK INTRA:                  -0.275
REMARK UNBOUND:                -0.216
REMARK SMILES O=c1c(O)c(-c2ccc(O)c(O)c2)oc2cc(O)cc(O)c12
REMARK SMILES IDX 5 1 3 2 2 3 1 4 22 5 20 6 19 7 17 8 16 9 15 10 14 11 6 12
REMARK SMILES IDX 7 13 8 14 9 15 13 16 11 17 10 18 12 20 4 22 21 24 18 26
REMARK H PARENT 10 19 12 21 4 23 21 25 18 27
REMARK Flexibility Score: inf
ROOT
ATOM      1  C   UNL     1      42.061  49.455 134.747  1.00  0.00     0.180 A 
ATOM      2  C   UNL     1      43.124  48.780 135.371  1.00  0.00     0.208 A 
ATOM      3  C   UNL     1      44.159  49.530 135.952  1.00  0.00     0.238 A 
ATOM      4  O   UNL     1      45.080  48.922 136.559  1.00  0.00    -0.285 OA
ATOM      5  C   UNL     1      44.127  50.944 135.887  1.00  0.00     0.111 A 
ATOM      6  C   UNL     1      45.143  51.802 136.406  1.00  0.00     0.134 A 
ATOM      7  C   UNL     1      44.944  53.188 136.401  1.00  0.00     0.093 A 
ATOM      8  C   UNL     1      43.799  53.750 135.838  1.00  0.00     0.123 A 
ATOM      9  C   UNL     1      42.827  52.922 135.273  1.00  0.00     0.094 A 
ATOM     10  C   UNL     1      42.979  51.534 135.296  1.00  0.00     0.146 A 
ATOM     11  O   UNL     1      42.027  50.783 134.758  1.00  0.00    -0.452 OA
ENDROOT
BRANCH   1  12
ATOM     12  C   UNL     1      40.947  48.733 134.090  1.00  0.00     0.025 A 
ATOM     13  C   UNL     1      39.920  48.134 134.841  1.00  0.00     0.016 A 
ATOM     14  C   UNL     1      38.891  47.438 134.202  1.00  0.00     0.051 A 
ATOM     15  C   UNL     1      38.878  47.317 132.809  1.00  0.00     0.157 A 
ATOM     16  C   UNL     1      40.942  48.592 132.693  1.00  0.00     0.062 A 
ATOM     17  C   UNL     1      39.910  47.893 132.050  1.00  0.00     0.158 A 
BRANCH  15  18
ATOM     18  O   UNL     1      37.837  46.618 132.199  1.00  0.00    -0.504 OA
ATOM     19  H   UNL     1      37.133  46.125 132.735  1.00  0.00     0.293 HD
ENDBRANCH  15  18
BRANCH  17  20
ATOM     20  O   UNL     1      39.907  47.771 130.661  1.00  0.00    -0.504 OA
ATOM     21  H   UNL     1      39.133  48.105 130.099  1.00  0.00     0.293 HD
ENDBRANCH  17  20
ENDBRANCH   1  12
BRANCH   2  22
ATOM     22  O   UNL     1      43.124  47.384 135.444  1.00  0.00    -0.502 OA
ATOM     23  H   UNL     1      43.782  46.870 136.018  1.00  0.00     0.293 HD
ENDBRANCH   2  22
BRANCH   6  24
ATOM     24  O   UNL     1      46.366  51.349 136.908  1.00  0.00    -0.507 OA
ATOM     25  H   UNL     1      47.129  51.946 137.188  1.00  0.00     0.293 HD
ENDBRANCH   6  24
BRANCH   8  26
ATOM     26  O   UNL     1      43.642  55.134 135.836  1.00  0.00    -0.508 OA
ATOM     27  H   UNL     1      44.326  55.745 136.270  1.00  0.00     0.293 HD
ENDBRANCH   8  26
TORSDOF 6
ENDMDL
MODEL 9
REMARK VINA RESULT:    -6.148      2.956      6.279
REMARK INTER + INTRA:          -7.622
REMARK INTER:                  -7.337
REMARK INTRA:                  -0.285
REMARK UNBOUND:                -0.216
REMARK SMILES O=c1c(O)c(-c2ccc(O)c(O)c2)oc2cc(O)cc(O)c12
REMARK SMILES IDX 5 1 3 2 2 3 1 4 22 5 20 6 19 7 17 8 16 9 15 10 14 11 6 12
REMARK SMILES IDX 7 13 8 14 9 15 13 16 11 17 10 18 12 20 4 22 21 24 18 26
REMARK H PARENT 10 19 12 21 4 23 21 25 18 27
REMARK Flexibility Score: inf
ROOT
ATOM      1  C   UNL     1      43.517  48.783 135.616  1.00  0.00     0.180 A 
ATOM      2  C   UNL     1      43.427  50.146 135.945  1.00  0.00     0.208 A 
ATOM      3  C   UNL     1      42.775  51.019 135.059  1.00  0.00     0.238 A 
ATOM      4  O   UNL     1      42.649  52.228 135.384  1.00  0.00    -0.285 OA
ATOM      5  C   UNL     1      42.234  50.520 133.849  1.00  0.00     0.111 A 
ATOM      6  C   UNL     1      41.589  51.321 132.859  1.00  0.00     0.134 A 
ATOM      7  C   UNL     1      40.978  50.702 131.762  1.00  0.00     0.093 A 
ATOM      8  C   UNL     1      41.046  49.320 131.584  1.00  0.00     0.123 A 
ATOM      9  C   UNL     1      41.727  48.535 132.514  1.00  0.00     0.094 A 
ATOM     10  C   UNL     1      42.315  49.119 133.638  1.00  0.00     0.146 A 
ATOM     11  O   UNL     1      42.944  48.335 134.505  1.00  0.00    -0.452 OA
ENDROOT
BRANCH   1  12
ATOM     12  C   UNL     1      44.211  47.806 136.487  1.00  0.00     0.025 A 
ATOM     13  C   UNL     1      45.614  47.744 136.544  1.00  0.00     0.016 A 
ATOM     14  C   UNL     1      46.247  46.798 137.354  1.00  0.00     0.051 A 
ATOM     15  C   UNL     1      45.493  45.895 138.108  1.00  0.00     0.157 A 
ATOM     16  C   UNL     1      43.456  46.883 137.229  1.00  0.00     0.062 A 
ATOM     17  C   UNL     1      44.091  45.933 138.044  1.00  0.00     0.158 A 
BRANCH  15  18
ATOM     18  O   UNL     1      46.153  44.964 138.909  1.00  0.00    -0.504 OA
ATOM     19  H   UNL     1      45.780  44.660 139.801  1.00  0.00     0.293 HD
ENDBRANCH  15  18
BRANCH  17  20
ATOM     20  O   UNL     1      43.332  45.030 138.787  1.00  0.00    -0.504 OA
ATOM     21  H   UNL     1      42.577  45.339 139.389  1.00  0.00     0.293 HD
ENDBRANCH  17  20
ENDBRANCH   1  12
BRANCH   2  22
ATOM     22  O   UNL     1      43.947  50.613 137.155  1.00  0.00    -0.502 OA
ATOM     23  H   UNL     1      44.686  51.305 137.199  1.00  0.00     0.293 HD
ENDBRANCH   2  22
BRANCH   6  24
ATOM     24  O   UNL     1      41.543  52.717 132.893  1.00  0.00    -0.507 OA
ATOM     25  H   UNL     1      40.970  53.259 133.522  1.00  0.00     0.293 HD
ENDBRANCH   6  24
BRANCH   8  26
ATOM     26  O   UNL     1      40.440  48.741 130.472  1.00  0.00    -0.508 OA
ATOM     27  H   UNL     1      40.986  48.292 129.744  1.00  0.00     0.293 HD
ENDBRANCH   8  26
TORSDOF 6
ENDMDL
