MODEL 1
REMARK VINA RESULT:    -7.681      0.000      0.000
REMARK INTER + INTRA:          -9.668
REMARK INTER:                  -9.253
REMARK INTRA:                  -0.415
REMARK UNBOUND:                -0.415
REMARK SMILES O=c1c(O)c(-c2ccc(O)cc2O)oc2cc(O)cc(O)c12
REMARK SMILES IDX 5 1 3 2 2 3 1 4 22 5 20 6 19 7 17 8 16 9 15 10 14 11 6 12
REMARK SMILES IDX 8 13 7 14 9 15 11 16 12 17 10 18 13 20 4 22 21 24 18 26
REMARK H PARENT 10 19 13 21 4 23 21 25 18 27
REMARK Flexibility Score: inf
ROOT
ATOM      1  C   UNL     1       6.368   6.718  -1.108  1.00  0.00     0.184 A 
ATOM      2  C   UNL     1       5.514   7.282  -0.148  1.00  0.00     0.208 A 
ATOM      3  C   UNL     1       5.662   6.906   1.197  1.00  0.00     0.238 A 
ATOM      4  O   UNL     1       4.854   7.368   2.044  1.00  0.00    -0.285 OA
ATOM      5  C   UNL     1       6.680   5.993   1.565  1.00  0.00     0.111 A 
ATOM      6  C   UNL     1       6.946   5.572   2.903  1.00  0.00     0.134 A 
ATOM      7  C   UNL     1       7.898   4.572   3.136  1.00  0.00     0.093 A 
ATOM      8  C   UNL     1       8.639   4.025   2.089  1.00  0.00     0.123 A 
ATOM      9  C   UNL     1       8.428   4.470   0.784  1.00  0.00     0.094 A 
ATOM     10  C   UNL     1       7.459   5.440   0.515  1.00  0.00     0.146 A 
ATOM     11  O   UNL     1       7.280   5.826  -0.742  1.00  0.00    -0.451 OA
ENDROOT
BRANCH   1  12
ATOM     12  C   UNL     1       6.275   7.094  -2.535  1.00  0.00     0.063 A 
ATOM     13  C   UNL     1       7.081   8.446  -4.391  1.00  0.00     0.047 A 
ATOM     14  C   UNL     1       7.108   8.109  -3.037  1.00  0.00     0.020 A 
ATOM     15  C   UNL     1       6.226   7.768  -5.267  1.00  0.00     0.119 A 
ATOM     16  C   UNL     1       5.394   6.756  -4.780  1.00  0.00     0.093 A 
ATOM     17  C   UNL     1       5.404   6.417  -3.421  1.00  0.00     0.130 A 
BRANCH  15  18
ATOM     18  O   UNL     1       6.194   8.092  -6.621  1.00  0.00    -0.508 OA
ATOM     19  H   UNL     1       6.737   7.574  -7.303  1.00  0.00     0.293 HD
ENDBRANCH  15  18
BRANCH  17  20
ATOM     20  O   UNL     1       4.526   5.423  -2.983  1.00  0.00    -0.507 OA
ATOM     21  H   UNL     1       4.836   4.521  -2.647  1.00  0.00     0.293 HD
ENDBRANCH  17  20
ENDBRANCH   1  12
BRANCH   2  22
ATOM     22  O   UNL     1       4.521   8.182  -0.540  1.00  0.00    -0.502 OA
ATOM     23  H   UNL     1       4.111   8.169  -1.466  1.00  0.00     0.293 HD
ENDBRANCH   2  22
BRANCH   6  24
ATOM     24  O   UNL     1       6.327   6.118   4.032  1.00  0.00    -0.507 OA
ATOM     25  H   UNL     1       6.364   7.090   4.295  1.00  0.00     0.293 HD
ENDBRANCH   6  24
BRANCH   8  26
ATOM     26  O   UNL     1       9.590   3.043   2.360  1.00  0.00    -0.508 OA
ATOM     27  H   UNL     1      10.551   3.136   2.049  1.00  0.00     0.293 HD
ENDBRANCH   8  26
TORSDOF 6
ENDMDL
MODEL 2
REMARK VINA RESULT:    -7.621      2.522      5.048
REMARK INTER + INTRA:          -9.596
REMARK INTER:                  -9.345
REMARK INTRA:                  -0.251
REMARK UNBOUND:                -0.415
REMARK SMILES O=c1c(O)c(-c2ccc(O)cc2O)oc2cc(O)cc(O)c12
REMARK SMILES IDX 5 1 3 2 2 3 1 4 22 5 20 6 19 7 17 8 16 9 15 10 14 11 6 12
REMARK SMILES IDX 8 13 7 14 9 15 11 16 12 17 10 18 13 20 4 22 21 24 18 26
REMARK H PARENT 10 19 13 21 4 23 21 25 18 27
REMARK Flexibility Score: inf
ROOT
ATOM      1  C   UNL     1       6.819   4.899   2.150  1.00  0.00     0.184 A 
ATOM      2  C   UNL     1       8.128   4.449   1.922  1.00  0.00     0.208 A 
ATOM      3  C   UNL     1       8.656   3.443   2.747  1.00  0.00     0.238 A 
ATOM      4  O   UNL     1       9.851   3.088   2.576  1.00  0.00    -0.285 OA
ATOM      5  C   UNL     1       7.855   2.882   3.771  1.00  0.00     0.111 A 
ATOM      6  C   UNL     1       8.273   1.830   4.641  1.00  0.00     0.134 A 
ATOM      7  C   UNL     1       7.442   1.437   5.697  1.00  0.00     0.093 A 
ATOM      8  C   UNL     1       6.184   2.009   5.875  1.00  0.00     0.123 A 
ATOM      9  C   UNL     1       5.741   2.998   4.996  1.00  0.00     0.094 A 
ATOM     10  C   UNL     1       6.562   3.438   3.955  1.00  0.00     0.146 A 
ATOM     11  O   UNL     1       6.109   4.391   3.149  1.00  0.00    -0.451 OA
ENDROOT
BRANCH   1  12
ATOM     12  C   UNL     1       6.202   5.938   1.298  1.00  0.00     0.063 A 
ATOM     13  C   UNL     1       5.548   6.698  -0.919  1.00  0.00     0.047 A 
ATOM     14  C   UNL     1       6.172   5.759  -0.096  1.00  0.00     0.020 A 
ATOM     15  C   UNL     1       4.938   7.826  -0.361  1.00  0.00     0.119 A 
ATOM     16  C   UNL     1       4.961   8.014   1.023  1.00  0.00     0.093 A 
ATOM     17  C   UNL     1       5.593   7.086   1.859  1.00  0.00     0.130 A 
BRANCH  15  18
ATOM     18  O   UNL     1       4.307   8.767  -1.172  1.00  0.00    -0.508 OA
ATOM     19  H   UNL     1       3.754   9.520  -0.779  1.00  0.00     0.293 HD
ENDBRANCH  15  18
BRANCH  17  20
ATOM     20  O   UNL     1       5.617   7.342   3.232  1.00  0.00    -0.507 OA
ATOM     21  H   UNL     1       5.421   8.252   3.627  1.00  0.00     0.293 HD
ENDBRANCH  17  20
ENDBRANCH   1  12
BRANCH   2  22
ATOM     22  O   UNL     1       8.894   5.020   0.901  1.00  0.00    -0.502 OA
ATOM     23  H   UNL     1       8.741   5.966   0.572  1.00  0.00     0.293 HD
ENDBRANCH   2  22
BRANCH   6  24
ATOM     24  O   UNL     1       9.473   1.126   4.498  1.00  0.00    -0.507 OA
ATOM     25  H   UNL     1      10.306   1.293   5.040  1.00  0.00     0.293 HD
ENDBRANCH   6  24
BRANCH   8  26
ATOM     26  O   UNL     1       5.376   1.581   6.928  1.00  0.00    -0.508 OA
ATOM     27  H   UNL     1       4.474   1.150   6.762  1.00  0.00     0.293 HD
ENDBRANCH   8  26
TORSDOF 6
ENDMDL
MODEL 3
REMARK VINA RESULT:    -7.422      1.519      2.538
REMARK INTER + INTRA:          -9.356
REMARK INTER:                  -8.962
REMARK INTRA:                  -0.393
REMARK UNBOUND:                -0.415
REMARK SMILES O=c1c(O)c(-c2ccc(O)cc2O)oc2cc(O)cc(O)c12
REMARK SMILES IDX 5 1 3 2 2 3 1 4 22 5 20 6 19 7 17 8 16 9 15 10 14 11 6 12
REMARK SMILES IDX 8 13 7 14 9 15 11 16 12 17 10 18 13 20 4 22 21 24 18 26
REMARK H PARENT 10 19 13 21 4 23 21 25 18 27
REMARK Flexibility Score: inf
ROOT
ATOM      1  C   UNL     1       6.664   5.988   0.731  1.00  0.00     0.184 A 
ATOM      2  C   UNL     1       5.891   6.407   1.825  1.00  0.00     0.208 A 
ATOM      3  C   UNL     1       6.141   5.846   3.088  1.00  0.00     0.238 A 
ATOM      4  O   UNL     1       5.404   6.181   4.052  1.00  0.00    -0.285 OA
ATOM      5  C   UNL     1       7.179   4.896   3.244  1.00  0.00     0.111 A 
ATOM      6  C   UNL     1       7.546   4.292   4.484  1.00  0.00     0.134 A 
ATOM      7  C   UNL     1       8.508   3.275   4.499  1.00  0.00     0.093 A 
ATOM      8  C   UNL     1       9.162   2.884   3.331  1.00  0.00     0.123 A 
ATOM      9  C   UNL     1       8.852   3.507   2.122  1.00  0.00     0.094 A 
ATOM     10  C   UNL     1       7.871   4.500   2.068  1.00  0.00     0.146 A 
ATOM     11  O   UNL     1       7.596   5.058   0.896  1.00  0.00    -0.451 OA
ENDROOT
BRANCH   1  12
ATOM     12  C   UNL     1       6.462   6.560  -0.617  1.00  0.00     0.063 A 
ATOM     13  C   UNL     1       5.245   6.550  -2.725  1.00  0.00     0.047 A 
ATOM     14  C   UNL     1       5.495   5.996  -1.468  1.00  0.00     0.020 A 
ATOM     15  C   UNL     1       5.954   7.680  -3.148  1.00  0.00     0.119 A 
ATOM     16  C   UNL     1       6.917   8.249  -2.311  1.00  0.00     0.093 A 
ATOM     17  C   UNL     1       7.184   7.697  -1.052  1.00  0.00     0.130 A 
BRANCH  15  18
ATOM     18  O   UNL     1       5.709   8.245  -4.398  1.00  0.00    -0.508 OA
ATOM     19  H   UNL     1       4.779   8.258  -4.801  1.00  0.00     0.293 HD
ENDBRANCH  15  18
BRANCH  17  20
ATOM     20  O   UNL     1       8.182   8.285  -0.272  1.00  0.00    -0.507 OA
ATOM     21  H   UNL     1       7.990   8.783   0.587  1.00  0.00     0.293 HD
ENDBRANCH  17  20
ENDBRANCH   1  12
BRANCH   2  22
ATOM     22  O   UNL     1       4.876   7.349   1.642  1.00  0.00    -0.502 OA
ATOM     23  H   UNL     1       4.356   7.426   0.776  1.00  0.00     0.293 HD
ENDBRANCH   2  22
BRANCH   6  24
ATOM     24  O   UNL     1       7.021   4.671   5.724  1.00  0.00    -0.507 OA
ATOM     25  H   UNL     1       7.481   5.282   6.381  1.00  0.00     0.293 HD
ENDBRANCH   6  24
BRANCH   8  26
ATOM     26  O   UNL     1      10.125   1.879   3.386  1.00  0.00    -0.508 OA
ATOM     27  H   UNL     1      10.866   1.817   2.697  1.00  0.00     0.293 HD
ENDBRANCH   8  26
TORSDOF 6
ENDMDL
MODEL 4
REMARK VINA RESULT:    -7.379      2.884      8.031
REMARK INTER + INTRA:          -9.304
REMARK INTER:                  -8.961
REMARK INTRA:                  -0.344
REMARK UNBOUND:                -0.415
REMARK SMILES O=c1c(O)c(-c2ccc(O)cc2O)oc2cc(O)cc(O)c12
REMARK SMILES IDX 5 1 3 2 2 3 1 4 22 5 20 6 19 7 17 8 16 9 15 10 14 11 6 12
REMARK SMILES IDX 8 13 7 14 9 15 11 16 12 17 10 18 13 20 4 22 21 24 18 26
REMARK H PARENT 10 19 13 21 4 23 21 25 18 27
REMARK Flexibility Score: inf
ROOT
ATOM      1  C   UNL     1       6.337   4.872   3.882  1.00  0.00     0.184 A 
ATOM      2  C   UNL     1       7.511   4.333   3.335  1.00  0.00     0.208 A 
ATOM      3  C   UNL     1       7.908   4.732   2.049  1.00  0.00     0.238 A 
ATOM      4  O   UNL     1       8.928   4.199   1.540  1.00  0.00    -0.285 OA
ATOM      5  C   UNL     1       7.139   5.687   1.340  1.00  0.00     0.111 A 
ATOM      6  C   UNL     1       7.468   6.194   0.047  1.00  0.00     0.134 A 
ATOM      7  C   UNL     1       6.571   7.044  -0.610  1.00  0.00     0.093 A 
ATOM      8  C   UNL     1       5.389   7.457   0.003  1.00  0.00     0.123 A 
ATOM      9  C   UNL     1       5.084   7.013   1.290  1.00  0.00     0.094 A 
ATOM     10  C   UNL     1       5.942   6.136   1.957  1.00  0.00     0.146 A 
ATOM     11  O   UNL     1       5.608   5.726   3.175  1.00  0.00    -0.451 OA
ENDROOT
BRANCH   1  12
ATOM     12  C   UNL     1       5.883   4.507   5.241  1.00  0.00     0.063 A 
ATOM     13  C   UNL     1       5.515   5.150   7.559  1.00  0.00     0.047 A 
ATOM     14  C   UNL     1       5.987   5.449   6.279  1.00  0.00     0.020 A 
ATOM     15  C   UNL     1       4.926   3.908   7.818  1.00  0.00     0.119 A 
ATOM     16  C   UNL     1       4.816   2.964   6.794  1.00  0.00     0.093 A 
ATOM     17  C   UNL     1       5.296   3.247   5.509  1.00  0.00     0.130 A 
BRANCH  15  18
ATOM     18  O   UNL     1       4.446   3.601   9.090  1.00  0.00    -0.508 OA
ATOM     19  H   UNL     1       4.672   4.176   9.894  1.00  0.00     0.293 HD
ENDBRANCH  15  18
BRANCH  17  20
ATOM     20  O   UNL     1       5.192   2.254   4.533  1.00  0.00    -0.507 OA
ATOM     21  H   UNL     1       4.766   1.353   4.704  1.00  0.00     0.293 HD
ENDBRANCH  17  20
ENDBRANCH   1  12
BRANCH   2  22
ATOM     22  O   UNL     1       8.252   3.395   4.059  1.00  0.00    -0.502 OA
ATOM     23  H   UNL     1       9.205   3.568   4.356  1.00  0.00     0.293 HD
ENDBRANCH   2  22
BRANCH   6  24
ATOM     24  O   UNL     1       8.667   5.918  -0.620  1.00  0.00    -0.507 OA
ATOM     25  H   UNL     1       8.751   5.320  -1.427  1.00  0.00     0.293 HD
ENDBRANCH   6  24
BRANCH   8  26
ATOM     26  O   UNL     1       4.527   8.316  -0.675  1.00  0.00    -0.508 OA
ATOM     27  H   UNL     1       4.207   9.184  -0.258  1.00  0.00     0.293 HD
ENDBRANCH   8  26
TORSDOF 6
ENDMDL
MODEL 5
REMARK VINA RESULT:    -7.328      2.033      6.940
REMARK INTER + INTRA:          -9.243
REMARK INTER:                  -8.849
REMARK INTRA:                  -0.394
REMARK UNBOUND:                -0.415
REMARK SMILES O=c1c(O)c(-c2ccc(O)cc2O)oc2cc(O)cc(O)c12
REMARK SMILES IDX 5 1 3 2 2 3 1 4 22 5 20 6 19 7 17 8 16 9 15 10 14 11 6 12
REMARK SMILES IDX 8 13 7 14 9 15 11 16 12 17 10 18 13 20 4 22 21 24 18 26
REMARK H PARENT 10 19 13 21 4 23 21 25 18 27
REMARK Flexibility Score: inf
ROOT
ATOM      1  C   UNL     1       5.867   5.441   2.218  1.00  0.00     0.184 A 
ATOM      2  C   UNL     1       5.605   6.754   2.641  1.00  0.00     0.208 A 
ATOM      3  C   UNL     1       5.331   7.737   1.677  1.00  0.00     0.238 A 
ATOM      4  O   UNL     1       5.158   8.924   2.058  1.00  0.00    -0.285 OA
ATOM      5  C   UNL     1       5.294   7.387   0.305  1.00  0.00     0.111 A 
ATOM      6  C   UNL     1       4.988   8.292  -0.755  1.00  0.00     0.134 A 
ATOM      7  C   UNL     1       5.101   7.865  -2.083  1.00  0.00     0.093 A 
ATOM      8  C   UNL     1       5.445   6.549  -2.389  1.00  0.00     0.123 A 
ATOM      9  C   UNL     1       5.690   5.640  -1.361  1.00  0.00     0.094 A 
ATOM     10  C   UNL     1       5.622   6.045  -0.026  1.00  0.00     0.146 A 
ATOM     11  O   UNL     1       5.876   5.152   0.923  1.00  0.00    -0.451 OA
ENDROOT
BRANCH   1  12
ATOM     12  C   UNL     1       6.138   4.360   3.188  1.00  0.00     0.063 A 
ATOM     13  C   UNL     1       5.308   2.824   4.883  1.00  0.00     0.047 A 
ATOM     14  C   UNL     1       5.093   3.881   3.998  1.00  0.00     0.020 A 
ATOM     15  C   UNL     1       6.569   2.224   4.969  1.00  0.00     0.119 A 
ATOM     16  C   UNL     1       7.615   2.690   4.168  1.00  0.00     0.093 A 
ATOM     17  C   UNL     1       7.415   3.758   3.284  1.00  0.00     0.130 A 
BRANCH  15  18
ATOM     18  O   UNL     1       6.794   1.164   5.845  1.00  0.00    -0.508 OA
ATOM     19  H   UNL     1       7.559   0.514   5.705  1.00  0.00     0.293 HD
ENDBRANCH  15  18
BRANCH  17  20
ATOM     20  O   UNL     1       8.505   4.206   2.534  1.00  0.00    -0.507 OA
ATOM     21  H   UNL     1       8.424   4.525   1.578  1.00  0.00     0.293 HD
ENDBRANCH  17  20
ENDBRANCH   1  12
BRANCH   2  22
ATOM     22  O   UNL     1       5.645   7.069   4.001  1.00  0.00    -0.502 OA
ATOM     23  H   UNL     1       4.850   7.464   4.490  1.00  0.00     0.293 HD
ENDBRANCH   2  22
BRANCH   6  24
ATOM     24  O   UNL     1       4.546   9.605  -0.558  1.00  0.00    -0.507 OA
ATOM     25  H   UNL     1       3.625   9.859  -0.237  1.00  0.00     0.293 HD
ENDBRANCH   6  24
BRANCH   8  26
ATOM     26  O   UNL     1       5.532   6.154  -3.723  1.00  0.00    -0.508 OA
ATOM     27  H   UNL     1       4.797   5.612  -4.164  1.00  0.00     0.293 HD
ENDBRANCH   8  26
TORSDOF 6
ENDMDL
MODEL 6
REMARK VINA RESULT:    -7.247     14.926     16.967
REMARK INTER + INTRA:          -9.145
REMARK INTER:                  -8.815
REMARK INTRA:                  -0.330
REMARK UNBOUND:                -0.415
REMARK SMILES O=c1c(O)c(-c2ccc(O)cc2O)oc2cc(O)cc(O)c12
REMARK SMILES IDX 5 1 3 2 2 3 1 4 22 5 20 6 19 7 17 8 16 9 15 10 14 11 6 12
REMARK SMILES IDX 8 13 7 14 9 15 11 16 12 17 10 18 13 20 4 22 21 24 18 26
REMARK H PARENT 10 19 13 21 4 23 21 25 18 27
REMARK Flexibility Score: inf
ROOT
ATOM      1  C   UNL     1      -0.304  -7.504   5.034  1.00  0.00     0.184 A 
ATOM      2  C   UNL     1      -0.391  -8.219   6.238  1.00  0.00     0.208 A 
ATOM      3  C   UNL     1      -1.266  -7.764   7.238  1.00  0.00     0.238 A 
ATOM      4  O   UNL     1      -1.293  -8.374   8.338  1.00  0.00    -0.285 OA
ATOM      5  C   UNL     1      -2.062  -6.616   7.006  1.00  0.00     0.111 A 
ATOM      6  C   UNL     1      -3.011  -6.088   7.932  1.00  0.00     0.134 A 
ATOM      7  C   UNL     1      -3.654  -4.877   7.647  1.00  0.00     0.093 A 
ATOM      8  C   UNL     1      -3.433  -4.210   6.444  1.00  0.00     0.123 A 
ATOM      9  C   UNL     1      -2.550  -4.746   5.506  1.00  0.00     0.094 A 
ATOM     10  C   UNL     1      -1.865  -5.933   5.777  1.00  0.00     0.146 A 
ATOM     11  O   UNL     1      -1.024  -6.403   4.864  1.00  0.00    -0.451 OA
ENDROOT
BRANCH   1  12
ATOM     12  C   UNL     1       0.582  -7.950   3.937  1.00  0.00     0.063 A 
ATOM     13  C   UNL     1       1.159  -9.633   2.277  1.00  0.00     0.047 A 
ATOM     14  C   UNL     1       0.373  -9.211   3.351  1.00  0.00     0.020 A 
ATOM     15  C   UNL     1       2.161  -8.799   1.768  1.00  0.00     0.119 A 
ATOM     16  C   UNL     1       2.376  -7.544   2.342  1.00  0.00     0.093 A 
ATOM     17  C   UNL     1       1.602  -7.112   3.427  1.00  0.00     0.130 A 
BRANCH  15  18
ATOM     18  O   UNL     1       2.947  -9.208   0.694  1.00  0.00    -0.508 OA
ATOM     19  H   UNL     1       3.036 -10.187   0.444  1.00  0.00     0.293 HD
ENDBRANCH  15  18
BRANCH  17  20
ATOM     20  O   UNL     1       1.884  -5.863   3.983  1.00  0.00    -0.507 OA
ATOM     21  H   UNL     1       1.507  -4.998   3.619  1.00  0.00     0.293 HD
ENDBRANCH  17  20
ENDBRANCH   1  12
BRANCH   2  22
ATOM     22  O   UNL     1       0.405  -9.350   6.437  1.00  0.00    -0.502 OA
ATOM     23  H   UNL     1       0.373 -10.152   5.818  1.00  0.00     0.293 HD
ENDBRANCH   2  22
BRANCH   6  24
ATOM     24  O   UNL     1      -3.376  -6.721   9.125  1.00  0.00    -0.507 OA
ATOM     25  H   UNL     1      -4.132  -7.381   9.218  1.00  0.00     0.293 HD
ENDBRANCH   6  24
BRANCH   8  26
ATOM     26  O   UNL     1      -4.103  -3.015   6.187  1.00  0.00    -0.508 OA
ATOM     27  H   UNL     1      -3.658  -2.257   5.681  1.00  0.00     0.293 HD
ENDBRANCH   8  26
TORSDOF 6
ENDMDL
MODEL 7
REMARK VINA RESULT:    -7.137      2.484      7.361
REMARK INTER + INTRA:          -9.012
REMARK INTER:                  -8.607
REMARK INTRA:                  -0.405
REMARK UNBOUND:                -0.415
REMARK SMILES O=c1c(O)c(-c2ccc(O)cc2O)oc2cc(O)cc(O)c12
REMARK SMILES IDX 5 1 3 2 2 3 1 4 22 5 20 6 19 7 17 8 16 9 15 10 14 11 6 12
REMARK SMILES IDX 8 13 7 14 9 15 11 16 12 17 10 18 13 20 4 22 21 24 18 26
REMARK H PARENT 10 19 13 21 4 23 21 25 18 27
REMARK Flexibility Score: inf
ROOT
ATOM      1  C   UNL     1       6.781   5.205   2.343  1.00  0.00     0.184 A 
ATOM      2  C   UNL     1       7.615   4.991   1.235  1.00  0.00     0.208 A 
ATOM      3  C   UNL     1       7.546   5.880   0.150  1.00  0.00     0.238 A 
ATOM      4  O   UNL     1       8.252   5.647  -0.866  1.00  0.00    -0.285 OA
ATOM      5  C   UNL     1       6.663   6.985   0.201  1.00  0.00     0.111 A 
ATOM      6  C   UNL     1       6.538   7.971  -0.824  1.00  0.00     0.134 A 
ATOM      7  C   UNL     1       5.545   8.952  -0.721  1.00  0.00     0.093 A 
ATOM      8  C   UNL     1       4.717   9.024   0.398  1.00  0.00     0.123 A 
ATOM      9  C   UNL     1       4.868   8.101   1.432  1.00  0.00     0.094 A 
ATOM     10  C   UNL     1       5.824   7.087   1.342  1.00  0.00     0.146 A 
ATOM     11  O   UNL     1       5.927   6.220   2.342  1.00  0.00    -0.451 OA
ENDROOT
BRANCH   1  12
ATOM     12  C   UNL     1       6.828   4.317   3.524  1.00  0.00     0.063 A 
ATOM     13  C   UNL     1       7.923   3.659   5.595  1.00  0.00     0.047 A 
ATOM     14  C   UNL     1       7.883   4.447   4.443  1.00  0.00     0.020 A 
ATOM     15  C   UNL     1       6.904   2.735   5.849  1.00  0.00     0.119 A 
ATOM     16  C   UNL     1       5.849   2.598   4.943  1.00  0.00     0.093 A 
ATOM     17  C   UNL     1       5.804   3.374   3.778  1.00  0.00     0.130 A 
BRANCH  15  18
ATOM     18  O   UNL     1       6.929   1.947   6.999  1.00  0.00    -0.508 OA
ATOM     19  H   UNL     1       6.169   1.317   7.226  1.00  0.00     0.293 HD
ENDBRANCH  15  18
BRANCH  17  20
ATOM     20  O   UNL     1       4.745   3.170   2.891  1.00  0.00    -0.507 OA
ATOM     21  H   UNL     1       3.778   3.132   3.184  1.00  0.00     0.293 HD
ENDBRANCH  17  20
ENDBRANCH   1  12
BRANCH   2  22
ATOM     22  O   UNL     1       8.479   3.893   1.214  1.00  0.00    -0.502 OA
ATOM     23  H   UNL     1       9.486   3.996   1.156  1.00  0.00     0.293 HD
ENDBRANCH   2  22
BRANCH   6  24
ATOM     24  O   UNL     1       7.375   8.047  -1.942  1.00  0.00    -0.507 OA
ATOM     25  H   UNL     1       7.627   7.264  -2.526  1.00  0.00     0.293 HD
ENDBRANCH   6  24
BRANCH   8  26
ATOM     26  O   UNL     1       3.749  10.025   0.474  1.00  0.00    -0.508 OA
ATOM     27  H   UNL     1       2.760   9.804   0.512  1.00  0.00     0.293 HD
ENDBRANCH   8  26
TORSDOF 6
ENDMDL
MODEL 8
REMARK VINA RESULT:    -7.063      2.840      5.101
REMARK INTER + INTRA:          -8.924
REMARK INTER:                  -8.720
REMARK INTRA:                  -0.204
REMARK UNBOUND:                -0.415
REMARK SMILES O=c1c(O)c(-c2ccc(O)cc2O)oc2cc(O)cc(O)c12
REMARK SMILES IDX 5 1 3 2 2 3 1 4 22 5 20 6 19 7 17 8 16 9 15 10 14 11 6 12
REMARK SMILES IDX 8 13 7 14 9 15 11 16 12 17 10 18 13 20 4 22 21 24 18 26
REMARK H PARENT 10 19 13 21 4 23 21 25 18 27
REMARK Flexibility Score: inf
ROOT
ATOM      1  C   UNL     1       6.007   5.542   2.656  1.00  0.00     0.184 A 
ATOM      2  C   UNL     1       6.980   4.572   2.369  1.00  0.00     0.208 A 
ATOM      3  C   UNL     1       7.124   3.477   3.236  1.00  0.00     0.238 A 
ATOM      4  O   UNL     1       8.039   2.643   3.007  1.00  0.00    -0.285 OA
ATOM      5  C   UNL     1       6.274   3.353   4.361  1.00  0.00     0.111 A 
ATOM      6  C   UNL     1       6.305   2.266   5.285  1.00  0.00     0.134 A 
ATOM      7  C   UNL     1       5.501   2.309   6.430  1.00  0.00     0.093 A 
ATOM      8  C   UNL     1       4.621   3.366   6.653  1.00  0.00     0.123 A 
ATOM      9  C   UNL     1       4.540   4.407   5.728  1.00  0.00     0.094 A 
ATOM     10  C   UNL     1       5.356   4.411   4.594  1.00  0.00     0.146 A 
ATOM     11  O   UNL     1       5.259   5.428   3.746  1.00  0.00    -0.451 OA
ENDROOT
BRANCH   1  12
ATOM     12  C   UNL     1       5.793   6.704   1.767  1.00  0.00     0.063 A 
ATOM     13  C   UNL     1       5.857   9.114   1.435  1.00  0.00     0.047 A 
ATOM     14  C   UNL     1       5.998   8.002   2.267  1.00  0.00     0.020 A 
ATOM     15  C   UNL     1       5.516   8.945   0.089  1.00  0.00     0.119 A 
ATOM     16  C   UNL     1       5.311   7.660  -0.420  1.00  0.00     0.093 A 
ATOM     17  C   UNL     1       5.439   6.537   0.407  1.00  0.00     0.130 A 
BRANCH  15  18
ATOM     18  O   UNL     1       5.378  10.047  -0.752  1.00  0.00    -0.508 OA
ATOM     19  H   UNL     1       6.162  10.413  -1.280  1.00  0.00     0.293 HD
ENDBRANCH  15  18
BRANCH  17  20
ATOM     20  O   UNL     1       5.188   5.279  -0.145  1.00  0.00    -0.507 OA
ATOM     21  H   UNL     1       5.179   4.428   0.401  1.00  0.00     0.293 HD
ENDBRANCH  17  20
ENDBRANCH   1  12
BRANCH   2  22
ATOM     22  O   UNL     1       7.802   4.718   1.249  1.00  0.00    -0.502 OA
ATOM     23  H   UNL     1       8.783   4.959   1.323  1.00  0.00     0.293 HD
ENDBRANCH   2  22
BRANCH   6  24
ATOM     24  O   UNL     1       7.082   1.115   5.112  1.00  0.00    -0.507 OA
ATOM     25  H   UNL     1       7.844   0.840   5.712  1.00  0.00     0.293 HD
ENDBRANCH   6  24
BRANCH   8  26
ATOM     26  O   UNL     1       3.824   3.368   7.796  1.00  0.00    -0.508 OA
ATOM     27  H   UNL     1       2.916   2.916   7.809  1.00  0.00     0.293 HD
ENDBRANCH   8  26
TORSDOF 6
ENDMDL
MODEL 9
REMARK VINA RESULT:    -7.055     14.915     16.835
REMARK INTER + INTRA:          -8.914
REMARK INTER:                  -8.590
REMARK INTRA:                  -0.324
REMARK UNBOUND:                -0.415
REMARK SMILES O=c1c(O)c(-c2ccc(O)cc2O)oc2cc(O)cc(O)c12
REMARK SMILES IDX 5 1 3 2 2 3 1 4 22 5 20 6 19 7 17 8 16 9 15 10 14 11 6 12
REMARK SMILES IDX 8 13 7 14 9 15 11 16 12 17 10 18 13 20 4 22 21 24 18 26
REMARK H PARENT 10 19 13 21 4 23 21 25 18 27
REMARK Flexibility Score: inf
ROOT
ATOM      1  C   UNL     1      -2.303  -5.359   6.599  1.00  0.00     0.184 A 
ATOM      2  C   UNL     1      -2.366  -6.473   7.450  1.00  0.00     0.208 A 
ATOM      3  C   UNL     1      -1.404  -7.486   7.316  1.00  0.00     0.238 A 
ATOM      4  O   UNL     1      -1.502  -8.511   8.040  1.00  0.00    -0.285 OA
ATOM      5  C   UNL     1      -0.376  -7.357   6.351  1.00  0.00     0.111 A 
ATOM      6  C   UNL     1       0.675  -8.304   6.153  1.00  0.00     0.134 A 
ATOM      7  C   UNL     1       1.567  -8.133   5.088  1.00  0.00     0.093 A 
ATOM      8  C   UNL     1       1.488  -7.019   4.253  1.00  0.00     0.123 A 
ATOM      9  C   UNL     1       0.501  -6.059   4.472  1.00  0.00     0.094 A 
ATOM     10  C   UNL     1      -0.427  -6.218   5.503  1.00  0.00     0.146 A 
ATOM     11  O   UNL     1      -1.359  -5.288   5.669  1.00  0.00    -0.451 OA
ENDROOT
BRANCH   1  12
ATOM     12  C   UNL     1      -3.275  -4.250   6.710  1.00  0.00     0.063 A 
ATOM     13  C   UNL     1      -5.582  -3.482   6.609  1.00  0.00     0.047 A 
ATOM     14  C   UNL     1      -4.636  -4.497   6.458  1.00  0.00     0.020 A 
ATOM     15  C   UNL     1      -5.183  -2.206   7.020  1.00  0.00     0.119 A 
ATOM     16  C   UNL     1      -3.833  -1.948   7.274  1.00  0.00     0.093 A 
ATOM     17  C   UNL     1      -2.873  -2.955   7.116  1.00  0.00     0.130 A 
BRANCH  15  18
ATOM     18  O   UNL     1      -6.119  -1.186   7.180  1.00  0.00    -0.508 OA
ATOM     19  H   UNL     1      -6.245  -0.467   6.476  1.00  0.00     0.293 HD
ENDBRANCH  15  18
BRANCH  17  20
ATOM     20  O   UNL     1      -1.534  -2.633   7.349  1.00  0.00    -0.507 OA
ATOM     21  H   UNL     1      -0.899  -2.346   6.616  1.00  0.00     0.293 HD
ENDBRANCH  17  20
ENDBRANCH   1  12
BRANCH   2  22
ATOM     22  O   UNL     1      -3.390  -6.571   8.395  1.00  0.00    -0.502 OA
ATOM     23  H   UNL     1      -4.005  -5.796   8.613  1.00  0.00     0.293 HD
ENDBRANCH   2  22
BRANCH   6  24
ATOM     24  O   UNL     1       0.901  -9.405   6.985  1.00  0.00    -0.507 OA
ATOM     25  H   UNL     1       0.557  -9.494   7.929  1.00  0.00     0.293 HD
ENDBRANCH   6  24
BRANCH   8  26
ATOM     26  O   UNL     1       2.403  -6.875   3.212  1.00  0.00    -0.508 OA
ATOM     27  H   UNL     1       2.233  -7.278   2.297  1.00  0.00     0.293 HD
ENDBRANCH   8  26
TORSDOF 6
ENDMDL
