MODEL 1
REMARK VINA RESULT:    -5.613      0.000      0.000
REMARK INTER + INTRA:          -5.941
REMARK INTER:                  -5.941
REMARK INTRA:                   0.000
REMARK UNBOUND:                 0.000
REMARK SMILES O=c1ccc2cc(O)c(O)cc2o1
REMARK SMILES IDX 4 1 3 2 2 3 1 4 13 5 12 6 11 7 9 8 7 9 6 10 5 11 8 12 10 14
REMARK H PARENT 8 13 10 15
REMARK Flexibility Score: inf
ROOT
ATOM      1  C   UNL     1     131.115 134.255 121.268  1.00  0.00     0.019 A 
ATOM      2  C   UNL     1     131.305 132.964 121.763  1.00  0.00     0.094 A 
ATOM      3  C   UNL     1     130.651 132.589 122.942  1.00  0.00     0.336 A 
ATOM      4  O   UNL     1     130.810 131.429 123.405  1.00  0.00    -0.246 OA
ATOM      5  O   UNL     1     129.859 133.448 123.577  1.00  0.00    -0.423 OA
ATOM      6  C   UNL     1     129.651 134.688 123.138  1.00  0.00     0.142 A 
ATOM      7  C   UNL     1     128.808 135.549 123.848  1.00  0.00     0.098 A 
ATOM      8  C   UNL     1     128.584 136.856 123.390  1.00  0.00     0.161 A 
ATOM      9  C   UNL     1     129.210 137.303 122.213  1.00  0.00     0.158 A 
ATOM     10  C   UNL     1     130.054 136.443 121.500  1.00  0.00     0.062 A 
ATOM     11  C   UNL     1     130.278 135.137 121.957  1.00  0.00     0.022 A 
ENDROOT
BRANCH   9  12
ATOM     12  O   UNL     1     129.004 138.597 121.735  1.00  0.00    -0.504 OA
ATOM     13  H   UNL     1     128.186 139.140 121.986  1.00  0.00     0.293 HD
ENDBRANCH   9  12
BRANCH   8  14
ATOM     14  O   UNL     1     127.743 137.710 124.101  1.00  0.00    -0.504 OA
ATOM     15  H   UNL     1     128.067 138.217 124.917  1.00  0.00     0.293 HD
ENDBRANCH   8  14
TORSDOF 2
ENDMDL
MODEL 2
REMARK VINA RESULT:    -5.603      1.501      1.700
REMARK INTER + INTRA:          -5.931
REMARK INTER:                  -5.931
REMARK INTRA:                   0.000
REMARK UNBOUND:                 0.000
REMARK SMILES O=c1ccc2cc(O)c(O)cc2o1
REMARK SMILES IDX 4 1 3 2 2 3 1 4 13 5 12 6 11 7 9 8 7 9 6 10 5 11 8 12 10 14
REMARK H PARENT 8 13 10 15
REMARK Flexibility Score: inf
ROOT
ATOM      1  C   UNL     1     131.460 134.775 123.614  1.00  0.00     0.019 A 
ATOM      2  C   UNL     1     131.567 133.456 124.055  1.00  0.00     0.094 A 
ATOM      3  C   UNL     1     130.497 132.580 123.836  1.00  0.00     0.336 A 
ATOM      4  O   UNL     1     130.574 131.386 124.227  1.00  0.00    -0.246 OA
ATOM      5  O   UNL     1     129.397 133.000 123.217  1.00  0.00    -0.423 OA
ATOM      6  C   UNL     1     129.255 134.250 122.782  1.00  0.00     0.142 A 
ATOM      7  C   UNL     1     128.075 134.636 122.136  1.00  0.00     0.098 A 
ATOM      8  C   UNL     1     127.919 135.951 121.674  1.00  0.00     0.161 A 
ATOM      9  C   UNL     1     128.953 136.887 121.860  1.00  0.00     0.158 A 
ATOM     10  C   UNL     1     130.136 136.503 122.505  1.00  0.00     0.062 A 
ATOM     11  C   UNL     1     130.292 135.189 122.967  1.00  0.00     0.022 A 
ENDROOT
BRANCH   9  12
ATOM     12  O   UNL     1     128.824 138.201 121.411  1.00  0.00    -0.504 OA
ATOM     13  H   UNL     1     129.246 138.981 121.900  1.00  0.00     0.293 HD
ENDBRANCH   9  12
BRANCH   8  14
ATOM     14  O   UNL     1     126.742 136.331 121.033  1.00  0.00    -0.504 OA
ATOM     15  H   UNL     1     126.330 137.246 121.176  1.00  0.00     0.293 HD
ENDBRANCH   8  14
TORSDOF 2
ENDMDL
MODEL 3
REMARK VINA RESULT:    -5.525      1.122      2.255
REMARK INTER + INTRA:          -5.848
REMARK INTER:                  -5.848
REMARK INTRA:                   0.000
REMARK UNBOUND:                 0.000
REMARK SMILES O=c1ccc2cc(O)c(O)cc2o1
REMARK SMILES IDX 4 1 3 2 2 3 1 4 13 5 12 6 11 7 9 8 7 9 6 10 5 11 8 12 10 14
REMARK H PARENT 8 13 10 15
REMARK Flexibility Score: inf
ROOT
ATOM      1  C   UNL     1     129.586 133.312 123.539  1.00  0.00     0.019 A 
ATOM      2  C   UNL     1     130.427 132.458 122.825  1.00  0.00     0.094 A 
ATOM      3  C   UNL     1     131.112 132.958 121.711  1.00  0.00     0.336 A 
ATOM      4  O   UNL     1     131.876 132.204 121.054  1.00  0.00    -0.246 OA
ATOM      5  O   UNL     1     130.964 134.228 121.343  1.00  0.00    -0.423 OA
ATOM      6  C   UNL     1     130.172 135.074 121.997  1.00  0.00     0.142 A 
ATOM      7  C   UNL     1     130.055 136.399 121.562  1.00  0.00     0.098 A 
ATOM      8  C   UNL     1     129.222 137.297 122.247  1.00  0.00     0.161 A 
ATOM      9  C   UNL     1     128.501 136.863 123.375  1.00  0.00     0.158 A 
ATOM     10  C   UNL     1     128.617 135.538 123.811  1.00  0.00     0.062 A 
ATOM     11  C   UNL     1     129.449 134.641 123.128  1.00  0.00     0.022 A 
ENDROOT
BRANCH   9  12
ATOM     12  O   UNL     1     127.666 137.735 124.074  1.00  0.00    -0.504 OA
ATOM     13  H   UNL     1     127.148 138.471 123.610  1.00  0.00     0.293 HD
ENDBRANCH   9  12
BRANCH   8  14
ATOM     14  O   UNL     1     129.108 138.615 121.811  1.00  0.00    -0.504 OA
ATOM     15  H   UNL     1     129.728 139.343 122.148  1.00  0.00     0.293 HD
ENDBRANCH   8  14
TORSDOF 2
ENDMDL
MODEL 4
REMARK VINA RESULT:    -5.398      1.901      2.507
REMARK INTER + INTRA:          -5.714
REMARK INTER:                  -5.714
REMARK INTRA:                   0.000
REMARK UNBOUND:                 0.000
REMARK SMILES O=c1ccc2cc(O)c(O)cc2o1
REMARK SMILES IDX 4 1 3 2 2 3 1 4 13 5 12 6 11 7 9 8 7 9 6 10 5 11 8 12 10 14
REMARK H PARENT 8 13 10 15
REMARK Flexibility Score: inf
ROOT
ATOM      1  C   UNL     1     128.898 133.111 123.794  1.00  0.00     0.019 A 
ATOM      2  C   UNL     1     130.040 132.727 124.498  1.00  0.00     0.094 A 
ATOM      3  C   UNL     1     131.145 133.586 124.517  1.00  0.00     0.336 A 
ATOM      4  O   UNL     1     132.184 133.258 125.146  1.00  0.00    -0.246 OA
ATOM      5  O   UNL     1     131.103 134.751 123.876  1.00  0.00    -0.423 OA
ATOM      6  C   UNL     1     130.034 135.154 123.194  1.00  0.00     0.142 A 
ATOM      7  C   UNL     1     130.049 136.390 122.538  1.00  0.00     0.098 A 
ATOM      8  C   UNL     1     128.925 136.822 121.818  1.00  0.00     0.161 A 
ATOM      9  C   UNL     1     127.779 136.009 121.754  1.00  0.00     0.158 A 
ATOM     10  C   UNL     1     127.762 134.772 122.409  1.00  0.00     0.062 A 
ATOM     11  C   UNL     1     128.884 134.340 123.129  1.00  0.00     0.022 A 
ENDROOT
BRANCH   9  12
ATOM     12  O   UNL     1     126.648 136.414 121.045  1.00  0.00    -0.504 OA
ATOM     13  H   UNL     1     126.021 135.750 120.607  1.00  0.00     0.293 HD
ENDBRANCH   9  12
BRANCH   8  14
ATOM     14  O   UNL     1     128.944 138.054 121.166  1.00  0.00    -0.504 OA
ATOM     15  H   UNL     1     129.608 138.778 121.417  1.00  0.00     0.293 HD
ENDBRANCH   8  14
TORSDOF 2
ENDMDL
MODEL 5
REMARK VINA RESULT:    -5.391      1.426      5.105
REMARK INTER + INTRA:          -5.707
REMARK INTER:                  -5.707
REMARK INTRA:                   0.000
REMARK UNBOUND:                 0.000
REMARK SMILES O=c1ccc2cc(O)c(O)cc2o1
REMARK SMILES IDX 4 1 3 2 2 3 1 4 13 5 12 6 11 7 9 8 7 9 6 10 5 11 8 12 10 14
REMARK H PARENT 8 13 10 15
REMARK Flexibility Score: inf
ROOT
ATOM      1  C   UNL     1     128.469 134.333 124.274  1.00  0.00     0.019 A 
ATOM      2  C   UNL     1     128.002 135.624 124.025  1.00  0.00     0.094 A 
ATOM      3  C   UNL     1     128.545 136.346 122.956  1.00  0.00     0.336 A 
ATOM      4  O   UNL     1     128.138 137.512 122.715  1.00  0.00    -0.246 OA
ATOM      5  O   UNL     1     129.488 135.807 122.189  1.00  0.00    -0.423 OA
ATOM      6  C   UNL     1     129.960 134.579 122.392  1.00  0.00     0.142 A 
ATOM      7  C   UNL     1     130.954 134.064 121.552  1.00  0.00     0.098 A 
ATOM      8  C   UNL     1     131.455 132.770 121.761  1.00  0.00     0.161 A 
ATOM      9  C   UNL     1     130.957 131.988 122.818  1.00  0.00     0.158 A 
ATOM     10  C   UNL     1     129.963 132.501 123.660  1.00  0.00     0.062 A 
ATOM     11  C   UNL     1     129.462 133.793 123.452  1.00  0.00     0.022 A 
ENDROOT
BRANCH   9  12
ATOM     12  O   UNL     1     131.438 130.698 123.048  1.00  0.00    -0.504 OA
ATOM     13  H   UNL     1     130.932 130.028 123.614  1.00  0.00     0.293 HD
ENDBRANCH   9  12
BRANCH   8  14
ATOM     14  O   UNL     1     132.445 132.261 120.922  1.00  0.00    -0.504 OA
ATOM     15  H   UNL     1     132.342 131.365 120.460  1.00  0.00     0.293 HD
ENDBRANCH   8  14
TORSDOF 2
ENDMDL
MODEL 6
REMARK VINA RESULT:    -5.354      2.140      3.631
REMARK INTER + INTRA:          -5.668
REMARK INTER:                  -5.668
REMARK INTRA:                   0.000
REMARK UNBOUND:                 0.000
REMARK SMILES O=c1ccc2cc(O)c(O)cc2o1
REMARK SMILES IDX 4 1 3 2 2 3 1 4 13 5 12 6 11 7 9 8 7 9 6 10 5 11 8 12 10 14
REMARK H PARENT 8 13 10 15
REMARK Flexibility Score: inf
ROOT
ATOM      1  C   UNL     1     131.652 130.905 123.759  1.00  0.00     0.019 A 
ATOM      2  C   UNL     1     132.080 130.414 122.525  1.00  0.00     0.094 A 
ATOM      3  C   UNL     1     131.876 131.191 121.379  1.00  0.00     0.336 A 
ATOM      4  O   UNL     1     132.254 130.765 120.257  1.00  0.00    -0.246 OA
ATOM      5  O   UNL     1     131.285 132.379 121.467  1.00  0.00    -0.423 OA
ATOM      6  C   UNL     1     130.862 132.884 122.624  1.00  0.00     0.142 A 
ATOM      7  C   UNL     1     130.247 134.140 122.656  1.00  0.00     0.098 A 
ATOM      8  C   UNL     1     129.800 134.678 123.872  1.00  0.00     0.161 A 
ATOM      9  C   UNL     1     129.971 133.952 125.065  1.00  0.00     0.158 A 
ATOM     10  C   UNL     1     130.587 132.694 125.036  1.00  0.00     0.062 A 
ATOM     11  C   UNL     1     131.033 132.157 123.821  1.00  0.00     0.022 A 
ENDROOT
BRANCH   9  12
ATOM     12  O   UNL     1     129.536 134.463 126.287  1.00  0.00    -0.504 OA
ATOM     13  H   UNL     1     128.969 135.301 126.349  1.00  0.00     0.293 HD
ENDBRANCH   9  12
BRANCH   8  14
ATOM     14  O   UNL     1     129.187 135.929 123.899  1.00  0.00    -0.504 OA
ATOM     15  H   UNL     1     128.415 136.130 124.524  1.00  0.00     0.293 HD
ENDBRANCH   8  14
TORSDOF 2
ENDMDL
MODEL 7
REMARK VINA RESULT:    -5.324      2.627      5.527
REMARK INTER + INTRA:          -5.635
REMARK INTER:                  -5.635
REMARK INTRA:                   0.000
REMARK UNBOUND:                 0.000
REMARK SMILES O=c1ccc2cc(O)c(O)cc2o1
REMARK SMILES IDX 4 1 3 2 2 3 1 4 13 5 12 6 11 7 9 8 7 9 6 10 5 11 8 12 10 14
REMARK H PARENT 8 13 10 15
REMARK Flexibility Score: inf
ROOT
ATOM      1  C   UNL     1     129.248 132.418 124.794  1.00  0.00     0.019 A 
ATOM      2  C   UNL     1     128.203 133.275 124.448  1.00  0.00     0.094 A 
ATOM      3  C   UNL     1     128.237 133.916 123.204  1.00  0.00     0.336 A 
ATOM      4  O   UNL     1     127.304 134.693 122.873  1.00  0.00    -0.246 OA
ATOM      5  O   UNL     1     129.249 133.708 122.366  1.00  0.00    -0.423 OA
ATOM      6  C   UNL     1     130.265 132.899 122.658  1.00  0.00     0.142 A 
ATOM      7  C   UNL     1     131.302 132.718 121.737  1.00  0.00     0.098 A 
ATOM      8  C   UNL     1     132.375 131.866 122.038  1.00  0.00     0.161 A 
ATOM      9  C   UNL     1     132.408 131.190 123.271  1.00  0.00     0.158 A 
ATOM     10  C   UNL     1     131.371 131.369 124.194  1.00  0.00     0.062 A 
ATOM     11  C   UNL     1     130.299 132.220 123.894  1.00  0.00     0.022 A 
ENDROOT
BRANCH   9  12
ATOM     12  O   UNL     1     133.463 130.337 123.595  1.00  0.00    -0.504 OA
ATOM     13  H   UNL     1     133.317 129.358 123.810  1.00  0.00     0.293 HD
ENDBRANCH   9  12
BRANCH   8  14
ATOM     14  O   UNL     1     133.406 131.691 121.117  1.00  0.00    -0.504 OA
ATOM     15  H   UNL     1     134.141 131.009 121.266  1.00  0.00     0.293 HD
ENDBRANCH   8  14
TORSDOF 2
ENDMDL
MODEL 8
REMARK VINA RESULT:    -5.262      2.352      4.262
REMARK INTER + INTRA:          -5.569
REMARK INTER:                  -5.569
REMARK INTRA:                   0.000
REMARK UNBOUND:                 0.000
REMARK SMILES O=c1ccc2cc(O)c(O)cc2o1
REMARK SMILES IDX 4 1 3 2 2 3 1 4 13 5 12 6 11 7 9 8 7 9 6 10 5 11 8 12 10 14
REMARK H PARENT 8 13 10 15
REMARK Flexibility Score: inf
ROOT
ATOM      1  C   UNL     1     128.322 135.421 123.504  1.00  0.00     0.019 A 
ATOM      2  C   UNL     1     127.726 135.248 124.754  1.00  0.00     0.094 A 
ATOM      3  C   UNL     1     128.242 134.279 125.622  1.00  0.00     0.336 A 
ATOM      4  O   UNL     1     127.718 134.108 126.753  1.00  0.00    -0.246 OA
ATOM      5  O   UNL     1     129.284 133.535 125.259  1.00  0.00    -0.423 OA
ATOM      6  C   UNL     1     129.880 133.668 124.076  1.00  0.00     0.142 A 
ATOM      7  C   UNL     1     130.973 132.858 123.750  1.00  0.00     0.098 A 
ATOM      8  C   UNL     1     131.606 132.993 122.505  1.00  0.00     0.161 A 
ATOM      9  C   UNL     1     131.141 133.946 121.582  1.00  0.00     0.158 A 
ATOM     10  C   UNL     1     130.048 134.759 121.907  1.00  0.00     0.062 A 
ATOM     11  C   UNL     1     129.415 134.624 123.150  1.00  0.00     0.022 A 
ENDROOT
BRANCH   9  12
ATOM     12  O   UNL     1     131.753 134.102 120.338  1.00  0.00    -0.504 OA
ATOM     13  H   UNL     1     131.304 134.595 119.576  1.00  0.00     0.293 HD
ENDBRANCH   9  12
BRANCH   8  14
ATOM     14  O   UNL     1     132.694 132.183 122.184  1.00  0.00    -0.504 OA
ATOM     15  H   UNL     1     133.162 132.252 121.288  1.00  0.00     0.293 HD
ENDBRANCH   8  14
TORSDOF 2
ENDMDL
MODEL 9
REMARK VINA RESULT:    -5.250      2.110      3.160
REMARK INTER + INTRA:          -5.557
REMARK INTER:                  -5.557
REMARK INTRA:                   0.000
REMARK UNBOUND:                 0.000
REMARK SMILES O=c1ccc2cc(O)c(O)cc2o1
REMARK SMILES IDX 4 1 3 2 2 3 1 4 13 5 12 6 11 7 9 8 7 9 6 10 5 11 8 12 10 14
REMARK H PARENT 8 13 10 15
REMARK Flexibility Score: inf
ROOT
ATOM      1  C   UNL     1     131.878 132.164 120.938  1.00  0.00     0.019 A 
ATOM      2  C   UNL     1     132.320 130.841 120.986  1.00  0.00     0.094 A 
ATOM      3  C   UNL     1     132.256 130.150 122.201  1.00  0.00     0.336 A 
ATOM      4  O   UNL     1     132.650 128.956 122.264  1.00  0.00    -0.246 OA
ATOM      5  O   UNL     1     131.781 130.745 123.291  1.00  0.00    -0.423 OA
ATOM      6  C   UNL     1     131.351 132.005 123.288  1.00  0.00     0.142 A 
ATOM      7  C   UNL     1     130.862 132.579 124.466  1.00  0.00     0.098 A 
ATOM      8  C   UNL     1     130.406 133.906 124.470  1.00  0.00     0.161 A 
ATOM      9  C   UNL     1     130.441 134.662 123.285  1.00  0.00     0.158 A 
ATOM     10  C   UNL     1     130.930 134.090 122.104  1.00  0.00     0.062 A 
ATOM     11  C   UNL     1     131.385 132.764 122.100  1.00  0.00     0.022 A 
ENDROOT
BRANCH   9  12
ATOM     12  O   UNL     1     129.993 135.983 123.261  1.00  0.00    -0.504 OA
ATOM     13  H   UNL     1     130.596 136.751 122.988  1.00  0.00     0.293 HD
ENDBRANCH   9  12
BRANCH   8  14
ATOM     14  O   UNL     1     129.920 134.474 125.646  1.00  0.00    -0.504 OA
ATOM     15  H   UNL     1     129.884 135.479 125.776  1.00  0.00     0.293 HD
ENDBRANCH   8  14
TORSDOF 2
ENDMDL
