MODEL 1
REMARK VINA RESULT:    -6.192      0.000      0.000
REMARK INTER + INTRA:          -7.759
REMARK INTER:                  -7.459
REMARK INTRA:                  -0.300
REMARK UNBOUND:                -0.300
REMARK SMILES O=c1c(O)c(-c2ccc(O)c(O)c2)oc2cc(O)cc(O)c12
REMARK SMILES IDX 5 1 3 2 2 3 1 4 22 5 20 6 19 7 17 8 16 9 15 10 14 11 6 12
REMARK SMILES IDX 7 13 8 14 9 15 13 16 11 17 10 18 12 20 4 22 21 24 18 26
REMARK H PARENT 10 19 12 21 4 23 21 25 18 27
REMARK Flexibility Score: inf
ROOT
ATOM      1  C   UNL     1      76.228  62.243  54.154  1.00  0.00     0.180 A 
ATOM      2  C   UNL     1      75.354  62.395  53.064  1.00  0.00     0.208 A 
ATOM      3  C   UNL     1      74.007  62.704  53.310  1.00  0.00     0.238 A 
ATOM      4  O   UNL     1      73.241  62.893  52.329  1.00  0.00    -0.285 OA
ATOM      5  C   UNL     1      73.546  62.840  54.642  1.00  0.00     0.111 A 
ATOM      6  C   UNL     1      72.194  63.112  55.009  1.00  0.00     0.134 A 
ATOM      7  C   UNL     1      71.879  63.356  56.352  1.00  0.00     0.093 A 
ATOM      8  C   UNL     1      72.852  63.273  57.347  1.00  0.00     0.123 A 
ATOM      9  C   UNL     1      74.165  62.949  57.006  1.00  0.00     0.094 A 
ATOM     10  C   UNL     1      74.519  62.737  55.671  1.00  0.00     0.146 A 
ATOM     11  O   UNL     1      75.782  62.441  55.388  1.00  0.00    -0.452 OA
ENDROOT
BRANCH   1  12
ATOM     12  C   UNL     1      77.657  61.892  53.975  1.00  0.00     0.025 A 
ATOM     13  C   UNL     1      78.114  60.574  54.146  1.00  0.00     0.016 A 
ATOM     14  C   UNL     1      79.470  60.271  53.996  1.00  0.00     0.051 A 
ATOM     15  C   UNL     1      80.388  61.281  53.686  1.00  0.00     0.157 A 
ATOM     16  C   UNL     1      78.586  62.905  53.683  1.00  0.00     0.062 A 
ATOM     17  C   UNL     1      79.946  62.601  53.532  1.00  0.00     0.158 A 
BRANCH  15  18
ATOM     18  O   UNL     1      81.741  60.983  53.533  1.00  0.00    -0.504 OA
ATOM     19  H   UNL     1      82.458  61.504  54.025  1.00  0.00     0.293 HD
ENDBRANCH  15  18
BRANCH  17  20
ATOM     20  O   UNL     1      80.864  63.606  53.230  1.00  0.00    -0.504 OA
ATOM     21  H   UNL     1      81.448  63.560  52.404  1.00  0.00     0.293 HD
ENDBRANCH  17  20
ENDBRANCH   1  12
BRANCH   2  22
ATOM     22  O   UNL     1      75.833  62.278  51.756  1.00  0.00    -0.502 OA
ATOM     23  H   UNL     1      76.157  61.398  51.372  1.00  0.00     0.293 HD
ENDBRANCH   2  22
BRANCH   6  24
ATOM     24  O   UNL     1      71.128  63.126  54.105  1.00  0.00    -0.507 OA
ATOM     25  H   UNL     1      70.926  63.881  53.466  1.00  0.00     0.293 HD
ENDBRANCH   6  24
BRANCH   8  26
ATOM     26  O   UNL     1      72.499  63.506  58.674  1.00  0.00    -0.508 OA
ATOM     27  H   UNL     1      71.622  63.173  59.056  1.00  0.00     0.293 HD
ENDBRANCH   8  26
TORSDOF 6
ENDMDL
MODEL 2
REMARK VINA RESULT:    -5.883      1.954      2.671
REMARK INTER + INTRA:          -7.387
REMARK INTER:                  -7.073
REMARK INTRA:                  -0.314
REMARK UNBOUND:                -0.300
REMARK SMILES O=c1c(O)c(-c2ccc(O)c(O)c2)oc2cc(O)cc(O)c12
REMARK SMILES IDX 5 1 3 2 2 3 1 4 22 5 20 6 19 7 17 8 16 9 15 10 14 11 6 12
REMARK SMILES IDX 7 13 8 14 9 15 13 16 11 17 10 18 12 20 4 22 21 24 18 26
REMARK H PARENT 10 19 12 21 4 23 21 25 18 27
REMARK Flexibility Score: inf
ROOT
ATOM      1  C   UNL     1      75.656  61.166  54.088  1.00  0.00     0.180 A 
ATOM      2  C   UNL     1      75.121  61.921  53.031  1.00  0.00     0.208 A 
ATOM      3  C   UNL     1      74.094  62.838  53.300  1.00  0.00     0.238 A 
ATOM      4  O   UNL     1      73.657  63.551  52.359  1.00  0.00    -0.285 OA
ATOM      5  C   UNL     1      73.601  62.977  54.620  1.00  0.00     0.111 A 
ATOM      6  C   UNL     1      72.535  63.847  55.001  1.00  0.00     0.134 A 
ATOM      7  C   UNL     1      72.219  63.999  56.356  1.00  0.00     0.093 A 
ATOM      8  C   UNL     1      72.885  63.267  57.338  1.00  0.00     0.123 A 
ATOM      9  C   UNL     1      73.888  62.370  56.972  1.00  0.00     0.094 A 
ATOM     10  C   UNL     1      74.252  62.222  55.631  1.00  0.00     0.146 A 
ATOM     11  O   UNL     1      75.219  61.366  55.326  1.00  0.00    -0.452 OA
ENDROOT
BRANCH   1  12
ATOM     12  C   UNL     1      76.724  60.160  53.878  1.00  0.00     0.025 A 
ATOM     13  C   UNL     1      78.081  60.487  54.046  1.00  0.00     0.016 A 
ATOM     14  C   UNL     1      79.072  59.528  53.819  1.00  0.00     0.051 A 
ATOM     15  C   UNL     1      78.722  58.235  53.410  1.00  0.00     0.157 A 
ATOM     16  C   UNL     1      76.380  58.867  53.448  1.00  0.00     0.062 A 
ATOM     17  C   UNL     1      77.374  57.905  53.221  1.00  0.00     0.158 A 
BRANCH  15  18
ATOM     18  O   UNL     1      79.707  57.276  53.185  1.00  0.00    -0.504 OA
ATOM     19  H   UNL     1      79.472  56.329  52.907  1.00  0.00     0.293 HD
ENDBRANCH  15  18
BRANCH  17  20
ATOM     20  O   UNL     1      77.029  56.619  52.807  1.00  0.00    -0.504 OA
ATOM     21  H   UNL     1      76.956  55.852  53.465  1.00  0.00     0.293 HD
ENDBRANCH  17  20
ENDBRANCH   1  12
BRANCH   2  22
ATOM     22  O   UNL     1      75.637  61.784  51.738  1.00  0.00    -0.502 OA
ATOM     23  H   UNL     1      76.044  60.919  51.403  1.00  0.00     0.293 HD
ENDBRANCH   2  22
BRANCH   6  24
ATOM     24  O   UNL     1      71.744  64.555  54.092  1.00  0.00    -0.507 OA
ATOM     25  H   UNL     1      70.846  64.961  54.306  1.00  0.00     0.293 HD
ENDBRANCH   6  24
BRANCH   8  26
ATOM     26  O   UNL     1      72.534  63.433  58.676  1.00  0.00    -0.508 OA
ATOM     27  H   UNL     1      71.901  64.167  58.971  1.00  0.00     0.293 HD
ENDBRANCH   8  26
TORSDOF 6
ENDMDL
MODEL 3
REMARK VINA RESULT:    -5.693      3.841      6.308
REMARK INTER + INTRA:          -7.158
REMARK INTER:                  -6.877
REMARK INTRA:                  -0.281
REMARK UNBOUND:                -0.300
REMARK SMILES O=c1c(O)c(-c2ccc(O)c(O)c2)oc2cc(O)cc(O)c12
REMARK SMILES IDX 5 1 3 2 2 3 1 4 22 5 20 6 19 7 17 8 16 9 15 10 14 11 6 12
REMARK SMILES IDX 7 13 8 14 9 15 13 16 11 17 10 18 12 20 4 22 21 24 18 26
REMARK H PARENT 10 19 12 21 4 23 21 25 18 27
REMARK Flexibility Score: inf
ROOT
ATOM      1  C   UNL     1      71.235  62.940  54.058  1.00  0.00     0.180 A 
ATOM      2  C   UNL     1      70.144  63.742  53.684  1.00  0.00     0.208 A 
ATOM      3  C   UNL     1      69.003  63.131  53.142  1.00  0.00     0.238 A 
ATOM      4  O   UNL     1      68.008  63.848  52.860  1.00  0.00    -0.285 OA
ATOM      5  C   UNL     1      68.972  61.726  52.965  1.00  0.00     0.111 A 
ATOM      6  C   UNL     1      67.884  61.005  52.389  1.00  0.00     0.134 A 
ATOM      7  C   UNL     1      67.909  59.605  52.383  1.00  0.00     0.093 A 
ATOM      8  C   UNL     1      69.010  58.902  52.873  1.00  0.00     0.123 A 
ATOM      9  C   UNL     1      70.105  59.599  53.384  1.00  0.00     0.094 A 
ATOM     10  C   UNL     1      70.094  60.995  53.437  1.00  0.00     0.146 A 
ATOM     11  O   UNL     1      71.152  61.620  53.940  1.00  0.00    -0.452 OA
ENDROOT
BRANCH   1  12
ATOM     12  C   UNL     1      72.483  63.514  54.612  1.00  0.00     0.025 A 
ATOM     13  C   UNL     1      73.643  63.641  53.828  1.00  0.00     0.016 A 
ATOM     14  C   UNL     1      74.816  64.163  54.379  1.00  0.00     0.051 A 
ATOM     15  C   UNL     1      74.850  64.555  55.723  1.00  0.00     0.157 A 
ATOM     16  C   UNL     1      72.530  63.890  55.966  1.00  0.00     0.062 A 
ATOM     17  C   UNL     1      73.706  64.415  56.519  1.00  0.00     0.158 A 
BRANCH  15  18
ATOM     18  O   UNL     1      76.017  65.079  56.276  1.00  0.00    -0.504 OA
ATOM     19  H   UNL     1      76.015  65.538  57.180  1.00  0.00     0.293 HD
ENDBRANCH  15  18
BRANCH  17  20
ATOM     20  O   UNL     1      73.745  64.799  57.858  1.00  0.00    -0.504 OA
ATOM     21  H   UNL     1      74.253  64.260  58.550  1.00  0.00     0.293 HD
ENDBRANCH  17  20
ENDBRANCH   1  12
BRANCH   2  22
ATOM     22  O   UNL     1      70.186  65.125  53.887  1.00  0.00    -0.502 OA
ATOM     23  H   UNL     1      70.803  65.734  53.363  1.00  0.00     0.293 HD
ENDBRANCH   2  22
BRANCH   6  24
ATOM     24  O   UNL     1      66.776  61.611  51.788  1.00  0.00    -0.507 OA
ATOM     25  H   UNL     1      65.858  61.199  51.728  1.00  0.00     0.293 HD
ENDBRANCH   6  24
BRANCH   8  26
ATOM     26  O   UNL     1      69.008  57.510  52.837  1.00  0.00    -0.508 OA
ATOM     27  H   UNL     1      69.800  56.969  53.164  1.00  0.00     0.293 HD
ENDBRANCH   8  26
TORSDOF 6
ENDMDL
MODEL 4
REMARK VINA RESULT:    -5.625      1.688      7.046
REMARK INTER + INTRA:          -7.076
REMARK INTER:                  -6.760
REMARK INTRA:                  -0.316
REMARK UNBOUND:                -0.300
REMARK SMILES O=c1c(O)c(-c2ccc(O)c(O)c2)oc2cc(O)cc(O)c12
REMARK SMILES IDX 5 1 3 2 2 3 1 4 22 5 20 6 19 7 17 8 16 9 15 10 14 11 6 12
REMARK SMILES IDX 7 13 8 14 9 15 13 16 11 17 10 18 12 20 4 22 21 24 18 26
REMARK H PARENT 10 19 12 21 4 23 21 25 18 27
REMARK Flexibility Score: inf
ROOT
ATOM      1  C   UNL     1      76.003  62.232  55.032  1.00  0.00     0.180 A 
ATOM      2  C   UNL     1      77.130  63.071  54.999  1.00  0.00     0.208 A 
ATOM      3  C   UNL     1      78.389  62.512  54.730  1.00  0.00     0.238 A 
ATOM      4  O   UNL     1      79.385  63.276  54.648  1.00  0.00    -0.285 OA
ATOM      5  C   UNL     1      78.509  61.118  54.514  1.00  0.00     0.111 A 
ATOM      6  C   UNL     1      79.741  60.438  54.273  1.00  0.00     0.134 A 
ATOM      7  C   UNL     1      79.725  59.077  53.943  1.00  0.00     0.093 A 
ATOM      8  C   UNL     1      78.531  58.358  53.909  1.00  0.00     0.123 A 
ATOM      9  C   UNL     1      77.327  58.999  54.202  1.00  0.00     0.094 A 
ATOM     10  C   UNL     1      77.306  60.364  54.499  1.00  0.00     0.146 A 
ATOM     11  O   UNL     1      76.139  60.939  54.761  1.00  0.00    -0.452 OA
ENDROOT
BRANCH   1  12
ATOM     12  C   UNL     1      74.647  62.744  55.334  1.00  0.00     0.025 A 
ATOM     13  C   UNL     1      73.763  63.127  54.310  1.00  0.00     0.016 A 
ATOM     14  C   UNL     1      72.497  63.630  54.621  1.00  0.00     0.051 A 
ATOM     15  C   UNL     1      72.100  63.769  55.956  1.00  0.00     0.157 A 
ATOM     16  C   UNL     1      74.251  62.904  56.673  1.00  0.00     0.062 A 
ATOM     17  C   UNL     1      72.980  63.408  56.985  1.00  0.00     0.158 A 
BRANCH  15  18
ATOM     18  O   UNL     1      70.838  64.268  56.270  1.00  0.00    -0.504 OA
ATOM     19  H   UNL     1      70.508  64.312  57.227  1.00  0.00     0.293 HD
ENDBRANCH  15  18
BRANCH  17  20
ATOM     20  O   UNL     1      72.586  63.553  58.314  1.00  0.00    -0.504 OA
ATOM     21  H   UNL     1      73.136  63.173  59.075  1.00  0.00     0.293 HD
ENDBRANCH  17  20
ENDBRANCH   1  12
BRANCH   2  22
ATOM     22  O   UNL     1      76.986  64.448  55.194  1.00  0.00    -0.502 OA
ATOM     23  H   UNL     1      76.095  64.921  55.099  1.00  0.00     0.293 HD
ENDBRANCH   2  22
BRANCH   6  24
ATOM     24  O   UNL     1      80.998  61.041  54.372  1.00  0.00    -0.507 OA
ATOM     25  H   UNL     1      81.406  61.381  55.230  1.00  0.00     0.293 HD
ENDBRANCH   6  24
BRANCH   8  26
ATOM     26  O   UNL     1      78.555  57.002  53.592  1.00  0.00    -0.508 OA
ATOM     27  H   UNL     1      78.330  56.670  52.662  1.00  0.00     0.293 HD
ENDBRANCH   8  26
TORSDOF 6
ENDMDL
MODEL 5
REMARK VINA RESULT:    -5.622      3.693      5.951
REMARK INTER + INTRA:          -7.072
REMARK INTER:                  -6.836
REMARK INTRA:                  -0.236
REMARK UNBOUND:                -0.300
REMARK SMILES O=c1c(O)c(-c2ccc(O)c(O)c2)oc2cc(O)cc(O)c12
REMARK SMILES IDX 5 1 3 2 2 3 1 4 22 5 20 6 19 7 17 8 16 9 15 10 14 11 6 12
REMARK SMILES IDX 7 13 8 14 9 15 13 16 11 17 10 18 12 20 4 22 21 24 18 26
REMARK H PARENT 10 19 12 21 4 23 21 25 18 27
REMARK Flexibility Score: inf
ROOT
ATOM      1  C   UNL     1      72.437  61.274  54.547  1.00  0.00     0.180 A 
ATOM      2  C   UNL     1      72.654  59.895  54.713  1.00  0.00     0.208 A 
ATOM      3  C   UNL     1      71.669  58.994  54.280  1.00  0.00     0.238 A 
ATOM      4  O   UNL     1      71.893  57.759  54.380  1.00  0.00    -0.285 OA
ATOM      5  C   UNL     1      70.473  59.481  53.701  1.00  0.00     0.111 A 
ATOM      6  C   UNL     1      69.390  58.660  53.262  1.00  0.00     0.134 A 
ATOM      7  C   UNL     1      68.312  59.243  52.586  1.00  0.00     0.093 A 
ATOM      8  C   UNL     1      68.245  60.621  52.389  1.00  0.00     0.123 A 
ATOM      9  C   UNL     1      69.269  61.440  52.866  1.00  0.00     0.094 A 
ATOM     10  C   UNL     1      70.376  60.885  53.513  1.00  0.00     0.146 A 
ATOM     11  O   UNL     1      71.334  61.697  53.942  1.00  0.00    -0.452 OA
ENDROOT
BRANCH   1  12
ATOM     12  C   UNL     1      73.417  62.287  55.003  1.00  0.00     0.025 A 
ATOM     13  C   UNL     1      74.636  62.481  54.330  1.00  0.00     0.016 A 
ATOM     14  C   UNL     1      75.556  63.425  54.793  1.00  0.00     0.051 A 
ATOM     15  C   UNL     1      75.277  64.180  55.939  1.00  0.00     0.157 A 
ATOM     16  C   UNL     1      73.151  63.032  56.164  1.00  0.00     0.062 A 
ATOM     17  C   UNL     1      74.073  63.981  56.627  1.00  0.00     0.158 A 
BRANCH  15  18
ATOM     18  O   UNL     1      76.190  65.125  56.402  1.00  0.00    -0.504 OA
ATOM     19  H   UNL     1      76.441  65.184  57.382  1.00  0.00     0.293 HD
ENDBRANCH  15  18
BRANCH  17  20
ATOM     20  O   UNL     1      73.801  64.728  57.772  1.00  0.00    -0.504 OA
ATOM     21  H   UNL     1      72.859  64.818  58.135  1.00  0.00     0.293 HD
ENDBRANCH  17  20
ENDBRANCH   1  12
BRANCH   2  22
ATOM     22  O   UNL     1      73.852  59.433  55.267  1.00  0.00    -0.502 OA
ATOM     23  H   UNL     1      74.680  60.013  55.334  1.00  0.00     0.293 HD
ENDBRANCH   2  22
BRANCH   6  24
ATOM     24  O   UNL     1      69.314  57.283  53.490  1.00  0.00    -0.507 OA
ATOM     25  H   UNL     1      69.769  56.800  54.251  1.00  0.00     0.293 HD
ENDBRANCH   6  24
BRANCH   8  26
ATOM     26  O   UNL     1      67.149  61.168  51.725  1.00  0.00    -0.508 OA
ATOM     27  H   UNL     1      67.212  62.054  51.237  1.00  0.00     0.293 HD
ENDBRANCH   8  26
TORSDOF 6
ENDMDL
MODEL 6
REMARK VINA RESULT:    -5.597      4.101      6.297
REMARK INTER + INTRA:          -7.042
REMARK INTER:                  -6.931
REMARK INTRA:                  -0.111
REMARK UNBOUND:                -0.300
REMARK SMILES O=c1c(O)c(-c2ccc(O)c(O)c2)oc2cc(O)cc(O)c12
REMARK SMILES IDX 5 1 3 2 2 3 1 4 22 5 20 6 19 7 17 8 16 9 15 10 14 11 6 12
REMARK SMILES IDX 7 13 8 14 9 15 13 16 11 17 10 18 12 20 4 22 21 24 18 26
REMARK H PARENT 10 19 12 21 4 23 21 25 18 27
REMARK Flexibility Score: inf
ROOT
ATOM      1  C   UNL     1      74.103  59.688  55.214  1.00  0.00     0.180 A 
ATOM      2  C   UNL     1      75.370  59.779  54.611  1.00  0.00     0.208 A 
ATOM      3  C   UNL     1      76.088  60.981  54.713  1.00  0.00     0.238 A 
ATOM      4  O   UNL     1      77.245  61.038  54.219  1.00  0.00    -0.285 OA
ATOM      5  C   UNL     1      75.525  62.083  55.401  1.00  0.00     0.111 A 
ATOM      6  C   UNL     1      76.147  63.360  55.532  1.00  0.00     0.134 A 
ATOM      7  C   UNL     1      75.557  64.335  56.345  1.00  0.00     0.093 A 
ATOM      8  C   UNL     1      74.337  64.102  56.979  1.00  0.00     0.123 A 
ATOM      9  C   UNL     1      73.691  62.878  56.810  1.00  0.00     0.094 A 
ATOM     10  C   UNL     1      74.272  61.872  56.034  1.00  0.00     0.146 A 
ATOM     11  O   UNL     1      73.630  60.717  55.907  1.00  0.00    -0.452 OA
ENDROOT
BRANCH   1  12
ATOM     12  C   UNL     1      73.275  58.463  55.127  1.00  0.00     0.025 A 
ATOM     13  C   UNL     1      73.729  57.234  55.635  1.00  0.00     0.016 A 
ATOM     14  C   UNL     1      72.940  56.087  55.521  1.00  0.00     0.051 A 
ATOM     15  C   UNL     1      71.693  56.148  54.887  1.00  0.00     0.157 A 
ATOM     16  C   UNL     1      72.031  58.515  54.474  1.00  0.00     0.062 A 
ATOM     17  C   UNL     1      71.239  57.364  54.360  1.00  0.00     0.158 A 
BRANCH  15  18
ATOM     18  O   UNL     1      70.902  55.007  54.773  1.00  0.00    -0.504 OA
ATOM     19  H   UNL     1      69.959  54.976  55.143  1.00  0.00     0.293 HD
ENDBRANCH  15  18
BRANCH  17  20
ATOM     20  O   UNL     1      70.000  57.421  53.723  1.00  0.00    -0.504 OA
ATOM     21  H   UNL     1      69.708  58.241  53.204  1.00  0.00     0.293 HD
ENDBRANCH  17  20
ENDBRANCH   1  12
BRANCH   2  22
ATOM     22  O   UNL     1      75.917  58.672  53.955  1.00  0.00    -0.502 OA
ATOM     23  H   UNL     1      76.713  58.162  54.319  1.00  0.00     0.293 HD
ENDBRANCH   2  22
BRANCH   6  24
ATOM     24  O   UNL     1      77.320  63.729  54.867  1.00  0.00    -0.507 OA
ATOM     25  H   UNL     1      77.470  63.640  53.873  1.00  0.00     0.293 HD
ENDBRANCH   6  24
BRANCH   8  26
ATOM     26  O   UNL     1      73.771  65.101  57.768  1.00  0.00    -0.508 OA
ATOM     27  H   UNL     1      73.938  66.083  57.582  1.00  0.00     0.293 HD
ENDBRANCH   8  26
TORSDOF 6
ENDMDL
MODEL 7
REMARK VINA RESULT:    -5.581      1.657      3.294
REMARK INTER + INTRA:          -7.023
REMARK INTER:                  -6.709
REMARK INTRA:                  -0.314
REMARK UNBOUND:                -0.300
REMARK SMILES O=c1c(O)c(-c2ccc(O)c(O)c2)oc2cc(O)cc(O)c12
REMARK SMILES IDX 5 1 3 2 2 3 1 4 22 5 20 6 19 7 17 8 16 9 15 10 14 11 6 12
REMARK SMILES IDX 7 13 8 14 9 15 13 16 11 17 10 18 12 20 4 22 21 24 18 26
REMARK H PARENT 10 19 12 21 4 23 21 25 18 27
REMARK Flexibility Score: inf
ROOT
ATOM      1  C   UNL     1      75.067  62.560  55.039  1.00  0.00     0.180 A 
ATOM      2  C   UNL     1      74.474  62.892  56.269  1.00  0.00     0.208 A 
ATOM      3  C   UNL     1      73.135  63.314  56.287  1.00  0.00     0.238 A 
ATOM      4  O   UNL     1      72.593  63.556  57.397  1.00  0.00    -0.285 OA
ATOM      5  C   UNL     1      72.411  63.415  55.075  1.00  0.00     0.111 A 
ATOM      6  C   UNL     1      71.062  63.869  54.971  1.00  0.00     0.134 A 
ATOM      7  C   UNL     1      70.404  63.805  53.737  1.00  0.00     0.093 A 
ATOM      8  C   UNL     1      71.065  63.364  52.591  1.00  0.00     0.123 A 
ATOM      9  C   UNL     1      72.402  62.974  52.669  1.00  0.00     0.094 A 
ATOM     10  C   UNL     1      73.075  62.992  53.893  1.00  0.00     0.146 A 
ATOM     11  O   UNL     1      74.343  62.603  53.926  1.00  0.00    -0.452 OA
ENDROOT
BRANCH   1  12
ATOM     12  C   UNL     1      76.482  62.132  54.936  1.00  0.00     0.025 A 
ATOM     13  C   UNL     1      76.837  60.772  54.938  1.00  0.00     0.016 A 
ATOM     14  C   UNL     1      78.180  60.393  54.864  1.00  0.00     0.051 A 
ATOM     15  C   UNL     1      79.186  61.365  54.799  1.00  0.00     0.157 A 
ATOM     16  C   UNL     1      77.496  63.103  54.890  1.00  0.00     0.062 A 
ATOM     17  C   UNL     1      78.843  62.723  54.815  1.00  0.00     0.158 A 
BRANCH  15  18
ATOM     18  O   UNL     1      80.526  60.991  54.723  1.00  0.00    -0.504 OA
ATOM     19  H   UNL     1      80.937  60.667  53.855  1.00  0.00     0.293 HD
ENDBRANCH  15  18
BRANCH  17  20
ATOM     20  O   UNL     1      79.847  63.689  54.757  1.00  0.00    -0.504 OA
ATOM     21  H   UNL     1      80.828  63.435  54.753  1.00  0.00     0.293 HD
ENDBRANCH  17  20
ENDBRANCH   1  12
BRANCH   2  22
ATOM     22  O   UNL     1      75.199  62.764  57.457  1.00  0.00    -0.502 OA
ATOM     23  H   UNL     1      74.760  62.540  58.342  1.00  0.00     0.293 HD
ENDBRANCH   2  22
BRANCH   6  24
ATOM     24  O   UNL     1      70.339  64.416  56.036  1.00  0.00    -0.507 OA
ATOM     25  H   UNL     1      69.893  65.320  56.024  1.00  0.00     0.293 HD
ENDBRANCH   6  24
BRANCH   8  26
ATOM     26  O   UNL     1      70.384  63.328  51.377  1.00  0.00    -0.508 OA
ATOM     27  H   UNL     1      70.768  63.751  50.540  1.00  0.00     0.293 HD
ENDBRANCH   8  26
TORSDOF 6
ENDMDL
MODEL 8
REMARK VINA RESULT:    -5.538      2.701      8.201
REMARK INTER + INTRA:          -6.971
REMARK INTER:                  -6.696
REMARK INTRA:                  -0.275
REMARK UNBOUND:                -0.300
REMARK SMILES O=c1c(O)c(-c2ccc(O)c(O)c2)oc2cc(O)cc(O)c12
REMARK SMILES IDX 5 1 3 2 2 3 1 4 22 5 20 6 19 7 17 8 16 9 15 10 14 11 6 12
REMARK SMILES IDX 7 13 8 14 9 15 13 16 11 17 10 18 12 20 4 22 21 24 18 26
REMARK H PARENT 10 19 12 21 4 23 21 25 18 27
REMARK Flexibility Score: inf
ROOT
ATOM      1  C   UNL     1      71.878  63.775  54.606  1.00  0.00     0.180 A 
ATOM      2  C   UNL     1      72.595  63.799  55.814  1.00  0.00     0.208 A 
ATOM      3  C   UNL     1      73.998  63.776  55.773  1.00  0.00     0.238 A 
ATOM      4  O   UNL     1      74.636  63.854  56.856  1.00  0.00    -0.285 OA
ATOM      5  C   UNL     1      74.667  63.712  54.527  1.00  0.00     0.111 A 
ATOM      6  C   UNL     1      76.083  63.644  54.369  1.00  0.00     0.134 A 
ATOM      7  C   UNL     1      76.639  63.715  53.086  1.00  0.00     0.093 A 
ATOM      8  C   UNL     1      75.830  63.788  51.953  1.00  0.00     0.123 A 
ATOM      9  C   UNL     1      74.442  63.795  52.092  1.00  0.00     0.094 A 
ATOM     10  C   UNL     1      73.858  63.761  53.361  1.00  0.00     0.146 A 
ATOM     11  O   UNL     1      72.533  63.780  53.451  1.00  0.00    -0.452 OA
ENDROOT
BRANCH   1  12
ATOM     12  C   UNL     1      70.397  63.771  54.568  1.00  0.00     0.025 A 
ATOM     13  C   UNL     1      69.655  64.941  54.803  1.00  0.00     0.016 A 
ATOM     14  C   UNL     1      68.258  64.908  54.786  1.00  0.00     0.051 A 
ATOM     15  C   UNL     1      67.583  63.704  54.547  1.00  0.00     0.157 A 
ATOM     16  C   UNL     1      69.714  62.562  54.349  1.00  0.00     0.062 A 
ATOM     17  C   UNL     1      68.313  62.528  54.331  1.00  0.00     0.158 A 
BRANCH  15  18
ATOM     18  O   UNL     1      66.191  63.667  54.527  1.00  0.00    -0.504 OA
ATOM     19  H   UNL     1      65.679  63.391  53.696  1.00  0.00     0.293 HD
ENDBRANCH  15  18
BRANCH  17  20
ATOM     20  O   UNL     1      67.639  61.330  54.100  1.00  0.00    -0.504 OA
ATOM     21  H   UNL     1      66.694  61.315  53.734  1.00  0.00     0.293 HD
ENDBRANCH  17  20
ENDBRANCH   1  12
BRANCH   2  22
ATOM     22  O   UNL     1      71.917  63.884  57.033  1.00  0.00    -0.502 OA
ATOM     23  H   UNL     1      70.916  64.030  57.090  1.00  0.00     0.293 HD
ENDBRANCH   2  22
BRANCH   6  24
ATOM     24  O   UNL     1      76.980  63.478  55.429  1.00  0.00    -0.507 OA
ATOM     25  H   UNL     1      77.980  63.587  55.358  1.00  0.00     0.293 HD
ENDBRANCH   6  24
BRANCH   8  26
ATOM     26  O   UNL     1      76.417  63.842  50.691  1.00  0.00    -0.508 OA
ATOM     27  H   UNL     1      76.462  63.027  50.091  1.00  0.00     0.293 HD
ENDBRANCH   8  26
TORSDOF 6
ENDMDL
MODEL 9
REMARK VINA RESULT:    -5.356      2.946      4.630
REMARK INTER + INTRA:          -6.751
REMARK INTER:                  -6.422
REMARK INTRA:                  -0.329
REMARK UNBOUND:                -0.300
REMARK SMILES O=c1c(O)c(-c2ccc(O)c(O)c2)oc2cc(O)cc(O)c12
REMARK SMILES IDX 5 1 3 2 2 3 1 4 22 5 20 6 19 7 17 8 16 9 15 10 14 11 6 12
REMARK SMILES IDX 7 13 8 14 9 15 13 16 11 17 10 18 12 20 4 22 21 24 18 26
REMARK H PARENT 10 19 12 21 4 23 21 25 18 27
REMARK Flexibility Score: inf
ROOT
ATOM      1  C   UNL     1      72.962  62.262  54.234  1.00  0.00     0.180 A 
ATOM      2  C   UNL     1      71.940  63.226  54.231  1.00  0.00     0.208 A 
ATOM      3  C   UNL     1      70.608  62.806  54.090  1.00  0.00     0.238 A 
ATOM      4  O   UNL     1      69.692  63.668  54.144  1.00  0.00    -0.285 OA
ATOM      5  C   UNL     1      70.315  61.429  53.938  1.00  0.00     0.111 A 
ATOM      6  C   UNL     1      69.006  60.894  53.749  1.00  0.00     0.134 A 
ATOM      7  C   UNL     1      68.822  59.506  53.740  1.00  0.00     0.093 A 
ATOM      8  C   UNL     1      69.904  58.635  53.849  1.00  0.00     0.123 A 
ATOM      9  C   UNL     1      71.196  59.147  53.975  1.00  0.00     0.094 A 
ATOM     10  C   UNL     1      71.408  60.527  54.024  1.00  0.00     0.146 A 
ATOM     11  O   UNL     1      72.652  60.974  54.155  1.00  0.00    -0.452 OA
ENDROOT
BRANCH   1  12
ATOM     12  C   UNL     1      74.392  62.630  54.352  1.00  0.00     0.025 A 
ATOM     13  C   UNL     1      75.150  62.995  53.226  1.00  0.00     0.016 A 
ATOM     14  C   UNL     1      76.504  63.315  53.358  1.00  0.00     0.051 A 
ATOM     15  C   UNL     1      77.122  63.263  54.614  1.00  0.00     0.157 A 
ATOM     16  C   UNL     1      75.023  62.560  55.606  1.00  0.00     0.062 A 
ATOM     17  C   UNL     1      76.381  62.882  55.739  1.00  0.00     0.158 A 
BRANCH  15  18
ATOM     18  O   UNL     1      78.471  63.584  54.750  1.00  0.00    -0.504 OA
ATOM     19  H   UNL     1      78.855  64.437  54.360  1.00  0.00     0.293 HD
ENDBRANCH  15  18
BRANCH  17  20
ATOM     20  O   UNL     1      77.000  62.825  56.987  1.00  0.00    -0.504 OA
ATOM     21  H   UNL     1      77.895  63.269  57.156  1.00  0.00     0.293 HD
ENDBRANCH  17  20
ENDBRANCH   1  12
BRANCH   2  22
ATOM     22  O   UNL     1      72.248  64.579  54.404  1.00  0.00    -0.502 OA
ATOM     23  H   UNL     1      71.546  65.308  54.351  1.00  0.00     0.293 HD
ENDBRANCH   2  22
BRANCH   6  24
ATOM     24  O   UNL     1      67.866  61.676  53.537  1.00  0.00    -0.507 OA
ATOM     25  H   UNL     1      67.041  61.658  54.116  1.00  0.00     0.293 HD
ENDBRANCH   6  24
BRANCH   8  26
ATOM     26  O   UNL     1      69.686  57.259  53.822  1.00  0.00    -0.508 OA
ATOM     27  H   UNL     1      69.404  56.784  52.972  1.00  0.00     0.293 HD
ENDBRANCH   8  26
TORSDOF 6
ENDMDL
