MODEL 1
REMARK VINA RESULT:    -5.452      0.000      0.000
REMARK INTER + INTRA:          -5.656
REMARK INTER:                  -5.930
REMARK INTRA:                   0.274
REMARK UNBOUND:                 0.274
REMARK SMILES C[C@@H]1[C@H](C)CC[C@@]2(C(=O)[O-])CC[C@@]3(C)C(=CC[C@H]4[C@@]5(C)CC[C@@H](O)C(C)(C)[C@H]5CC[C@]43C)[C@H]12
REMARK SMILES IDX 7 1 6 2 11 3 33 4 5 5 12 6 15 7 2 8 3 9 13 10 16 11 1 12
REMARK SMILES IDX 4 13 14 14 31 15 17 16 18 17 30 18 32 19 19 20 29 21 28 22
REMARK SMILES IDX 21 23 20 24 25 25 22 26 23 27 26 28 27 29 8 30 9 31 10 32
REMARK SMILES IDX 24 33
REMARK H PARENT 24 34
REMARK Flexibility Score: inf
ROOT
ATOM      1  C   UNL     1      20.928  -3.949  18.292  1.00  0.00     0.017 C 
ATOM      2  C   UNL     1      21.203  -3.142  19.587  1.00  0.00     0.014 C 
ATOM      3  C   UNL     1      22.284  -4.228  17.607  1.00  0.00     0.014 C 
ATOM      4  C   UNL     1      20.300  -5.343  18.646  1.00  0.00     0.030 C 
ATOM      5  C   UNL     1      19.969  -3.019  20.479  1.00  0.00     0.004 C 
ATOM      6  C   UNL     1      22.102  -4.987  16.285  1.00  0.00     0.013 C 
ATOM      7  C   UNL     1      20.153  -6.241  17.395  1.00  0.00    -0.063 C 
ATOM      8  C   UNL     1      19.102  -5.291  19.683  1.00  0.00    -0.003 C 
ATOM      9  C   UNL     1      19.477  -4.410  20.909  1.00  0.00    -0.011 C 
ATOM     10  C   UNL     1      21.320  -6.348  16.390  1.00  0.00    -0.006 C 
ATOM     11  C   UNL     1      19.228  -7.224  17.379  1.00  0.00    -0.027 C 
ATOM     12  C   UNL     1      17.701  -4.945  19.118  1.00  0.00     0.008 C 
ATOM     13  C   UNL     1      18.336  -4.292  21.933  1.00  0.00     0.008 C 
ATOM     14  C   UNL     1      22.310  -7.396  16.994  1.00  0.00     0.017 C 
ATOM     15  C   UNL     1      20.801  -6.826  14.934  1.00  0.00    -0.020 C 
ATOM     16  C   UNL     1      18.839  -7.967  16.135  1.00  0.00     0.032 C 
ATOM     17  C   UNL     1      19.938  -8.142  15.046  1.00  0.00     0.006 C 
ATOM     18  C   UNL     1      19.906  -5.712  14.282  1.00  0.00     0.008 C 
ATOM     19  C   UNL     1      22.047  -7.097  14.025  1.00  0.00     0.012 C 
ATOM     20  C   UNL     1      19.369  -8.696  13.630  1.00  0.00    -0.025 C 
ATOM     21  C   UNL     1      18.769  -6.188  13.349  1.00  0.00     0.005 C 
ATOM     22  C   UNL     1      19.077  -7.507  12.599  1.00  0.00     0.003 C 
ATOM     23  C   UNL     1      18.085  -9.568  13.871  1.00  0.00     0.010 C 
ATOM     24  C   UNL     1      20.451  -9.656  13.021  1.00  0.00     0.012 C 
ATOM     25  C   UNL     1      18.083  -7.840  11.392  1.00  0.00    -0.006 C 
ATOM     26  C   UNL     1      17.312  -9.958  12.610  1.00  0.00     0.033 C 
ATOM     27  C   UNL     1      16.875  -8.707  11.847  1.00  0.00     0.120 C 
ATOM     28  C   UNL     1      18.854  -8.575  10.254  1.00  0.00     0.014 C 
ATOM     29  C   UNL     1      17.515  -6.561  10.709  1.00  0.00     0.014 C 
ENDROOT
BRANCH   1  30
ATOM     30  C   UNL     1      20.085  -3.093  17.341  1.00  0.00     0.048 C 
ATOM     31  O   UNL     1      20.392  -1.883  17.146  1.00  0.00    -0.550 OA
ATOM     32  O   UNL     1      19.000  -3.624  16.639  1.00  0.00    -0.550 OA
ENDBRANCH   1  30
BRANCH  27  33
ATOM     33  O   UNL     1      16.005  -7.950  12.658  1.00  0.00    -0.393 OA
ATOM     34  H   UNL     1      15.784  -7.117  12.165  1.00  0.00     0.210 HD
ENDBRANCH  27  33
TORSDOF 2
ENDMDL
MODEL 2
REMARK VINA RESULT:    -5.321      2.750      4.609
REMARK INTER + INTRA:          -5.514
REMARK INTER:                  -5.773
REMARK INTRA:                   0.259
REMARK UNBOUND:                 0.274
REMARK SMILES C[C@@H]1[C@H](C)CC[C@@]2(C(=O)[O-])CC[C@@]3(C)C(=CC[C@H]4[C@@]5(C)CC[C@@H](O)C(C)(C)[C@H]5CC[C@]43C)[C@H]12
REMARK SMILES IDX 7 1 6 2 11 3 33 4 5 5 12 6 15 7 2 8 3 9 13 10 16 11 1 12
REMARK SMILES IDX 4 13 14 14 31 15 17 16 18 17 30 18 32 19 19 20 29 21 28 22
REMARK SMILES IDX 21 23 20 24 25 25 22 26 23 27 26 28 27 29 8 30 9 31 10 32
REMARK SMILES IDX 24 33
REMARK H PARENT 24 34
REMARK Flexibility Score: inf
ROOT
ATOM      1  C   UNL     1      20.165  -7.940  18.329  1.00  0.00     0.017 C 
ATOM      2  C   UNL     1      20.798  -8.344  19.685  1.00  0.00     0.014 C 
ATOM      3  C   UNL     1      19.255  -6.716  18.573  1.00  0.00     0.014 C 
ATOM      4  C   UNL     1      21.284  -7.484  17.326  1.00  0.00     0.030 C 
ATOM      5  C   UNL     1      21.907  -9.382  19.534  1.00  0.00     0.004 C 
ATOM      6  C   UNL     1      18.548  -6.274  17.283  1.00  0.00     0.013 C 
ATOM      7  C   UNL     1      20.685  -6.925  16.013  1.00  0.00    -0.063 C 
ATOM      8  C   UNL     1      22.532  -8.456  17.232  1.00  0.00    -0.003 C 
ATOM      9  C   UNL     1      23.040  -8.833  18.654  1.00  0.00    -0.011 C 
ATOM     10  C   UNL     1      19.497  -5.941  16.074  1.00  0.00    -0.006 C 
ATOM     11  C   UNL     1      21.416  -6.947  14.879  1.00  0.00    -0.027 C 
ATOM     12  C   UNL     1      22.389  -9.694  16.312  1.00  0.00     0.008 C 
ATOM     13  C   UNL     1      24.230  -9.806  18.626  1.00  0.00     0.008 C 
ATOM     14  C   UNL     1      20.120  -4.536  16.357  1.00  0.00     0.017 C 
ATOM     15  C   UNL     1      18.671  -5.930  14.683  1.00  0.00    -0.020 C 
ATOM     16  C   UNL     1      20.838  -6.672  13.523  1.00  0.00     0.032 C 
ATOM     17  C   UNL     1      19.633  -5.688  13.456  1.00  0.00     0.006 C 
ATOM     18  C   UNL     1      17.947  -7.307  14.467  1.00  0.00     0.008 C 
ATOM     19  C   UNL     1      17.607  -4.781  14.743  1.00  0.00     0.012 C 
ATOM     20  C   UNL     1      18.890  -5.664  12.012  1.00  0.00    -0.025 C 
ATOM     21  C   UNL     1      17.766  -7.779  13.006  1.00  0.00     0.005 C 
ATOM     22  C   UNL     1      17.613  -6.628  11.984  1.00  0.00     0.003 C 
ATOM     23  C   UNL     1      19.910  -6.038  10.877  1.00  0.00     0.010 C 
ATOM     24  C   UNL     1      18.435  -4.190  11.732  1.00  0.00     0.012 C 
ATOM     25  C   UNL     1      17.093  -7.077  10.541  1.00  0.00    -0.006 C 
ATOM     26  C   UNL     1      19.295  -6.284   9.499  1.00  0.00     0.033 C 
ATOM     27  C   UNL     1      18.263  -7.409   9.571  1.00  0.00     0.120 C 
ATOM     28  C   UNL     1      16.203  -5.956   9.921  1.00  0.00     0.014 C 
ATOM     29  C   UNL     1      16.159  -8.322  10.598  1.00  0.00     0.014 C 
ENDROOT
BRANCH   1  30
ATOM     30  C   UNL     1      19.287  -9.089  17.825  1.00  0.00     0.048 C 
ATOM     31  O   UNL     1      18.434  -9.612  18.595  1.00  0.00    -0.550 OA
ATOM     32  O   UNL     1      19.370  -9.557  16.511  1.00  0.00    -0.550 OA
ENDBRANCH   1  30
BRANCH  27  33
ATOM     33  O   UNL     1      18.903  -8.601   9.965  1.00  0.00    -0.393 OA
ATOM     34  H   UNL     1      19.174  -8.496  10.915  1.00  0.00     0.210 HD
ENDBRANCH  27  33
TORSDOF 2
ENDMDL
MODEL 3
REMARK VINA RESULT:    -4.968      1.803      7.376
REMARK INTER + INTRA:          -5.130
REMARK INTER:                  -5.385
REMARK INTRA:                   0.255
REMARK UNBOUND:                 0.274
REMARK SMILES C[C@@H]1[C@H](C)CC[C@@]2(C(=O)[O-])CC[C@@]3(C)C(=CC[C@H]4[C@@]5(C)CC[C@@H](O)C(C)(C)[C@H]5CC[C@]43C)[C@H]12
REMARK SMILES IDX 7 1 6 2 11 3 33 4 5 5 12 6 15 7 2 8 3 9 13 10 16 11 1 12
REMARK SMILES IDX 4 13 14 14 31 15 17 16 18 17 30 18 32 19 19 20 29 21 28 22
REMARK SMILES IDX 21 23 20 24 25 25 22 26 23 27 26 28 27 29 8 30 9 31 10 32
REMARK SMILES IDX 24 33
REMARK H PARENT 24 34
REMARK Flexibility Score: inf
ROOT
ATOM      1  C   UNL     1      18.802  -7.847  11.337  1.00  0.00     0.017 C 
ATOM      2  C   UNL     1      18.695  -7.755   9.794  1.00  0.00     0.014 C 
ATOM      3  C   UNL     1      19.504  -9.177  11.688  1.00  0.00     0.014 C 
ATOM      4  C   UNL     1      19.713  -6.692  11.886  1.00  0.00     0.030 C 
ATOM      5  C   UNL     1      18.245  -6.377   9.314  1.00  0.00     0.004 C 
ATOM      6  C   UNL     1      19.612  -9.374  13.207  1.00  0.00     0.013 C 
ATOM      7  C   UNL     1      19.973  -6.838  13.404  1.00  0.00    -0.063 C 
ATOM      8  C   UNL     1      19.383  -5.252  11.311  1.00  0.00    -0.003 C 
ATOM      9  C   UNL     1      19.245  -5.300   9.762  1.00  0.00    -0.011 C 
ATOM     10  C   UNL     1      20.341  -8.219  13.987  1.00  0.00    -0.006 C 
ATOM     11  C   UNL     1      20.287  -5.749  14.139  1.00  0.00    -0.027 C 
ATOM     12  C   UNL     1      18.217  -4.480  11.981  1.00  0.00     0.008 C 
ATOM     13  C   UNL     1      18.887  -3.935   9.151  1.00  0.00     0.008 C 
ATOM     14  C   UNL     1      21.873  -8.395  13.735  1.00  0.00     0.017 C 
ATOM     15  C   UNL     1      20.010  -8.296  15.569  1.00  0.00    -0.020 C 
ATOM     16  C   UNL     1      20.301  -5.746  15.639  1.00  0.00     0.032 C 
ATOM     17  C   UNL     1      20.663  -7.087  16.344  1.00  0.00     0.006 C 
ATOM     18  C   UNL     1      18.458  -8.242  15.806  1.00  0.00     0.008 C 
ATOM     19  C   UNL     1      20.580  -9.642  16.132  1.00  0.00     0.012 C 
ATOM     20  C   UNL     1      20.381  -7.080  17.942  1.00  0.00    -0.025 C 
ATOM     21  C   UNL     1      17.974  -7.575  17.112  1.00  0.00     0.005 C 
ATOM     22  C   UNL     1      18.957  -7.719  18.299  1.00  0.00     0.003 C 
ATOM     23  C   UNL     1      20.503  -5.617  18.503  1.00  0.00     0.010 C 
ATOM     24  C   UNL     1      21.513  -7.917  18.633  1.00  0.00     0.012 C 
ATOM     25  C   UNL     1      18.346  -7.344  19.726  1.00  0.00    -0.006 C 
ATOM     26  C   UNL     1      20.033  -5.427  19.946  1.00  0.00     0.033 C 
ATOM     27  C   UNL     1      18.569  -5.847  20.087  1.00  0.00     0.120 C 
ATOM     28  C   UNL     1      18.976  -8.245  20.831  1.00  0.00     0.014 C 
ATOM     29  C   UNL     1      16.818  -7.629  19.822  1.00  0.00     0.014 C 
ENDROOT
BRANCH   1  30
ATOM     30  C   UNL     1      17.392  -7.885  11.934  1.00  0.00     0.048 C 
ATOM     31  O   UNL     1      16.541  -8.702  11.483  1.00  0.00    -0.550 OA
ATOM     32  O   UNL     1      17.024  -7.065  13.004  1.00  0.00    -0.550 OA
ENDBRANCH   1  30
BRANCH  27  33
ATOM     33  O   UNL     1      17.770  -5.021  19.271  1.00  0.00    -0.393 OA
ATOM     34  H   UNL     1      17.099  -4.580  19.856  1.00  0.00     0.210 HD
ENDBRANCH  27  33
TORSDOF 2
ENDMDL
MODEL 4
REMARK VINA RESULT:    -4.768      3.190      5.764
REMARK INTER + INTRA:          -4.912
REMARK INTER:                  -5.960
REMARK INTRA:                   1.048
REMARK UNBOUND:                 0.274
REMARK SMILES C[C@@H]1[C@H](C)CC[C@@]2(C(=O)[O-])CC[C@@]3(C)C(=CC[C@H]4[C@@]5(C)CC[C@@H](O)C(C)(C)[C@H]5CC[C@]43C)[C@H]12
REMARK SMILES IDX 7 1 6 2 11 3 33 4 5 5 12 6 15 7 2 8 3 9 13 10 16 11 1 12
REMARK SMILES IDX 4 13 14 14 31 15 17 16 18 17 30 18 32 19 19 20 29 21 28 22
REMARK SMILES IDX 21 23 20 24 25 25 22 26 23 27 26 28 27 29 8 30 9 31 10 32
REMARK SMILES IDX 24 33
REMARK H PARENT 24 34
REMARK Flexibility Score: inf
ROOT
ATOM      1  C   UNL     1      22.138  -1.006  19.878  1.00  0.00     0.017 C 
ATOM      2  C   UNL     1      22.630   0.358  20.426  1.00  0.00     0.014 C 
ATOM      3  C   UNL     1      20.654  -0.852  19.478  1.00  0.00     0.014 C 
ATOM      4  C   UNL     1      22.926  -1.380  18.574  1.00  0.00     0.030 C 
ATOM      5  C   UNL     1      24.144   0.404  20.623  1.00  0.00     0.004 C 
ATOM      6  C   UNL     1      20.069  -2.175  18.965  1.00  0.00     0.013 C 
ATOM      7  C   UNL     1      22.361  -2.658  17.908  1.00  0.00    -0.063 C 
ATOM      8  C   UNL     1      24.500  -1.215  18.674  1.00  0.00    -0.003 C 
ATOM      9  C   UNL     1      24.866   0.167  19.288  1.00  0.00    -0.011 C 
ATOM     10  C   UNL     1      20.834  -2.827  17.755  1.00  0.00    -0.006 C 
ATOM     11  C   UNL     1      23.152  -3.405  17.109  1.00  0.00    -0.027 C 
ATOM     12  C   UNL     1      25.286  -2.377  19.331  1.00  0.00     0.008 C 
ATOM     13  C   UNL     1      26.382   0.369  19.445  1.00  0.00     0.008 C 
ATOM     14  C   UNL     1      20.440  -2.018  16.477  1.00  0.00     0.017 C 
ATOM     15  C   UNL     1      20.429  -4.385  17.593  1.00  0.00    -0.020 C 
ATOM     16  C   UNL     1      22.778  -4.778  16.635  1.00  0.00     0.032 C 
ATOM     17  C   UNL     1      21.261  -5.069  16.439  1.00  0.00     0.006 C 
ATOM     18  C   UNL     1      20.715  -5.166  18.925  1.00  0.00     0.008 C 
ATOM     19  C   UNL     1      18.902  -4.471  17.251  1.00  0.00     0.012 C 
ATOM     20  C   UNL     1      20.923  -6.639  16.205  1.00  0.00    -0.025 C 
ATOM     21  C   UNL     1      21.115  -6.652  18.792  1.00  0.00     0.005 C 
ATOM     22  C   UNL     1      20.496  -7.366  17.566  1.00  0.00     0.003 C 
ATOM     23  C   UNL     1      22.149  -7.359  15.537  1.00  0.00     0.010 C 
ATOM     24  C   UNL     1      19.742  -6.727  15.177  1.00  0.00     0.012 C 
ATOM     25  C   UNL     1      20.613  -8.960  17.588  1.00  0.00    -0.006 C 
ATOM     26  C   UNL     1      22.060  -8.884  15.474  1.00  0.00     0.033 C 
ATOM     27  C   UNL     1      21.903  -9.465  16.880  1.00  0.00     0.120 C 
ATOM     28  C   UNL     1      19.362  -9.596  16.909  1.00  0.00     0.014 C 
ATOM     29  C   UNL     1      20.607  -9.544  19.031  1.00  0.00     0.014 C 
ENDROOT
BRANCH   1  30
ATOM     30  C   UNL     1      22.220  -2.051  20.995  1.00  0.00     0.048 C 
ATOM     31  O   UNL     1      23.322  -2.266  21.574  1.00  0.00    -0.550 OA
ATOM     32  O   UNL     1      21.093  -2.753  21.430  1.00  0.00    -0.550 OA
ENDBRANCH   1  30
BRANCH  27  33
ATOM     33  O   UNL     1      23.041  -9.141  17.644  1.00  0.00    -0.393 OA
ATOM     34  H   UNL     1      23.173  -9.867  18.309  1.00  0.00     0.210 HD
ENDBRANCH  27  33
TORSDOF 2
ENDMDL
MODEL 5
REMARK VINA RESULT:    -4.696      2.400      7.492
REMARK INTER + INTRA:          -4.834
REMARK INTER:                  -5.113
REMARK INTRA:                   0.279
REMARK UNBOUND:                 0.274
REMARK SMILES C[C@@H]1[C@H](C)CC[C@@]2(C(=O)[O-])CC[C@@]3(C)C(=CC[C@H]4[C@@]5(C)CC[C@@H](O)C(C)(C)[C@H]5CC[C@]43C)[C@H]12
REMARK SMILES IDX 7 1 6 2 11 3 33 4 5 5 12 6 15 7 2 8 3 9 13 10 16 11 1 12
REMARK SMILES IDX 4 13 14 14 31 15 17 16 18 17 30 18 32 19 19 20 29 21 28 22
REMARK SMILES IDX 21 23 20 24 25 25 22 26 23 27 26 28 27 29 8 30 9 31 10 32
REMARK SMILES IDX 24 33
REMARK H PARENT 24 34
REMARK Flexibility Score: inf
ROOT
ATOM      1  C   UNL     1      21.759  -8.445  15.014  1.00  0.00     0.017 C 
ATOM      2  C   UNL     1      22.221  -9.310  13.813  1.00  0.00     0.014 C 
ATOM      3  C   UNL     1      22.914  -7.490  15.386  1.00  0.00     0.014 C 
ATOM      4  C   UNL     1      20.541  -7.548  14.595  1.00  0.00     0.030 C 
ATOM      5  C   UNL     1      21.083 -10.119  13.194  1.00  0.00     0.004 C 
ATOM      6  C   UNL     1      22.558  -6.622  16.602  1.00  0.00     0.013 C 
ATOM      7  C   UNL     1      20.146  -6.557  15.716  1.00  0.00    -0.063 C 
ATOM      8  C   UNL     1      19.386  -8.309  13.820  1.00  0.00    -0.003 C 
ATOM      9  C   UNL     1      19.979  -9.183  12.678  1.00  0.00    -0.011 C 
ATOM     10  C   UNL     1      21.245  -5.767  16.459  1.00  0.00    -0.006 C 
ATOM     11  C   UNL     1      18.888  -6.071  15.771  1.00  0.00    -0.027 C 
ATOM     12  C   UNL     1      18.357  -9.085  14.681  1.00  0.00     0.008 C 
ATOM     13  C   UNL     1      18.907  -9.976  11.913  1.00  0.00     0.008 C 
ATOM     14  C   UNL     1      21.592  -4.550  15.542  1.00  0.00     0.017 C 
ATOM     15  C   UNL     1      20.729  -5.262  17.907  1.00  0.00    -0.020 C 
ATOM     16  C   UNL     1      18.347  -5.321  16.952  1.00  0.00     0.032 C 
ATOM     17  C   UNL     1      19.363  -4.482  17.780  1.00  0.00     0.006 C 
ATOM     18  C   UNL     1      20.501  -6.487  18.863  1.00  0.00     0.008 C 
ATOM     19  C   UNL     1      21.814  -4.313  18.520  1.00  0.00     0.012 C 
ATOM     20  C   UNL     1      18.766  -3.938  19.188  1.00  0.00    -0.025 C 
ATOM     21  C   UNL     1      19.381  -6.350  19.919  1.00  0.00     0.005 C 
ATOM     22  C   UNL     1      19.148  -4.900  20.409  1.00  0.00     0.003 C 
ATOM     23  C   UNL     1      17.209  -3.754  19.076  1.00  0.00     0.010 C 
ATOM     24  C   UNL     1      19.365  -2.511  19.444  1.00  0.00     0.012 C 
ATOM     25  C   UNL     1      18.248  -4.773  21.724  1.00  0.00    -0.006 C 
ATOM     26  C   UNL     1      16.486  -3.473  20.393  1.00  0.00     0.033 C 
ATOM     27  C   UNL     1      16.738  -4.605  21.389  1.00  0.00     0.120 C 
ATOM     28  C   UNL     1      18.729  -3.565  22.585  1.00  0.00     0.014 C 
ATOM     29  C   UNL     1      18.388  -6.001  22.671  1.00  0.00     0.014 C 
ENDROOT
BRANCH   1  30
ATOM     30  C   UNL     1      21.495  -9.359  16.214  1.00  0.00     0.048 C 
ATOM     31  O   UNL     1      22.411 -10.119  16.638  1.00  0.00    -0.550 OA
ATOM     32  O   UNL     1      20.274  -9.348  16.893  1.00  0.00    -0.550 OA
ENDBRANCH   1  30
BRANCH  27  33
ATOM     33  O   UNL     1      16.215  -5.806  20.869  1.00  0.00    -0.393 OA
ATOM     34  H   UNL     1      16.613  -6.556  21.384  1.00  0.00     0.210 HD
ENDBRANCH  27  33
TORSDOF 2
ENDMDL
MODEL 6
REMARK VINA RESULT:    -4.688      1.731      2.870
REMARK INTER + INTRA:          -4.826
REMARK INTER:                  -5.082
REMARK INTRA:                   0.257
REMARK UNBOUND:                 0.274
REMARK SMILES C[C@@H]1[C@H](C)CC[C@@]2(C(=O)[O-])CC[C@@]3(C)C(=CC[C@H]4[C@@]5(C)CC[C@@H](O)C(C)(C)[C@H]5CC[C@]43C)[C@H]12
REMARK SMILES IDX 7 1 6 2 11 3 33 4 5 5 12 6 15 7 2 8 3 9 13 10 16 11 1 12
REMARK SMILES IDX 4 13 14 14 31 15 17 16 18 17 30 18 32 19 19 20 29 21 28 22
REMARK SMILES IDX 21 23 20 24 25 25 22 26 23 27 26 28 27 29 8 30 9 31 10 32
REMARK SMILES IDX 24 33
REMARK H PARENT 24 34
REMARK Flexibility Score: inf
ROOT
ATOM      1  C   UNL     1      20.820  -6.612  17.484  1.00  0.00     0.017 C 
ATOM      2  C   UNL     1      21.116  -6.312  18.976  1.00  0.00     0.014 C 
ATOM      3  C   UNL     1      21.538  -7.927  17.110  1.00  0.00     0.014 C 
ATOM      4  C   UNL     1      19.283  -6.857  17.277  1.00  0.00     0.030 C 
ATOM      5  C   UNL     1      20.262  -5.174  19.530  1.00  0.00     0.004 C 
ATOM      6  C   UNL     1      21.335  -8.278  15.629  1.00  0.00     0.013 C 
ATOM      7  C   UNL     1      18.963  -7.312  15.833  1.00  0.00    -0.063 C 
ATOM      8  C   UNL     1      18.338  -5.780  17.956  1.00  0.00    -0.003 C 
ATOM      9  C   UNL     1      18.769  -5.525  19.429  1.00  0.00    -0.011 C 
ATOM     10  C   UNL     1      19.838  -8.393  15.161  1.00  0.00    -0.006 C 
ATOM     11  C   UNL     1      17.732  -7.102  15.320  1.00  0.00    -0.027 C 
ATOM     12  C   UNL     1      18.104  -4.462  17.175  1.00  0.00     0.008 C 
ATOM     13  C   UNL     1      17.910  -4.459  20.128  1.00  0.00     0.008 C 
ATOM     14  C   UNL     1      19.301  -9.764  15.684  1.00  0.00     0.017 C 
ATOM     15  C   UNL     1      19.732  -8.315  13.549  1.00  0.00    -0.020 C 
ATOM     16  C   UNL     1      17.409  -7.270  13.865  1.00  0.00     0.032 C 
ATOM     17  C   UNL     1      18.226  -8.337  13.079  1.00  0.00     0.006 C 
ATOM     18  C   UNL     1      20.386  -6.988  13.022  1.00  0.00     0.008 C 
ATOM     19  C   UNL     1      20.484  -9.548  12.940  1.00  0.00     0.012 C 
ATOM     20  C   UNL     1      18.022  -8.259  11.470  1.00  0.00    -0.025 C 
ATOM     21  C   UNL     1      19.779  -6.371  11.742  1.00  0.00     0.005 C 
ATOM     22  C   UNL     1      19.178  -7.408  10.763  1.00  0.00     0.003 C 
ATOM     23  C   UNL     1      16.602  -7.676  11.137  1.00  0.00     0.010 C 
ATOM     24  C   UNL     1      18.042  -9.726  10.914  1.00  0.00     0.012 C 
ATOM     25  C   UNL     1      18.855  -6.844   9.303  1.00  0.00    -0.006 C 
ATOM     26  C   UNL     1      16.365  -7.329   9.666  1.00  0.00     0.033 C 
ATOM     27  C   UNL     1      17.398  -6.308   9.188  1.00  0.00     0.120 C 
ATOM     28  C   UNL     1      19.086  -7.958   8.237  1.00  0.00     0.014 C 
ATOM     29  C   UNL     1      19.815  -5.696   8.874  1.00  0.00     0.014 C 
ENDROOT
BRANCH   1  30
ATOM     30  C   UNL     1      21.407  -5.490  16.623  1.00  0.00     0.048 C 
ATOM     31  O   UNL     1      22.595  -5.106  16.817  1.00  0.00    -0.550 OA
ATOM     32  O   UNL     1      20.679  -4.899  15.587  1.00  0.00    -0.550 OA
ENDBRANCH   1  30
BRANCH  27  33
ATOM     33  O   UNL     1      17.253  -5.119   9.931  1.00  0.00    -0.393 OA
ATOM     34  H   UNL     1      17.222  -4.364   9.286  1.00  0.00     0.210 HD
ENDBRANCH  27  33
TORSDOF 2
ENDMDL
MODEL 7
REMARK VINA RESULT:    -4.495      2.560      8.438
REMARK INTER + INTRA:          -4.615
REMARK INTER:                  -4.899
REMARK INTRA:                   0.284
REMARK UNBOUND:                 0.274
REMARK SMILES C[C@@H]1[C@H](C)CC[C@@]2(C(=O)[O-])CC[C@@]3(C)C(=CC[C@H]4[C@@]5(C)CC[C@@H](O)C(C)(C)[C@H]5CC[C@]43C)[C@H]12
REMARK SMILES IDX 7 1 6 2 11 3 33 4 5 5 12 6 15 7 2 8 3 9 13 10 16 11 1 12
REMARK SMILES IDX 4 13 14 14 31 15 17 16 18 17 30 18 32 19 19 20 29 21 28 22
REMARK SMILES IDX 21 23 20 24 25 25 22 26 23 27 26 28 27 29 8 30 9 31 10 32
REMARK SMILES IDX 24 33
REMARK H PARENT 24 34
REMARK Flexibility Score: inf
ROOT
ATOM      1  C   UNL     1      17.749  -5.220  16.909  1.00  0.00     0.017 C 
ATOM      2  C   UNL     1      16.909  -6.214  16.066  1.00  0.00     0.014 C 
ATOM      3  C   UNL     1      17.180  -5.213  18.345  1.00  0.00     0.014 C 
ATOM      4  C   UNL     1      19.234  -5.719  17.010  1.00  0.00     0.030 C 
ATOM      5  C   UNL     1      17.525  -6.497  14.698  1.00  0.00     0.004 C 
ATOM      6  C   UNL     1      17.928  -4.216  19.242  1.00  0.00     0.013 C 
ATOM      7  C   UNL     1      20.071  -4.840  17.969  1.00  0.00    -0.063 C 
ATOM      8  C   UNL     1      19.883  -6.163  15.633  1.00  0.00    -0.003 C 
ATOM      9  C   UNL     1      18.925  -7.111  14.857  1.00  0.00    -0.011 C 
ATOM     10  C   UNL     1      19.484  -4.428  19.337  1.00  0.00    -0.006 C 
ATOM     11  C   UNL     1      21.412  -4.777  17.825  1.00  0.00    -0.027 C 
ATOM     12  C   UNL     1      20.455  -5.038  14.733  1.00  0.00     0.008 C 
ATOM     13  C   UNL     1      19.487  -7.545  13.493  1.00  0.00     0.008 C 
ATOM     14  C   UNL     1      19.720  -5.646  20.287  1.00  0.00     0.017 C 
ATOM     15  C   UNL     1      20.210  -3.103  19.913  1.00  0.00    -0.020 C 
ATOM     16  C   UNL     1      22.268  -3.767  18.530  1.00  0.00     0.032 C 
ATOM     17  C   UNL     1      21.778  -3.277  19.924  1.00  0.00     0.006 C 
ATOM     18  C   UNL     1      19.866  -1.858  19.020  1.00  0.00     0.008 C 
ATOM     19  C   UNL     1      19.705  -2.855  21.376  1.00  0.00     0.012 C 
ATOM     20  C   UNL     1      22.594  -1.991  20.487  1.00  0.00    -0.025 C 
ATOM     21  C   UNL     1      20.947  -0.760  18.906  1.00  0.00     0.005 C 
ATOM     22  C   UNL     1      21.838  -0.617  20.163  1.00  0.00     0.003 C 
ATOM     23  C   UNL     1      24.055  -1.986  19.907  1.00  0.00     0.010 C 
ATOM     24  C   UNL     1      22.733  -2.154  22.040  1.00  0.00     0.012 C 
ATOM     25  C   UNL     1      22.725   0.711  20.210  1.00  0.00    -0.006 C 
ATOM     26  C   UNL     1      24.857  -0.710  20.165  1.00  0.00     0.033 C 
ATOM     27  C   UNL     1      24.132   0.501  19.579  1.00  0.00     0.120 C 
ATOM     28  C   UNL     1      22.882   1.197  21.683  1.00  0.00     0.014 C 
ATOM     29  C   UNL     1      22.053   1.910  19.478  1.00  0.00     0.014 C 
ENDROOT
BRANCH   1  30
ATOM     30  C   UNL     1      17.587  -3.812  16.329  1.00  0.00     0.048 C 
ATOM     31  O   UNL     1      16.441  -3.399  15.994  1.00  0.00    -0.550 OA
ATOM     32  O   UNL     1      18.672  -2.942  16.195  1.00  0.00    -0.550 OA
ENDBRANCH   1  30
BRANCH  27  33
ATOM     33  O   UNL     1      24.025   0.346  18.182  1.00  0.00    -0.393 OA
ATOM     34  H   UNL     1      23.703  -0.578  18.007  1.00  0.00     0.210 HD
ENDBRANCH  27  33
TORSDOF 2
ENDMDL
MODEL 8
REMARK VINA RESULT:    -3.888      3.414      7.840
REMARK INTER + INTRA:          -3.955
REMARK INTER:                  -4.210
REMARK INTRA:                   0.255
REMARK UNBOUND:                 0.274
REMARK SMILES C[C@@H]1[C@H](C)CC[C@@]2(C(=O)[O-])CC[C@@]3(C)C(=CC[C@H]4[C@@]5(C)CC[C@@H](O)C(C)(C)[C@H]5CC[C@]43C)[C@H]12
REMARK SMILES IDX 7 1 6 2 11 3 33 4 5 5 12 6 15 7 2 8 3 9 13 10 16 11 1 12
REMARK SMILES IDX 4 13 14 14 31 15 17 16 18 17 30 18 32 19 19 20 29 21 28 22
REMARK SMILES IDX 21 23 20 24 25 25 22 26 23 27 26 28 27 29 8 30 9 31 10 32
REMARK SMILES IDX 24 33
REMARK H PARENT 24 34
REMARK Flexibility Score: inf
ROOT
ATOM      1  C   UNL     1      18.369  -7.111  17.526  1.00  0.00     0.017 C 
ATOM      2  C   UNL     1      17.463  -8.364  17.421  1.00  0.00     0.014 C 
ATOM      3  C   UNL     1      17.776  -6.016  16.612  1.00  0.00     0.014 C 
ATOM      4  C   UNL     1      18.341  -6.546  18.991  1.00  0.00     0.030 C 
ATOM      5  C   UNL     1      17.801  -9.427  18.464  1.00  0.00     0.004 C 
ATOM      6  C   UNL     1      18.640  -4.746  16.620  1.00  0.00     0.013 C 
ATOM      7  C   UNL     1      19.108  -5.207  19.104  1.00  0.00    -0.063 C 
ATOM      8  C   UNL     1      18.546  -7.632  20.128  1.00  0.00    -0.003 C 
ATOM      9  C   UNL     1      17.626  -8.862  19.882  1.00  0.00    -0.011 C 
ATOM     10  C   UNL     1      18.895  -4.112  18.036  1.00  0.00    -0.006 C 
ATOM     11  C   UNL     1      19.617  -4.823  20.294  1.00  0.00    -0.027 C 
ATOM     12  C   UNL     1      20.006  -8.044  20.448  1.00  0.00     0.008 C 
ATOM     13  C   UNL     1      17.810  -9.967  20.935  1.00  0.00     0.008 C 
ATOM     14  C   UNL     1      17.583  -3.366  18.444  1.00  0.00     0.017 C 
ATOM     15  C   UNL     1      20.144  -3.086  17.990  1.00  0.00    -0.020 C 
ATOM     16  C   UNL     1      20.583  -3.686  20.447  1.00  0.00     0.032 C 
ATOM     17  C   UNL     1      20.463  -2.517  19.426  1.00  0.00     0.006 C 
ATOM     18  C   UNL     1      21.431  -3.815  17.460  1.00  0.00     0.008 C 
ATOM     19  C   UNL     1      19.781  -1.901  17.030  1.00  0.00     0.012 C 
ATOM     20  C   UNL     1      21.709  -1.477  19.477  1.00  0.00    -0.025 C 
ATOM     21  C   UNL     1      22.788  -3.324  18.011  1.00  0.00     0.005 C 
ATOM     22  C   UNL     1      22.816  -1.819  18.373  1.00  0.00     0.003 C 
ATOM     23  C   UNL     1      22.331  -1.454  20.919  1.00  0.00     0.010 C 
ATOM     24  C   UNL     1      21.143  -0.038  19.215  1.00  0.00     0.012 C 
ATOM     25  C   UNL     1      24.275  -1.215  18.619  1.00  0.00    -0.006 C 
ATOM     26  C   UNL     1      23.654  -0.699  21.050  1.00  0.00     0.033 C 
ATOM     27  C   UNL     1      24.703  -1.297  20.112  1.00  0.00     0.120 C 
ATOM     28  C   UNL     1      24.326   0.268  18.142  1.00  0.00     0.014 C 
ATOM     29  C   UNL     1      25.372  -1.929  17.774  1.00  0.00     0.014 C 
ENDROOT
BRANCH   1  30
ATOM     30  C   UNL     1      19.765  -7.458  17.003  1.00  0.00     0.048 C 
ATOM     31  O   UNL     1      19.894  -8.006  15.872  1.00  0.00    -0.550 OA
ATOM     32  O   UNL     1      20.920  -7.146  17.724  1.00  0.00    -0.550 OA
ENDBRANCH   1  30
BRANCH  27  33
ATOM     33  O   UNL     1      24.944  -2.636  20.481  1.00  0.00    -0.393 OA
ATOM     34  H   UNL     1      25.872  -2.860  20.208  1.00  0.00     0.210 HD
ENDBRANCH  27  33
TORSDOF 2
ENDMDL
MODEL 9
REMARK VINA RESULT:    -3.481      1.929      7.416
REMARK INTER + INTRA:          -3.512
REMARK INTER:                  -4.100
REMARK INTRA:                   0.588
REMARK UNBOUND:                 0.274
REMARK SMILES C[C@@H]1[C@H](C)CC[C@@]2(C(=O)[O-])CC[C@@]3(C)C(=CC[C@H]4[C@@]5(C)CC[C@@H](O)C(C)(C)[C@H]5CC[C@]43C)[C@H]12
REMARK SMILES IDX 7 1 6 2 11 3 33 4 5 5 12 6 15 7 2 8 3 9 13 10 16 11 1 12
REMARK SMILES IDX 4 13 14 14 31 15 17 16 18 17 30 18 32 19 19 20 29 21 28 22
REMARK SMILES IDX 21 23 20 24 25 25 22 26 23 27 26 28 27 29 8 30 9 31 10 32
REMARK SMILES IDX 24 33
REMARK H PARENT 24 34
REMARK Flexibility Score: inf
ROOT
ATOM      1  C   UNL     1      19.571  -7.847  12.616  1.00  0.00     0.017 C 
ATOM      2  C   UNL     1      19.638  -8.147  11.096  1.00  0.00     0.014 C 
ATOM      3  C   UNL     1      20.924  -8.251  13.241  1.00  0.00     0.014 C 
ATOM      4  C   UNL     1      19.400  -6.305  12.854  1.00  0.00     0.030 C 
ATOM      5  C   UNL     1      18.455  -7.563  10.326  1.00  0.00     0.004 C 
ATOM      6  C   UNL     1      20.932  -8.029  14.761  1.00  0.00     0.013 C 
ATOM      7  C   UNL     1      19.485  -5.944  14.357  1.00  0.00    -0.063 C 
ATOM      8  C   UNL     1      18.278  -5.614  11.974  1.00  0.00    -0.003 C 
ATOM      9  C   UNL     1      18.415  -6.035  10.483  1.00  0.00    -0.011 C 
ATOM     10  C   UNL     1      20.596  -6.566  15.230  1.00  0.00    -0.006 C 
ATOM     11  C   UNL     1      18.895  -4.818  14.811  1.00  0.00    -0.027 C 
ATOM     12  C   UNL     1      16.819  -5.727  12.485  1.00  0.00     0.008 C 
ATOM     13  C   UNL     1      17.327  -5.424   9.585  1.00  0.00     0.008 C 
ATOM     14  C   UNL     1      21.874  -5.701  14.977  1.00  0.00     0.017 C 
ATOM     15  C   UNL     1      20.193  -6.544  16.797  1.00  0.00    -0.020 C 
ATOM     16  C   UNL     1      18.704  -4.521  16.268  1.00  0.00     0.032 C 
ATOM     17  C   UNL     1      19.766  -5.094  17.251  1.00  0.00     0.006 C 
ATOM     18  C   UNL     1      18.985  -7.511  17.063  1.00  0.00     0.008 C 
ATOM     19  C   UNL     1      21.431  -7.008  17.637  1.00  0.00     0.012 C 
ATOM     20  C   UNL     1      19.341  -4.976  18.813  1.00  0.00    -0.025 C 
ATOM     21  C   UNL     1      18.010  -7.116  18.196  1.00  0.00     0.005 C 
ATOM     22  C   UNL     1      18.671  -6.327  19.352  1.00  0.00     0.003 C 
ATOM     23  C   UNL     1      18.384  -3.747  19.018  1.00  0.00     0.010 C 
ATOM     24  C   UNL     1      20.637  -4.673  19.642  1.00  0.00     0.012 C 
ATOM     25  C   UNL     1      17.782  -6.202  20.673  1.00  0.00    -0.006 C 
ATOM     26  C   UNL     1      17.719  -3.656  20.392  1.00  0.00     0.033 C 
ATOM     27  C   UNL     1      16.903  -4.918  20.672  1.00  0.00     0.120 C 
ATOM     28  C   UNL     1      18.697  -6.207  21.936  1.00  0.00     0.014 C 
ATOM     29  C   UNL     1      16.835  -7.422  20.880  1.00  0.00     0.014 C 
ENDROOT
BRANCH   1  30
ATOM     30  C   UNL     1      18.480  -8.715  13.249  1.00  0.00     0.048 C 
ATOM     31  O   UNL     1      18.192  -9.834  12.738  1.00  0.00    -0.550 OA
ATOM     32  O   UNL     1      17.813  -8.325  14.414  1.00  0.00    -0.550 OA
ENDBRANCH   1  30
BRANCH  27  33
ATOM     33  O   UNL     1      15.876  -5.028  19.714  1.00  0.00    -0.393 OA
ATOM     34  H   UNL     1      15.924  -4.226  19.129  1.00  0.00     0.210 HD
ENDBRANCH  27  33
TORSDOF 2
ENDMDL
