MODEL 1
REMARK VINA RESULT:    -5.427      0.000      0.000
REMARK INTER + INTRA:         -12.528
REMARK INTER:                 -10.504
REMARK INTRA:                  -2.024
REMARK UNBOUND:                -2.024
REMARK SMILES CCCCCCCCCCCCCCCCCC(=O)[O-]
REMARK SMILES IDX 10 1 11 2 12 3 13 4 14 5 15 6 16 7 17 8 18 9 19 10 20 11
REMARK SMILES IDX 9 12 8 13 7 14 6 15 5 16 4 17 3 18 2 19 1 20
REMARK H PARENT
REMARK Flexibility Score: inf
ROOT
ATOM      1  C   UNL     1     170.715 144.282 148.174  1.00  0.00     0.000 C 
ENDROOT
BRANCH   1   2
ATOM      2  C   UNL     1     170.256 143.089 149.028  1.00  0.00     0.000 C 
BRANCH   2   3
ATOM      3  C   UNL     1     169.840 143.504 150.451  1.00  0.00     0.000 C 
BRANCH   3   4
ATOM      4  C   UNL     1     170.893 144.387 151.137  1.00  0.00     0.000 C 
BRANCH   4   5
ATOM      5  C   UNL     1     170.276 145.352 152.163  1.00  0.00     0.000 C 
BRANCH   5   6
ATOM      6  C   UNL     1     168.782 145.080 152.415  1.00  0.00     0.000 C 
BRANCH   6   7
ATOM      7  C   UNL     1     168.317 145.462 153.836  1.00  0.00     0.006 C 
BRANCH   7   8
ATOM      8  C   UNL     1     169.437 146.116 154.657  1.00  0.00     0.053 C 
BRANCH   8   9
ATOM      9  C   UNL     1     169.667 145.357 155.926  1.00  0.00     0.041 C 
ATOM     10  O   UNL     1     170.814 144.913 156.200  1.00  0.00    -0.550 OA
ATOM     11  O   UNL     1     168.605 145.097 156.782  1.00  0.00    -0.550 OA
ENDBRANCH   8   9
ENDBRANCH   7   8
ENDBRANCH   6   7
ENDBRANCH   5   6
ENDBRANCH   4   5
ENDBRANCH   3   4
ENDBRANCH   2   3
ENDBRANCH   1   2
BRANCH   1  12
ATOM     12  C   UNL     1     169.539 145.015 147.505  1.00  0.00     0.000 C 
BRANCH  12  13
ATOM     13  C   UNL     1     169.573 146.536 147.743  1.00  0.00    -0.000 C 
BRANCH  13  14
ATOM     14  C   UNL     1     169.075 146.994 149.129  1.00  0.00    -0.000 C 
BRANCH  14  15
ATOM     15  C   UNL     1     167.582 146.730 149.410  1.00  0.00    -0.000 C 
BRANCH  15  16
ATOM     16  C   UNL     1     166.838 147.885 150.105  1.00  0.00    -0.000 C 
BRANCH  16  17
ATOM     17  C   UNL     1     165.994 147.417 151.300  1.00  0.00    -0.000 C 
BRANCH  17  18
ATOM     18  C   UNL     1     164.498 147.432 150.954  1.00  0.00    -0.000 C 
BRANCH  18  19
ATOM     19  C   UNL     1     164.214 148.072 149.586  1.00  0.00    -0.003 C 
ATOM     20  C   UNL     1     162.964 147.503 148.914  1.00  0.00     0.004 C 
ENDBRANCH  18  19
ENDBRANCH  17  18
ENDBRANCH  16  17
ENDBRANCH  15  16
ENDBRANCH  14  15
ENDBRANCH  13  14
ENDBRANCH  12  13
ENDBRANCH   1  12
TORSDOF 16
ENDMDL
MODEL 2
REMARK VINA RESULT:    -5.427      1.593      4.843
REMARK INTER + INTRA:         -12.526
REMARK INTER:                 -10.476
REMARK INTRA:                  -2.051
REMARK UNBOUND:                -2.024
REMARK SMILES CCCCCCCCCCCCCCCCCC(=O)[O-]
REMARK SMILES IDX 10 1 11 2 12 3 13 4 14 5 15 6 16 7 17 8 18 9 19 10 20 11
REMARK SMILES IDX 9 12 8 13 7 14 6 15 5 16 4 17 3 18 2 19 1 20
REMARK H PARENT
REMARK Flexibility Score: inf
ROOT
ATOM      1  C   UNL     1     165.826 148.029 151.096  1.00  0.00     0.000 C 
ENDROOT
BRANCH   1   2
ATOM      2  C   UNL     1     165.405 146.856 151.995  1.00  0.00     0.000 C 
BRANCH   2   3
ATOM      3  C   UNL     1     166.436 146.553 153.097  1.00  0.00     0.000 C 
BRANCH   3   4
ATOM      4  C   UNL     1     167.526 145.576 152.630  1.00  0.00     0.000 C 
BRANCH   4   5
ATOM      5  C   UNL     1     168.509 145.209 153.754  1.00  0.00     0.000 C 
BRANCH   5   6
ATOM      6  C   UNL     1     169.372 146.401 154.205  1.00  0.00     0.000 C 
BRANCH   6   7
ATOM      7  C   UNL     1     169.273 146.696 155.716  1.00  0.00     0.006 C 
BRANCH   7   8
ATOM      8  C   UNL     1     170.528 147.396 156.254  1.00  0.00     0.053 C 
BRANCH   8   9
ATOM      9  C   UNL     1     171.550 146.388 156.675  1.00  0.00     0.041 C 
ATOM     10  O   UNL     1     171.281 145.549 157.575  1.00  0.00    -0.550 OA
ATOM     11  O   UNL     1     172.817 146.405 156.107  1.00  0.00    -0.550 OA
ENDBRANCH   8   9
ENDBRANCH   7   8
ENDBRANCH   6   7
ENDBRANCH   5   6
ENDBRANCH   4   5
ENDBRANCH   3   4
ENDBRANCH   2   3
ENDBRANCH   1   2
BRANCH   1  12
ATOM     12  C   UNL     1     166.104 147.590 149.647  1.00  0.00     0.000 C 
BRANCH  12  13
ATOM     13  C   UNL     1     167.578 147.217 149.409  1.00  0.00    -0.000 C 
BRANCH  13  14
ATOM     14  C   UNL     1     168.589 147.909 150.346  1.00  0.00    -0.000 C 
BRANCH  14  15
ATOM     15  C   UNL     1     169.988 147.262 150.394  1.00  0.00    -0.000 C 
BRANCH  15  16
ATOM     16  C   UNL     1     170.268 146.235 149.282  1.00  0.00    -0.000 C 
BRANCH  16  17
ATOM     17  C   UNL     1     171.401 145.263 149.639  1.00  0.00    -0.000 C 
BRANCH  17  18
ATOM     18  C   UNL     1     171.132 144.580 150.988  1.00  0.00    -0.000 C 
BRANCH  18  19
ATOM     19  C   UNL     1     170.049 143.494 150.895  1.00  0.00    -0.003 C 
ATOM     20  C   UNL     1     170.417 142.372 149.924  1.00  0.00     0.004 C 
ENDBRANCH  18  19
ENDBRANCH  17  18
ENDBRANCH  16  17
ENDBRANCH  15  16
ENDBRANCH  14  15
ENDBRANCH  13  14
ENDBRANCH  12  13
ENDBRANCH   1  12
TORSDOF 16
ENDMDL
MODEL 3
REMARK VINA RESULT:    -5.379      1.208      2.429
REMARK INTER + INTRA:         -12.435
REMARK INTER:                 -10.510
REMARK INTRA:                  -1.924
REMARK UNBOUND:                -2.024
REMARK SMILES CCCCCCCCCCCCCCCCCC(=O)[O-]
REMARK SMILES IDX 10 1 11 2 12 3 13 4 14 5 15 6 16 7 17 8 18 9 19 10 20 11
REMARK SMILES IDX 9 12 8 13 7 14 6 15 5 16 4 17 3 18 2 19 1 20
REMARK H PARENT
REMARK Flexibility Score: inf
ROOT
ATOM      1  C   UNL     1     170.121 143.279 150.503  1.00  0.00     0.000 C 
ENDROOT
BRANCH   1   2
ATOM      2  C   UNL     1     170.914 144.050 151.570  1.00  0.00     0.000 C 
BRANCH   2   3
ATOM      3  C   UNL     1     170.130 145.241 152.148  1.00  0.00     0.000 C 
BRANCH   3   4
ATOM      4  C   UNL     1     168.669 144.886 152.463  1.00  0.00     0.000 C 
BRANCH   4   5
ATOM      5  C   UNL     1     168.200 145.457 153.811  1.00  0.00     0.000 C 
BRANCH   5   6
ATOM      6  C   UNL     1     169.135 146.553 154.353  1.00  0.00     0.000 C 
BRANCH   6   7
ATOM      7  C   UNL     1     169.341 146.488 155.880  1.00  0.00     0.006 C 
BRANCH   7   8
ATOM      8  C   UNL     1     170.534 147.335 156.342  1.00  0.00     0.053 C 
BRANCH   8   9
ATOM      9  C   UNL     1     171.559 146.475 157.011  1.00  0.00     0.041 C 
ATOM     10  O   UNL     1     171.533 145.224 156.860  1.00  0.00    -0.550 OA
ATOM     11  O   UNL     1     172.514 147.049 157.840  1.00  0.00    -0.550 OA
ENDBRANCH   8   9
ENDBRANCH   7   8
ENDBRANCH   6   7
ENDBRANCH   5   6
ENDBRANCH   4   5
ENDBRANCH   3   4
ENDBRANCH   2   3
ENDBRANCH   1   2
BRANCH   1  12
ATOM     12  C   UNL     1     170.836 143.253 149.141  1.00  0.00     0.000 C 
BRANCH  12  13
ATOM     13  C   UNL     1     171.033 144.657 148.544  1.00  0.00    -0.000 C 
BRANCH  13  14
ATOM     14  C   UNL     1     169.752 145.326 148.004  1.00  0.00    -0.000 C 
BRANCH  14  15
ATOM     15  C   UNL     1     169.333 146.620 148.729  1.00  0.00    -0.000 C 
BRANCH  15  16
ATOM     16  C   UNL     1     167.886 146.631 149.256  1.00  0.00    -0.000 C 
BRANCH  16  17
ATOM     17  C   UNL     1     167.652 147.694 150.339  1.00  0.00    -0.000 C 
BRANCH  17  18
ATOM     18  C   UNL     1     166.356 147.413 151.113  1.00  0.00    -0.000 C 
BRANCH  18  19
ATOM     19  C   UNL     1     165.245 148.424 150.791  1.00  0.00    -0.003 C 
ATOM     20  C   UNL     1     163.925 147.754 150.415  1.00  0.00     0.004 C 
ENDBRANCH  18  19
ENDBRANCH  17  18
ENDBRANCH  16  17
ENDBRANCH  15  16
ENDBRANCH  14  15
ENDBRANCH  13  14
ENDBRANCH  12  13
ENDBRANCH   1  12
TORSDOF 16
ENDMDL
MODEL 4
REMARK VINA RESULT:    -5.346      2.795      4.969
REMARK INTER + INTRA:         -12.370
REMARK INTER:                 -10.064
REMARK INTRA:                  -2.306
REMARK UNBOUND:                -2.024
REMARK SMILES CCCCCCCCCCCCCCCCCC(=O)[O-]
REMARK SMILES IDX 10 1 11 2 12 3 13 4 14 5 15 6 16 7 17 8 18 9 19 10 20 11
REMARK SMILES IDX 9 12 8 13 7 14 6 15 5 16 4 17 3 18 2 19 1 20
REMARK H PARENT
REMARK Flexibility Score: inf
ROOT
ATOM      1  C   UNL     1     168.919 146.141 154.371  1.00  0.00     0.000 C 
ENDROOT
BRANCH   1   2
ATOM      2  C   UNL     1     169.633 145.096 155.244  1.00  0.00     0.000 C 
BRANCH   2   3
ATOM      3  C   UNL     1     170.978 145.602 155.795  1.00  0.00     0.000 C 
BRANCH   3   4
ATOM      4  C   UNL     1     172.144 145.345 154.828  1.00  0.00     0.000 C 
BRANCH   4   5
ATOM      5  C   UNL     1     171.987 144.026 154.054  1.00  0.00     0.000 C 
BRANCH   5   6
ATOM      6  C   UNL     1     172.375 144.155 152.570  1.00  0.00     0.000 C 
BRANCH   6   7
ATOM      7  C   UNL     1     172.286 142.825 151.792  1.00  0.00     0.006 C 
BRANCH   7   8
ATOM      8  C   UNL     1     171.150 142.831 150.761  1.00  0.00     0.053 C 
BRANCH   8   9
ATOM      9  C   UNL     1     171.612 143.445 149.477  1.00  0.00     0.041 C 
ATOM     10  O   UNL     1     170.885 144.283 148.878  1.00  0.00    -0.550 OA
ATOM     11  O   UNL     1     172.821 143.057 148.916  1.00  0.00    -0.550 OA
ENDBRANCH   8   9
ENDBRANCH   7   8
ENDBRANCH   6   7
ENDBRANCH   5   6
ENDBRANCH   4   5
ENDBRANCH   3   4
ENDBRANCH   2   3
ENDBRANCH   1   2
BRANCH   1  12
ATOM     12  C   UNL     1     167.946 145.502 153.365  1.00  0.00     0.000 C 
BRANCH  12  13
ATOM     13  C   UNL     1     168.603 145.204 152.005  1.00  0.00    -0.000 C 
BRANCH  13  14
ATOM     14  C   UNL     1     169.642 146.244 151.537  1.00  0.00    -0.000 C 
BRANCH  14  15
ATOM     15  C   UNL     1     169.081 147.385 150.667  1.00  0.00    -0.000 C 
BRANCH  15  16
ATOM     16  C   UNL     1     168.391 146.933 149.367  1.00  0.00    -0.000 C 
BRANCH  16  17
ATOM     17  C   UNL     1     166.888 147.246 149.348  1.00  0.00    -0.000 C 
BRANCH  17  18
ATOM     18  C   UNL     1     166.485 148.074 150.577  1.00  0.00    -0.000 C 
BRANCH  18  19
ATOM     19  C   UNL     1     165.303 147.459 151.342  1.00  0.00    -0.003 C 
ATOM     20  C   UNL     1     163.959 147.712 150.660  1.00  0.00     0.004 C 
ENDBRANCH  18  19
ENDBRANCH  17  18
ENDBRANCH  16  17
ENDBRANCH  15  16
ENDBRANCH  14  15
ENDBRANCH  13  14
ENDBRANCH  12  13
ENDBRANCH   1  12
TORSDOF 16
ENDMDL
MODEL 5
REMARK VINA RESULT:    -5.319      2.572      4.491
REMARK INTER + INTRA:         -12.318
REMARK INTER:                 -10.582
REMARK INTRA:                  -1.736
REMARK UNBOUND:                -2.024
REMARK SMILES CCCCCCCCCCCCCCCCCC(=O)[O-]
REMARK SMILES IDX 10 1 11 2 12 3 13 4 14 5 15 6 16 7 17 8 18 9 19 10 20 11
REMARK SMILES IDX 9 12 8 13 7 14 6 15 5 16 4 17 3 18 2 19 1 20
REMARK H PARENT
REMARK Flexibility Score: inf
ROOT
ATOM      1  C   UNL     1     168.499 145.066 153.247  1.00  0.00     0.000 C 
ENDROOT
BRANCH   1   2
ATOM      2  C   UNL     1     169.155 146.331 153.821  1.00  0.00     0.000 C 
BRANCH   2   3
ATOM      3  C   UNL     1     168.926 146.484 155.335  1.00  0.00     0.000 C 
BRANCH   3   4
ATOM      4  C   UNL     1     170.212 146.852 156.090  1.00  0.00     0.000 C 
BRANCH   4   5
ATOM      5  C   UNL     1     171.429 146.044 155.610  1.00  0.00     0.000 C 
BRANCH   5   6
ATOM      6  C   UNL     1     172.036 145.164 156.717  1.00  0.00     0.000 C 
BRANCH   6   7
ATOM      7  C   UNL     1     173.096 145.891 157.570  1.00  0.00     0.006 C 
BRANCH   7   8
ATOM      8  C   UNL     1     172.495 146.510 158.839  1.00  0.00     0.053 C 
BRANCH   8   9
ATOM      9  C   UNL     1     172.693 147.993 158.843  1.00  0.00     0.041 C 
ATOM     10  O   UNL     1     171.707 148.764 158.986  1.00  0.00    -0.550 OA
ATOM     11  O   UNL     1     173.959 148.525 158.638  1.00  0.00    -0.550 OA
ENDBRANCH   8   9
ENDBRANCH   7   8
ENDBRANCH   6   7
ENDBRANCH   5   6
ENDBRANCH   4   5
ENDBRANCH   3   4
ENDBRANCH   2   3
ENDBRANCH   1   2
BRANCH   1  12
ATOM     12  C   UNL     1     169.127 144.631 151.911  1.00  0.00     0.000 C 
BRANCH  12  13
ATOM     13  C   UNL     1     170.516 145.250 151.676  1.00  0.00    -0.000 C 
BRANCH  13  14
ATOM     14  C   UNL     1     170.646 146.106 150.399  1.00  0.00    -0.000 C 
BRANCH  14  15
ATOM     15  C   UNL     1     169.579 147.206 150.236  1.00  0.00    -0.000 C 
BRANCH  15  16
ATOM     16  C   UNL     1     168.651 147.037 149.018  1.00  0.00    -0.000 C 
BRANCH  16  17
ATOM     17  C   UNL     1     167.164 147.029 149.398  1.00  0.00    -0.000 C 
BRANCH  17  18
ATOM     18  C   UNL     1     166.964 147.507 150.844  1.00  0.00    -0.000 C 
BRANCH  18  19
ATOM     19  C   UNL     1     165.501 147.407 151.302  1.00  0.00    -0.003 C 
ATOM     20  C   UNL     1     164.543 148.183 150.399  1.00  0.00     0.004 C 
ENDBRANCH  18  19
ENDBRANCH  17  18
ENDBRANCH  16  17
ENDBRANCH  15  16
ENDBRANCH  14  15
ENDBRANCH  13  14
ENDBRANCH  12  13
ENDBRANCH   1  12
TORSDOF 16
ENDMDL
MODEL 6
REMARK VINA RESULT:    -5.301      2.721      5.135
REMARK INTER + INTRA:         -12.283
REMARK INTER:                 -10.957
REMARK INTRA:                  -1.326
REMARK UNBOUND:                -2.024
REMARK SMILES CCCCCCCCCCCCCCCCCC(=O)[O-]
REMARK SMILES IDX 10 1 11 2 12 3 13 4 14 5 15 6 16 7 17 8 18 9 19 10 20 11
REMARK SMILES IDX 9 12 8 13 7 14 6 15 5 16 4 17 3 18 2 19 1 20
REMARK H PARENT
REMARK Flexibility Score: inf
ROOT
ATOM      1  C   UNL     1     169.817 146.284 154.684  1.00  0.00     0.000 C 
ENDROOT
BRANCH   1   2
ATOM      2  C   UNL     1     169.799 146.160 156.216  1.00  0.00     0.000 C 
BRANCH   2   3
ATOM      3  C   UNL     1     169.226 144.816 156.697  1.00  0.00     0.000 C 
BRANCH   3   4
ATOM      4  C   UNL     1     170.321 143.766 156.945  1.00  0.00     0.000 C 
BRANCH   4   5
ATOM      5  C   UNL     1     171.007 143.942 158.309  1.00  0.00     0.000 C 
BRANCH   5   6
ATOM      6  C   UNL     1     172.528 144.146 158.191  1.00  0.00     0.000 C 
BRANCH   6   7
ATOM      7  C   UNL     1     172.945 145.626 158.072  1.00  0.00     0.006 C 
BRANCH   7   8
ATOM      8  C   UNL     1     172.368 146.485 159.205  1.00  0.00     0.053 C 
BRANCH   8   9
ATOM      9  C   UNL     1     172.640 147.935 158.954  1.00  0.00     0.041 C 
ATOM     10  O   UNL     1     171.700 148.773 158.997  1.00  0.00    -0.550 OA
ATOM     11  O   UNL     1     173.921 148.354 158.623  1.00  0.00    -0.550 OA
ENDBRANCH   8   9
ENDBRANCH   7   8
ENDBRANCH   6   7
ENDBRANCH   5   6
ENDBRANCH   4   5
ENDBRANCH   3   4
ENDBRANCH   2   3
ENDBRANCH   1   2
BRANCH   1  12
ATOM     12  C   UNL     1     168.448 145.977 154.052  1.00  0.00     0.000 C 
BRANCH  12  13
ATOM     13  C   UNL     1     168.537 145.707 152.539  1.00  0.00    -0.000 C 
BRANCH  13  14
ATOM     14  C   UNL     1     169.566 146.568 151.779  1.00  0.00    -0.000 C 
BRANCH  14  15
ATOM     15  C   UNL     1     169.030 147.268 150.514  1.00  0.00    -0.000 C 
BRANCH  15  16
ATOM     16  C   UNL     1     167.986 146.463 149.720  1.00  0.00    -0.000 C 
BRANCH  16  17
ATOM     17  C   UNL     1     166.712 147.268 149.422  1.00  0.00    -0.000 C 
BRANCH  17  18
ATOM     18  C   UNL     1     166.300 148.111 150.638  1.00  0.00    -0.000 C 
BRANCH  18  19
ATOM     19  C   UNL     1     164.775 148.226 150.787  1.00  0.00    -0.003 C 
ATOM     20  C   UNL     1     164.032 147.992 149.472  1.00  0.00     0.004 C 
ENDBRANCH  18  19
ENDBRANCH  17  18
ENDBRANCH  16  17
ENDBRANCH  15  16
ENDBRANCH  14  15
ENDBRANCH  13  14
ENDBRANCH  12  13
ENDBRANCH   1  12
TORSDOF 16
ENDMDL
MODEL 7
REMARK VINA RESULT:    -5.274      2.566      4.326
REMARK INTER + INTRA:         -12.231
REMARK INTER:                 -10.717
REMARK INTRA:                  -1.514
REMARK UNBOUND:                -2.024
REMARK SMILES CCCCCCCCCCCCCCCCCC(=O)[O-]
REMARK SMILES IDX 10 1 11 2 12 3 13 4 14 5 15 6 16 7 17 8 18 9 19 10 20 11
REMARK SMILES IDX 9 12 8 13 7 14 6 15 5 16 4 17 3 18 2 19 1 20
REMARK H PARENT
REMARK Flexibility Score: inf
ROOT
ATOM      1  C   UNL     1     167.800 145.519 153.170  1.00  0.00     0.000 C 
ENDROOT
BRANCH   1   2
ATOM      2  C   UNL     1     168.206 145.638 154.648  1.00  0.00     0.000 C 
BRANCH   2   3
ATOM      3  C   UNL     1     169.626 145.113 154.918  1.00  0.00     0.000 C 
BRANCH   3   4
ATOM      4  C   UNL     1     170.651 146.246 155.082  1.00  0.00     0.000 C 
BRANCH   4   5
ATOM      5  C   UNL     1     170.128 147.390 155.966  1.00  0.00     0.000 C 
BRANCH   5   6
ATOM      6  C   UNL     1     171.055 147.699 157.154  1.00  0.00     0.000 C 
BRANCH   6   7
ATOM      7  C   UNL     1     172.305 146.797 157.212  1.00  0.00     0.006 C 
BRANCH   7   8
ATOM      8  C   UNL     1     172.668 146.399 158.649  1.00  0.00     0.053 C 
BRANCH   8   9
ATOM      9  C   UNL     1     174.123 146.064 158.748  1.00  0.00     0.041 C 
ATOM     10  O   UNL     1     174.917 146.854 159.325  1.00  0.00    -0.550 OA
ATOM     11  O   UNL     1     174.611 144.905 158.161  1.00  0.00    -0.550 OA
ENDBRANCH   8   9
ENDBRANCH   7   8
ENDBRANCH   6   7
ENDBRANCH   5   6
ENDBRANCH   4   5
ENDBRANCH   3   4
ENDBRANCH   2   3
ENDBRANCH   1   2
BRANCH   1  12
ATOM     12  C   UNL     1     168.725 144.578 152.378  1.00  0.00     0.000 C 
BRANCH  12  13
ATOM     13  C   UNL     1     169.180 145.179 151.036  1.00  0.00    -0.000 C 
BRANCH  13  14
ATOM     14  C   UNL     1     169.614 146.658 151.093  1.00  0.00    -0.000 C 
BRANCH  14  15
ATOM     15  C   UNL     1     168.803 147.615 150.199  1.00  0.00    -0.000 C 
BRANCH  15  16
ATOM     16  C   UNL     1     167.370 147.150 149.881  1.00  0.00    -0.000 C 
BRANCH  16  17
ATOM     17  C   UNL     1     166.301 148.145 150.355  1.00  0.00    -0.000 C 
BRANCH  17  18
ATOM     18  C   UNL     1     165.230 147.439 151.201  1.00  0.00    -0.000 C 
BRANCH  18  19
ATOM     19  C   UNL     1     163.822 147.570 150.600  1.00  0.00    -0.003 C 
ATOM     20  C   UNL     1     163.843 147.945 149.118  1.00  0.00     0.004 C 
ENDBRANCH  18  19
ENDBRANCH  17  18
ENDBRANCH  16  17
ENDBRANCH  15  16
ENDBRANCH  14  15
ENDBRANCH  13  14
ENDBRANCH  12  13
ENDBRANCH   1  12
TORSDOF 16
ENDMDL
MODEL 8
REMARK VINA RESULT:    -5.226      2.288      5.160
REMARK INTER + INTRA:         -12.137
REMARK INTER:                 -10.289
REMARK INTRA:                  -1.848
REMARK UNBOUND:                -2.024
REMARK SMILES CCCCCCCCCCCCCCCCCC(=O)[O-]
REMARK SMILES IDX 10 1 11 2 12 3 13 4 14 5 15 6 16 7 17 8 18 9 19 10 20 11
REMARK SMILES IDX 9 12 8 13 7 14 6 15 5 16 4 17 3 18 2 19 1 20
REMARK H PARENT
REMARK Flexibility Score: inf
ROOT
ATOM      1  C   UNL     1     166.324 146.600 152.225  1.00  0.00     0.000 C 
ENDROOT
BRANCH   1   2
ATOM      2  C   UNL     1     167.770 146.123 152.435  1.00  0.00     0.000 C 
BRANCH   2   3
ATOM      3  C   UNL     1     167.882 145.013 153.495  1.00  0.00     0.000 C 
BRANCH   3   4
ATOM      4  C   UNL     1     168.558 145.500 154.786  1.00  0.00     0.000 C 
BRANCH   4   5
ATOM      5  C   UNL     1     169.632 146.568 154.522  1.00  0.00     0.000 C 
BRANCH   5   6
ATOM      6  C   UNL     1     170.882 146.388 155.402  1.00  0.00     0.000 C 
BRANCH   6   7
ATOM      7  C   UNL     1     170.976 147.409 156.556  1.00  0.00     0.006 C 
BRANCH   7   8
ATOM      8  C   UNL     1     171.806 146.879 157.733  1.00  0.00     0.053 C 
BRANCH   8   9
ATOM      9  C   UNL     1     172.410 148.013 158.499  1.00  0.00     0.041 C 
ATOM     10  O   UNL     1     171.682 148.948 158.928  1.00  0.00    -0.550 OA
ATOM     11  O   UNL     1     173.783 148.064 158.698  1.00  0.00    -0.550 OA
ENDBRANCH   8   9
ENDBRANCH   7   8
ENDBRANCH   6   7
ENDBRANCH   5   6
ENDBRANCH   4   5
ENDBRANCH   3   4
ENDBRANCH   2   3
ENDBRANCH   1   2
BRANCH   1  12
ATOM     12  C   UNL     1     166.183 147.541 151.016  1.00  0.00     0.000 C 
BRANCH  12  13
ATOM     13  C   UNL     1     167.520 147.787 150.293  1.00  0.00    -0.000 C 
BRANCH  13  14
ATOM     14  C   UNL     1     167.738 146.952 149.015  1.00  0.00    -0.000 C 
BRANCH  14  15
ATOM     15  C   UNL     1     169.211 146.698 148.641  1.00  0.00    -0.000 C 
BRANCH  15  16
ATOM     16  C   UNL     1     170.216 146.882 149.793  1.00  0.00    -0.000 C 
BRANCH  16  17
ATOM     17  C   UNL     1     171.110 145.653 150.008  1.00  0.00    -0.000 C 
BRANCH  17  18
ATOM     18  C   UNL     1     170.295 144.356 149.898  1.00  0.00    -0.000 C 
BRANCH  18  19
ATOM     19  C   UNL     1     170.296 143.546 151.204  1.00  0.00    -0.003 C 
ATOM     20  C   UNL     1     171.319 144.057 152.217  1.00  0.00     0.004 C 
ENDBRANCH  18  19
ENDBRANCH  17  18
ENDBRANCH  16  17
ENDBRANCH  15  16
ENDBRANCH  14  15
ENDBRANCH  13  14
ENDBRANCH  12  13
ENDBRANCH   1  12
TORSDOF 16
ENDMDL
MODEL 9
REMARK VINA RESULT:    -5.152      2.674      6.541
REMARK INTER + INTRA:         -11.994
REMARK INTER:                 -10.272
REMARK INTRA:                  -1.722
REMARK UNBOUND:                -2.024
REMARK SMILES CCCCCCCCCCCCCCCCCC(=O)[O-]
REMARK SMILES IDX 10 1 11 2 12 3 13 4 14 5 15 6 16 7 17 8 18 9 19 10 20 11
REMARK SMILES IDX 9 12 8 13 7 14 6 15 5 16 4 17 3 18 2 19 1 20
REMARK H PARENT
REMARK Flexibility Score: inf
ROOT
ATOM      1  C   UNL     1     165.570 147.427 151.459  1.00  0.00     0.000 C 
ENDROOT
BRANCH   1   2
ATOM      2  C   UNL     1     166.770 147.915 150.632  1.00  0.00     0.000 C 
BRANCH   2   3
ATOM      3  C   UNL     1     166.862 147.231 149.256  1.00  0.00     0.000 C 
BRANCH   3   4
ATOM      4  C   UNL     1     168.294 146.789 148.915  1.00  0.00     0.000 C 
BRANCH   4   5
ATOM      5  C   UNL     1     169.305 147.171 150.007  1.00  0.00     0.000 C 
BRANCH   5   6
ATOM      6  C   UNL     1     170.508 146.213 150.070  1.00  0.00     0.000 C 
BRANCH   6   7
ATOM      7  C   UNL     1     170.198 144.798 149.538  1.00  0.00     0.006 C 
BRANCH   7   8
ATOM      8  C   UNL     1     169.985 143.786 150.672  1.00  0.00     0.053 C 
BRANCH   8   9
ATOM      9  C   UNL     1     170.915 142.624 150.518  1.00  0.00     0.041 C 
ATOM     10  O   UNL     1     170.495 141.449 150.691  1.00  0.00    -0.550 OA
ATOM     11  O   UNL     1     172.256 142.841 150.234  1.00  0.00    -0.550 OA
ENDBRANCH   8   9
ENDBRANCH   7   8
ENDBRANCH   6   7
ENDBRANCH   5   6
ENDBRANCH   4   5
ENDBRANCH   3   4
ENDBRANCH   2   3
ENDBRANCH   1   2
BRANCH   1  12
ATOM     12  C   UNL     1     165.992 146.533 152.638  1.00  0.00     0.000 C 
BRANCH  12  13
ATOM     13  C   UNL     1     167.482 146.150 152.593  1.00  0.00    -0.000 C 
BRANCH  13  14
ATOM     14  C   UNL     1     167.880 144.960 153.489  1.00  0.00    -0.000 C 
BRANCH  14  15
ATOM     15  C   UNL     1     169.225 145.115 154.227  1.00  0.00    -0.000 C 
BRANCH  15  16
ATOM     16  C   UNL     1     169.669 146.569 154.468  1.00  0.00    -0.000 C 
BRANCH  16  17
ATOM     17  C   UNL     1     169.635 146.966 155.951  1.00  0.00    -0.000 C 
BRANCH  17  18
ATOM     18  C   UNL     1     171.018 147.434 156.426  1.00  0.00    -0.000 C 
BRANCH  18  19
ATOM     19  C   UNL     1     171.600 146.535 157.528  1.00  0.00    -0.003 C 
ATOM     20  C   UNL     1     171.237 145.061 157.343  1.00  0.00     0.004 C 
ENDBRANCH  18  19
ENDBRANCH  17  18
ENDBRANCH  16  17
ENDBRANCH  15  16
ENDBRANCH  14  15
ENDBRANCH  13  14
ENDBRANCH  12  13
ENDBRANCH   1  12
TORSDOF 16
ENDMDL
