MODEL 1
REMARK VINA RESULT:    -2.811      0.000      0.000
REMARK INTER + INTRA:          -5.905
REMARK INTER:                  -5.112
REMARK INTRA:                  -0.794
REMARK UNBOUND:                -0.794
REMARK SMILES CCCCCCCCCCCCCCCC(=O)[O-]
REMARK SMILES IDX 9 1 10 2 11 3 12 4 13 5 14 6 15 7 16 8 17 9 18 10 8 11 7 12
REMARK SMILES IDX 6 13 5 14 4 15 3 16 2 17 1 18
REMARK H PARENT
REMARK Flexibility Score: inf
ROOT
ATOM      1  C   UNL     1      19.758   9.482  12.350  1.00  0.00     0.000 C 
ENDROOT
BRANCH   1   2
ATOM      2  C   UNL     1      20.092   9.996  13.759  1.00  0.00     0.000 C 
BRANCH   2   3
ATOM      3  C   UNL     1      19.373   9.207  14.864  1.00  0.00     0.000 C 
BRANCH   3   4
ATOM      4  C   UNL     1      17.979   8.762  14.400  1.00  0.00     0.000 C 
BRANCH   4   5
ATOM      5  C   UNL     1      17.547   7.412  15.004  1.00  0.00     0.000 C 
BRANCH   5   6
ATOM      6  C   UNL     1      18.699   6.443  15.322  1.00  0.00     0.006 C 
BRANCH   6   7
ATOM      7  C   UNL     1      18.867   5.344  14.263  1.00  0.00     0.053 C 
BRANCH   7   8
ATOM      8  C   UNL     1      19.326   5.933  12.968  1.00  0.00     0.041 C 
ATOM      9  O   UNL     1      20.551   6.142  12.766  1.00  0.00    -0.550 OA
ATOM     10  O   UNL     1      18.397   6.297  12.001  1.00  0.00    -0.550 OA
ENDBRANCH   7   8
ENDBRANCH   6   7
ENDBRANCH   5   6
ENDBRANCH   4   5
ENDBRANCH   3   4
ENDBRANCH   2   3
ENDBRANCH   1   2
BRANCH   1  11
ATOM     11  C   UNL     1      20.630  10.125  11.261  1.00  0.00     0.000 C 
BRANCH  11  12
ATOM     12  C   UNL     1      20.487   9.379   9.929  1.00  0.00    -0.000 C 
BRANCH  12  13
ATOM     13  C   UNL     1      21.557   9.834   8.925  1.00  0.00    -0.000 C 
BRANCH  13  14
ATOM     14  C   UNL     1      21.082   9.740   7.466  1.00  0.00    -0.000 C 
BRANCH  14  15
ATOM     15  C   UNL     1      22.155   9.153   6.533  1.00  0.00    -0.000 C 
BRANCH  15  16
ATOM     16  C   UNL     1      22.334   7.638   6.719  1.00  0.00    -0.000 C 
BRANCH  16  17
ATOM     17  C   UNL     1      22.084   6.848   5.425  1.00  0.00    -0.003 C 
ATOM     18  C   UNL     1      22.136   5.345   5.682  1.00  0.00     0.004 C 
ENDBRANCH  16  17
ENDBRANCH  15  16
ENDBRANCH  14  15
ENDBRANCH  13  14
ENDBRANCH  12  13
ENDBRANCH  11  12
ENDBRANCH   1  11
TORSDOF 14
ENDMDL
MODEL 2
REMARK VINA RESULT:    -2.765      2.725      7.450
REMARK INTER + INTRA:          -5.821
REMARK INTER:                  -4.505
REMARK INTRA:                  -1.316
REMARK UNBOUND:                -0.794
REMARK SMILES CCCCCCCCCCCCCCCC(=O)[O-]
REMARK SMILES IDX 9 1 10 2 11 3 12 4 13 5 14 6 15 7 16 8 17 9 18 10 8 11 7 12
REMARK SMILES IDX 6 13 5 14 4 15 3 16 2 17 1 18
REMARK H PARENT
REMARK Flexibility Score: inf
ROOT
ATOM      1  C   UNL     1      20.150   6.400  13.203  1.00  0.00     0.000 C 
ENDROOT
BRANCH   1   2
ATOM      2  C   UNL     1      20.034   7.515  12.152  1.00  0.00     0.000 C 
BRANCH   2   3
ATOM      3  C   UNL     1      20.311   8.909  12.734  1.00  0.00     0.000 C 
BRANCH   3   4
ATOM      4  C   UNL     1      20.244   9.984  11.640  1.00  0.00     0.000 C 
BRANCH   4   5
ATOM      5  C   UNL     1      21.260   9.751  10.506  1.00  0.00     0.000 C 
BRANCH   5   6
ATOM      6  C   UNL     1      20.651   9.653   9.096  1.00  0.00     0.006 C 
BRANCH   6   7
ATOM      7  C   UNL     1      21.631  10.065   7.990  1.00  0.00     0.053 C 
BRANCH   7   8
ATOM      8  C   UNL     1      21.593   9.080   6.865  1.00  0.00     0.041 C 
ATOM      9  O   UNL     1      22.588   8.345   6.633  1.00  0.00    -0.550 OA
ATOM     10  O   UNL     1      20.476   9.007   6.043  1.00  0.00    -0.550 OA
ENDBRANCH   7   8
ENDBRANCH   6   7
ENDBRANCH   5   6
ENDBRANCH   4   5
ENDBRANCH   3   4
ENDBRANCH   2   3
ENDBRANCH   1   2
BRANCH   1  11
ATOM     11  C   UNL     1      18.791   5.782  13.565  1.00  0.00     0.000 C 
BRANCH  11  12
ATOM     12  C   UNL     1      18.922   4.822  14.755  1.00  0.00    -0.000 C 
BRANCH  12  13
ATOM     13  C   UNL     1      18.073   5.299  15.942  1.00  0.00    -0.000 C 
BRANCH  13  14
ATOM     14  C   UNL     1      17.189   6.508  15.594  1.00  0.00    -0.000 C 
BRANCH  14  15
ATOM     15  C   UNL     1      17.765   7.832  16.123  1.00  0.00    -0.000 C 
BRANCH  15  16
ATOM     16  C   UNL     1      17.687   8.965  15.086  1.00  0.00    -0.000 C 
BRANCH  16  17
ATOM     17  C   UNL     1      16.877   8.574  13.841  1.00  0.00    -0.003 C 
ATOM     18  C   UNL     1      16.879   9.699  12.810  1.00  0.00     0.004 C 
ENDBRANCH  16  17
ENDBRANCH  15  16
ENDBRANCH  14  15
ENDBRANCH  13  14
ENDBRANCH  12  13
ENDBRANCH  11  12
ENDBRANCH   1  11
TORSDOF 14
ENDMDL
MODEL 3
REMARK VINA RESULT:    -2.455     14.875     20.204
REMARK INTER + INTRA:          -5.258
REMARK INTER:                  -4.655
REMARK INTRA:                  -0.603
REMARK UNBOUND:                -0.794
REMARK SMILES CCCCCCCCCCCCCCCC(=O)[O-]
REMARK SMILES IDX 9 1 10 2 11 3 12 4 13 5 14 6 15 7 16 8 17 9 18 10 8 11 7 12
REMARK SMILES IDX 6 13 5 14 4 15 3 16 2 17 1 18
REMARK H PARENT
REMARK Flexibility Score: inf
ROOT
ATOM      1  C   UNL     1      30.715   0.655  -1.498  1.00  0.00     0.000 C 
ENDROOT
BRANCH   1   2
ATOM      2  C   UNL     1      31.365  -0.653  -1.975  1.00  0.00     0.000 C 
BRANCH   2   3
ATOM      3  C   UNL     1      31.234  -0.861  -3.492  1.00  0.00     0.000 C 
BRANCH   3   4
ATOM      4  C   UNL     1      32.531  -1.433  -4.081  1.00  0.00     0.000 C 
BRANCH   4   5
ATOM      5  C   UNL     1      33.759  -0.545  -3.806  1.00  0.00     0.000 C 
BRANCH   5   6
ATOM      6  C   UNL     1      34.988  -1.288  -3.252  1.00  0.00     0.006 C 
BRANCH   6   7
ATOM      7  C   UNL     1      35.411  -2.479  -4.121  1.00  0.00     0.053 C 
BRANCH   7   8
ATOM      8  C   UNL     1      36.521  -3.236  -3.465  1.00  0.00     0.041 C 
ATOM      9  O   UNL     1      37.101  -4.170  -4.079  1.00  0.00    -0.550 OA
ATOM     10  O   UNL     1      36.883  -2.944  -2.156  1.00  0.00    -0.550 OA
ENDBRANCH   7   8
ENDBRANCH   6   7
ENDBRANCH   5   6
ENDBRANCH   4   5
ENDBRANCH   3   4
ENDBRANCH   2   3
ENDBRANCH   1   2
BRANCH   1  11
ATOM     11  C   UNL     1      30.997   0.953  -0.018  1.00  0.00     0.000 C 
BRANCH  11  12
ATOM     12  C   UNL     1      29.736   0.760   0.833  1.00  0.00    -0.000 C 
BRANCH  12  13
ATOM     13  C   UNL     1      29.584   1.894   1.858  1.00  0.00    -0.000 C 
BRANCH  13  14
ATOM     14  C   UNL     1      30.909   2.620   2.143  1.00  0.00    -0.000 C 
BRANCH  14  15
ATOM     15  C   UNL     1      30.878   3.410   3.462  1.00  0.00    -0.000 C 
BRANCH  15  16
ATOM     16  C   UNL     1      30.684   4.919   3.241  1.00  0.00    -0.000 C 
BRANCH  16  17
ATOM     17  C   UNL     1      30.915   5.740   4.519  1.00  0.00    -0.003 C 
ATOM     18  C   UNL     1      30.066   7.007   4.518  1.00  0.00     0.004 C 
ENDBRANCH  16  17
ENDBRANCH  15  16
ENDBRANCH  14  15
ENDBRANCH  13  14
ENDBRANCH  12  13
ENDBRANCH  11  12
ENDBRANCH   1  11
TORSDOF 14
ENDMDL
MODEL 4
REMARK VINA RESULT:    -2.358     13.441     18.765
REMARK INTER + INTRA:          -5.081
REMARK INTER:                  -4.184
REMARK INTRA:                  -0.897
REMARK UNBOUND:                -0.794
REMARK SMILES CCCCCCCCCCCCCCCC(=O)[O-]
REMARK SMILES IDX 9 1 10 2 11 3 12 4 13 5 14 6 15 7 16 8 17 9 18 10 8 11 7 12
REMARK SMILES IDX 6 13 5 14 4 15 3 16 2 17 1 18
REMARK H PARENT
REMARK Flexibility Score: inf
ROOT
ATOM      1  C   UNL     1      30.658   0.662  -1.201  1.00  0.00     0.000 C 
ENDROOT
BRANCH   1   2
ATOM      2  C   UNL     1      31.407  -0.641  -1.522  1.00  0.00     0.000 C 
BRANCH   2   3
ATOM      3  C   UNL     1      31.134  -1.144  -2.948  1.00  0.00     0.000 C 
BRANCH   3   4
ATOM      4  C   UNL     1      31.608  -0.122  -3.991  1.00  0.00     0.000 C 
BRANCH   4   5
ATOM      5  C   UNL     1      33.037   0.389  -3.724  1.00  0.00     0.000 C 
BRANCH   5   6
ATOM      6  C   UNL     1      33.289   1.854  -4.124  1.00  0.00     0.006 C 
BRANCH   6   7
ATOM      7  C   UNL     1      32.135   2.788  -3.738  1.00  0.00     0.053 C 
BRANCH   7   8
ATOM      8  C   UNL     1      32.624   4.195  -3.602  1.00  0.00     0.041 C 
ATOM      9  O   UNL     1      33.716   4.539  -4.125  1.00  0.00    -0.550 OA
ATOM     10  O   UNL     1      31.897   5.114  -2.857  1.00  0.00    -0.550 OA
ENDBRANCH   7   8
ENDBRANCH   6   7
ENDBRANCH   5   6
ENDBRANCH   4   5
ENDBRANCH   3   4
ENDBRANCH   2   3
ENDBRANCH   1   2
BRANCH   1  11
ATOM     11  C   UNL     1      30.911   1.154   0.232  1.00  0.00     0.000 C 
BRANCH  11  12
ATOM     12  C   UNL     1      29.619   1.132   1.059  1.00  0.00    -0.000 C 
BRANCH  12  13
ATOM     13  C   UNL     1      29.692   2.133   2.221  1.00  0.00    -0.000 C 
BRANCH  13  14
ATOM     14  C   UNL     1      31.133   2.552   2.555  1.00  0.00    -0.000 C 
BRANCH  14  15
ATOM     15  C   UNL     1      31.192   3.715   3.560  1.00  0.00    -0.000 C 
BRANCH  15  16
ATOM     16  C   UNL     1      30.399   4.944   3.087  1.00  0.00    -0.000 C 
BRANCH  16  17
ATOM     17  C   UNL     1      30.981   6.264   3.615  1.00  0.00    -0.003 C 
ATOM     18  C   UNL     1      30.011   6.947   4.575  1.00  0.00     0.004 C 
ENDBRANCH  16  17
ENDBRANCH  15  16
ENDBRANCH  14  15
ENDBRANCH  13  14
ENDBRANCH  12  13
ENDBRANCH  11  12
ENDBRANCH   1  11
TORSDOF 14
ENDMDL
MODEL 5
REMARK VINA RESULT:    -2.326      4.385      6.634
REMARK INTER + INTRA:          -5.023
REMARK INTER:                  -3.791
REMARK INTRA:                  -1.233
REMARK UNBOUND:                -0.794
REMARK SMILES CCCCCCCCCCCCCCCC(=O)[O-]
REMARK SMILES IDX 9 1 10 2 11 3 12 4 13 5 14 6 15 7 16 8 17 9 18 10 8 11 7 12
REMARK SMILES IDX 6 13 5 14 4 15 3 16 2 17 1 18
REMARK H PARENT
REMARK Flexibility Score: inf
ROOT
ATOM      1  C   UNL     1      19.552   5.919  12.684  1.00  0.00     0.000 C 
ENDROOT
BRANCH   1   2
ATOM      2  C   UNL     1      18.969   5.466  14.032  1.00  0.00     0.000 C 
BRANCH   2   3
ATOM      3  C   UNL     1      17.439   5.331  14.001  1.00  0.00     0.000 C 
BRANCH   3   4
ATOM      4  C   UNL     1      16.917   4.709  15.304  1.00  0.00     0.000 C 
BRANCH   4   5
ATOM      5  C   UNL     1      17.723   3.474  15.746  1.00  0.00     0.000 C 
BRANCH   5   6
ATOM      6  C   UNL     1      16.878   2.245  16.125  1.00  0.00     0.006 C 
BRANCH   6   7
ATOM      7  C   UNL     1      17.646   0.925  15.989  1.00  0.00     0.053 C 
BRANCH   7   8
ATOM      8  C   UNL     1      17.342   0.277  14.675  1.00  0.00     0.041 C 
ATOM      9  O   UNL     1      16.906   0.965  13.715  1.00  0.00    -0.550 OA
ATOM     10  O   UNL     1      17.493  -1.096  14.526  1.00  0.00    -0.550 OA
ENDBRANCH   7   8
ENDBRANCH   6   7
ENDBRANCH   5   6
ENDBRANCH   4   5
ENDBRANCH   3   4
ENDBRANCH   2   3
ENDBRANCH   1   2
BRANCH   1  11
ATOM     11  C   UNL     1      19.907   7.413  12.663  1.00  0.00     0.000 C 
BRANCH  11  12
ATOM     12  C   UNL     1      18.752   8.247  12.094  1.00  0.00    -0.000 C 
BRANCH  12  13
ATOM     13  C   UNL     1      18.836   9.703  12.573  1.00  0.00    -0.000 C 
BRANCH  13  14
ATOM     14  C   UNL     1      20.039   9.957  13.497  1.00  0.00    -0.000 C 
BRANCH  14  15
ATOM     15  C   UNL     1      19.628  10.114  14.971  1.00  0.00    -0.000 C 
BRANCH  15  16
ATOM     16  C   UNL     1      19.445   8.762  15.679  1.00  0.00    -0.000 C 
BRANCH  16  17
ATOM     17  C   UNL     1      17.987   8.497  16.083  1.00  0.00    -0.003 C 
ATOM     18  C   UNL     1      17.042   9.489  15.411  1.00  0.00     0.004 C 
ENDBRANCH  16  17
ENDBRANCH  15  16
ENDBRANCH  14  15
ENDBRANCH  13  14
ENDBRANCH  12  13
ENDBRANCH  11  12
ENDBRANCH   1  11
TORSDOF 14
ENDMDL
MODEL 6
REMARK VINA RESULT:    -2.160     19.230     23.553
REMARK INTER + INTRA:          -4.721
REMARK INTER:                  -4.236
REMARK INTRA:                  -0.485
REMARK UNBOUND:                -0.794
REMARK SMILES CCCCCCCCCCCCCCCC(=O)[O-]
REMARK SMILES IDX 9 1 10 2 11 3 12 4 13 5 14 6 15 7 16 8 17 9 18 10 8 11 7 12
REMARK SMILES IDX 6 13 5 14 4 15 3 16 2 17 1 18
REMARK H PARENT
REMARK Flexibility Score: inf
ROOT
ATOM      1  C   UNL     1      35.140  -2.725  -3.743  1.00  0.00     0.000 C 
ENDROOT
BRANCH   1   2
ATOM      2  C   UNL     1      34.772  -1.243  -3.922  1.00  0.00     0.000 C 
BRANCH   2   3
ATOM      3  C   UNL     1      33.634  -0.799  -2.991  1.00  0.00     0.000 C 
BRANCH   3   4
ATOM      4  C   UNL     1      32.482  -0.175  -3.792  1.00  0.00     0.000 C 
BRANCH   4   5
ATOM      5  C   UNL     1      32.717   1.310  -4.125  1.00  0.00     0.000 C 
BRANCH   5   6
ATOM      6  C   UNL     1      31.868   2.302  -3.312  1.00  0.00     0.006 C 
BRANCH   6   7
ATOM      7  C   UNL     1      31.658   3.641  -4.031  1.00  0.00     0.053 C 
BRANCH   7   8
ATOM      8  C   UNL     1      32.178   4.769  -3.197  1.00  0.00     0.041 C 
ATOM      9  O   UNL     1      31.448   5.294  -2.317  1.00  0.00    -0.550 OA
ATOM     10  O   UNL     1      33.452   5.272  -3.426  1.00  0.00    -0.550 OA
ENDBRANCH   7   8
ENDBRANCH   6   7
ENDBRANCH   5   6
ENDBRANCH   4   5
ENDBRANCH   3   4
ENDBRANCH   2   3
ENDBRANCH   1   2
BRANCH   1  11
ATOM     11  C   UNL     1      36.652  -2.946  -3.589  1.00  0.00     0.000 C 
BRANCH  11  12
ATOM     12  C   UNL     1      36.948  -4.308  -2.949  1.00  0.00    -0.000 C 
BRANCH  12  13
ATOM     13  C   UNL     1      36.149  -5.425  -3.637  1.00  0.00    -0.000 C 
BRANCH  13  14
ATOM     14  C   UNL     1      36.586  -6.830  -3.192  1.00  0.00    -0.000 C 
BRANCH  14  15
ATOM     15  C   UNL     1      36.793  -6.931  -1.671  1.00  0.00    -0.000 C 
BRANCH  15  16
ATOM     16  C   UNL     1      36.579  -8.358  -1.140  1.00  0.00    -0.000 C 
BRANCH  16  17
ATOM     17  C   UNL     1      35.286  -8.999  -1.666  1.00  0.00    -0.003 C 
ATOM     18  C   UNL     1      35.593 -10.119  -2.657  1.00  0.00     0.004 C 
ENDBRANCH  16  17
ENDBRANCH  15  16
ENDBRANCH  14  15
ENDBRANCH  13  14
ENDBRANCH  12  13
ENDBRANCH  11  12
ENDBRANCH   1  11
TORSDOF 14
ENDMDL
