MODEL 1
REMARK VINA RESULT:     3.307      0.000      0.000
REMARK INTER + INTRA:           6.208
REMARK INTER:                   7.173
REMARK INTRA:                  -0.966
REMARK UNBOUND:                -0.966
REMARK SMILES CCCCCCCCCCCCCCCCCCCCCC(=O)[O-]
REMARK SMILES IDX 12 1 11 2 10 3 9 4 8 5 7 6 6 7 5 8 4 9 3 10 2 11 1 12 13 13
REMARK SMILES IDX 14 14 15 15 16 16 17 17 18 18 19 19 20 20 21 21 22 22 23 23
REMARK SMILES IDX 24 24
REMARK H PARENT
REMARK Flexibility Score: inf
ROOT
ATOM      1  C   UNL     1      -7.398  48.792  -0.745  1.00  0.00     0.000 C 
ENDROOT
BRANCH   1   2
ATOM      2  C   UNL     1      -6.547  47.530  -0.981  1.00  0.00     0.000 C 
BRANCH   2   3
ATOM      3  C   UNL     1      -6.872  46.746  -2.266  1.00  0.00     0.000 C 
BRANCH   3   4
ATOM      4  C   UNL     1      -7.106  45.247  -2.014  1.00  0.00    -0.000 C 
BRANCH   4   5
ATOM      5  C   UNL     1      -5.833  44.524  -1.547  1.00  0.00    -0.000 C 
BRANCH   5   6
ATOM      6  C   UNL     1      -5.515  43.277  -2.390  1.00  0.00    -0.000 C 
BRANCH   6   7
ATOM      7  C   UNL     1      -4.961  42.115  -1.548  1.00  0.00    -0.000 C 
BRANCH   7   8
ATOM      8  C   UNL     1      -3.914  42.556  -0.503  1.00  0.00    -0.000 C 
BRANCH   8   9
ATOM      9  C   UNL     1      -2.477  42.481  -1.050  1.00  0.00    -0.000 C 
BRANCH   9  10
ATOM     10  C   UNL     1      -1.985  43.840  -1.590  1.00  0.00    -0.000 C 
BRANCH  10  11
ATOM     11  C   UNL     1      -0.631  43.762  -2.317  1.00  0.00    -0.003 C 
ATOM     12  C   UNL     1      -0.144  45.119  -2.821  1.00  0.00     0.004 C 
ENDBRANCH  10  11
ENDBRANCH   9  10
ENDBRANCH   8   9
ENDBRANCH   7   8
ENDBRANCH   6   7
ENDBRANCH   5   6
ENDBRANCH   4   5
ENDBRANCH   3   4
ENDBRANCH   2   3
ENDBRANCH   1   2
BRANCH   1  13
ATOM     13  C   UNL     1      -8.063  49.318  -2.028  1.00  0.00     0.000 C 
BRANCH  13  14
ATOM     14  C   UNL     1      -8.493  50.792  -1.920  1.00  0.00     0.000 C 
BRANCH  14  15
ATOM     15  C   UNL     1      -9.050  51.412  -3.217  1.00  0.00     0.000 C 
BRANCH  15  16
ATOM     16  C   UNL     1      -7.999  52.077  -4.127  1.00  0.00     0.000 C 
BRANCH  16  17
ATOM     17  C   UNL     1      -7.759  51.362  -5.471  1.00  0.00     0.000 C 
BRANCH  17  18
ATOM     18  C   UNL     1      -6.762  52.064  -6.415  1.00  0.00     0.000 C 
BRANCH  18  19
ATOM     19  C   UNL     1      -6.483  51.325  -7.737  1.00  0.00     0.000 C 
BRANCH  19  20
ATOM     20  C   UNL     1      -5.026  51.473  -8.208  1.00  0.00     0.006 C 
BRANCH  20  21
ATOM     21  C   UNL     1      -4.132  52.105  -7.133  1.00  0.00     0.053 C 
BRANCH  21  22
ATOM     22  C   UNL     1      -2.678  51.875  -7.412  1.00  0.00     0.041 C 
ATOM     23  O   UNL     1      -2.310  51.425  -8.529  1.00  0.00    -0.550 OA
ATOM     24  O   UNL     1      -1.731  52.125  -6.426  1.00  0.00    -0.550 OA
ENDBRANCH  21  22
ENDBRANCH  20  21
ENDBRANCH  19  20
ENDBRANCH  18  19
ENDBRANCH  17  18
ENDBRANCH  16  17
ENDBRANCH  15  16
ENDBRANCH  14  15
ENDBRANCH  13  14
ENDBRANCH   1  13
TORSDOF 20
ENDMDL
MODEL 2
REMARK VINA RESULT:     4.176      5.032      7.069
REMARK INTER + INTRA:           8.094
REMARK INTER:                   8.354
REMARK INTRA:                  -0.260
REMARK UNBOUND:                -0.966
REMARK SMILES CCCCCCCCCCCCCCCCCCCCCC(=O)[O-]
REMARK SMILES IDX 12 1 11 2 10 3 9 4 8 5 7 6 6 7 5 8 4 9 3 10 2 11 1 12 13 13
REMARK SMILES IDX 14 14 15 15 16 16 17 17 18 18 19 19 20 20 21 21 22 22 23 23
REMARK SMILES IDX 24 24
REMARK H PARENT
REMARK Flexibility Score: inf
ROOT
ATOM      1  C   UNL     1      -3.583  51.153   0.268  1.00  0.00     0.000 C 
ENDROOT
BRANCH   1   2
ATOM      2  C   UNL     1      -2.550  52.124  -0.335  1.00  0.00     0.000 C 
BRANCH   2   3
ATOM      3  C   UNL     1      -1.148  51.531  -0.572  1.00  0.00     0.000 C 
BRANCH   3   4
ATOM      4  C   UNL     1      -1.036  50.767  -1.903  1.00  0.00    -0.000 C 
BRANCH   4   5
ATOM      5  C   UNL     1       0.089  51.308  -2.798  1.00  0.00    -0.000 C 
BRANCH   5   6
ATOM      6  C   UNL     1       0.042  50.734  -4.224  1.00  0.00    -0.000 C 
BRANCH   6   7
ATOM      7  C   UNL     1       0.302  51.799  -5.303  1.00  0.00    -0.000 C 
BRANCH   7   8
ATOM      8  C   UNL     1      -0.939  52.117  -6.165  1.00  0.00    -0.000 C 
BRANCH   8   9
ATOM      9  C   UNL     1      -1.289  50.970  -7.129  1.00  0.00    -0.000 C 
BRANCH   9  10
ATOM     10  C   UNL     1      -2.759  50.518  -6.992  1.00  0.00    -0.000 C 
BRANCH  10  11
ATOM     11  C   UNL     1      -3.772  51.542  -7.530  1.00  0.00    -0.003 C 
ATOM     12  C   UNL     1      -4.672  52.123  -6.441  1.00  0.00     0.004 C 
ENDBRANCH  10  11
ENDBRANCH   9  10
ENDBRANCH   8   9
ENDBRANCH   7   8
ENDBRANCH   6   7
ENDBRANCH   5   6
ENDBRANCH   4   5
ENDBRANCH   3   4
ENDBRANCH   2   3
ENDBRANCH   1   2
BRANCH   1  13
ATOM     13  C   UNL     1      -4.944  51.816   0.541  1.00  0.00     0.000 C 
BRANCH  13  14
ATOM     14  C   UNL     1      -6.099  51.158  -0.236  1.00  0.00     0.000 C 
BRANCH  14  15
ATOM     15  C   UNL     1      -7.225  52.114  -0.677  1.00  0.00     0.000 C 
BRANCH  15  16
ATOM     16  C   UNL     1      -8.618  51.468  -0.804  1.00  0.00     0.000 C 
BRANCH  16  17
ATOM     17  C   UNL     1      -8.891  50.774  -2.152  1.00  0.00     0.000 C 
BRANCH  17  18
ATOM     18  C   UNL     1      -8.972  51.720  -3.368  1.00  0.00     0.000 C 
BRANCH  18  19
ATOM     19  C   UNL     1      -7.675  51.838  -4.190  1.00  0.00     0.000 C 
BRANCH  19  20
ATOM     20  C   UNL     1      -7.717  51.020  -5.492  1.00  0.00     0.006 C 
BRANCH  20  21
ATOM     21  C   UNL     1      -7.967  51.902  -6.723  1.00  0.00     0.053 C 
BRANCH  21  22
ATOM     22  C   UNL     1      -7.470  51.257  -7.980  1.00  0.00     0.041 C 
ATOM     23  O   UNL     1      -7.880  50.114  -8.312  1.00  0.00    -0.550 OA
ATOM     24  O   UNL     1      -6.527  51.905  -8.769  1.00  0.00    -0.550 OA
ENDBRANCH  21  22
ENDBRANCH  20  21
ENDBRANCH  19  20
ENDBRANCH  18  19
ENDBRANCH  17  18
ENDBRANCH  16  17
ENDBRANCH  15  16
ENDBRANCH  14  15
ENDBRANCH  13  14
ENDBRANCH   1  13
TORSDOF 20
ENDMDL
MODEL 3
REMARK VINA RESULT:     4.404      2.647      8.869
REMARK INTER + INTRA:           8.588
REMARK INTER:                   9.194
REMARK INTRA:                  -0.606
REMARK UNBOUND:                -0.966
REMARK SMILES CCCCCCCCCCCCCCCCCCCCCC(=O)[O-]
REMARK SMILES IDX 12 1 11 2 10 3 9 4 8 5 7 6 6 7 5 8 4 9 3 10 2 11 1 12 13 13
REMARK SMILES IDX 14 14 15 15 16 16 17 17 18 18 19 19 20 20 21 21 22 22 23 23
REMARK SMILES IDX 24 24
REMARK H PARENT
REMARK Flexibility Score: inf
ROOT
ATOM      1  C   UNL     1      -7.645  48.887  -2.998  1.00  0.00     0.000 C 
ENDROOT
BRANCH   1   2
ATOM      2  C   UNL     1      -8.927  49.725  -3.165  1.00  0.00     0.000 C 
BRANCH   2   3
ATOM      3  C   UNL     1      -8.762  51.238  -2.928  1.00  0.00     0.000 C 
BRANCH   3   4
ATOM      4  C   UNL     1      -8.644  52.043  -4.234  1.00  0.00    -0.000 C 
BRANCH   4   5
ATOM      5  C   UNL     1      -8.367  51.147  -5.452  1.00  0.00    -0.000 C 
BRANCH   5   6
ATOM      6  C   UNL     1      -7.168  51.631  -6.284  1.00  0.00    -0.000 C 
BRANCH   6   7
ATOM      7  C   UNL     1      -7.197  51.107  -7.730  1.00  0.00    -0.000 C 
BRANCH   7   8
ATOM      8  C   UNL     1      -6.669  52.124  -8.765  1.00  0.00    -0.000 C 
BRANCH   8   9
ATOM      9  C   UNL     1      -5.141  52.045  -8.934  1.00  0.00    -0.000 C 
BRANCH   9  10
ATOM     10  C   UNL     1      -4.456  51.341  -7.743  1.00  0.00    -0.000 C 
BRANCH  10  11
ATOM     11  C   UNL     1      -3.066  51.909  -7.408  1.00  0.00    -0.003 C 
ATOM     12  C   UNL     1      -2.171  52.062  -8.636  1.00  0.00     0.004 C 
ENDBRANCH  10  11
ENDBRANCH   9  10
ENDBRANCH   8   9
ENDBRANCH   7   8
ENDBRANCH   6   7
ENDBRANCH   5   6
ENDBRANCH   4   5
ENDBRANCH   3   4
ENDBRANCH   2   3
ENDBRANCH   1   2
BRANCH   1  13
ATOM     13  C   UNL     1      -7.393  48.458  -1.543  1.00  0.00     0.000 C 
BRANCH  13  14
ATOM     14  C   UNL     1      -6.663  47.107  -1.434  1.00  0.00     0.000 C 
BRANCH  14  15
ATOM     15  C   UNL     1      -7.357  45.924  -2.139  1.00  0.00     0.000 C 
BRANCH  15  16
ATOM     16  C   UNL     1      -6.405  44.901  -2.790  1.00  0.00     0.000 C 
BRANCH  16  17
ATOM     17  C   UNL     1      -6.146  43.633  -1.953  1.00  0.00     0.000 C 
BRANCH  17  18
ATOM     18  C   UNL     1      -5.028  43.764  -0.899  1.00  0.00     0.000 C 
BRANCH  18  19
ATOM     19  C   UNL     1      -3.990  42.626  -0.905  1.00  0.00     0.000 C 
BRANCH  19  20
ATOM     20  C   UNL     1      -2.548  43.132  -0.736  1.00  0.00     0.006 C 
BRANCH  20  21
ATOM     21  C   UNL     1      -1.826  43.282  -2.082  1.00  0.00     0.053 C 
BRANCH  21  22
ATOM     22  C   UNL     1      -0.956  44.501  -2.114  1.00  0.00     0.041 C 
ATOM     23  O   UNL     1      -1.308  45.549  -1.512  1.00  0.00    -0.550 OA
ATOM     24  O   UNL     1       0.230  44.490  -2.839  1.00  0.00    -0.550 OA
ENDBRANCH  21  22
ENDBRANCH  20  21
ENDBRANCH  19  20
ENDBRANCH  18  19
ENDBRANCH  17  18
ENDBRANCH  16  17
ENDBRANCH  15  16
ENDBRANCH  14  15
ENDBRANCH  13  14
ENDBRANCH   1  13
TORSDOF 20
ENDMDL
MODEL 4
REMARK VINA RESULT:     4.455      2.776      8.915
REMARK INTER + INTRA:           8.697
REMARK INTER:                   9.490
REMARK INTRA:                  -0.792
REMARK UNBOUND:                -0.966
REMARK SMILES CCCCCCCCCCCCCCCCCCCCCC(=O)[O-]
REMARK SMILES IDX 12 1 11 2 10 3 9 4 8 5 7 6 6 7 5 8 4 9 3 10 2 11 1 12 13 13
REMARK SMILES IDX 14 14 15 15 16 16 17 17 18 18 19 19 20 20 21 21 22 22 23 23
REMARK SMILES IDX 24 24
REMARK H PARENT
REMARK Flexibility Score: inf
ROOT
ATOM      1  C   UNL     1      -7.222  48.513  -2.232  1.00  0.00     0.000 C 
ENDROOT
BRANCH   1   2
ATOM      2  C   UNL     1      -8.153  49.604  -1.669  1.00  0.00     0.000 C 
BRANCH   2   3
ATOM      3  C   UNL     1      -9.124  50.231  -2.687  1.00  0.00     0.000 C 
BRANCH   3   4
ATOM      4  C   UNL     1      -8.730  51.663  -3.091  1.00  0.00    -0.000 C 
BRANCH   4   5
ATOM      5  C   UNL     1      -7.253  51.772  -3.499  1.00  0.00    -0.000 C 
BRANCH   5   6
ATOM      6  C   UNL     1      -7.070  52.069  -4.997  1.00  0.00    -0.000 C 
BRANCH   6   7
ATOM      7  C   UNL     1      -8.120  51.367  -5.875  1.00  0.00    -0.000 C 
BRANCH   7   8
ATOM      8  C   UNL     1      -7.803  51.431  -7.384  1.00  0.00    -0.000 C 
BRANCH   8   9
ATOM      9  C   UNL     1      -6.294  51.557  -7.658  1.00  0.00    -0.000 C 
BRANCH   9  10
ATOM     10  C   UNL     1      -6.000  52.103  -9.072  1.00  0.00    -0.000 C 
BRANCH  10  11
ATOM     11  C   UNL     1      -5.292  51.091  -9.989  1.00  0.00    -0.003 C 
ATOM     12  C   UNL     1      -5.559  49.639  -9.595  1.00  0.00     0.004 C 
ENDBRANCH  10  11
ENDBRANCH   9  10
ENDBRANCH   8   9
ENDBRANCH   7   8
ENDBRANCH   6   7
ENDBRANCH   5   6
ENDBRANCH   4   5
ENDBRANCH   3   4
ENDBRANCH   2   3
ENDBRANCH   1   2
BRANCH   1  13
ATOM     13  C   UNL     1      -7.641  47.093  -1.817  1.00  0.00     0.000 C 
BRANCH  13  14
ATOM     14  C   UNL     1      -6.440  46.154  -1.597  1.00  0.00     0.000 C 
BRANCH  14  15
ATOM     15  C   UNL     1      -6.488  44.828  -2.384  1.00  0.00     0.000 C 
BRANCH  15  16
ATOM     16  C   UNL     1      -6.669  43.563  -1.522  1.00  0.00     0.000 C 
BRANCH  16  17
ATOM     17  C   UNL     1      -5.551  42.513  -1.671  1.00  0.00     0.000 C 
BRANCH  17  18
ATOM     18  C   UNL     1      -4.305  42.756  -0.795  1.00  0.00     0.000 C 
BRANCH  18  19
ATOM     19  C   UNL     1      -3.530  44.049  -1.108  1.00  0.00     0.000 C 
BRANCH  19  20
ATOM     20  C   UNL     1      -2.222  43.790  -1.874  1.00  0.00     0.006 C 
BRANCH  20  21
ATOM     21  C   UNL     1      -1.304  45.021  -1.886  1.00  0.00     0.053 C 
BRANCH  21  22
ATOM     22  C   UNL     1      -0.007  44.741  -2.580  1.00  0.00     0.041 C 
ATOM     23  O   UNL     1       0.005  44.416  -3.796  1.00  0.00    -0.550 OA
ATOM     24  O   UNL     1       1.188  44.806  -1.874  1.00  0.00    -0.550 OA
ENDBRANCH  21  22
ENDBRANCH  20  21
ENDBRANCH  19  20
ENDBRANCH  18  19
ENDBRANCH  17  18
ENDBRANCH  16  17
ENDBRANCH  15  16
ENDBRANCH  14  15
ENDBRANCH  13  14
ENDBRANCH   1  13
TORSDOF 20
ENDMDL
MODEL 5
REMARK VINA RESULT:     4.455      1.800      2.820
REMARK INTER + INTRA:           8.698
REMARK INTER:                   9.534
REMARK INTRA:                  -0.836
REMARK UNBOUND:                -0.966
REMARK SMILES CCCCCCCCCCCCCCCCCCCCCC(=O)[O-]
REMARK SMILES IDX 12 1 11 2 10 3 9 4 8 5 7 6 6 7 5 8 4 9 3 10 2 11 1 12 13 13
REMARK SMILES IDX 14 14 15 15 16 16 17 17 18 18 19 19 20 20 21 21 22 22 23 23
REMARK SMILES IDX 24 24
REMARK H PARENT
REMARK Flexibility Score: inf
ROOT
ATOM      1  C   UNL     1      -7.612  46.038  -1.109  1.00  0.00     0.000 C 
ENDROOT
BRANCH   1   2
ATOM      2  C   UNL     1      -6.218  45.406  -1.283  1.00  0.00     0.000 C 
BRANCH   2   3
ATOM      3  C   UNL     1      -6.092  44.394  -2.438  1.00  0.00     0.000 C 
BRANCH   3   4
ATOM      4  C   UNL     1      -5.773  42.968  -1.956  1.00  0.00    -0.000 C 
BRANCH   4   5
ATOM      5  C   UNL     1      -5.055  42.955  -0.598  1.00  0.00    -0.000 C 
BRANCH   5   6
ATOM      6  C   UNL     1      -3.747  42.147  -0.625  1.00  0.00    -0.000 C 
BRANCH   6   7
ATOM      7  C   UNL     1      -2.618  42.867  -1.382  1.00  0.00    -0.000 C 
BRANCH   7   8
ATOM      8  C   UNL     1      -2.800  44.398  -1.449  1.00  0.00    -0.000 C 
BRANCH   8   9
ATOM      9  C   UNL     1      -1.463  45.138  -1.632  1.00  0.00    -0.000 C 
BRANCH   9  10
ATOM     10  C   UNL     1      -0.354  44.215  -2.182  1.00  0.00    -0.000 C 
BRANCH  10  11
ATOM     11  C   UNL     1       0.152  44.623  -3.576  1.00  0.00    -0.003 C 
ATOM     12  C   UNL     1       0.560  43.428  -4.436  1.00  0.00     0.004 C 
ENDBRANCH  10  11
ENDBRANCH   9  10
ENDBRANCH   8   9
ENDBRANCH   7   8
ENDBRANCH   6   7
ENDBRANCH   5   6
ENDBRANCH   4   5
ENDBRANCH   3   4
ENDBRANCH   2   3
ENDBRANCH   1   2
BRANCH   1  13
ATOM     13  C   UNL     1      -7.557  47.552  -0.843  1.00  0.00     0.000 C 
BRANCH  13  14
ATOM     14  C   UNL     1      -7.619  48.390  -2.132  1.00  0.00     0.000 C 
BRANCH  14  15
ATOM     15  C   UNL     1      -8.367  49.734  -2.009  1.00  0.00     0.000 C 
BRANCH  15  16
ATOM     16  C   UNL     1      -8.990  50.257  -3.317  1.00  0.00     0.000 C 
BRANCH  16  17
ATOM     17  C   UNL     1      -8.501  51.652  -3.755  1.00  0.00     0.000 C 
BRANCH  17  18
ATOM     18  C   UNL     1      -8.775  52.006  -5.231  1.00  0.00     0.000 C 
BRANCH  18  19
ATOM     19  C   UNL     1      -7.523  52.121  -6.118  1.00  0.00     0.000 C 
BRANCH  19  20
ATOM     20  C   UNL     1      -7.685  51.412  -7.474  1.00  0.00     0.006 C 
BRANCH  20  21
ATOM     21  C   UNL     1      -6.541  51.747  -8.442  1.00  0.00     0.053 C 
BRANCH  21  22
ATOM     22  C   UNL     1      -6.296  50.637  -9.418  1.00  0.00     0.041 C 
ATOM     23  O   UNL     1      -7.261  50.095 -10.019  1.00  0.00    -0.550 OA
ATOM     24  O   UNL     1      -5.003  50.178  -9.639  1.00  0.00    -0.550 OA
ENDBRANCH  21  22
ENDBRANCH  20  21
ENDBRANCH  19  20
ENDBRANCH  18  19
ENDBRANCH  17  18
ENDBRANCH  16  17
ENDBRANCH  15  16
ENDBRANCH  14  15
ENDBRANCH  13  14
ENDBRANCH   1  13
TORSDOF 20
ENDMDL
MODEL 6
REMARK VINA RESULT:     4.674      1.714      2.055
REMARK INTER + INTRA:           9.174
REMARK INTER:                   8.453
REMARK INTRA:                   0.721
REMARK UNBOUND:                -0.966
REMARK SMILES CCCCCCCCCCCCCCCCCCCCCC(=O)[O-]
REMARK SMILES IDX 12 1 11 2 10 3 9 4 8 5 7 6 6 7 5 8 4 9 3 10 2 11 1 12 13 13
REMARK SMILES IDX 14 14 15 15 16 16 17 17 18 18 19 19 20 20 21 21 22 22 23 23
REMARK SMILES IDX 24 24
REMARK H PARENT
REMARK Flexibility Score: inf
ROOT
ATOM      1  C   UNL     1      -7.360  48.570  -1.014  1.00  0.00     0.000 C 
ENDROOT
BRANCH   1   2
ATOM      2  C   UNL     1      -6.594  47.239  -1.135  1.00  0.00     0.000 C 
BRANCH   2   3
ATOM      3  C   UNL     1      -6.939  46.390  -2.373  1.00  0.00     0.000 C 
BRANCH   3   4
ATOM      4  C   UNL     1      -7.042  44.886  -2.063  1.00  0.00    -0.000 C 
BRANCH   4   5
ATOM      5  C   UNL     1      -5.675  44.254  -1.762  1.00  0.00    -0.000 C 
BRANCH   5   6
ATOM      6  C   UNL     1      -5.680  42.724  -1.920  1.00  0.00    -0.000 C 
BRANCH   6   7
ATOM      7  C   UNL     1      -4.451  42.055  -1.282  1.00  0.00    -0.000 C 
BRANCH   7   8
ATOM      8  C   UNL     1      -3.815  42.889  -0.149  1.00  0.00    -0.000 C 
BRANCH   8   9
ATOM      9  C   UNL     1      -3.184  44.193  -0.668  1.00  0.00    -0.000 C 
BRANCH   9  10
ATOM     10  C   UNL     1      -2.149  43.938  -1.785  1.00  0.00    -0.000 C 
BRANCH  10  11
ATOM     11  C   UNL     1      -1.043  45.005  -1.855  1.00  0.00    -0.003 C 
ATOM     12  C   UNL     1       0.026  44.689  -2.900  1.00  0.00     0.004 C 
ENDBRANCH  10  11
ENDBRANCH   9  10
ENDBRANCH   8   9
ENDBRANCH   7   8
ENDBRANCH   6   7
ENDBRANCH   5   6
ENDBRANCH   4   5
ENDBRANCH   3   4
ENDBRANCH   2   3
ENDBRANCH   1   2
BRANCH   1  13
ATOM     13  C   UNL     1      -8.045  48.991  -2.324  1.00  0.00     0.000 C 
BRANCH  13  14
ATOM     14  C   UNL     1      -8.858  50.291  -2.186  1.00  0.00     0.000 C 
BRANCH  14  15
ATOM     15  C   UNL     1      -8.966  51.140  -3.469  1.00  0.00     0.000 C 
BRANCH  15  16
ATOM     16  C   UNL     1      -7.619  51.532  -4.108  1.00  0.00     0.000 C 
BRANCH  16  17
ATOM     17  C   UNL     1      -7.454  51.112  -5.581  1.00  0.00     0.000 C 
BRANCH  17  18
ATOM     18  C   UNL     1      -6.236  51.724  -6.302  1.00  0.00     0.000 C 
BRANCH  18  19
ATOM     19  C   UNL     1      -6.478  52.123  -7.769  1.00  0.00     0.000 C 
BRANCH  19  20
ATOM     20  C   UNL     1      -7.738  51.472  -8.365  1.00  0.00     0.006 C 
BRANCH  20  21
ATOM     21  C   UNL     1      -7.397  50.354  -9.360  1.00  0.00     0.053 C 
BRANCH  21  22
ATOM     22  C   UNL     1      -5.986  50.460  -9.853  1.00  0.00     0.041 C 
ATOM     23  O   UNL     1      -5.467  51.589 -10.053  1.00  0.00    -0.550 OA
ATOM     24  O   UNL     1      -5.256  49.309 -10.124  1.00  0.00    -0.550 OA
ENDBRANCH  21  22
ENDBRANCH  20  21
ENDBRANCH  19  20
ENDBRANCH  18  19
ENDBRANCH  17  18
ENDBRANCH  16  17
ENDBRANCH  15  16
ENDBRANCH  14  15
ENDBRANCH  13  14
ENDBRANCH   1  13
TORSDOF 20
ENDMDL
