MODEL 1
REMARK VINA RESULT:    -4.292      0.000      0.000
REMARK INTER + INTRA:          -4.908
REMARK INTER:                  -5.045
REMARK INTRA:                   0.138
REMARK UNBOUND:                 0.138
REMARK SMILES O=c1c(O)c(-c2ccc(O)cc2)oc2cc(O)cc(O)c12
REMARK SMILES IDX 5 1 3 2 2 3 1 4 21 5 19 6 18 7 16 8 15 9 14 10 13 11 6 12
REMARK SMILES IDX 7 13 8 14 9 15 12 16 11 17 10 18 4 20 20 22 17 24
REMARK H PARENT 10 19 4 21 20 23 17 25
REMARK Flexibility Score: inf
ROOT
ATOM      1  C   UNL     1     178.630 173.103 168.814  1.00  0.00     0.180 A 
ATOM      2  C   UNL     1     179.149 172.476 167.666  1.00  0.00     0.208 A 
ATOM      3  C   UNL     1     180.373 172.921 167.143  1.00  0.00     0.238 A 
ATOM      4  O   UNL     1     180.806 172.393 166.085  1.00  0.00    -0.285 OA
ATOM      5  C   UNL     1     181.071 173.974 167.781  1.00  0.00     0.111 A 
ATOM      6  C   UNL     1     182.339 174.477 167.362  1.00  0.00     0.134 A 
ATOM      7  C   UNL     1     182.877 175.608 167.990  1.00  0.00     0.093 A 
ATOM      8  C   UNL     1     182.221 176.212 169.065  1.00  0.00     0.123 A 
ATOM      9  C   UNL     1     181.012 175.693 169.521  1.00  0.00     0.094 A 
ATOM     10  C   UNL     1     180.434 174.587 168.892  1.00  0.00     0.146 A 
ATOM     11  O   UNL     1     179.276 174.130 169.350  1.00  0.00    -0.452 OA
ENDROOT
BRANCH   1  12
ATOM     12  C   UNL     1     177.357 172.674 169.437  1.00  0.00     0.021 A 
ATOM     13  C   UNL     1     177.092 171.304 169.595  1.00  0.00     0.016 A 
ATOM     14  C   UNL     1     175.886 170.875 170.161  1.00  0.00     0.047 A 
ATOM     15  C   UNL     1     174.925 171.812 170.561  1.00  0.00     0.115 A 
ATOM     16  C   UNL     1     176.378 173.607 169.823  1.00  0.00     0.016 A 
ATOM     17  C   UNL     1     175.173 173.177 170.387  1.00  0.00     0.047 A 
BRANCH  15  18
ATOM     18  O   UNL     1     173.720 171.397 171.125  1.00  0.00    -0.508 OA
ATOM     19  H   UNL     1     172.906 171.999 171.134  1.00  0.00     0.293 HD
ENDBRANCH  15  18
ENDBRANCH   1  12
BRANCH   2  20
ATOM     20  O   UNL     1     178.432 171.454 167.039  1.00  0.00    -0.502 OA
ATOM     21  H   UNL     1     177.583 171.628 166.515  1.00  0.00     0.293 HD
ENDBRANCH   2  20
BRANCH   6  22
ATOM     22  O   UNL     1     183.119 173.891 166.359  1.00  0.00    -0.507 OA
ATOM     23  H   UNL     1     183.768 173.133 166.506  1.00  0.00     0.293 HD
ENDBRANCH   6  22
BRANCH   8  24
ATOM     24  O   UNL     1     182.770 177.328 169.695  1.00  0.00    -0.508 OA
ATOM     25  H   UNL     1     182.311 177.773 170.481  1.00  0.00     0.293 HD
ENDBRANCH   8  24
TORSDOF 5
ENDMDL
MODEL 2
REMARK VINA RESULT:    -3.393      1.506      2.913
REMARK INTER + INTRA:          -3.851
REMARK INTER:                  -4.345
REMARK INTRA:                   0.495
REMARK UNBOUND:                 0.138
REMARK SMILES O=c1c(O)c(-c2ccc(O)cc2)oc2cc(O)cc(O)c12
REMARK SMILES IDX 5 1 3 2 2 3 1 4 21 5 19 6 18 7 16 8 15 9 14 10 13 11 6 12
REMARK SMILES IDX 7 13 8 14 9 15 12 16 11 17 10 18 4 20 20 22 17 24
REMARK H PARENT 10 19 4 21 20 23 17 25
REMARK Flexibility Score: inf
ROOT
ATOM      1  C   UNL     1     177.795 173.848 169.520  1.00  0.00     0.180 A 
ATOM      2  C   UNL     1     177.881 175.244 169.670  1.00  0.00     0.208 A 
ATOM      3  C   UNL     1     179.027 175.909 169.204  1.00  0.00     0.238 A 
ATOM      4  O   UNL     1     179.122 177.150 169.389  1.00  0.00    -0.285 OA
ATOM      5  C   UNL     1     180.064 175.174 168.581  1.00  0.00     0.111 A 
ATOM      6  C   UNL     1     181.250 175.749 168.036  1.00  0.00     0.134 A 
ATOM      7  C   UNL     1     182.268 174.913 167.560  1.00  0.00     0.093 A 
ATOM      8  C   UNL     1     182.113 173.525 167.550  1.00  0.00     0.123 A 
ATOM      9  C   UNL     1     180.934 172.956 168.025  1.00  0.00     0.094 A 
ATOM     10  C   UNL     1     179.915 173.763 168.539  1.00  0.00     0.146 A 
ATOM     11  O   UNL     1     178.812 173.180 168.992  1.00  0.00    -0.452 OA
ENDROOT
BRANCH   1  12
ATOM     12  C   UNL     1     176.609 173.081 169.964  1.00  0.00     0.021 A 
ATOM     13  C   UNL     1     176.475 171.735 169.586  1.00  0.00     0.016 A 
ATOM     14  C   UNL     1     175.352 170.997 169.975  1.00  0.00     0.047 A 
ATOM     15  C   UNL     1     174.341 171.602 170.732  1.00  0.00     0.115 A 
ATOM     16  C   UNL     1     175.580 173.687 170.707  1.00  0.00     0.016 A 
ATOM     17  C   UNL     1     174.457 172.948 171.094  1.00  0.00     0.047 A 
BRANCH  15  18
ATOM     18  O   UNL     1     173.217 170.878 171.125  1.00  0.00    -0.508 OA
ATOM     19  H   UNL     1     172.958 170.792 172.101  1.00  0.00     0.293 HD
ENDBRANCH  15  18
ENDBRANCH   1  12
BRANCH   2  20
ATOM     20  O   UNL     1     176.856 175.947 170.308  1.00  0.00    -0.502 OA
ATOM     21  H   UNL     1     176.285 175.534 171.036  1.00  0.00     0.293 HD
ENDBRANCH   2  20
BRANCH   6  22
ATOM     22  O   UNL     1     181.466 177.126 167.915  1.00  0.00    -0.507 OA
ATOM     23  H   UNL     1     181.971 177.689 168.581  1.00  0.00     0.293 HD
ENDBRANCH   6  22
BRANCH   8  24
ATOM     24  O   UNL     1     183.124 172.701 167.060  1.00  0.00    -0.508 OA
ATOM     25  H   UNL     1     184.039 173.068 166.822  1.00  0.00     0.293 HD
ENDBRANCH   8  24
TORSDOF 5
ENDMDL
MODEL 3
REMARK VINA RESULT:    -2.160      1.992      2.076
REMARK INTER + INTRA:          -2.401
REMARK INTER:                  -2.677
REMARK INTRA:                   0.277
REMARK UNBOUND:                 0.138
REMARK SMILES O=c1c(O)c(-c2ccc(O)cc2)oc2cc(O)cc(O)c12
REMARK SMILES IDX 5 1 3 2 2 3 1 4 21 5 19 6 18 7 16 8 15 9 14 10 13 11 6 12
REMARK SMILES IDX 7 13 8 14 9 15 12 16 11 17 10 18 4 20 20 22 17 24
REMARK H PARENT 10 19 4 21 20 23 17 25
REMARK Flexibility Score: inf
ROOT
ATOM      1  C   UNL     1     178.069 173.064 170.062  1.00  0.00     0.180 A 
ATOM      2  C   UNL     1     179.176 172.227 170.291  1.00  0.00     0.208 A 
ATOM      3  C   UNL     1     180.463 172.707 170.003  1.00  0.00     0.238 A 
ATOM      4  O   UNL     1     181.445 171.935 170.158  1.00  0.00    -0.285 OA
ATOM      5  C   UNL     1     180.630 174.022 169.506  1.00  0.00     0.111 A 
ATOM      6  C   UNL     1     181.890 174.626 169.218  1.00  0.00     0.134 A 
ATOM      7  C   UNL     1     181.930 175.886 168.607  1.00  0.00     0.093 A 
ATOM      8  C   UNL     1     180.754 176.590 168.334  1.00  0.00     0.123 A 
ATOM      9  C   UNL     1     179.521 176.034 168.665  1.00  0.00     0.094 A 
ATOM     10  C   UNL     1     179.449 174.764 169.243  1.00  0.00     0.146 A 
ATOM     11  O   UNL     1     178.253 174.267 169.533  1.00  0.00    -0.452 OA
ENDROOT
BRANCH   1  12
ATOM     12  C   UNL     1     176.684 172.637 170.364  1.00  0.00     0.021 A 
ATOM     13  C   UNL     1     176.305 171.304 170.133  1.00  0.00     0.016 A 
ATOM     14  C   UNL     1     174.996 170.884 170.390  1.00  0.00     0.047 A 
ATOM     15  C   UNL     1     174.045 171.796 170.866  1.00  0.00     0.115 A 
ATOM     16  C   UNL     1     175.718 173.551 170.824  1.00  0.00     0.016 A 
ATOM     17  C   UNL     1     174.409 173.130 171.079  1.00  0.00     0.047 A 
BRANCH  15  18
ATOM     18  O   UNL     1     172.738 171.390 171.125  1.00  0.00    -0.508 OA
ATOM     19  H   UNL     1     172.468 171.020 172.029  1.00  0.00     0.293 HD
ENDBRANCH  15  18
ENDBRANCH   1  12
BRANCH   2  20
ATOM     20  O   UNL     1     178.987 170.924 170.761  1.00  0.00    -0.502 OA
ATOM     21  H   UNL     1     179.261 170.109 170.227  1.00  0.00     0.293 HD
ENDBRANCH   2  20
BRANCH   6  22
ATOM     22  O   UNL     1     183.124 174.047 169.535  1.00  0.00    -0.507 OA
ATOM     23  H   UNL     1     183.458 173.885 170.472  1.00  0.00     0.293 HD
ENDBRANCH   6  22
BRANCH   8  24
ATOM     24  O   UNL     1     180.803 177.849 167.740  1.00  0.00    -0.508 OA
ATOM     25  H   UNL     1     180.596 177.981 166.757  1.00  0.00     0.293 HD
ENDBRANCH   8  24
TORSDOF 5
ENDMDL
