MODEL 1
REMARK VINA RESULT:    -4.859      0.000      0.000
REMARK INTER + INTRA:          -8.784
REMARK INTER:                  -7.699
REMARK INTRA:                  -1.085
REMARK UNBOUND:                -1.085
REMARK SMILES CCCCCCCCCCCC(=O)[O-]
REMARK SMILES IDX 7 1 8 2 9 3 10 4 11 5 12 6 13 7 14 8 6 9 5 10 4 11 3 12 2 13
REMARK SMILES IDX 1 14
REMARK H PARENT
REMARK Flexibility Score: inf
ROOT
ATOM      1  C   UNL     1      27.257  10.948  31.778  1.00  0.00     0.000 C 
ENDROOT
BRANCH   1   2
ATOM      2  C   UNL     1      25.735  10.814  31.613  1.00  0.00     0.000 C 
BRANCH   2   3
ATOM      3  C   UNL     1      24.983  12.093  32.011  1.00  0.00     0.000 C 
BRANCH   3   4
ATOM      4  C   UNL     1      24.121  11.906  33.272  1.00  0.00     0.006 C 
BRANCH   4   5
ATOM      5  C   UNL     1      24.957  11.955  34.558  1.00  0.00     0.053 C 
BRANCH   5   6
ATOM      6  C   UNL     1      24.216  12.623  35.676  1.00  0.00     0.041 C 
ATOM      7  O   UNL     1      24.831  12.993  36.710  1.00  0.00    -0.550 OA
ATOM      8  O   UNL     1      22.842  12.805  35.590  1.00  0.00    -0.550 OA
ENDBRANCH   5   6
ENDBRANCH   4   5
ENDBRANCH   3   4
ENDBRANCH   2   3
ENDBRANCH   1   2
BRANCH   1   9
ATOM      9  C   UNL     1      27.850  11.852  30.690  1.00  0.00     0.000 C 
BRANCH   9  10
ATOM     10  C   UNL     1      28.480  13.109  31.300  1.00  0.00    -0.000 C 
BRANCH  10  11
ATOM     11  C   UNL     1      28.721  12.930  32.806  1.00  0.00    -0.000 C 
BRANCH  11  12
ATOM     12  C   UNL     1      27.888  13.914  33.653  1.00  0.00    -0.000 C 
BRANCH  12  13
ATOM     13  C   UNL     1      27.988  13.662  35.167  1.00  0.00    -0.003 C 
ATOM     14  C   UNL     1      27.772  14.924  35.999  1.00  0.00     0.004 C 
ENDBRANCH  12  13
ENDBRANCH  11  12
ENDBRANCH  10  11
ENDBRANCH   9  10
ENDBRANCH   1   9
TORSDOF 10
ENDMDL
MODEL 2
REMARK VINA RESULT:    -4.811      1.766      3.810
REMARK INTER + INTRA:          -8.709
REMARK INTER:                  -7.575
REMARK INTRA:                  -1.134
REMARK UNBOUND:                -1.085
REMARK SMILES CCCCCCCCCCCC(=O)[O-]
REMARK SMILES IDX 7 1 8 2 9 3 10 4 11 5 12 6 13 7 14 8 6 9 5 10 4 11 3 12 2 13
REMARK SMILES IDX 1 14
REMARK H PARENT
REMARK Flexibility Score: inf
ROOT
ATOM      1  C   UNL     1      27.578  11.081  31.235  1.00  0.00     0.000 C 
ENDROOT
BRANCH   1   2
ATOM      2  C   UNL     1      28.340  12.245  30.582  1.00  0.00     0.000 C 
BRANCH   2   3
ATOM      3  C   UNL     1      28.819  13.286  31.606  1.00  0.00     0.000 C 
BRANCH   3   4
ATOM      4  C   UNL     1      28.392  12.942  33.044  1.00  0.00     0.006 C 
BRANCH   4   5
ATOM      5  C   UNL     1      27.893  14.174  33.811  1.00  0.00     0.053 C 
BRANCH   5   6
ATOM      6  C   UNL     1      27.971  13.973  35.294  1.00  0.00     0.041 C 
ATOM      7  O   UNL     1      28.030  12.811  35.773  1.00  0.00    -0.550 OA
ATOM      8  O   UNL     1      27.941  15.070  36.147  1.00  0.00    -0.550 OA
ENDBRANCH   5   6
ENDBRANCH   4   5
ENDBRANCH   3   4
ENDBRANCH   2   3
ENDBRANCH   1   2
BRANCH   1   9
ATOM      9  C   UNL     1      26.184  10.922  30.615  1.00  0.00     0.000 C 
BRANCH   9  10
ATOM     10  C   UNL     1      25.148  10.541  31.680  1.00  0.00    -0.000 C 
BRANCH  10  11
ATOM     11  C   UNL     1      24.627  11.786  32.413  1.00  0.00    -0.000 C 
BRANCH  11  12
ATOM     12  C   UNL     1      25.035  11.802  33.901  1.00  0.00    -0.000 C 
BRANCH  12  13
ATOM     13  C   UNL     1      24.106  12.650  34.785  1.00  0.00    -0.003 C 
ATOM     14  C   UNL     1      24.511  12.645  36.257  1.00  0.00     0.004 C 
ENDBRANCH  12  13
ENDBRANCH  11  12
ENDBRANCH  10  11
ENDBRANCH   9  10
ENDBRANCH   1   9
TORSDOF 10
ENDMDL
MODEL 3
REMARK VINA RESULT:    -4.793      0.822      3.253
REMARK INTER + INTRA:          -8.680
REMARK INTER:                  -7.315
REMARK INTRA:                  -1.366
REMARK UNBOUND:                -1.085
REMARK SMILES CCCCCCCCCCCC(=O)[O-]
REMARK SMILES IDX 7 1 8 2 9 3 10 4 11 5 12 6 13 7 14 8 6 9 5 10 4 11 3 12 2 13
REMARK SMILES IDX 1 14
REMARK H PARENT
REMARK Flexibility Score: inf
ROOT
ATOM      1  C   UNL     1      27.991  13.948  33.551  1.00  0.00     0.000 C 
ENDROOT
BRANCH   1   2
ATOM      2  C   UNL     1      27.578  13.411  34.931  1.00  0.00     0.000 C 
BRANCH   2   3
ATOM      3  C   UNL     1      27.560  11.876  34.986  1.00  0.00     0.000 C 
BRANCH   3   4
ATOM      4  C   UNL     1      26.137  11.304  35.118  1.00  0.00     0.006 C 
BRANCH   4   5
ATOM      5  C   UNL     1      25.065  12.311  34.680  1.00  0.00     0.053 C 
BRANCH   5   6
ATOM      6  C   UNL     1      24.183  12.714  35.822  1.00  0.00     0.041 C 
ATOM      7  O   UNL     1      24.689  13.057  36.922  1.00  0.00    -0.550 OA
ATOM      8  O   UNL     1      22.801  12.675  35.681  1.00  0.00    -0.550 OA
ENDBRANCH   5   6
ENDBRANCH   4   5
ENDBRANCH   3   4
ENDBRANCH   2   3
ENDBRANCH   1   2
BRANCH   1   9
ATOM      9  C   UNL     1      28.834  12.916  32.791  1.00  0.00     0.000 C 
BRANCH   9  10
ATOM     10  C   UNL     1      28.891  13.245  31.295  1.00  0.00    -0.000 C 
BRANCH  10  11
ATOM     11  C   UNL     1      28.225  12.141  30.460  1.00  0.00    -0.000 C 
BRANCH  11  12
ATOM     12  C   UNL     1      27.507  11.096  31.340  1.00  0.00    -0.000 C 
BRANCH  12  13
ATOM     13  C   UNL     1      25.986  11.048  31.121  1.00  0.00    -0.003 C 
ATOM     14  C   UNL     1      25.353  12.433  31.011  1.00  0.00     0.004 C 
ENDBRANCH  12  13
ENDBRANCH  11  12
ENDBRANCH  10  11
ENDBRANCH   9  10
ENDBRANCH   1   9
TORSDOF 10
ENDMDL
MODEL 4
REMARK VINA RESULT:    -4.758      1.504      2.254
REMARK INTER + INTRA:          -8.624
REMARK INTER:                  -7.548
REMARK INTRA:                  -1.076
REMARK UNBOUND:                -1.085
REMARK SMILES CCCCCCCCCCCC(=O)[O-]
REMARK SMILES IDX 7 1 8 2 9 3 10 4 11 5 12 6 13 7 14 8 6 9 5 10 4 11 3 12 2 13
REMARK SMILES IDX 1 14
REMARK H PARENT
REMARK Flexibility Score: inf
ROOT
ATOM      1  C   UNL     1      25.510  11.172  32.483  1.00  0.00     0.000 C 
ENDROOT
BRANCH   1   2
ATOM      2  C   UNL     1      24.855  12.268  33.338  1.00  0.00     0.000 C 
BRANCH   2   3
ATOM      3  C   UNL     1      24.968  11.988  34.845  1.00  0.00     0.000 C 
BRANCH   3   4
ATOM      4  C   UNL     1      23.817  12.614  35.652  1.00  0.00     0.006 C 
BRANCH   4   5
ATOM      5  C   UNL     1      22.636  13.017  34.760  1.00  0.00     0.053 C 
BRANCH   5   6
ATOM      6  C   UNL     1      21.341  13.004  35.513  1.00  0.00     0.041 C 
ATOM      7  O   UNL     1      21.012  11.994  36.188  1.00  0.00    -0.550 OA
ATOM      8  O   UNL     1      20.482  14.094  35.441  1.00  0.00    -0.550 OA
ENDBRANCH   5   6
ENDBRANCH   4   5
ENDBRANCH   3   4
ENDBRANCH   2   3
ENDBRANCH   1   2
BRANCH   1   9
ATOM      9  C   UNL     1      26.957  11.540  32.133  1.00  0.00     0.000 C 
BRANCH   9  10
ATOM     10  C   UNL     1      27.142  13.061  32.083  1.00  0.00    -0.000 C 
BRANCH  10  11
ATOM     11  C   UNL     1      28.328  13.502  32.953  1.00  0.00    -0.000 C 
BRANCH  11  12
ATOM     12  C   UNL     1      28.570  12.546  34.140  1.00  0.00    -0.000 C 
BRANCH  12  13
ATOM     13  C   UNL     1      28.195  13.150  35.504  1.00  0.00    -0.003 C 
ATOM     14  C   UNL     1      27.847  14.634  35.425  1.00  0.00     0.004 C 
ENDBRANCH  12  13
ENDBRANCH  11  12
ENDBRANCH  10  11
ENDBRANCH   9  10
ENDBRANCH   1   9
TORSDOF 10
ENDMDL
MODEL 5
REMARK VINA RESULT:    -4.513      2.753      4.692
REMARK INTER + INTRA:          -8.236
REMARK INTER:                  -7.309
REMARK INTRA:                  -0.927
REMARK UNBOUND:                -1.085
REMARK SMILES CCCCCCCCCCCC(=O)[O-]
REMARK SMILES IDX 7 1 8 2 9 3 10 4 11 5 12 6 13 7 14 8 6 9 5 10 4 11 3 12 2 13
REMARK SMILES IDX 1 14
REMARK H PARENT
REMARK Flexibility Score: inf
ROOT
ATOM      1  C   UNL     1      28.694  12.993  33.670  1.00  0.00     0.000 C 
ENDROOT
BRANCH   1   2
ATOM      2  C   UNL     1      28.582  13.090  32.141  1.00  0.00     0.000 C 
BRANCH   2   3
ATOM      3  C   UNL     1      27.192  12.687  31.625  1.00  0.00     0.000 C 
BRANCH   3   4
ATOM      4  C   UNL     1      27.173  11.274  31.013  1.00  0.00     0.006 C 
BRANCH   4   5
ATOM      5  C   UNL     1      26.140  10.364  31.688  1.00  0.00     0.053 C 
BRANCH   5   6
ATOM      6  C   UNL     1      25.266   9.676  30.684  1.00  0.00     0.041 C 
ATOM      7  O   UNL     1      24.491  10.347  29.954  1.00  0.00    -0.550 OA
ATOM      8  O   UNL     1      25.283   8.291  30.580  1.00  0.00    -0.550 OA
ENDBRANCH   5   6
ENDBRANCH   4   5
ENDBRANCH   3   4
ENDBRANCH   2   3
ENDBRANCH   1   2
BRANCH   1   9
ATOM      9  C   UNL     1      27.880  14.100  34.352  1.00  0.00     0.000 C 
BRANCH   9  10
ATOM     10  C   UNL     1      27.690  13.806  35.844  1.00  0.00    -0.000 C 
BRANCH  10  11
ATOM     11  C   UNL     1      26.201  13.681  36.198  1.00  0.00    -0.000 C 
BRANCH  11  12
ATOM     12  C   UNL     1      25.561  12.412  35.596  1.00  0.00    -0.000 C 
BRANCH  12  13
ATOM     13  C   UNL     1      24.099  12.606  35.162  1.00  0.00    -0.003 C 
ATOM     14  C   UNL     1      23.877  12.340  33.675  1.00  0.00     0.004 C 
ENDBRANCH  12  13
ENDBRANCH  11  12
ENDBRANCH  10  11
ENDBRANCH   9  10
ENDBRANCH   1   9
TORSDOF 10
ENDMDL
MODEL 6
REMARK VINA RESULT:    -4.497      2.882      5.744
REMARK INTER + INTRA:          -8.211
REMARK INTER:                  -7.140
REMARK INTRA:                  -1.071
REMARK UNBOUND:                -1.085
REMARK SMILES CCCCCCCCCCCC(=O)[O-]
REMARK SMILES IDX 7 1 8 2 9 3 10 4 11 5 12 6 13 7 14 8 6 9 5 10 4 11 3 12 2 13
REMARK SMILES IDX 1 14
REMARK H PARENT
REMARK Flexibility Score: inf
ROOT
ATOM      1  C   UNL     1      25.688  13.372  36.412  1.00  0.00     0.000 C 
ENDROOT
BRANCH   1   2
ATOM      2  C   UNL     1      26.927  13.592  35.530  1.00  0.00     0.000 C 
BRANCH   2   3
ATOM      3  C   UNL     1      27.591  12.273  35.105  1.00  0.00     0.000 C 
BRANCH   3   4
ATOM      4  C   UNL     1      28.728  12.482  34.089  1.00  0.00     0.006 C 
BRANCH   4   5
ATOM      5  C   UNL     1      28.286  13.335  32.892  1.00  0.00     0.053 C 
BRANCH   5   6
ATOM      6  C   UNL     1      28.655  12.696  31.589  1.00  0.00     0.041 C 
ATOM      7  O   UNL     1      28.155  11.588  31.263  1.00  0.00    -0.550 OA
ATOM      8  O   UNL     1      29.578  13.308  30.750  1.00  0.00    -0.550 OA
ENDBRANCH   5   6
ENDBRANCH   4   5
ENDBRANCH   3   4
ENDBRANCH   2   3
ENDBRANCH   1   2
BRANCH   1   9
ATOM      9  C   UNL     1      24.859  12.184  35.907  1.00  0.00     0.000 C 
BRANCH   9  10
ATOM     10  C   UNL     1      23.390  12.579  35.717  1.00  0.00    -0.000 C 
BRANCH  10  11
ATOM     11  C   UNL     1      23.098  12.933  34.251  1.00  0.00    -0.000 C 
BRANCH  11  12
ATOM     12  C   UNL     1      23.651  11.875  33.273  1.00  0.00    -0.000 C 
BRANCH  12  13
ATOM     13  C   UNL     1      24.622  12.450  32.229  1.00  0.00    -0.003 C 
ATOM     14  C   UNL     1      24.729  11.589  30.973  1.00  0.00     0.004 C 
ENDBRANCH  12  13
ENDBRANCH  11  12
ENDBRANCH  10  11
ENDBRANCH   9  10
ENDBRANCH   1   9
TORSDOF 10
ENDMDL
MODEL 7
REMARK VINA RESULT:    -4.470      1.423      3.975
REMARK INTER + INTRA:          -8.168
REMARK INTER:                  -7.074
REMARK INTRA:                  -1.094
REMARK UNBOUND:                -1.085
REMARK SMILES CCCCCCCCCCCC(=O)[O-]
REMARK SMILES IDX 7 1 8 2 9 3 10 4 11 5 12 6 13 7 14 8 6 9 5 10 4 11 3 12 2 13
REMARK SMILES IDX 1 14
REMARK H PARENT
REMARK Flexibility Score: inf
ROOT
ATOM      1  C   UNL     1      27.113  11.129  31.431  1.00  0.00     0.000 C 
ENDROOT
BRANCH   1   2
ATOM      2  C   UNL     1      27.289  12.655  31.370  1.00  0.00     0.000 C 
BRANCH   2   3
ATOM      3  C   UNL     1      28.647  13.115  31.923  1.00  0.00     0.000 C 
BRANCH   3   4
ATOM      4  C   UNL     1      28.739  12.981  33.453  1.00  0.00     0.006 C 
BRANCH   4   5
ATOM      5  C   UNL     1      27.696  13.843  34.175  1.00  0.00     0.053 C 
BRANCH   5   6
ATOM      6  C   UNL     1      26.909  13.046  35.170  1.00  0.00     0.041 C 
ATOM      7  O   UNL     1      26.276  13.629  36.089  1.00  0.00    -0.550 OA
ATOM      8  O   UNL     1      26.906  11.659  35.104  1.00  0.00    -0.550 OA
ENDBRANCH   5   6
ENDBRANCH   4   5
ENDBRANCH   3   4
ENDBRANCH   2   3
ENDBRANCH   1   2
BRANCH   1   9
ATOM      9  C   UNL     1      25.716  10.758  31.946  1.00  0.00     0.000 C 
BRANCH   9  10
ATOM     10  C   UNL     1      24.831  12.002  32.083  1.00  0.00    -0.000 C 
BRANCH  10  11
ATOM     11  C   UNL     1      23.943  11.913  33.333  1.00  0.00    -0.000 C 
BRANCH  11  12
ATOM     12  C   UNL     1      22.741  12.878  33.266  1.00  0.00    -0.000 C 
BRANCH  12  13
ATOM     13  C   UNL     1      22.098  13.157  34.635  1.00  0.00    -0.003 C 
ATOM     14  C   UNL     1      22.930  12.633  35.804  1.00  0.00     0.004 C 
ENDBRANCH  12  13
ENDBRANCH  11  12
ENDBRANCH  10  11
ENDBRANCH   9  10
ENDBRANCH   1   9
TORSDOF 10
ENDMDL
MODEL 8
REMARK VINA RESULT:    -4.408      2.465      3.750
REMARK INTER + INTRA:          -8.069
REMARK INTER:                  -7.256
REMARK INTRA:                  -0.813
REMARK UNBOUND:                -1.085
REMARK SMILES CCCCCCCCCCCC(=O)[O-]
REMARK SMILES IDX 7 1 8 2 9 3 10 4 11 5 12 6 13 7 14 8 6 9 5 10 4 11 3 12 2 13
REMARK SMILES IDX 1 14
REMARK H PARENT
REMARK Flexibility Score: inf
ROOT
ATOM      1  C   UNL     1      24.844  12.275  35.596  1.00  0.00     0.000 C 
ENDROOT
BRANCH   1   2
ATOM      2  C   UNL     1      23.380  12.668  35.847  1.00  0.00     0.000 C 
BRANCH   2   3
ATOM      3  C   UNL     1      22.579  12.820  34.544  1.00  0.00     0.000 C 
BRANCH   3   4
ATOM      4  C   UNL     1      21.337  13.713  34.713  1.00  0.00     0.006 C 
BRANCH   4   5
ATOM      5  C   UNL     1      20.399  13.200  35.813  1.00  0.00     0.053 C 
BRANCH   5   6
ATOM      6  C   UNL     1      19.850  11.844  35.487  1.00  0.00     0.041 C 
ATOM      7  O   UNL     1      20.052  10.876  36.265  1.00  0.00    -0.550 OA
ATOM      8  O   UNL     1      19.146  11.643  34.306  1.00  0.00    -0.550 OA
ENDBRANCH   5   6
ENDBRANCH   4   5
ENDBRANCH   3   4
ENDBRANCH   2   3
ENDBRANCH   1   2
BRANCH   1   9
ATOM      9  C   UNL     1      25.089  11.986  34.109  1.00  0.00     0.000 C 
BRANCH   9  10
ATOM     10  C   UNL     1      26.568  11.687  33.842  1.00  0.00    -0.000 C 
BRANCH  10  11
ATOM     11  C   UNL     1      27.156  12.674  32.824  1.00  0.00    -0.000 C 
BRANCH  11  12
ATOM     12  C   UNL     1      27.901  13.842  33.505  1.00  0.00    -0.000 C 
BRANCH  12  13
ATOM     13  C   UNL     1      28.268  13.566  34.972  1.00  0.00    -0.003 C 
ATOM     14  C   UNL     1      27.732  14.626  35.932  1.00  0.00     0.004 C 
ENDBRANCH  12  13
ENDBRANCH  11  12
ENDBRANCH  10  11
ENDBRANCH   9  10
ENDBRANCH   1   9
TORSDOF 10
ENDMDL
MODEL 9
REMARK VINA RESULT:    -4.403      1.309      3.890
REMARK INTER + INTRA:          -8.061
REMARK INTER:                  -6.992
REMARK INTRA:                  -1.070
REMARK UNBOUND:                -1.085
REMARK SMILES CCCCCCCCCCCC(=O)[O-]
REMARK SMILES IDX 7 1 8 2 9 3 10 4 11 5 12 6 13 7 14 8 6 9 5 10 4 11 3 12 2 13
REMARK SMILES IDX 1 14
REMARK H PARENT
REMARK Flexibility Score: inf
ROOT
ATOM      1  C   UNL     1      28.316  11.942  30.529  1.00  0.00     0.000 C 
ENDROOT
BRANCH   1   2
ATOM      2  C   UNL     1      28.761  13.185  31.316  1.00  0.00     0.000 C 
BRANCH   2   3
ATOM      3  C   UNL     1      28.716  12.968  32.837  1.00  0.00     0.000 C 
BRANCH   3   4
ATOM      4  C   UNL     1      27.916  14.060  33.568  1.00  0.00     0.006 C 
BRANCH   4   5
ATOM      5  C   UNL     1      27.864  13.824  35.083  1.00  0.00     0.053 C 
BRANCH   5   6
ATOM      6  C   UNL     1      26.744  12.905  35.464  1.00  0.00     0.041 C 
ATOM      7  O   UNL     1      25.741  13.351  36.079  1.00  0.00    -0.550 OA
ATOM      8  O   UNL     1      26.826  11.550  35.170  1.00  0.00    -0.550 OA
ENDBRANCH   5   6
ENDBRANCH   4   5
ENDBRANCH   3   4
ENDBRANCH   2   3
ENDBRANCH   1   2
BRANCH   1   9
ATOM      9  C   UNL     1      27.344  11.089  31.354  1.00  0.00     0.000 C 
BRANCH   9  10
ATOM     10  C   UNL     1      26.150  10.638  30.506  1.00  0.00    -0.000 C 
BRANCH  10  11
ATOM     11  C   UNL     1      24.904  11.482  30.814  1.00  0.00    -0.000 C 
BRANCH  11  12
ATOM     12  C   UNL     1      25.031  12.247  32.147  1.00  0.00    -0.000 C 
BRANCH  12  13
ATOM     13  C   UNL     1      23.940  11.887  33.170  1.00  0.00    -0.003 C 
ATOM     14  C   UNL     1      22.604  11.535  32.521  1.00  0.00     0.004 C 
ENDBRANCH  12  13
ENDBRANCH  11  12
ENDBRANCH  10  11
ENDBRANCH   9  10
ENDBRANCH   1   9
TORSDOF 10
ENDMDL
