MODEL 1
REMARK VINA RESULT:    -4.436      0.000      0.000
REMARK INTER + INTRA:          -8.816
REMARK INTER:                  -7.548
REMARK INTRA:                  -1.268
REMARK UNBOUND:                -1.268
REMARK SMILES CCCCCCCCCCCCCC(=O)[O-]
REMARK SMILES IDX 8 1 9 2 10 3 11 4 12 5 13 6 14 7 15 8 16 9 7 10 6 11 5 12
REMARK SMILES IDX 4 13 3 14 2 15 1 16
REMARK H PARENT
REMARK Flexibility Score: inf
ROOT
ATOM      1  C   UNL     1       9.767   7.888  28.010  1.00  0.00     0.000 C 
ENDROOT
BRANCH   1   2
ATOM      2  C   UNL     1      11.165   8.055  27.401  1.00  0.00     0.000 C 
BRANCH   2   3
ATOM      3  C   UNL     1      11.691   6.717  26.858  1.00  0.00     0.000 C 
BRANCH   3   4
ATOM      4  C   UNL     1      13.220   6.599  26.951  1.00  0.00     0.000 C 
BRANCH   4   5
ATOM      5  C   UNL     1      13.911   6.780  25.588  1.00  0.00     0.006 C 
BRANCH   5   6
ATOM      6  C   UNL     1      14.476   8.197  25.409  1.00  0.00     0.053 C 
BRANCH   6   7
ATOM      7  C   UNL     1      15.962   8.232  25.598  1.00  0.00     0.041 C 
ATOM      8  O   UNL     1      16.450   8.326  26.755  1.00  0.00    -0.550 OA
ATOM      9  O   UNL     1      16.806   8.133  24.499  1.00  0.00    -0.550 OA
ENDBRANCH   6   7
ENDBRANCH   5   6
ENDBRANCH   4   5
ENDBRANCH   3   4
ENDBRANCH   2   3
ENDBRANCH   1   2
BRANCH   1  10
ATOM     10  C   UNL     1       9.630   8.707  29.303  1.00  0.00     0.000 C 
BRANCH  10  11
ATOM     11  C   UNL     1       9.449   7.826  30.550  1.00  0.00    -0.000 C 
BRANCH  11  12
ATOM     12  C   UNL     1       9.048   6.382  30.198  1.00  0.00    -0.000 C 
BRANCH  12  13
ATOM     13  C   UNL     1      10.095   5.351  30.651  1.00  0.00    -0.000 C 
BRANCH  13  14
ATOM     14  C   UNL     1      10.205   4.158  29.686  1.00  0.00    -0.000 C 
BRANCH  14  15
ATOM     15  C   UNL     1       9.340   4.338  28.428  1.00  0.00    -0.003 C 
ATOM     16  C   UNL     1       9.806   3.470  27.259  1.00  0.00     0.004 C 
ENDBRANCH  14  15
ENDBRANCH  13  14
ENDBRANCH  12  13
ENDBRANCH  11  12
ENDBRANCH  10  11
ENDBRANCH   1  10
TORSDOF 12
ENDMDL
MODEL 2
REMARK VINA RESULT:    -4.425      1.122      2.741
REMARK INTER + INTRA:          -8.798
REMARK INTER:                  -7.512
REMARK INTRA:                  -1.287
REMARK UNBOUND:                -1.268
REMARK SMILES CCCCCCCCCCCCCC(=O)[O-]
REMARK SMILES IDX 8 1 9 2 10 3 11 4 12 5 13 6 14 7 15 8 16 9 7 10 6 11 5 12
REMARK SMILES IDX 4 13 3 14 2 15 1 16
REMARK H PARENT
REMARK Flexibility Score: inf
ROOT
ATOM      1  C   UNL     1      11.613   5.733  27.272  1.00  0.00     0.000 C 
ENDROOT
BRANCH   1   2
ATOM      2  C   UNL     1      12.088   7.167  27.008  1.00  0.00     0.000 C 
BRANCH   2   3
ATOM      3  C   UNL     1      12.291   7.412  25.504  1.00  0.00     0.000 C 
BRANCH   3   4
ATOM      4  C   UNL     1      12.841   8.813  25.199  1.00  0.00     0.000 C 
BRANCH   4   5
ATOM      5  C   UNL     1      14.158   8.771  24.404  1.00  0.00     0.006 C 
BRANCH   5   6
ATOM      6  C   UNL     1      15.140   7.733  24.965  1.00  0.00     0.053 C 
BRANCH   6   7
ATOM      7  C   UNL     1      16.023   8.316  26.026  1.00  0.00     0.041 C 
ATOM      8  O   UNL     1      16.162   7.725  27.129  1.00  0.00    -0.550 OA
ATOM      9  O   UNL     1      16.714   9.496  25.785  1.00  0.00    -0.550 OA
ENDBRANCH   6   7
ENDBRANCH   5   6
ENDBRANCH   4   5
ENDBRANCH   3   4
ENDBRANCH   2   3
ENDBRANCH   1   2
BRANCH   1  10
ATOM     10  C   UNL     1      10.122   5.578  26.937  1.00  0.00     0.000 C 
BRANCH  10  11
ATOM     11  C   UNL     1       9.448   4.448  27.733  1.00  0.00    -0.000 C 
BRANCH  11  12
ATOM     12  C   UNL     1      10.142   4.180  29.080  1.00  0.00    -0.000 C 
BRANCH  12  13
ATOM     13  C   UNL     1       9.357   4.750  30.273  1.00  0.00    -0.000 C 
BRANCH  13  14
ATOM     14  C   UNL     1       9.839   6.153  30.680  1.00  0.00    -0.000 C 
BRANCH  14  15
ATOM     15  C   UNL     1       8.835   7.253  30.300  1.00  0.00    -0.003 C 
ATOM     16  C   UNL     1       9.425   8.292  29.346  1.00  0.00     0.004 C 
ENDBRANCH  14  15
ENDBRANCH  13  14
ENDBRANCH  12  13
ENDBRANCH  11  12
ENDBRANCH  10  11
ENDBRANCH   1  10
TORSDOF 12
ENDMDL
MODEL 3
REMARK VINA RESULT:    -4.349     14.575     16.167
REMARK INTER + INTRA:          -8.668
REMARK INTER:                  -7.442
REMARK INTRA:                  -1.226
REMARK UNBOUND:                -1.268
REMARK SMILES CCCCCCCCCCCCCC(=O)[O-]
REMARK SMILES IDX 8 1 9 2 10 3 11 4 12 5 13 6 14 7 15 8 16 9 7 10 6 11 5 12
REMARK SMILES IDX 4 13 3 14 2 15 1 16
REMARK H PARENT
REMARK Flexibility Score: inf
ROOT
ATOM      1  C   UNL     1       5.700   7.645  15.685  1.00  0.00     0.000 C 
ENDROOT
BRANCH   1   2
ATOM      2  C   UNL     1       4.672   6.812  14.909  1.00  0.00     0.000 C 
BRANCH   2   3
ATOM      3  C   UNL     1       3.372   7.604  14.695  1.00  0.00     0.000 C 
BRANCH   3   4
ATOM      4  C   UNL     1       2.994   8.465  15.910  1.00  0.00     0.000 C 
BRANCH   4   5
ATOM      5  C   UNL     1       1.548   8.987  15.838  1.00  0.00     0.006 C 
BRANCH   5   6
ATOM      6  C   UNL     1       1.155   9.778  17.094  1.00  0.00     0.053 C 
BRANCH   6   7
ATOM      7  C   UNL     1       0.897   8.876  18.262  1.00  0.00     0.041 C 
ATOM      8  O   UNL     1      -0.224   8.318  18.397  1.00  0.00    -0.550 OA
ATOM      9  O   UNL     1       1.905   8.629  19.186  1.00  0.00    -0.550 OA
ENDBRANCH   6   7
ENDBRANCH   5   6
ENDBRANCH   4   5
ENDBRANCH   3   4
ENDBRANCH   2   3
ENDBRANCH   1   2
BRANCH   1  10
ATOM     10  C   UNL     1       6.627   8.406  14.725  1.00  0.00     0.000 C 
BRANCH  10  11
ATOM     11  C   UNL     1       8.044   7.812  14.669  1.00  0.00    -0.000 C 
BRANCH  11  12
ATOM     12  C   UNL     1       8.335   7.107  13.332  1.00  0.00    -0.000 C 
BRANCH  12  13
ATOM     13  C   UNL     1       7.922   5.625  13.344  1.00  0.00    -0.000 C 
BRANCH  13  14
ATOM     14  C   UNL     1       7.081   5.238  12.116  1.00  0.00    -0.000 C 
BRANCH  14  15
ATOM     15  C   UNL     1       6.679   6.457  11.270  1.00  0.00    -0.003 C 
ATOM     16  C   UNL     1       5.167   6.571  11.075  1.00  0.00     0.004 C 
ENDBRANCH  14  15
ENDBRANCH  13  14
ENDBRANCH  12  13
ENDBRANCH  11  12
ENDBRANCH  10  11
ENDBRANCH   1  10
TORSDOF 12
ENDMDL
MODEL 4
REMARK VINA RESULT:    -4.343      1.658      1.933
REMARK INTER + INTRA:          -8.658
REMARK INTER:                  -7.223
REMARK INTRA:                  -1.435
REMARK UNBOUND:                -1.268
REMARK SMILES CCCCCCCCCCCCCC(=O)[O-]
REMARK SMILES IDX 8 1 9 2 10 3 11 4 12 5 13 6 14 7 15 8 16 9 7 10 6 11 5 12
REMARK SMILES IDX 4 13 3 14 2 15 1 16
REMARK H PARENT
REMARK Flexibility Score: inf
ROOT
ATOM      1  C   UNL     1      10.425   8.218  28.117  1.00  0.00     0.000 C 
ENDROOT
BRANCH   1   2
ATOM      2  C   UNL     1      10.827   7.489  26.829  1.00  0.00     0.000 C 
BRANCH   2   3
ATOM      3  C   UNL     1      12.135   6.706  27.025  1.00  0.00     0.000 C 
BRANCH   3   4
ATOM      4  C   UNL     1      13.299   7.277  26.201  1.00  0.00     0.000 C 
BRANCH   4   5
ATOM      5  C   UNL     1      12.835   8.316  25.164  1.00  0.00     0.006 C 
BRANCH   5   6
ATOM      6  C   UNL     1      12.776   7.732  23.746  1.00  0.00     0.053 C 
BRANCH   6   7
ATOM      7  C   UNL     1      13.896   8.236  22.887  1.00  0.00     0.041 C 
ATOM      8  O   UNL     1      15.003   8.539  23.405  1.00  0.00    -0.550 OA
ATOM      9  O   UNL     1      13.725   8.342  21.513  1.00  0.00    -0.550 OA
ENDBRANCH   6   7
ENDBRANCH   5   6
ENDBRANCH   4   5
ENDBRANCH   3   4
ENDBRANCH   2   3
ENDBRANCH   1   2
BRANCH   1  10
ATOM     10  C   UNL     1       9.096   7.676  28.663  1.00  0.00     0.000 C 
BRANCH  10  11
ATOM     11  C   UNL     1       9.113   7.482  30.188  1.00  0.00    -0.000 C 
BRANCH  11  12
ATOM     12  C   UNL     1       9.076   5.998  30.594  1.00  0.00    -0.000 C 
BRANCH  12  13
ATOM     13  C   UNL     1      10.481   5.404  30.789  1.00  0.00    -0.000 C 
BRANCH  13  14
ATOM     14  C   UNL     1      10.907   4.499  29.621  1.00  0.00    -0.000 C 
BRANCH  14  15
ATOM     15  C   UNL     1       9.711   3.806  28.948  1.00  0.00    -0.003 C 
ATOM     16  C   UNL     1       9.714   3.963  27.427  1.00  0.00     0.004 C 
ENDBRANCH  14  15
ENDBRANCH  13  14
ENDBRANCH  12  13
ENDBRANCH  11  12
ENDBRANCH  10  11
ENDBRANCH   1  10
TORSDOF 12
ENDMDL
MODEL 5
REMARK VINA RESULT:    -4.342      1.461      2.583
REMARK INTER + INTRA:          -8.656
REMARK INTER:                  -7.591
REMARK INTRA:                  -1.065
REMARK UNBOUND:                -1.268
REMARK SMILES CCCCCCCCCCCCCC(=O)[O-]
REMARK SMILES IDX 8 1 9 2 10 3 11 4 12 5 13 6 14 7 15 8 16 9 7 10 6 11 5 12
REMARK SMILES IDX 4 13 3 14 2 15 1 16
REMARK H PARENT
REMARK Flexibility Score: inf
ROOT
ATOM      1  C   UNL     1      12.182   5.633  27.390  1.00  0.00     0.000 C 
ENDROOT
BRANCH   1   2
ATOM      2  C   UNL     1      13.209   6.648  26.871  1.00  0.00     0.000 C 
BRANCH   2   3
ATOM      3  C   UNL     1      13.659   6.296  25.445  1.00  0.00     0.000 C 
BRANCH   3   4
ATOM      4  C   UNL     1      13.716   7.521  24.521  1.00  0.00     0.000 C 
BRANCH   4   5
ATOM      5  C   UNL     1      15.157   7.985  24.242  1.00  0.00     0.006 C 
BRANCH   5   6
ATOM      6  C   UNL     1      15.564   9.174  25.124  1.00  0.00     0.053 C 
BRANCH   6   7
ATOM      7  C   UNL     1      16.639   8.803  26.100  1.00  0.00     0.041 C 
ATOM      8  O   UNL     1      17.757   9.380  26.059  1.00  0.00    -0.550 OA
ATOM      9  O   UNL     1      16.395   7.841  27.071  1.00  0.00    -0.550 OA
ENDBRANCH   6   7
ENDBRANCH   5   6
ENDBRANCH   4   5
ENDBRANCH   3   4
ENDBRANCH   2   3
ENDBRANCH   1   2
BRANCH   1  10
ATOM     10  C   UNL     1      10.812   5.853  26.731  1.00  0.00     0.000 C 
BRANCH  10  11
ATOM     11  C   UNL     1       9.989   6.953  27.421  1.00  0.00    -0.000 C 
BRANCH  11  12
ATOM     12  C   UNL     1       8.960   6.385  28.414  1.00  0.00    -0.000 C 
BRANCH  12  13
ATOM     13  C   UNL     1       9.451   6.444  29.871  1.00  0.00    -0.000 C 
BRANCH  13  14
ATOM     14  C   UNL     1       9.400   5.073  30.566  1.00  0.00    -0.000 C 
BRANCH  14  15
ATOM     15  C   UNL     1      10.561   4.157  30.145  1.00  0.00    -0.003 C 
ATOM     16  C   UNL     1      11.842   4.421  30.937  1.00  0.00     0.004 C 
ENDBRANCH  14  15
ENDBRANCH  13  14
ENDBRANCH  12  13
ENDBRANCH  11  12
ENDBRANCH  10  11
ENDBRANCH   1  10
TORSDOF 12
ENDMDL
MODEL 6
REMARK VINA RESULT:    -4.328      3.733      7.196
REMARK INTER + INTRA:          -8.633
REMARK INTER:                  -7.345
REMARK INTRA:                  -1.288
REMARK UNBOUND:                -1.268
REMARK SMILES CCCCCCCCCCCCCC(=O)[O-]
REMARK SMILES IDX 8 1 9 2 10 3 11 4 12 5 13 6 14 7 15 8 16 9 7 10 6 11 5 12
REMARK SMILES IDX 4 13 3 14 2 15 1 16
REMARK H PARENT
REMARK Flexibility Score: inf
ROOT
ATOM      1  C   UNL     1      12.965   8.549  25.426  1.00  0.00     0.000 C 
ENDROOT
BRANCH   1   2
ATOM      2  C   UNL     1      11.953   7.765  26.270  1.00  0.00     0.000 C 
BRANCH   2   3
ATOM      3  C   UNL     1      12.277   6.263  26.264  1.00  0.00     0.000 C 
BRANCH   3   4
ATOM      4  C   UNL     1      11.616   5.507  27.426  1.00  0.00     0.000 C 
BRANCH   4   5
ATOM      5  C   UNL     1      10.164   5.101  27.118  1.00  0.00     0.006 C 
BRANCH   5   6
ATOM      6  C   UNL     1       9.678   3.958  28.021  1.00  0.00     0.053 C 
BRANCH   6   7
ATOM      7  C   UNL     1       9.738   4.329  29.471  1.00  0.00     0.041 C 
ATOM      8  O   UNL     1      10.411   3.632  30.276  1.00  0.00    -0.550 OA
ATOM      9  O   UNL     1       9.076   5.462  29.928  1.00  0.00    -0.550 OA
ENDBRANCH   6   7
ENDBRANCH   5   6
ENDBRANCH   4   5
ENDBRANCH   3   4
ENDBRANCH   2   3
ENDBRANCH   1   2
BRANCH   1  10
ATOM     10  C   UNL     1      14.320   7.826  25.381  1.00  0.00     0.000 C 
BRANCH  10  11
ATOM     11  C   UNL     1      15.038   7.992  24.032  1.00  0.00    -0.000 C 
BRANCH  11  12
ATOM     12  C   UNL     1      14.906   9.416  23.464  1.00  0.00    -0.000 C 
BRANCH  12  13
ATOM     13  C   UNL     1      14.248   9.438  22.074  1.00  0.00    -0.000 C 
BRANCH  13  14
ATOM     14  C   UNL     1      13.579   8.100  21.716  1.00  0.00    -0.000 C 
BRANCH  14  15
ATOM     15  C   UNL     1      12.049   8.150  21.860  1.00  0.00    -0.003 C 
ATOM     16  C   UNL     1      11.467   6.869  22.458  1.00  0.00     0.004 C 
ENDBRANCH  14  15
ENDBRANCH  13  14
ENDBRANCH  12  13
ENDBRANCH  11  12
ENDBRANCH  10  11
ENDBRANCH   1  10
TORSDOF 12
ENDMDL
MODEL 7
REMARK VINA RESULT:    -4.320     13.488     15.060
REMARK INTER + INTRA:          -8.618
REMARK INTER:                  -6.790
REMARK INTRA:                  -1.828
REMARK UNBOUND:                -1.268
REMARK SMILES CCCCCCCCCCCCCC(=O)[O-]
REMARK SMILES IDX 8 1 9 2 10 3 11 4 12 5 13 6 14 7 15 8 16 9 7 10 6 11 5 12
REMARK SMILES IDX 4 13 3 14 2 15 1 16
REMARK H PARENT
REMARK Flexibility Score: inf
ROOT
ATOM      1  C   UNL     1       5.408   6.811  15.698  1.00  0.00     0.000 C 
ENDROOT
BRANCH   1   2
ATOM      2  C   UNL     1       4.581   7.074  14.433  1.00  0.00     0.000 C 
BRANCH   2   3
ATOM      3  C   UNL     1       3.264   7.788  14.775  1.00  0.00     0.000 C 
BRANCH   3   4
ATOM      4  C   UNL     1       2.992   7.840  16.286  1.00  0.00     0.000 C 
BRANCH   4   5
ATOM      5  C   UNL     1       2.777   9.275  16.800  1.00  0.00     0.006 C 
BRANCH   5   6
ATOM      6  C   UNL     1       3.919   9.741  17.713  1.00  0.00     0.053 C 
BRANCH   6   7
ATOM      7  C   UNL     1       4.147   8.791  18.850  1.00  0.00     0.041 C 
ATOM      8  O   UNL     1       5.256   8.209  18.976  1.00  0.00    -0.550 OA
ATOM      9  O   UNL     1       3.144   8.573  19.786  1.00  0.00    -0.550 OA
ENDBRANCH   6   7
ENDBRANCH   5   6
ENDBRANCH   4   5
ENDBRANCH   3   4
ENDBRANCH   2   3
ENDBRANCH   1   2
BRANCH   1  10
ATOM     10  C   UNL     1       6.713   7.620  15.680  1.00  0.00     0.000 C 
BRANCH  10  11
ATOM     11  C   UNL     1       6.529   9.034  15.107  1.00  0.00    -0.000 C 
BRANCH  11  12
ATOM     12  C   UNL     1       7.452   9.310  13.906  1.00  0.00    -0.000 C 
BRANCH  12  13
ATOM     13  C   UNL     1       8.209   8.054  13.443  1.00  0.00    -0.000 C 
BRANCH  13  14
ATOM     14  C   UNL     1       7.854   7.649  12.002  1.00  0.00    -0.000 C 
BRANCH  14  15
ATOM     15  C   UNL     1       7.388   6.188  11.900  1.00  0.00    -0.003 C 
ATOM     16  C   UNL     1       7.782   5.352  13.118  1.00  0.00     0.004 C 
ENDBRANCH  14  15
ENDBRANCH  13  14
ENDBRANCH  12  13
ENDBRANCH  11  12
ENDBRANCH  10  11
ENDBRANCH   1  10
TORSDOF 12
ENDMDL
MODEL 8
REMARK VINA RESULT:    -4.299      3.114      7.257
REMARK INTER + INTRA:          -8.584
REMARK INTER:                  -7.669
REMARK INTRA:                  -0.915
REMARK UNBOUND:                -1.268
REMARK SMILES CCCCCCCCCCCCCC(=O)[O-]
REMARK SMILES IDX 8 1 9 2 10 3 11 4 12 5 13 6 14 7 15 8 16 9 7 10 6 11 5 12
REMARK SMILES IDX 4 13 3 14 2 15 1 16
REMARK H PARENT
REMARK Flexibility Score: inf
ROOT
ATOM      1  C   UNL     1      12.785   6.538  26.789  1.00  0.00     0.000 C 
ENDROOT
BRANCH   1   2
ATOM      2  C   UNL     1      11.703   7.626  26.793  1.00  0.00     0.000 C 
BRANCH   2   3
ATOM      3  C   UNL     1      10.314   7.020  27.046  1.00  0.00     0.000 C 
BRANCH   3   4
ATOM      4  C   UNL     1      10.318   5.485  26.996  1.00  0.00     0.000 C 
BRANCH   4   5
ATOM      5  C   UNL     1       9.360   4.858  28.024  1.00  0.00     0.006 C 
BRANCH   5   6
ATOM      6  C   UNL     1      10.097   3.966  29.033  1.00  0.00     0.053 C 
BRANCH   6   7
ATOM      7  C   UNL     1      10.803   4.773  30.080  1.00  0.00     0.041 C 
ATOM      8  O   UNL     1      10.203   5.711  30.668  1.00  0.00    -0.550 OA
ATOM      9  O   UNL     1      12.114   4.471  30.425  1.00  0.00    -0.550 OA
ENDBRANCH   6   7
ENDBRANCH   5   6
ENDBRANCH   4   5
ENDBRANCH   3   4
ENDBRANCH   2   3
ENDBRANCH   1   2
BRANCH   1  10
ATOM     10  C   UNL     1      13.565   6.543  25.466  1.00  0.00     0.000 C 
BRANCH  10  11
ATOM     11  C   UNL     1      13.420   7.866  24.695  1.00  0.00    -0.000 C 
BRANCH  11  12
ATOM     12  C   UNL     1      14.488   8.028  23.598  1.00  0.00    -0.000 C 
BRANCH  12  13
ATOM     13  C   UNL     1      15.331   9.302  23.779  1.00  0.00    -0.000 C 
BRANCH  13  14
ATOM     14  C   UNL     1      16.268   9.221  24.995  1.00  0.00    -0.000 C 
BRANCH  14  15
ATOM     15  C   UNL     1      17.434   8.244  24.775  1.00  0.00    -0.003 C 
ATOM     16  C   UNL     1      18.793   8.944  24.721  1.00  0.00     0.004 C 
ENDBRANCH  14  15
ENDBRANCH  13  14
ENDBRANCH  12  13
ENDBRANCH  11  12
ENDBRANCH  10  11
ENDBRANCH   1  10
TORSDOF 12
ENDMDL
MODEL 9
REMARK VINA RESULT:    -4.213      2.693      3.867
REMARK INTER + INTRA:          -8.437
REMARK INTER:                  -7.008
REMARK INTRA:                  -1.428
REMARK UNBOUND:                -1.268
REMARK SMILES CCCCCCCCCCCCCC(=O)[O-]
REMARK SMILES IDX 8 1 9 2 10 3 11 4 12 5 13 6 14 7 15 8 16 9 7 10 6 11 5 12
REMARK SMILES IDX 4 13 3 14 2 15 1 16
REMARK H PARENT
REMARK Flexibility Score: inf
ROOT
ATOM      1  C   UNL     1      12.947   5.596  27.358  1.00  0.00     0.000 C 
ENDROOT
BRANCH   1   2
ATOM      2  C   UNL     1      13.832   6.761  26.897  1.00  0.00     0.000 C 
BRANCH   2   3
ATOM      3  C   UNL     1      13.788   6.914  25.368  1.00  0.00     0.000 C 
BRANCH   3   4
ATOM      4  C   UNL     1      13.444   8.343  24.923  1.00  0.00     0.000 C 
BRANCH   4   5
ATOM      5  C   UNL     1      12.118   8.419  24.146  1.00  0.00     0.006 C 
BRANCH   5   6
ATOM      6  C   UNL     1      11.776   7.091  23.455  1.00  0.00     0.053 C 
BRANCH   6   7
ATOM      7  C   UNL     1      11.945   7.177  21.969  1.00  0.00     0.041 C 
ATOM      8  O   UNL     1      11.066   6.700  21.203  1.00  0.00    -0.550 OA
ATOM      9  O   UNL     1      13.059   7.808  21.430  1.00  0.00    -0.550 OA
ENDBRANCH   6   7
ENDBRANCH   5   6
ENDBRANCH   4   5
ENDBRANCH   3   4
ENDBRANCH   2   3
ENDBRANCH   1   2
BRANCH   1  10
ATOM     10  C   UNL     1      11.497   5.788  26.887  1.00  0.00     0.000 C 
BRANCH  10  11
ATOM     11  C   UNL     1      10.780   6.934  27.620  1.00  0.00    -0.000 C 
BRANCH  11  12
ATOM     12  C   UNL     1       9.305   6.612  27.917  1.00  0.00    -0.000 C 
BRANCH  12  13
ATOM     13  C   UNL     1       9.051   6.326  29.407  1.00  0.00    -0.000 C 
BRANCH  13  14
ATOM     14  C   UNL     1       9.407   4.882  29.800  1.00  0.00    -0.000 C 
BRANCH  14  15
ATOM     15  C   UNL     1      10.306   4.816  31.045  1.00  0.00    -0.003 C 
ATOM     16  C   UNL     1      11.761   4.490  30.708  1.00  0.00     0.004 C 
ENDBRANCH  14  15
ENDBRANCH  13  14
ENDBRANCH  12  13
ENDBRANCH  11  12
ENDBRANCH  10  11
ENDBRANCH   1  10
TORSDOF 12
ENDMDL
