MODEL 1
REMARK VINA RESULT:    -3.357      0.000      0.000
REMARK INTER + INTRA:          -6.686
REMARK INTER:                  -5.319
REMARK INTRA:                  -1.367
REMARK UNBOUND:                -1.367
REMARK SMILES CCCCCCCCCCCC(=O)[O-]
REMARK SMILES IDX 7 1 8 2 9 3 10 4 11 5 12 6 13 7 14 8 6 9 5 10 4 11 3 12 2 13
REMARK SMILES IDX 1 14
REMARK H PARENT
REMARK Flexibility Score: inf
ROOT
ATOM      1  C   UNL     1      30.595  51.183  38.525  1.00  0.00     0.000 C 
ENDROOT
BRANCH   1   2
ATOM      2  C   UNL     1      30.032  50.155  39.524  1.00  0.00     0.000 C 
BRANCH   2   3
ATOM      3  C   UNL     1      30.692  50.248  40.910  1.00  0.00     0.000 C 
BRANCH   3   4
ATOM      4  C   UNL     1      30.274  49.097  41.840  1.00  0.00     0.006 C 
BRANCH   4   5
ATOM      5  C   UNL     1      29.277  48.136  41.181  1.00  0.00     0.053 C 
BRANCH   5   6
ATOM      6  C   UNL     1      29.809  46.738  41.201  1.00  0.00     0.041 C 
ATOM      7  O   UNL     1      31.010  46.511  40.900  1.00  0.00    -0.550 OA
ATOM      8  O   UNL     1      28.963  45.677  41.503  1.00  0.00    -0.550 OA
ENDBRANCH   5   6
ENDBRANCH   4   5
ENDBRANCH   3   4
ENDBRANCH   2   3
ENDBRANCH   1   2
BRANCH   1   9
ATOM      9  C   UNL     1      29.971  52.591  38.613  1.00  0.00     0.000 C 
BRANCH   9  10
ATOM     10  C   UNL     1      28.507  52.690  38.141  1.00  0.00    -0.000 C 
BRANCH  10  11
ATOM     11  C   UNL     1      27.477  52.899  39.265  1.00  0.00    -0.000 C 
BRANCH  11  12
ATOM     12  C   UNL     1      28.121  53.368  40.581  1.00  0.00    -0.000 C 
BRANCH  12  13
ATOM     13  C   UNL     1      27.618  52.574  41.797  1.00  0.00    -0.003 C 
ATOM     14  C   UNL     1      27.006  51.229  41.410  1.00  0.00     0.004 C 
ENDBRANCH  12  13
ENDBRANCH  11  12
ENDBRANCH  10  11
ENDBRANCH   9  10
ENDBRANCH   1   9
TORSDOF 10
ENDMDL
MODEL 2
REMARK VINA RESULT:    -3.270      0.787      1.493
REMARK INTER + INTRA:          -6.549
REMARK INTER:                  -5.144
REMARK INTRA:                  -1.405
REMARK UNBOUND:                -1.367
REMARK SMILES CCCCCCCCCCCC(=O)[O-]
REMARK SMILES IDX 7 1 8 2 9 3 10 4 11 5 12 6 13 7 14 8 6 9 5 10 4 11 3 12 2 13
REMARK SMILES IDX 1 14
REMARK H PARENT
REMARK Flexibility Score: inf
ROOT
ATOM      1  C   UNL     1      30.357  51.832  38.554  1.00  0.00     0.000 C 
ENDROOT
BRANCH   1   2
ATOM      2  C   UNL     1      30.176  50.400  39.090  1.00  0.00     0.000 C 
BRANCH   2   3
ATOM      3  C   UNL     1      30.893  50.170  40.431  1.00  0.00     0.000 C 
BRANCH   3   4
ATOM      4  C   UNL     1      30.176  49.134  41.312  1.00  0.00     0.006 C 
BRANCH   4   5
ATOM      5  C   UNL     1      29.491  48.033  40.494  1.00  0.00     0.053 C 
BRANCH   5   6
ATOM      6  C   UNL     1      29.987  46.685  40.914  1.00  0.00     0.041 C 
ATOM      7  O   UNL     1      29.173  45.789  41.260  1.00  0.00    -0.550 OA
ATOM      8  O   UNL     1      31.352  46.435  40.971  1.00  0.00    -0.550 OA
ENDBRANCH   5   6
ENDBRANCH   4   5
ENDBRANCH   3   4
ENDBRANCH   2   3
ENDBRANCH   1   2
BRANCH   1   9
ATOM      9  C   UNL     1      29.051  52.631  38.369  1.00  0.00     0.000 C 
BRANCH   9  10
ATOM     10  C   UNL     1      27.764  51.892  38.788  1.00  0.00    -0.000 C 
BRANCH  10  11
ATOM     11  C   UNL     1      27.065  52.466  40.033  1.00  0.00    -0.000 C 
BRANCH  11  12
ATOM     12  C   UNL     1      27.534  51.800  41.338  1.00  0.00    -0.000 C 
BRANCH  12  13
ATOM     13  C   UNL     1      28.625  52.612  42.054  1.00  0.00    -0.003 C 
ATOM     14  C   UNL     1      28.514  54.113  41.785  1.00  0.00     0.004 C 
ENDBRANCH  12  13
ENDBRANCH  11  12
ENDBRANCH  10  11
ENDBRANCH   9  10
ENDBRANCH   1   9
TORSDOF 10
ENDMDL
MODEL 3
REMARK VINA RESULT:    -3.222      2.440      5.188
REMARK INTER + INTRA:          -6.473
REMARK INTER:                  -5.631
REMARK INTRA:                  -0.841
REMARK UNBOUND:                -1.367
REMARK SMILES CCCCCCCCCCCC(=O)[O-]
REMARK SMILES IDX 7 1 8 2 9 3 10 4 11 5 12 6 13 7 14 8 6 9 5 10 4 11 3 12 2 13
REMARK SMILES IDX 1 14
REMARK H PARENT
REMARK Flexibility Score: inf
ROOT
ATOM      1  C   UNL     1      30.504  51.240  38.519  1.00  0.00     0.000 C 
ENDROOT
BRANCH   1   2
ATOM      2  C   UNL     1      29.881  52.600  38.885  1.00  0.00     0.000 C 
BRANCH   2   3
ATOM      3  C   UNL     1      28.538  52.850  38.178  1.00  0.00     0.000 C 
BRANCH   3   4
ATOM      4  C   UNL     1      27.336  52.381  39.014  1.00  0.00     0.006 C 
BRANCH   4   5
ATOM      5  C   UNL     1      27.496  52.692  40.508  1.00  0.00     0.053 C 
BRANCH   5   6
ATOM      6  C   UNL     1      26.721  51.712  41.331  1.00  0.00     0.041 C 
ATOM      7  O   UNL     1      25.632  52.051  41.863  1.00  0.00    -0.550 OA
ATOM      8  O   UNL     1      27.228  50.437  41.552  1.00  0.00    -0.550 OA
ENDBRANCH   5   6
ENDBRANCH   4   5
ENDBRANCH   3   4
ENDBRANCH   2   3
ENDBRANCH   1   2
BRANCH   1   9
ATOM      9  C   UNL     1      30.139  50.077  39.464  1.00  0.00     0.000 C 
BRANCH   9  10
ATOM     10  C   UNL     1      30.584  50.258  40.929  1.00  0.00    -0.000 C 
BRANCH  10  11
ATOM     11  C   UNL     1      30.828  48.947  41.697  1.00  0.00    -0.000 C 
BRANCH  11  12
ATOM     12  C   UNL     1      29.696  47.924  41.500  1.00  0.00    -0.000 C 
BRANCH  12  13
ATOM     13  C   UNL     1      30.150  46.691  40.703  1.00  0.00    -0.003 C 
ATOM     14  C   UNL     1      31.436  46.075  41.251  1.00  0.00     0.004 C 
ENDBRANCH  12  13
ENDBRANCH  11  12
ENDBRANCH  10  11
ENDBRANCH   9  10
ENDBRANCH   1   9
TORSDOF 10
ENDMDL
MODEL 4
REMARK VINA RESULT:    -3.131     16.242     17.636
REMARK INTER + INTRA:          -6.329
REMARK INTER:                  -5.374
REMARK INTRA:                  -0.955
REMARK UNBOUND:                -1.367
REMARK SMILES CCCCCCCCCCCC(=O)[O-]
REMARK SMILES IDX 7 1 8 2 9 3 10 4 11 5 12 6 13 7 14 8 6 9 5 10 4 11 3 12 2 13
REMARK SMILES IDX 1 14
REMARK H PARENT
REMARK Flexibility Score: inf
ROOT
ATOM      1  C   UNL     1      25.699  41.317  24.349  1.00  0.00     0.000 C 
ENDROOT
BRANCH   1   2
ATOM      2  C   UNL     1      26.401  42.366  25.230  1.00  0.00     0.000 C 
BRANCH   2   3
ATOM      3  C   UNL     1      26.712  41.845  26.643  1.00  0.00     0.000 C 
BRANCH   3   4
ATOM      4  C   UNL     1      27.977  42.482  27.242  1.00  0.00     0.006 C 
BRANCH   4   5
ATOM      5  C   UNL     1      28.569  43.577  26.345  1.00  0.00     0.053 C 
BRANCH   5   6
ATOM      6  C   UNL     1      30.038  43.365  26.163  1.00  0.00     0.041 C 
ATOM      7  O   UNL     1      30.540  42.222  26.331  1.00  0.00    -0.550 OA
ATOM      8  O   UNL     1      30.863  44.440  25.858  1.00  0.00    -0.550 OA
ENDBRANCH   5   6
ENDBRANCH   4   5
ENDBRANCH   3   4
ENDBRANCH   2   3
ENDBRANCH   1   2
BRANCH   1   9
ATOM      9  C   UNL     1      24.908  40.239  25.117  1.00  0.00     0.000 C 
BRANCH   9  10
ATOM     10  C   UNL     1      25.368  38.788  24.871  1.00  0.00    -0.000 C 
BRANCH  10  11
ATOM     11  C   UNL     1      25.182  37.838  26.067  1.00  0.00    -0.000 C 
BRANCH  11  12
ATOM     12  C   UNL     1      26.210  38.083  27.185  1.00  0.00    -0.000 C 
BRANCH  12  13
ATOM     13  C   UNL     1      25.565  38.120  28.579  1.00  0.00    -0.003 C 
ATOM     14  C   UNL     1      25.290  39.543  29.064  1.00  0.00     0.004 C 
ENDBRANCH  12  13
ENDBRANCH  11  12
ENDBRANCH  10  11
ENDBRANCH   9  10
ENDBRANCH   1   9
TORSDOF 10
ENDMDL
MODEL 5
REMARK VINA RESULT:    -3.081     16.110     17.803
REMARK INTER + INTRA:          -6.250
REMARK INTER:                  -5.053
REMARK INTRA:                  -1.197
REMARK UNBOUND:                -1.367
REMARK SMILES CCCCCCCCCCCC(=O)[O-]
REMARK SMILES IDX 7 1 8 2 9 3 10 4 11 5 12 6 13 7 14 8 6 9 5 10 4 11 3 12 2 13
REMARK SMILES IDX 1 14
REMARK H PARENT
REMARK Flexibility Score: inf
ROOT
ATOM      1  C   UNL     1      26.030  40.478  28.130  1.00  0.00     0.000 C 
ENDROOT
BRANCH   1   2
ATOM      2  C   UNL     1      25.350  41.065  26.880  1.00  0.00     0.000 C 
BRANCH   2   3
ATOM      3  C   UNL     1      26.356  41.648  25.873  1.00  0.00     0.000 C 
BRANCH   3   4
ATOM      4  C   UNL     1      27.758  41.828  26.478  1.00  0.00     0.006 C 
BRANCH   4   5
ATOM      5  C   UNL     1      28.293  43.257  26.319  1.00  0.00     0.053 C 
BRANCH   5   6
ATOM      6  C   UNL     1      29.788  43.262  26.361  1.00  0.00     0.041 C 
ATOM      7  O   UNL     1      30.409  42.363  26.986  1.00  0.00    -0.550 OA
ATOM      8  O   UNL     1      30.496  44.291  25.752  1.00  0.00    -0.550 OA
ENDBRANCH   5   6
ENDBRANCH   4   5
ENDBRANCH   3   4
ENDBRANCH   2   3
ENDBRANCH   1   2
BRANCH   1   9
ATOM      9  C   UNL     1      25.200  39.426  28.894  1.00  0.00     0.000 C 
BRANCH   9  10
ATOM     10  C   UNL     1      25.693  37.972  28.750  1.00  0.00    -0.000 C 
BRANCH  10  11
ATOM     11  C   UNL     1      25.655  37.414  27.317  1.00  0.00    -0.000 C 
BRANCH  11  12
ATOM     12  C   UNL     1      27.057  37.118  26.757  1.00  0.00    -0.000 C 
BRANCH  12  13
ATOM     13  C   UNL     1      27.436  38.049  25.595  1.00  0.00    -0.003 C 
ATOM     14  C   UNL     1      26.326  38.170  24.551  1.00  0.00     0.004 C 
ENDBRANCH  12  13
ENDBRANCH  11  12
ENDBRANCH  10  11
ENDBRANCH   9  10
ENDBRANCH   1   9
TORSDOF 10
ENDMDL
MODEL 6
REMARK VINA RESULT:    -3.052     16.934     18.378
REMARK INTER + INTRA:          -6.203
REMARK INTER:                  -5.429
REMARK INTRA:                  -0.774
REMARK UNBOUND:                -1.367
REMARK SMILES CCCCCCCCCCCC(=O)[O-]
REMARK SMILES IDX 7 1 8 2 9 3 10 4 11 5 12 6 13 7 14 8 6 9 5 10 4 11 3 12 2 13
REMARK SMILES IDX 1 14
REMARK H PARENT
REMARK Flexibility Score: inf
ROOT
ATOM      1  C   UNL     1      24.970  40.209  26.497  1.00  0.00     0.000 C 
ENDROOT
BRANCH   1   2
ATOM      2  C   UNL     1      25.776  40.947  27.581  1.00  0.00     0.000 C 
BRANCH   2   3
ATOM      3  C   UNL     1      26.329  42.298  27.096  1.00  0.00     0.000 C 
BRANCH   3   4
ATOM      4  C   UNL     1      27.863  42.366  27.165  1.00  0.00     0.006 C 
BRANCH   4   5
ATOM      5  C   UNL     1      28.450  43.442  26.243  1.00  0.00     0.053 C 
BRANCH   5   6
ATOM      6  C   UNL     1      29.943  43.448  26.334  1.00  0.00     0.041 C 
ATOM      7  O   UNL     1      30.611  44.345  25.754  1.00  0.00    -0.550 OA
ATOM      8  O   UNL     1      30.602  42.434  27.018  1.00  0.00    -0.550 OA
ENDBRANCH   5   6
ENDBRANCH   4   5
ENDBRANCH   3   4
ENDBRANCH   2   3
ENDBRANCH   1   2
BRANCH   1   9
ATOM      9  C   UNL     1      25.328  40.584  25.045  1.00  0.00     0.000 C 
BRANCH   9  10
ATOM     10  C   UNL     1      25.149  39.452  24.013  1.00  0.00    -0.000 C 
BRANCH  10  11
ATOM     11  C   UNL     1      25.426  38.037  24.550  1.00  0.00    -0.000 C 
BRANCH  11  12
ATOM     12  C   UNL     1      26.371  37.231  23.642  1.00  0.00    -0.000 C 
BRANCH  12  13
ATOM     13  C   UNL     1      27.818  37.225  24.158  1.00  0.00    -0.003 C 
ATOM     14  C   UNL     1      27.912  37.515  25.655  1.00  0.00     0.004 C 
ENDBRANCH  12  13
ENDBRANCH  11  12
ENDBRANCH  10  11
ENDBRANCH   9  10
ENDBRANCH   1   9
TORSDOF 10
ENDMDL
MODEL 7
REMARK VINA RESULT:    -3.051     15.930     17.374
REMARK INTER + INTRA:          -6.201
REMARK INTER:                  -5.401
REMARK INTRA:                  -0.800
REMARK UNBOUND:                -1.367
REMARK SMILES CCCCCCCCCCCC(=O)[O-]
REMARK SMILES IDX 7 1 8 2 9 3 10 4 11 5 12 6 13 7 14 8 6 9 5 10 4 11 3 12 2 13
REMARK SMILES IDX 1 14
REMARK H PARENT
REMARK Flexibility Score: inf
ROOT
ATOM      1  C   UNL     1      25.365  40.579  24.566  1.00  0.00     0.000 C 
ENDROOT
BRANCH   1   2
ATOM      2  C   UNL     1      26.190  41.756  25.120  1.00  0.00     0.000 C 
BRANCH   2   3
ATOM      3  C   UNL     1      26.336  41.713  26.650  1.00  0.00     0.000 C 
BRANCH   3   4
ATOM      4  C   UNL     1      27.447  42.644  27.162  1.00  0.00     0.006 C 
BRANCH   4   5
ATOM      5  C   UNL     1      28.317  43.206  26.031  1.00  0.00     0.053 C 
BRANCH   5   6
ATOM      6  C   UNL     1      29.746  43.291  26.465  1.00  0.00     0.041 C 
ATOM      7  O   UNL     1      30.517  44.141  25.949  1.00  0.00    -0.550 OA
ATOM      8  O   UNL     1      30.240  42.395  27.406  1.00  0.00    -0.550 OA
ENDBRANCH   5   6
ENDBRANCH   4   5
ENDBRANCH   3   4
ENDBRANCH   2   3
ENDBRANCH   1   2
BRANCH   1   9
ATOM      9  C   UNL     1      24.930  39.535  25.614  1.00  0.00     0.000 C 
BRANCH   9  10
ATOM     10  C   UNL     1      25.919  38.373  25.832  1.00  0.00    -0.000 C 
BRANCH  10  11
ATOM     11  C   UNL     1      25.920  37.782  27.253  1.00  0.00    -0.000 C 
BRANCH  11  12
ATOM     12  C   UNL     1      24.894  38.458  28.178  1.00  0.00    -0.000 C 
BRANCH  12  13
ATOM     13  C   UNL     1      25.559  39.271  29.299  1.00  0.00    -0.003 C 
ATOM     14  C   UNL     1      26.125  38.388  30.411  1.00  0.00     0.004 C 
ENDBRANCH  12  13
ENDBRANCH  11  12
ENDBRANCH  10  11
ENDBRANCH   9  10
ENDBRANCH   1   9
TORSDOF 10
ENDMDL
MODEL 8
REMARK VINA RESULT:    -3.028     15.724     16.980
REMARK INTER + INTRA:          -6.165
REMARK INTER:                  -5.240
REMARK INTRA:                  -0.925
REMARK UNBOUND:                -1.367
REMARK SMILES CCCCCCCCCCCC(=O)[O-]
REMARK SMILES IDX 7 1 8 2 9 3 10 4 11 5 12 6 13 7 14 8 6 9 5 10 4 11 3 12 2 13
REMARK SMILES IDX 1 14
REMARK H PARENT
REMARK Flexibility Score: inf
ROOT
ATOM      1  C   UNL     1      25.350  40.508  25.394  1.00  0.00     0.000 C 
ENDROOT
BRANCH   1   2
ATOM      2  C   UNL     1      25.983  39.161  25.002  1.00  0.00     0.000 C 
BRANCH   2   3
ATOM      3  C   UNL     1      26.613  38.428  26.198  1.00  0.00     0.000 C 
BRANCH   3   4
ATOM      4  C   UNL     1      25.561  37.913  27.194  1.00  0.00     0.006 C 
BRANCH   4   5
ATOM      5  C   UNL     1      26.047  37.966  28.648  1.00  0.00     0.053 C 
BRANCH   5   6
ATOM      6  C   UNL     1      25.303  39.018  29.409  1.00  0.00     0.041 C 
ATOM      7  O   UNL     1      25.085  40.143  28.888  1.00  0.00    -0.550 OA
ATOM      8  O   UNL     1      24.895  38.773  30.714  1.00  0.00    -0.550 OA
ENDBRANCH   5   6
ENDBRANCH   4   5
ENDBRANCH   3   4
ENDBRANCH   2   3
ENDBRANCH   1   2
BRANCH   1   9
ATOM      9  C   UNL     1      26.309  41.715  25.368  1.00  0.00     0.000 C 
BRANCH   9  10
ATOM     10  C   UNL     1      26.382  42.523  26.679  1.00  0.00    -0.000 C 
BRANCH  10  11
ATOM     11  C   UNL     1      27.741  42.465  27.399  1.00  0.00    -0.000 C 
BRANCH  11  12
ATOM     12  C   UNL     1      28.869  41.934  26.498  1.00  0.00    -0.000 C 
BRANCH  12  13
ATOM     13  C   UNL     1      30.207  42.648  26.747  1.00  0.00    -0.003 C 
ATOM     14  C   UNL     1      30.216  44.082  26.221  1.00  0.00     0.004 C 
ENDBRANCH  12  13
ENDBRANCH  11  12
ENDBRANCH  10  11
ENDBRANCH   9  10
ENDBRANCH   1   9
TORSDOF 10
ENDMDL
MODEL 9
REMARK VINA RESULT:    -2.916      3.072      5.449
REMARK INTER + INTRA:          -5.987
REMARK INTER:                  -4.975
REMARK INTRA:                  -1.012
REMARK UNBOUND:                -1.367
REMARK SMILES CCCCCCCCCCCC(=O)[O-]
REMARK SMILES IDX 7 1 8 2 9 3 10 4 11 5 12 6 13 7 14 8 6 9 5 10 4 11 3 12 2 13
REMARK SMILES IDX 1 14
REMARK H PARENT
REMARK Flexibility Score: inf
ROOT
ATOM      1  C   UNL     1      28.995  51.198  38.524  1.00  0.00     0.000 C 
ENDROOT
BRANCH   1   2
ATOM      2  C   UNL     1      28.586  52.640  38.175  1.00  0.00     0.000 C 
BRANCH   2   3
ATOM      3  C   UNL     1      27.480  53.185  39.094  1.00  0.00     0.000 C 
BRANCH   3   4
ATOM      4  C   UNL     1      27.192  52.256  40.284  1.00  0.00     0.006 C 
BRANCH   4   5
ATOM      5  C   UNL     1      27.412  52.942  41.638  1.00  0.00     0.053 C 
BRANCH   5   6
ATOM      6  C   UNL     1      28.765  53.579  41.687  1.00  0.00     0.041 C 
ATOM      7  O   UNL     1      29.801  52.865  41.736  1.00  0.00    -0.550 OA
ATOM      8  O   UNL     1      28.880  54.963  41.730  1.00  0.00    -0.550 OA
ENDBRANCH   5   6
ENDBRANCH   4   5
ENDBRANCH   3   4
ENDBRANCH   2   3
ENDBRANCH   1   2
BRANCH   1   9
ATOM      9  C   UNL     1      30.501  50.989  38.786  1.00  0.00     0.000 C 
BRANCH   9  10
ATOM     10  C   UNL     1      30.837  50.029  39.944  1.00  0.00    -0.000 C 
BRANCH  10  11
ATOM     11  C   UNL     1      29.618  49.380  40.622  1.00  0.00    -0.000 C 
BRANCH  11  12
ATOM     12  C   UNL     1      29.994  48.157  41.476  1.00  0.00    -0.000 C 
BRANCH  12  13
ATOM     13  C   UNL     1      30.207  46.892  40.631  1.00  0.00    -0.003 C 
ATOM     14  C   UNL     1      31.289  45.977  41.202  1.00  0.00     0.004 C 
ENDBRANCH  12  13
ENDBRANCH  11  12
ENDBRANCH  10  11
ENDBRANCH   9  10
ENDBRANCH   1   9
TORSDOF 10
ENDMDL
