MODEL 1
REMARK VINA RESULT:    61.788      0.000      0.000
REMARK INTER + INTRA:          87.880
REMARK INTER:                  88.880
REMARK INTRA:                  -0.999
REMARK UNBOUND:                -0.999
REMARK SMILES O=c1c(O[C@@H]2O[C@@H](CO)[C@@H](O)[C@H](O)[C@@H]2O)c(-c2ccc(O)cc2)oc2cc(O)cc(O)c12
REMARK SMILES IDX 4 1 3 2 16 3 24 4 2 5 25 6 1 7 32 8 26 9 30 10 27 11 29 12
REMARK SMILES IDX 17 13 18 14 19 15 20 16 23 17 22 18 21 19 31 21 28 23 5 25
REMARK SMILES IDX 14 26 6 27 12 28 7 29 10 30 15 31 13 33 8 35 9 36 11 38
REMARK H PARENT 21 20 31 22 28 24 15 32 13 34 9 37 11 39
REMARK Flexibility Score: inf
ROOT
ATOM      1  O   UNL     1      -4.716   0.881   3.025  1.00  0.00    -0.454 OA
ENDROOT
BRANCH   1   2
ATOM      2  C   UNL     1      -3.384   0.422   3.031  1.00  0.00     0.214 A 
ATOM      3  C   UNL     1      -3.037  -0.627   2.155  1.00  0.00     0.180 A 
ATOM      4  O   UNL     1      -1.780  -1.051   2.081  1.00  0.00    -0.452 OA
ATOM      5  C   UNL     1      -2.366   0.984   3.835  1.00  0.00     0.239 A 
ATOM      6  C   UNL     1      -0.798  -0.552   2.818  1.00  0.00     0.146 A 
ATOM      7  O   UNL     1      -2.628   1.937   4.615  1.00  0.00    -0.285 OA
ATOM      8  C   UNL     1      -1.048   0.489   3.741  1.00  0.00     0.111 A 
ATOM      9  C   UNL     1       0.492  -1.071   2.674  1.00  0.00     0.094 A 
ATOM     10  C   UNL     1       0.025   0.995   4.515  1.00  0.00     0.134 A 
ATOM     11  C   UNL     1       1.547  -0.568   3.440  1.00  0.00     0.123 A 
ATOM     12  C   UNL     1       1.312   0.459   4.356  1.00  0.00     0.093 A 
BRANCH   3  13
ATOM     13  C   UNL     1      -4.042  -1.287   1.290  1.00  0.00     0.021 A 
ATOM     14  C   UNL     1      -5.054  -2.067   1.874  1.00  0.00     0.016 A 
ATOM     15  C   UNL     1      -6.021  -2.683   1.073  1.00  0.00     0.047 A 
ATOM     16  C   UNL     1      -5.997  -2.514  -0.318  1.00  0.00     0.115 A 
ATOM     17  C   UNL     1      -4.038  -1.102  -0.105  1.00  0.00     0.016 A 
ATOM     18  C   UNL     1      -5.005  -1.721  -0.902  1.00  0.00     0.047 A 
BRANCH  16  19
ATOM     19  O   UNL     1      -6.954  -3.124  -1.125  1.00  0.00    -0.508 OA
ATOM     20  H   UNL     1      -6.692  -3.660  -1.945  1.00  0.00     0.293 HD
ENDBRANCH  16  19
ENDBRANCH   3  13
BRANCH  10  21
ATOM     21  O   UNL     1      -0.175   2.021   5.439  1.00  0.00    -0.507 OA
ATOM     22  H   UNL     1      -0.423   1.831   6.404  1.00  0.00     0.293 HD
ENDBRANCH  10  21
BRANCH  11  23
ATOM     23  O   UNL     1       2.835  -1.081   3.299  1.00  0.00    -0.508 OA
ATOM     24  H   UNL     1       3.526  -0.624   2.715  1.00  0.00     0.293 HD
ENDBRANCH  11  23
ENDBRANCH   1   2
BRANCH   1  25
ATOM     25  C   UNL     1      -5.173   2.201   2.732  1.00  0.00     0.339 C 
ATOM     26  C   UNL     1      -5.074   2.409   1.212  1.00  0.00     0.214 C 
ATOM     27  O   UNL     1      -6.514   2.339   3.181  1.00  0.00    -0.332 OA
ATOM     28  C   UNL     1      -5.598   3.805   0.846  1.00  0.00     0.180 C 
ATOM     29  C   UNL     1      -7.048   3.635   2.935  1.00  0.00     0.179 C 
ATOM     30  C   UNL     1      -7.008   3.999   1.425  1.00  0.00     0.177 C 
BRANCH  26  31
ATOM     31  O   UNL     1      -5.821   1.414   0.555  1.00  0.00    -0.384 OA
ATOM     32  H   UNL     1      -6.467   1.878  -0.038  1.00  0.00     0.211 HD
ENDBRANCH  26  31
BRANCH  28  33
ATOM     33  O   UNL     1      -5.623   3.946  -0.552  1.00  0.00    -0.387 OA
ATOM     34  H   UNL     1      -5.322   3.081  -0.934  1.00  0.00     0.211 HD
ENDBRANCH  28  33
BRANCH  29  35
ATOM     35  C   UNL     1      -6.430   4.703   3.871  1.00  0.00     0.191 C 
BRANCH  35  36
ATOM     36  O   UNL     1      -7.316   5.774   4.065  1.00  0.00    -0.394 OA
ATOM     37  H   UNL     1      -6.921   6.348   4.772  1.00  0.00     0.210 HD
ENDBRANCH  35  36
ENDBRANCH  29  35
BRANCH  30  38
ATOM     38  O   UNL     1      -7.429   5.322   1.211  1.00  0.00    -0.387 OA
ATOM     39  H   UNL     1      -7.958   5.585   2.009  1.00  0.00     0.211 HD
ENDBRANCH  30  38
ENDBRANCH   1  25
TORSDOF 11
ENDMDL
MODEL 2
REMARK VINA RESULT:    64.578      0.807      2.140
REMARK INTER + INTRA:          91.893
REMARK INTER:                  92.781
REMARK INTRA:                  -0.887
REMARK UNBOUND:                -0.999
REMARK SMILES O=c1c(O[C@@H]2O[C@@H](CO)[C@@H](O)[C@H](O)[C@@H]2O)c(-c2ccc(O)cc2)oc2cc(O)cc(O)c12
REMARK SMILES IDX 4 1 3 2 16 3 24 4 2 5 25 6 1 7 32 8 26 9 30 10 27 11 29 12
REMARK SMILES IDX 17 13 18 14 19 15 20 16 23 17 22 18 21 19 31 21 28 23 5 25
REMARK SMILES IDX 14 26 6 27 12 28 7 29 10 30 15 31 13 33 8 35 9 36 11 38
REMARK H PARENT 21 20 31 22 28 24 15 32 13 34 9 37 11 39
REMARK Flexibility Score: inf
ROOT
ATOM      1  O   UNL     1      -4.970   0.661   3.444  1.00  0.00    -0.454 OA
ENDROOT
BRANCH   1   2
ATOM      2  C   UNL     1      -3.606   0.318   3.357  1.00  0.00     0.214 A 
ATOM      3  C   UNL     1      -3.213  -0.597   2.359  1.00  0.00     0.180 A 
ATOM      4  O   UNL     1      -1.929  -0.903   2.197  1.00  0.00    -0.452 OA
ATOM      5  C   UNL     1      -2.605   0.873   4.185  1.00  0.00     0.239 A 
ATOM      6  C   UNL     1      -0.961  -0.407   2.954  1.00  0.00     0.146 A 
ATOM      7  O   UNL     1      -2.910   1.710   5.075  1.00  0.00    -0.285 OA
ATOM      8  C   UNL     1      -1.256   0.503   3.995  1.00  0.00     0.111 A 
ATOM      9  C   UNL     1       0.359  -0.797   2.712  1.00  0.00     0.094 A 
ATOM     10  C   UNL     1      -0.196   1.010   4.786  1.00  0.00     0.134 A 
ATOM     11  C   UNL     1       1.401  -0.293   3.495  1.00  0.00     0.123 A 
ATOM     12  C   UNL     1       1.122   0.606   4.528  1.00  0.00     0.093 A 
BRANCH   3  13
ATOM     13  C   UNL     1      -4.196  -1.240   1.458  1.00  0.00     0.021 A 
ATOM     14  C   UNL     1      -3.867  -1.450   0.109  1.00  0.00     0.016 A 
ATOM     15  C   UNL     1      -4.778  -2.072  -0.752  1.00  0.00     0.047 A 
ATOM     16  C   UNL     1      -6.021  -2.503  -0.271  1.00  0.00     0.115 A 
ATOM     17  C   UNL     1      -5.437  -1.698   1.939  1.00  0.00     0.016 A 
ATOM     18  C   UNL     1      -6.345  -2.317   1.076  1.00  0.00     0.047 A 
BRANCH  16  19
ATOM     19  O   UNL     1      -6.936  -3.121  -1.120  1.00  0.00    -0.508 OA
ATOM     20  H   UNL     1      -6.731  -3.269  -2.102  1.00  0.00     0.293 HD
ENDBRANCH  16  19
ENDBRANCH   3  13
BRANCH  10  21
ATOM     21  O   UNL     1      -0.439   1.910   5.825  1.00  0.00    -0.507 OA
ATOM     22  H   UNL     1       0.072   1.867   6.700  1.00  0.00     0.293 HD
ENDBRANCH  10  21
BRANCH  11  23
ATOM     23  O   UNL     1       2.718  -0.677   3.257  1.00  0.00    -0.508 OA
ATOM     24  H   UNL     1       3.500  -0.149   3.627  1.00  0.00     0.293 HD
ENDBRANCH  11  23
ENDBRANCH   1   2
BRANCH   1  25
ATOM     25  C   UNL     1      -5.670   1.623   2.654  1.00  0.00     0.339 C 
ATOM     26  C   UNL     1      -6.605   2.409   3.587  1.00  0.00     0.214 C 
ATOM     27  O   UNL     1      -4.728   2.485   2.030  1.00  0.00    -0.332 OA
ATOM     28  C   UNL     1      -7.348   3.487   2.785  1.00  0.00     0.180 C 
ATOM     29  C   UNL     1      -5.343   3.474   1.212  1.00  0.00     0.179 C 
ATOM     30  C   UNL     1      -6.337   4.354   2.020  1.00  0.00     0.177 C 
BRANCH  26  31
ATOM     31  O   UNL     1      -5.851   2.994   4.620  1.00  0.00    -0.384 OA
ATOM     32  H   UNL     1      -4.936   3.141   4.266  1.00  0.00     0.211 HD
ENDBRANCH  26  31
BRANCH  28  33
ATOM     33  O   UNL     1      -8.107   4.284   3.659  1.00  0.00    -0.387 OA
ATOM     34  H   UNL     1      -7.502   4.559   4.396  1.00  0.00     0.211 HD
ENDBRANCH  28  33
BRANCH  29  35
ATOM     35  C   UNL     1      -5.928   2.869  -0.088  1.00  0.00     0.191 C 
BRANCH  35  36
ATOM     36  O   UNL     1      -5.988   3.832  -1.107  1.00  0.00    -0.394 OA
ATOM     37  H   UNL     1      -6.263   3.356  -1.934  1.00  0.00     0.210 HD
ENDBRANCH  35  36
ENDBRANCH  29  35
BRANCH  30  38
ATOM     38  O   UNL     1      -7.021   5.248   1.180  1.00  0.00    -0.387 OA
ATOM     39  H   UNL     1      -7.947   4.902   1.090  1.00  0.00     0.211 HD
ENDBRANCH  30  38
ENDBRANCH   1  25
TORSDOF 11
ENDMDL
