MODEL 1
REMARK VINA RESULT:    -6.823      0.000      0.000
REMARK INTER + INTRA:          -8.389
REMARK INTER:                  -8.219
REMARK INTRA:                  -0.170
REMARK UNBOUND:                -0.170
REMARK SMILES O=c1c(O)c(-c2ccc(O)c(O)c2)oc2cc(O)cc(O)c12
REMARK SMILES IDX 5 1 3 2 2 3 1 4 22 5 20 6 19 7 17 8 16 9 15 10 14 11 6 12
REMARK SMILES IDX 7 13 8 14 9 15 13 16 11 17 10 18 12 20 4 22 21 24 18 26
REMARK H PARENT 10 19 12 21 4 23 21 25 18 27
REMARK Flexibility Score: inf
ROOT
ATOM      1  C   UNL     1       5.624  -6.989  -4.349  1.00  0.00     0.180 A 
ATOM      2  C   UNL     1       6.938  -7.126  -3.859  1.00  0.00     0.208 A 
ATOM      3  C   UNL     1       8.011  -6.752  -4.683  1.00  0.00     0.238 A 
ATOM      4  O   UNL     1       9.191  -6.861  -4.252  1.00  0.00    -0.285 OA
ATOM      5  C   UNL     1       7.756  -6.271  -5.985  1.00  0.00     0.111 A 
ATOM      6  C   UNL     1       8.781  -5.878  -6.879  1.00  0.00     0.134 A 
ATOM      7  C   UNL     1       8.446  -5.418  -8.161  1.00  0.00     0.093 A 
ATOM      8  C   UNL     1       7.111  -5.342  -8.565  1.00  0.00     0.123 A 
ATOM      9  C   UNL     1       6.095  -5.729  -7.686  1.00  0.00     0.094 A 
ATOM     10  C   UNL     1       6.407  -6.189  -6.404  1.00  0.00     0.146 A 
ATOM     11  O   UNL     1       5.423  -6.546  -5.587  1.00  0.00    -0.452 OA
ENDROOT
BRANCH   1  12
ATOM     12  C   UNL     1       4.440  -7.344  -3.534  1.00  0.00     0.025 A 
ATOM     13  C   UNL     1       4.199  -8.669  -3.131  1.00  0.00     0.016 A 
ATOM     14  C   UNL     1       3.089  -8.975  -2.340  1.00  0.00     0.051 A 
ATOM     15  C   UNL     1       2.212  -7.967  -1.929  1.00  0.00     0.157 A 
ATOM     16  C   UNL     1       3.570  -6.329  -3.102  1.00  0.00     0.062 A 
ATOM     17  C   UNL     1       2.454  -6.636  -2.308  1.00  0.00     0.158 A 
BRANCH  15  18
ATOM     18  O   UNL     1       1.111  -8.305  -1.143  1.00  0.00    -0.504 OA
ATOM     19  H   UNL     1       1.136  -9.076  -0.486  1.00  0.00     0.293 HD
ENDBRANCH  15  18
BRANCH  17  20
ATOM     20  O   UNL     1       1.589  -5.624  -1.896  1.00  0.00    -0.504 OA
ATOM     21  H   UNL     1       0.877  -5.788  -1.194  1.00  0.00     0.293 HD
ENDBRANCH  17  20
ENDBRANCH   1  12
BRANCH   2  22
ATOM     22  O   UNL     1       7.165  -7.652  -2.586  1.00  0.00    -0.502 OA
ATOM     23  H   UNL     1       7.941  -7.355  -2.006  1.00  0.00     0.293 HD
ENDBRANCH   2  22
BRANCH   6  24
ATOM     24  O   UNL     1      10.124  -5.941  -6.506  1.00  0.00    -0.507 OA
ATOM     25  H   UNL     1      10.662  -5.107  -6.306  1.00  0.00     0.293 HD
ENDBRANCH   6  24
BRANCH   8  26
ATOM     26  O   UNL     1       6.806  -4.882  -9.844  1.00  0.00    -0.508 OA
ATOM     27  H   UNL     1       7.126  -3.980 -10.173  1.00  0.00     0.293 HD
ENDBRANCH   8  26
TORSDOF 6
ENDMDL
MODEL 2
REMARK VINA RESULT:    -6.808     12.528     14.086
REMARK INTER + INTRA:          -8.372
REMARK INTER:                  -8.136
REMARK INTRA:                  -0.236
REMARK UNBOUND:                -0.170
REMARK SMILES O=c1c(O)c(-c2ccc(O)c(O)c2)oc2cc(O)cc(O)c12
REMARK SMILES IDX 5 1 3 2 2 3 1 4 22 5 20 6 19 7 17 8 16 9 15 10 14 11 6 12
REMARK SMILES IDX 7 13 8 14 9 15 13 16 11 17 10 18 12 20 4 22 21 24 18 26
REMARK H PARENT 10 19 12 21 4 23 21 25 18 27
REMARK Flexibility Score: inf
ROOT
ATOM      1  C   UNL     1       6.561   6.671  -5.534  1.00  0.00     0.180 A 
ATOM      2  C   UNL     1       7.598   7.422  -4.947  1.00  0.00     0.208 A 
ATOM      3  C   UNL     1       8.449   6.796  -4.022  1.00  0.00     0.238 A 
ATOM      4  O   UNL     1       9.388   7.456  -3.498  1.00  0.00    -0.285 OA
ATOM      5  C   UNL     1       8.237   5.443  -3.684  1.00  0.00     0.111 A 
ATOM      6  C   UNL     1       9.046   4.740  -2.759  1.00  0.00     0.134 A 
ATOM      7  C   UNL     1       8.765   3.398  -2.469  1.00  0.00     0.093 A 
ATOM      8  C   UNL     1       7.694   2.744  -3.084  1.00  0.00     0.123 A 
ATOM      9  C   UNL     1       6.892   3.433  -4.000  1.00  0.00     0.094 A 
ATOM     10  C   UNL     1       7.157   4.772  -4.303  1.00  0.00     0.146 A 
ATOM     11  O   UNL     1       6.382   5.401  -5.179  1.00  0.00    -0.452 OA
ENDROOT
BRANCH   1  12
ATOM     12  C   UNL     1       5.635   7.254  -6.531  1.00  0.00     0.025 A 
ATOM     13  C   UNL     1       5.690   6.884  -7.886  1.00  0.00     0.016 A 
ATOM     14  C   UNL     1       4.789   7.429  -8.804  1.00  0.00     0.051 A 
ATOM     15  C   UNL     1       3.814   8.339  -8.384  1.00  0.00     0.157 A 
ATOM     16  C   UNL     1       4.641   8.152  -6.108  1.00  0.00     0.062 A 
ATOM     17  C   UNL     1       3.736   8.701  -7.029  1.00  0.00     0.158 A 
BRANCH  15  18
ATOM     18  O   UNL     1       2.931   8.868  -9.325  1.00  0.00    -0.504 OA
ATOM     19  H   UNL     1       2.138   8.341  -9.674  1.00  0.00     0.293 HD
ENDBRANCH  15  18
BRANCH  17  20
ATOM     20  O   UNL     1       2.762   9.602  -6.602  1.00  0.00    -0.504 OA
ATOM     21  H   UNL     1       2.570   9.748  -5.617  1.00  0.00     0.293 HD
ENDBRANCH  17  20
ENDBRANCH   1  12
BRANCH   2  22
ATOM     22  O   UNL     1       7.756   8.773  -5.261  1.00  0.00    -0.502 OA
ATOM     23  H   UNL     1       7.480   9.514  -4.628  1.00  0.00     0.293 HD
ENDBRANCH   2  22
BRANCH   6  24
ATOM     24  O   UNL     1      10.122   5.364  -2.127  1.00  0.00    -0.507 OA
ATOM     25  H   UNL     1      10.525   6.223  -2.482  1.00  0.00     0.293 HD
ENDBRANCH   6  24
BRANCH   8  26
ATOM     26  O   UNL     1       7.436   1.410  -2.778  1.00  0.00    -0.508 OA
ATOM     27  H   UNL     1       6.527   0.994  -2.945  1.00  0.00     0.293 HD
ENDBRANCH   8  26
TORSDOF 6
ENDMDL
MODEL 3
REMARK VINA RESULT:    -6.572     15.636     17.058
REMARK INTER + INTRA:          -8.087
REMARK INTER:                  -8.410
REMARK INTRA:                   0.323
REMARK UNBOUND:                -0.170
REMARK SMILES O=c1c(O)c(-c2ccc(O)c(O)c2)oc2cc(O)cc(O)c12
REMARK SMILES IDX 5 1 3 2 2 3 1 4 22 5 20 6 19 7 17 8 16 9 15 10 14 11 6 12
REMARK SMILES IDX 7 13 8 14 9 15 13 16 11 17 10 18 12 20 4 22 21 24 18 26
REMARK H PARENT 10 19 12 21 4 23 21 25 18 27
REMARK Flexibility Score: inf
ROOT
ATOM      1  C   UNL     1       2.812   1.932   9.181  1.00  0.00     0.180 A 
ATOM      2  C   UNL     1       4.025   1.260   8.933  1.00  0.00     0.208 A 
ATOM      3  C   UNL     1       5.213   2.005   8.869  1.00  0.00     0.238 A 
ATOM      4  O   UNL     1       6.306   1.413   8.658  1.00  0.00    -0.285 OA
ATOM      5  C   UNL     1       5.166   3.406   9.031  1.00  0.00     0.111 A 
ATOM      6  C   UNL     1       6.316   4.230   8.976  1.00  0.00     0.134 A 
ATOM      7  C   UNL     1       6.186   5.617   9.138  1.00  0.00     0.093 A 
ATOM      8  C   UNL     1       4.933   6.195   9.354  1.00  0.00     0.123 A 
ATOM      9  C   UNL     1       3.793   5.386   9.410  1.00  0.00     0.094 A 
ATOM     10  C   UNL     1       3.902   4.001   9.252  1.00  0.00     0.146 A 
ATOM     11  O   UNL     1       2.806   3.256   9.314  1.00  0.00    -0.452 OA
ENDROOT
BRANCH   1  12
ATOM     12  C   UNL     1       1.522   1.213   9.282  1.00  0.00     0.025 A 
ATOM     13  C   UNL     1       0.465   1.711  10.065  1.00  0.00     0.016 A 
ATOM     14  C   UNL     1      -0.752   1.029  10.124  1.00  0.00     0.051 A 
ATOM     15  C   UNL     1      -0.939  -0.150   9.396  1.00  0.00     0.157 A 
ATOM     16  C   UNL     1       1.324   0.041   8.534  1.00  0.00     0.062 A 
ATOM     17  C   UNL     1       0.102  -0.646   8.594  1.00  0.00     0.158 A 
BRANCH  15  18
ATOM     18  O   UNL     1      -2.165  -0.810   9.478  1.00  0.00    -0.504 OA
ATOM     19  H   UNL     1      -2.808  -0.850   8.695  1.00  0.00     0.293 HD
ENDBRANCH  15  18
BRANCH  17  20
ATOM     20  O   UNL     1      -0.080  -1.816   7.859  1.00  0.00    -0.504 OA
ATOM     21  H   UNL     1      -0.995  -2.096   7.525  1.00  0.00     0.293 HD
ENDBRANCH  17  20
ENDBRANCH   1  12
BRANCH   2  22
ATOM     22  O   UNL     1       4.037  -0.121   8.727  1.00  0.00    -0.502 OA
ATOM     23  H   UNL     1       4.669  -0.740   9.223  1.00  0.00     0.293 HD
ENDBRANCH   2  22
BRANCH   6  24
ATOM     24  O   UNL     1       7.582   3.684   8.761  1.00  0.00    -0.507 OA
ATOM     25  H   UNL     1       7.762   3.034   8.005  1.00  0.00     0.293 HD
ENDBRANCH   6  24
BRANCH   8  26
ATOM     26  O   UNL     1       4.831   7.576   9.511  1.00  0.00    -0.508 OA
ATOM     27  H   UNL     1       4.493   7.987  10.372  1.00  0.00     0.293 HD
ENDBRANCH   8  26
TORSDOF 6
ENDMDL
MODEL 4
REMARK VINA RESULT:    -6.482     13.237     14.022
REMARK INTER + INTRA:          -7.979
REMARK INTER:                  -7.779
REMARK INTRA:                  -0.200
REMARK UNBOUND:                -0.170
REMARK SMILES O=c1c(O)c(-c2ccc(O)c(O)c2)oc2cc(O)cc(O)c12
REMARK SMILES IDX 5 1 3 2 2 3 1 4 22 5 20 6 19 7 17 8 16 9 15 10 14 11 6 12
REMARK SMILES IDX 7 13 8 14 9 15 13 16 11 17 10 18 12 20 4 22 21 24 18 26
REMARK H PARENT 10 19 12 21 4 23 21 25 18 27
REMARK Flexibility Score: inf
ROOT
ATOM      1  C   UNL     1       8.098   6.283  -1.936  1.00  0.00     0.180 A 
ATOM      2  C   UNL     1       8.744   5.196  -2.557  1.00  0.00     0.208 A 
ATOM      3  C   UNL     1       8.341   4.814  -3.846  1.00  0.00     0.238 A 
ATOM      4  O   UNL     1       8.919   3.849  -4.416  1.00  0.00    -0.285 OA
ATOM      5  C   UNL     1       7.290   5.508  -4.482  1.00  0.00     0.111 A 
ATOM      6  C   UNL     1       6.822   5.184  -5.778  1.00  0.00     0.134 A 
ATOM      7  C   UNL     1       5.765   5.915  -6.339  1.00  0.00     0.093 A 
ATOM      8  C   UNL     1       5.169   6.963  -5.632  1.00  0.00     0.123 A 
ATOM      9  C   UNL     1       5.628   7.288  -4.352  1.00  0.00     0.094 A 
ATOM     10  C   UNL     1       6.681   6.571  -3.776  1.00  0.00     0.146 A 
ATOM     11  O   UNL     1       7.100   6.903  -2.561  1.00  0.00    -0.452 OA
ENDROOT
BRANCH   1  12
ATOM     12  C   UNL     1       8.478   6.757  -0.586  1.00  0.00     0.025 A 
ATOM     13  C   UNL     1       9.742   7.320  -0.337  1.00  0.00     0.016 A 
ATOM     14  C   UNL     1      10.069   7.783   0.939  1.00  0.00     0.051 A 
ATOM     15  C   UNL     1       9.139   7.705   1.981  1.00  0.00     0.157 A 
ATOM     16  C   UNL     1       7.539   6.700   0.457  1.00  0.00     0.062 A 
ATOM     17  C   UNL     1       7.866   7.164   1.739  1.00  0.00     0.158 A 
BRANCH  15  18
ATOM     18  O   UNL     1       9.497   8.174   3.245  1.00  0.00    -0.504 OA
ATOM     19  H   UNL     1      10.455   8.405   3.482  1.00  0.00     0.293 HD
ENDBRANCH  15  18
BRANCH  17  20
ATOM     20  O   UNL     1       6.931   7.090   2.771  1.00  0.00    -0.504 OA
ATOM     21  H   UNL     1       7.074   7.572   3.651  1.00  0.00     0.293 HD
ENDBRANCH  17  20
ENDBRANCH   1  12
BRANCH   2  22
ATOM     22  O   UNL     1       9.748   4.495  -1.885  1.00  0.00    -0.502 OA
ATOM     23  H   UNL     1      10.612   4.933  -1.589  1.00  0.00     0.293 HD
ENDBRANCH   2  22
BRANCH   6  24
ATOM     24  O   UNL     1       7.395   4.143  -6.510  1.00  0.00    -0.507 OA
ATOM     25  H   UNL     1       7.334   3.179  -6.204  1.00  0.00     0.293 HD
ENDBRANCH   6  24
BRANCH   8  26
ATOM     26  O   UNL     1       4.121   7.673  -6.212  1.00  0.00    -0.508 OA
ATOM     27  H   UNL     1       4.220   8.648  -6.471  1.00  0.00     0.293 HD
ENDBRANCH   8  26
TORSDOF 6
ENDMDL
MODEL 5
REMARK VINA RESULT:    -6.474      1.888      6.809
REMARK INTER + INTRA:          -7.969
REMARK INTER:                  -7.664
REMARK INTRA:                  -0.306
REMARK UNBOUND:                -0.170
REMARK SMILES O=c1c(O)c(-c2ccc(O)c(O)c2)oc2cc(O)cc(O)c12
REMARK SMILES IDX 5 1 3 2 2 3 1 4 22 5 20 6 19 7 17 8 16 9 15 10 14 11 6 12
REMARK SMILES IDX 7 13 8 14 9 15 13 16 11 17 10 18 12 20 4 22 21 24 18 26
REMARK H PARENT 10 19 12 21 4 23 21 25 18 27
REMARK Flexibility Score: inf
ROOT
ATOM      1  C   UNL     1       5.268  -7.293  -4.701  1.00  0.00     0.180 A 
ATOM      2  C   UNL     1       6.145  -7.599  -3.641  1.00  0.00     0.208 A 
ATOM      3  C   UNL     1       5.625  -8.193  -2.481  1.00  0.00     0.238 A 
ATOM      4  O   UNL     1       6.401  -8.480  -1.530  1.00  0.00    -0.285 OA
ATOM      5  C   UNL     1       4.241  -8.450  -2.390  1.00  0.00     0.111 A 
ATOM      6  C   UNL     1       3.637  -9.042  -1.254  1.00  0.00     0.134 A 
ATOM      7  C   UNL     1       2.251  -9.257  -1.237  1.00  0.00     0.093 A 
ATOM      8  C   UNL     1       1.459  -8.895  -2.329  1.00  0.00     0.123 A 
ATOM      9  C   UNL     1       2.051  -8.311  -3.454  1.00  0.00     0.094 A 
ATOM     10  C   UNL     1       3.430  -8.089  -3.491  1.00  0.00     0.146 A 
ATOM     11  O   UNL     1       3.967  -7.537  -4.573  1.00  0.00    -0.452 OA
ENDROOT
BRANCH   1  12
ATOM     12  C   UNL     1       5.744  -6.684  -5.963  1.00  0.00     0.025 A 
ATOM     13  C   UNL     1       5.962  -5.299  -6.072  1.00  0.00     0.016 A 
ATOM     14  C   UNL     1       6.436  -4.750  -7.265  1.00  0.00     0.051 A 
ATOM     15  C   UNL     1       6.710  -5.572  -8.363  1.00  0.00     0.157 A 
ATOM     16  C   UNL     1       6.041  -7.510  -7.060  1.00  0.00     0.062 A 
ATOM     17  C   UNL     1       6.515  -6.960  -8.261  1.00  0.00     0.158 A 
BRANCH  15  18
ATOM     18  O   UNL     1       7.179  -4.994  -9.542  1.00  0.00    -0.504 OA
ATOM     19  H   UNL     1       7.591  -5.547 -10.285  1.00  0.00     0.293 HD
ENDBRANCH  15  18
BRANCH  17  20
ATOM     20  O   UNL     1       6.794  -7.786  -9.348  1.00  0.00    -0.504 OA
ATOM     21  H   UNL     1       6.114  -7.943 -10.082  1.00  0.00     0.293 HD
ENDBRANCH  17  20
ENDBRANCH   1  12
BRANCH   2  22
ATOM     22  O   UNL     1       7.503  -7.288  -3.737  1.00  0.00    -0.502 OA
ATOM     23  H   UNL     1       7.833  -6.392  -4.076  1.00  0.00     0.293 HD
ENDBRANCH   2  22
BRANCH   6  24
ATOM     24  O   UNL     1       4.399  -9.414  -0.146  1.00  0.00    -0.507 OA
ATOM     25  H   UNL     1       4.890 -10.300  -0.110  1.00  0.00     0.293 HD
ENDBRANCH   6  24
BRANCH   8  26
ATOM     26  O   UNL     1       0.085  -9.120  -2.286  1.00  0.00    -0.508 OA
ATOM     27  H   UNL     1      -0.344  -9.882  -2.798  1.00  0.00     0.293 HD
ENDBRANCH   8  26
TORSDOF 6
ENDMDL
MODEL 6
REMARK VINA RESULT:    -6.465      1.551      1.556
REMARK INTER + INTRA:          -7.958
REMARK INTER:                  -7.634
REMARK INTRA:                  -0.324
REMARK UNBOUND:                -0.170
REMARK SMILES O=c1c(O)c(-c2ccc(O)c(O)c2)oc2cc(O)cc(O)c12
REMARK SMILES IDX 5 1 3 2 2 3 1 4 22 5 20 6 19 7 17 8 16 9 15 10 14 11 6 12
REMARK SMILES IDX 7 13 8 14 9 15 13 16 11 17 10 18 12 20 4 22 21 24 18 26
REMARK H PARENT 10 19 12 21 4 23 21 25 18 27
REMARK Flexibility Score: inf
ROOT
ATOM      1  C   UNL     1       5.542  -7.530  -5.177  1.00  0.00     0.180 A 
ATOM      2  C   UNL     1       6.581  -8.465  -5.004  1.00  0.00     0.208 A 
ATOM      3  C   UNL     1       7.674  -8.436  -5.885  1.00  0.00     0.238 A 
ATOM      4  O   UNL     1       8.615  -9.262  -5.733  1.00  0.00    -0.285 OA
ATOM      5  C   UNL     1       7.700  -7.492  -6.932  1.00  0.00     0.111 A 
ATOM      6  C   UNL     1       8.761  -7.399  -7.865  1.00  0.00     0.134 A 
ATOM      7  C   UNL     1       8.709  -6.438  -8.884  1.00  0.00     0.093 A 
ATOM      8  C   UNL     1       7.620  -5.569  -8.990  1.00  0.00     0.123 A 
ATOM      9  C   UNL     1       6.569  -5.656  -8.072  1.00  0.00     0.094 A 
ATOM     10  C   UNL     1       6.603  -6.606  -7.047  1.00  0.00     0.146 A 
ATOM     11  O   UNL     1       5.594  -6.664  -6.186  1.00  0.00    -0.452 OA
ENDROOT
BRANCH   1  12
ATOM     12  C   UNL     1       4.367  -7.485  -4.279  1.00  0.00     0.025 A 
ATOM     13  C   UNL     1       3.230  -8.277  -4.519  1.00  0.00     0.016 A 
ATOM     14  C   UNL     1       2.143  -8.236  -3.643  1.00  0.00     0.051 A 
ATOM     15  C   UNL     1       2.177  -7.419  -2.509  1.00  0.00     0.157 A 
ATOM     16  C   UNL     1       4.407  -6.681  -3.127  1.00  0.00     0.062 A 
ATOM     17  C   UNL     1       3.316  -6.639  -2.247  1.00  0.00     0.158 A 
BRANCH  15  18
ATOM     18  O   UNL     1       1.075  -7.398  -1.655  1.00  0.00    -0.504 OA
ATOM     19  H   UNL     1       1.028  -7.977  -0.824  1.00  0.00     0.293 HD
ENDBRANCH  15  18
BRANCH  17  20
ATOM     20  O   UNL     1       3.361  -5.827  -1.115  1.00  0.00    -0.504 OA
ATOM     21  H   UNL     1       3.427  -6.220  -0.183  1.00  0.00     0.293 HD
ENDBRANCH  17  20
ENDBRANCH   1  12
BRANCH   2  22
ATOM     22  O   UNL     1       6.507  -9.422  -3.990  1.00  0.00    -0.502 OA
ATOM     23  H   UNL     1       7.223 -10.126  -3.854  1.00  0.00     0.293 HD
ENDBRANCH   2  22
BRANCH   6  24
ATOM     24  O   UNL     1       9.863  -8.253  -7.787  1.00  0.00    -0.507 OA
ATOM     25  H   UNL     1      10.722  -7.974  -7.328  1.00  0.00     0.293 HD
ENDBRANCH   6  24
BRANCH   8  26
ATOM     26  O   UNL     1       7.593  -4.623 -10.013  1.00  0.00    -0.508 OA
ATOM     27  H   UNL     1       7.468  -4.894 -10.981  1.00  0.00     0.293 HD
ENDBRANCH   8  26
TORSDOF 6
ENDMDL
MODEL 7
REMARK VINA RESULT:    -6.369      2.203      2.797
REMARK INTER + INTRA:          -7.843
REMARK INTER:                  -7.539
REMARK INTRA:                  -0.304
REMARK UNBOUND:                -0.170
REMARK SMILES O=c1c(O)c(-c2ccc(O)c(O)c2)oc2cc(O)cc(O)c12
REMARK SMILES IDX 5 1 3 2 2 3 1 4 22 5 20 6 19 7 17 8 16 9 15 10 14 11 6 12
REMARK SMILES IDX 7 13 8 14 9 15 13 16 11 17 10 18 12 20 4 22 21 24 18 26
REMARK H PARENT 10 19 12 21 4 23 21 25 18 27
REMARK Flexibility Score: inf
ROOT
ATOM      1  C   UNL     1       4.930  -7.827  -4.593  1.00  0.00     0.180 A 
ATOM      2  C   UNL     1       5.058  -6.442  -4.817  1.00  0.00     0.208 A 
ATOM      3  C   UNL     1       5.714  -6.000  -5.976  1.00  0.00     0.238 A 
ATOM      4  O   UNL     1       5.826  -4.763  -6.193  1.00  0.00    -0.285 OA
ATOM      5  C   UNL     1       6.248  -6.945  -6.878  1.00  0.00     0.111 A 
ATOM      6  C   UNL     1       6.926  -6.583  -8.067  1.00  0.00     0.134 A 
ATOM      7  C   UNL     1       7.436  -7.582  -8.908  1.00  0.00     0.093 A 
ATOM      8  C   UNL     1       7.282  -8.933  -8.586  1.00  0.00     0.123 A 
ATOM      9  C   UNL     1       6.612  -9.296  -7.414  1.00  0.00     0.094 A 
ATOM     10  C   UNL     1       6.095  -8.316  -6.562  1.00  0.00     0.146 A 
ATOM     11  O   UNL     1       5.460  -8.688  -5.458  1.00  0.00    -0.452 OA
ENDROOT
BRANCH   1  12
ATOM     12  C   UNL     1       4.236  -8.370  -3.403  1.00  0.00     0.025 A 
ATOM     13  C   UNL     1       4.948  -8.762  -2.255  1.00  0.00     0.016 A 
ATOM     14  C   UNL     1       4.268  -9.247  -1.136  1.00  0.00     0.051 A 
ATOM     15  C   UNL     1       2.873  -9.338  -1.138  1.00  0.00     0.157 A 
ATOM     16  C   UNL     1       2.833  -8.441  -3.395  1.00  0.00     0.062 A 
ATOM     17  C   UNL     1       2.150  -8.930  -2.271  1.00  0.00     0.158 A 
BRANCH  15  18
ATOM     18  O   UNL     1       2.224  -9.829  -0.006  1.00  0.00    -0.504 OA
ATOM     19  H   UNL     1       1.979 -10.808   0.091  1.00  0.00     0.293 HD
ENDBRANCH  15  18
BRANCH  17  20
ATOM     20  O   UNL     1       0.759  -9.010  -2.278  1.00  0.00    -0.504 OA
ATOM     21  H   UNL     1       0.181  -8.186  -2.399  1.00  0.00     0.293 HD
ENDBRANCH  17  20
ENDBRANCH   1  12
BRANCH   2  22
ATOM     22  O   UNL     1       4.565  -5.527  -3.883  1.00  0.00    -0.502 OA
ATOM     23  H   UNL     1       3.743  -5.714  -3.322  1.00  0.00     0.293 HD
ENDBRANCH   2  22
BRANCH   6  24
ATOM     24  O   UNL     1       7.098  -5.243  -8.417  1.00  0.00    -0.507 OA
ATOM     25  H   UNL     1       6.310  -4.633  -8.596  1.00  0.00     0.293 HD
ENDBRANCH   6  24
BRANCH   8  26
ATOM     26  O   UNL     1       7.799  -9.906  -9.439  1.00  0.00    -0.508 OA
ATOM     27  H   UNL     1       8.163 -10.782  -9.084  1.00  0.00     0.293 HD
ENDBRANCH   8  26
TORSDOF 6
ENDMDL
MODEL 8
REMARK VINA RESULT:    -6.257     15.606     16.317
REMARK INTER + INTRA:          -7.707
REMARK INTER:                  -7.547
REMARK INTRA:                  -0.160
REMARK UNBOUND:                -0.170
REMARK SMILES O=c1c(O)c(-c2ccc(O)c(O)c2)oc2cc(O)cc(O)c12
REMARK SMILES IDX 5 1 3 2 2 3 1 4 22 5 20 6 19 7 17 8 16 9 15 10 14 11 6 12
REMARK SMILES IDX 7 13 8 14 9 15 13 16 11 17 10 18 12 20 4 22 21 24 18 26
REMARK H PARENT 10 19 12 21 4 23 21 25 18 27
REMARK Flexibility Score: inf
ROOT
ATOM      1  C   UNL     1       3.940   1.554   9.088  1.00  0.00     0.180 A 
ATOM      2  C   UNL     1       4.992   0.738   9.548  1.00  0.00     0.208 A 
ATOM      3  C   UNL     1       6.314   1.182   9.389  1.00  0.00     0.238 A 
ATOM      4  O   UNL     1       7.264   0.465   9.806  1.00  0.00    -0.285 OA
ATOM      5  C   UNL     1       6.562   2.419   8.757  1.00  0.00     0.111 A 
ATOM      6  C   UNL     1       7.864   2.937   8.555  1.00  0.00     0.134 A 
ATOM      7  C   UNL     1       8.029   4.171   7.910  1.00  0.00     0.093 A 
ATOM      8  C   UNL     1       6.922   4.897   7.465  1.00  0.00     0.123 A 
ATOM      9  C   UNL     1       5.633   4.390   7.663  1.00  0.00     0.094 A 
ATOM     10  C   UNL     1       5.447   3.163   8.305  1.00  0.00     0.146 A 
ATOM     11  O   UNL     1       4.214   2.707   8.484  1.00  0.00    -0.452 OA
ENDROOT
BRANCH   1  12
ATOM     12  C   UNL     1       2.520   1.163   9.237  1.00  0.00     0.025 A 
ATOM     13  C   UNL     1       1.630   1.919  10.021  1.00  0.00     0.016 A 
ATOM     14  C   UNL     1       0.289   1.544  10.125  1.00  0.00     0.051 A 
ATOM     15  C   UNL     1      -0.189   0.422   9.441  1.00  0.00     0.157 A 
ATOM     16  C   UNL     1       2.033   0.049   8.534  1.00  0.00     0.062 A 
ATOM     17  C   UNL     1       0.686  -0.329   8.638  1.00  0.00     0.158 A 
BRANCH  15  18
ATOM     18  O   UNL     1      -1.533   0.072   9.568  1.00  0.00    -0.504 OA
ATOM     19  H   UNL     1      -2.008   0.078  10.464  1.00  0.00     0.293 HD
ENDBRANCH  15  18
BRANCH  17  20
ATOM     20  O   UNL     1       0.216  -1.445   7.948  1.00  0.00    -0.504 OA
ATOM     21  H   UNL     1       0.849  -2.132   7.557  1.00  0.00     0.293 HD
ENDBRANCH  17  20
ENDBRANCH   1  12
BRANCH   2  22
ATOM     22  O   UNL     1       4.721  -0.505  10.125  1.00  0.00    -0.502 OA
ATOM     23  H   UNL     1       4.021  -0.628  10.846  1.00  0.00     0.293 HD
ENDBRANCH   2  22
BRANCH   6  24
ATOM     24  O   UNL     1       8.992   2.236   8.986  1.00  0.00    -0.507 OA
ATOM     25  H   UNL     1       9.189   1.295   8.669  1.00  0.00     0.293 HD
ENDBRANCH   6  24
BRANCH   8  26
ATOM     26  O   UNL     1       7.113   6.120   6.826  1.00  0.00    -0.508 OA
ATOM     27  H   UNL     1       7.027   6.997   7.325  1.00  0.00     0.293 HD
ENDBRANCH   8  26
TORSDOF 6
ENDMDL
MODEL 9
REMARK VINA RESULT:    -5.796      1.655      2.296
REMARK INTER + INTRA:          -7.152
REMARK INTER:                  -6.828
REMARK INTRA:                  -0.325
REMARK UNBOUND:                -0.170
REMARK SMILES O=c1c(O)c(-c2ccc(O)c(O)c2)oc2cc(O)cc(O)c12
REMARK SMILES IDX 5 1 3 2 2 3 1 4 22 5 20 6 19 7 17 8 16 9 15 10 14 11 6 12
REMARK SMILES IDX 7 13 8 14 9 15 13 16 11 17 10 18 12 20 4 22 21 24 18 26
REMARK H PARENT 10 19 12 21 4 23 21 25 18 27
REMARK Flexibility Score: inf
ROOT
ATOM      1  C   UNL     1       5.098  -7.277  -2.880  1.00  0.00     0.180 A 
ATOM      2  C   UNL     1       6.036  -7.136  -1.838  1.00  0.00     0.208 A 
ATOM      3  C   UNL     1       7.381  -6.903  -2.163  1.00  0.00     0.238 A 
ATOM      4  O   UNL     1       8.228  -6.765  -1.239  1.00  0.00    -0.285 OA
ATOM      5  C   UNL     1       7.770  -6.836  -3.518  1.00  0.00     0.111 A 
ATOM      6  C   UNL     1       9.105  -6.608  -3.930  1.00  0.00     0.134 A 
ATOM      7  C   UNL     1       9.412  -6.564  -5.297  1.00  0.00     0.093 A 
ATOM      8  C   UNL     1       8.415  -6.742  -6.259  1.00  0.00     0.123 A 
ATOM      9  C   UNL     1       7.094  -6.966  -5.858  1.00  0.00     0.094 A 
ATOM     10  C   UNL     1       6.766  -7.012  -4.500  1.00  0.00     0.146 A 
ATOM     11  O   UNL     1       5.504  -7.222  -4.146  1.00  0.00    -0.452 OA
ENDROOT
BRANCH   1  12
ATOM     12  C   UNL     1       3.660  -7.506  -2.617  1.00  0.00     0.025 A 
ATOM     13  C   UNL     1       3.140  -8.803  -2.466  1.00  0.00     0.016 A 
ATOM     14  C   UNL     1       1.783  -8.993  -2.193  1.00  0.00     0.051 A 
ATOM     15  C   UNL     1       0.928  -7.895  -2.054  1.00  0.00     0.157 A 
ATOM     16  C   UNL     1       2.803  -6.404  -2.455  1.00  0.00     0.062 A 
ATOM     17  C   UNL     1       1.440  -6.593  -2.182  1.00  0.00     0.158 A 
BRANCH  15  18
ATOM     18  O   UNL     1      -0.422  -8.117  -1.785  1.00  0.00    -0.504 OA
ATOM     19  H   UNL     1      -0.921  -8.915  -2.161  1.00  0.00     0.293 HD
ENDBRANCH  15  18
BRANCH  17  20
ATOM     20  O   UNL     1       0.596  -5.494  -2.037  1.00  0.00    -0.504 OA
ATOM     21  H   UNL     1       0.914  -4.551  -2.231  1.00  0.00     0.293 HD
ENDBRANCH  17  20
ENDBRANCH   1  12
BRANCH   2  22
ATOM     22  O   UNL     1       5.634  -7.257  -0.506  1.00  0.00    -0.502 OA
ATOM     23  H   UNL     1       6.290  -7.434   0.245  1.00  0.00     0.293 HD
ENDBRANCH   2  22
BRANCH   6  24
ATOM     24  O   UNL     1      10.125  -6.428  -2.995  1.00  0.00    -0.507 OA
ATOM     25  H   UNL     1       9.932  -6.342  -2.004  1.00  0.00     0.293 HD
ENDBRANCH   6  24
BRANCH   8  26
ATOM     26  O   UNL     1       8.747  -6.694  -7.611  1.00  0.00    -0.508 OA
ATOM     27  H   UNL     1       8.035  -6.668  -8.331  1.00  0.00     0.293 HD
ENDBRANCH   8  26
TORSDOF 6
ENDMDL
