MODEL 1
REMARK VINA RESULT:    -6.264      0.000      0.000
REMARK INTER + INTRA:         -16.033
REMARK INTER:                 -13.589
REMARK INTRA:                  -2.444
REMARK UNBOUND:                -2.444
REMARK SMILES CCCCCCCCCCCCCCCCCCCCCC(=O)[O-]
REMARK SMILES IDX 12 1 11 2 10 3 9 4 8 5 7 6 6 7 5 8 4 9 3 10 2 11 1 12 13 13
REMARK SMILES IDX 14 14 15 15 16 16 17 17 18 18 19 19 20 20 21 21 22 22 23 23
REMARK SMILES IDX 24 24
REMARK H PARENT
REMARK Flexibility Score: inf
ROOT
ATOM      1  C   UNL     1      -2.901  39.240 101.690  1.00  0.00     0.000 C 
ENDROOT
BRANCH   1   2
ATOM      2  C   UNL     1      -2.488  37.886 101.089  1.00  0.00     0.000 C 
BRANCH   2   3
ATOM      3  C   UNL     1      -3.276  36.709 101.682  1.00  0.00     0.000 C 
BRANCH   3   4
ATOM      4  C   UNL     1      -4.759  36.794 101.298  1.00  0.00    -0.000 C 
BRANCH   4   5
ATOM      5  C   UNL     1      -5.239  35.485 100.653  1.00  0.00    -0.000 C 
BRANCH   5   6
ATOM      6  C   UNL     1      -4.076  34.597 100.182  1.00  0.00    -0.000 C 
BRANCH   6   7
ATOM      7  C   UNL     1      -3.908  34.597  98.656  1.00  0.00    -0.000 C 
BRANCH   7   8
ATOM      8  C   UNL     1      -2.862  35.634  98.220  1.00  0.00    -0.000 C 
BRANCH   8   9
ATOM      9  C   UNL     1      -3.397  36.617  97.164  1.00  0.00    -0.000 C 
BRANCH   9  10
ATOM     10  C   UNL     1      -4.934  36.729  97.095  1.00  0.00    -0.000 C 
BRANCH  10  11
ATOM     11  C   UNL     1      -5.535  37.902  97.889  1.00  0.00    -0.003 C 
ATOM     12  C   UNL     1      -4.500  38.963  98.260  1.00  0.00     0.004 C 
ENDBRANCH  10  11
ENDBRANCH   9  10
ENDBRANCH   8   9
ENDBRANCH   7   8
ENDBRANCH   6   7
ENDBRANCH   5   6
ENDBRANCH   4   5
ENDBRANCH   3   4
ENDBRANCH   2   3
ENDBRANCH   1   2
BRANCH   1  13
ATOM     13  C   UNL     1      -1.868  39.784 102.689  1.00  0.00     0.000 C 
BRANCH  13  14
ATOM     14  C   UNL     1      -2.246  41.199 103.152  1.00  0.00     0.000 C 
BRANCH  14  15
ATOM     15  C   UNL     1      -3.255  41.891 102.218  1.00  0.00     0.000 C 
BRANCH  15  16
ATOM     16  C   UNL     1      -4.101  42.998 102.872  1.00  0.00     0.000 C 
BRANCH  16  17
ATOM     17  C   UNL     1      -4.247  42.824 104.394  1.00  0.00     0.000 C 
BRANCH  17  18
ATOM     18  C   UNL     1      -5.483  43.551 104.949  1.00  0.00     0.000 C 
BRANCH  18  19
ATOM     19  C   UNL     1      -6.759  43.238 104.148  1.00  0.00     0.000 C 
BRANCH  19  20
ATOM     20  C   UNL     1      -7.654  44.474 103.967  1.00  0.00     0.006 C 
BRANCH  20  21
ATOM     21  C   UNL     1      -6.938  45.776 104.348  1.00  0.00     0.053 C 
BRANCH  21  22
ATOM     22  C   UNL     1      -7.899  46.923 104.343  1.00  0.00     0.041 C 
ATOM     23  O   UNL     1      -9.139  46.710 104.350  1.00  0.00    -0.550 OA
ATOM     24  O   UNL     1      -7.423  48.228 104.290  1.00  0.00    -0.550 OA
ENDBRANCH  21  22
ENDBRANCH  20  21
ENDBRANCH  19  20
ENDBRANCH  18  19
ENDBRANCH  17  18
ENDBRANCH  16  17
ENDBRANCH  15  16
ENDBRANCH  14  15
ENDBRANCH  13  14
ENDBRANCH   1  13
TORSDOF 20
ENDMDL
MODEL 2
REMARK VINA RESULT:    -6.228      1.213      1.496
REMARK INTER + INTRA:         -15.954
REMARK INTER:                 -13.892
REMARK INTRA:                  -2.063
REMARK UNBOUND:                -2.444
REMARK SMILES CCCCCCCCCCCCCCCCCCCCCC(=O)[O-]
REMARK SMILES IDX 12 1 11 2 10 3 9 4 8 5 7 6 6 7 5 8 4 9 3 10 2 11 1 12 13 13
REMARK SMILES IDX 14 14 15 15 16 16 17 17 18 18 19 19 20 20 21 21 22 22 23 23
REMARK SMILES IDX 24 24
REMARK H PARENT
REMARK Flexibility Score: inf
ROOT
ATOM      1  C   UNL     1      -1.884  38.974 101.802  1.00  0.00     0.000 C 
ENDROOT
BRANCH   1   2
ATOM      2  C   UNL     1      -2.871  38.027 102.504  1.00  0.00     0.000 C 
BRANCH   2   3
ATOM      3  C   UNL     1      -3.287  36.842 101.620  1.00  0.00     0.000 C 
BRANCH   3   4
ATOM      4  C   UNL     1      -4.810  36.667 101.620  1.00  0.00    -0.000 C 
BRANCH   4   5
ATOM      5  C   UNL     1      -5.236  35.526 100.684  1.00  0.00    -0.000 C 
BRANCH   5   6
ATOM      6  C   UNL     1      -4.044  34.690 100.192  1.00  0.00    -0.000 C 
BRANCH   6   7
ATOM      7  C   UNL     1      -4.079  34.438  98.677  1.00  0.00    -0.000 C 
BRANCH   7   8
ATOM      8  C   UNL     1      -5.346  35.039  98.051  1.00  0.00    -0.000 C 
BRANCH   8   9
ATOM      9  C   UNL     1      -5.053  36.258  97.159  1.00  0.00    -0.000 C 
BRANCH   9  10
ATOM     10  C   UNL     1      -3.588  36.741  97.173  1.00  0.00    -0.000 C 
BRANCH  10  11
ATOM     11  C   UNL     1      -3.264  37.799  98.242  1.00  0.00    -0.003 C 
ATOM     12  C   UNL     1      -4.430  38.747  98.515  1.00  0.00     0.004 C 
ENDBRANCH  10  11
ENDBRANCH   9  10
ENDBRANCH   8   9
ENDBRANCH   7   8
ENDBRANCH   6   7
ENDBRANCH   5   6
ENDBRANCH   4   5
ENDBRANCH   3   4
ENDBRANCH   2   3
ENDBRANCH   1   2
BRANCH   1  13
ATOM     13  C   UNL     1      -1.410  40.117 102.713  1.00  0.00     0.000 C 
BRANCH  13  14
ATOM     14  C   UNL     1      -2.604  40.911 103.263  1.00  0.00     0.000 C 
BRANCH  14  15
ATOM     15  C   UNL     1      -3.288  41.788 102.199  1.00  0.00     0.000 C 
BRANCH  15  16
ATOM     16  C   UNL     1      -3.635  43.218 102.653  1.00  0.00     0.000 C 
BRANCH  16  17
ATOM     17  C   UNL     1      -3.724  43.358 104.183  1.00  0.00     0.000 C 
BRANCH  17  18
ATOM     18  C   UNL     1      -5.132  43.044 104.716  1.00  0.00     0.000 C 
BRANCH  18  19
ATOM     19  C   UNL     1      -6.107  44.220 104.534  1.00  0.00     0.000 C 
BRANCH  19  20
ATOM     20  C   UNL     1      -7.413  43.795 103.844  1.00  0.00     0.006 C 
BRANCH  20  21
ATOM     21  C   UNL     1      -8.426  44.943 103.751  1.00  0.00     0.053 C 
BRANCH  21  22
ATOM     22  C   UNL     1      -8.352  45.600 102.409  1.00  0.00     0.041 C 
ATOM     23  O   UNL     1      -7.928  44.959 101.412  1.00  0.00    -0.550 OA
ATOM     24  O   UNL     1      -8.713  46.936 102.268  1.00  0.00    -0.550 OA
ENDBRANCH  21  22
ENDBRANCH  20  21
ENDBRANCH  19  20
ENDBRANCH  18  19
ENDBRANCH  17  18
ENDBRANCH  16  17
ENDBRANCH  15  16
ENDBRANCH  14  15
ENDBRANCH  13  14
ENDBRANCH   1  13
TORSDOF 20
ENDMDL
MODEL 3
REMARK VINA RESULT:    -6.174      3.360      8.948
REMARK INTER + INTRA:         -15.836
REMARK INTER:                 -13.708
REMARK INTRA:                  -2.127
REMARK UNBOUND:                -2.444
REMARK SMILES CCCCCCCCCCCCCCCCCCCCCC(=O)[O-]
REMARK SMILES IDX 12 1 11 2 10 3 9 4 8 5 7 6 6 7 5 8 4 9 3 10 2 11 1 12 13 13
REMARK SMILES IDX 14 14 15 15 16 16 17 17 18 18 19 19 20 20 21 21 22 22 23 23
REMARK SMILES IDX 24 24
REMARK H PARENT
REMARK Flexibility Score: inf
ROOT
ATOM      1  C   UNL     1      -1.888  39.092 101.902  1.00  0.00     0.000 C 
ENDROOT
BRANCH   1   2
ATOM      2  C   UNL     1      -2.760  39.409 103.128  1.00  0.00     0.000 C 
BRANCH   2   3
ATOM      3  C   UNL     1      -2.867  40.915 103.407  1.00  0.00     0.000 C 
BRANCH   3   4
ATOM      4  C   UNL     1      -3.255  41.681 102.136  1.00  0.00    -0.000 C 
BRANCH   4   5
ATOM      5  C   UNL     1      -3.830  43.063 102.477  1.00  0.00    -0.000 C 
BRANCH   5   6
ATOM      6  C   UNL     1      -3.515  43.496 103.918  1.00  0.00    -0.000 C 
BRANCH   6   7
ATOM      7  C   UNL     1      -4.692  44.214 104.595  1.00  0.00    -0.000 C 
BRANCH   7   8
ATOM      8  C   UNL     1      -5.886  43.264 104.771  1.00  0.00    -0.000 C 
BRANCH   8   9
ATOM      9  C   UNL     1      -7.003  43.508 103.740  1.00  0.00    -0.000 C 
BRANCH   9  10
ATOM     10  C   UNL     1      -7.703  44.878 103.848  1.00  0.00    -0.000 C 
BRANCH  10  11
ATOM     11  C   UNL     1      -8.440  45.332 102.576  1.00  0.00    -0.003 C 
ATOM     12  C   UNL     1      -7.724  44.916 101.292  1.00  0.00     0.004 C 
ENDBRANCH  10  11
ENDBRANCH   9  10
ENDBRANCH   8   9
ENDBRANCH   7   8
ENDBRANCH   6   7
ENDBRANCH   5   6
ENDBRANCH   4   5
ENDBRANCH   3   4
ENDBRANCH   2   3
ENDBRANCH   1   2
BRANCH   1  13
ATOM     13  C   UNL     1      -2.607  38.203 100.877  1.00  0.00     0.000 C 
BRANCH  13  14
ATOM     14  C   UNL     1      -3.087  36.896 101.525  1.00  0.00     0.000 C 
BRANCH  14  15
ATOM     15  C   UNL     1      -4.620  36.753 101.532  1.00  0.00     0.000 C 
BRANCH  15  16
ATOM     16  C   UNL     1      -5.177  35.626 100.643  1.00  0.00     0.000 C 
BRANCH  16  17
ATOM     17  C   UNL     1      -4.106  34.600 100.231  1.00  0.00     0.000 C 
BRANCH  17  18
ATOM     18  C   UNL     1      -3.933  34.519  98.705  1.00  0.00     0.000 C 
BRANCH  18  19
ATOM     19  C   UNL     1      -2.794  35.419  98.194  1.00  0.00     0.000 C 
BRANCH  19  20
ATOM     20  C   UNL     1      -3.316  36.628  97.401  1.00  0.00     0.006 C 
BRANCH  20  21
ATOM     21  C   UNL     1      -4.814  36.524  97.093  1.00  0.00     0.053 C 
BRANCH  21  22
ATOM     22  C   UNL     1      -5.521  37.780  97.495  1.00  0.00     0.041 C 
ATOM     23  O   UNL     1      -6.707  37.985  97.129  1.00  0.00    -0.550 OA
ATOM     24  O   UNL     1      -4.852  38.746  98.240  1.00  0.00    -0.550 OA
ENDBRANCH  21  22
ENDBRANCH  20  21
ENDBRANCH  19  20
ENDBRANCH  18  19
ENDBRANCH  17  18
ENDBRANCH  16  17
ENDBRANCH  15  16
ENDBRANCH  14  15
ENDBRANCH  13  14
ENDBRANCH   1  13
TORSDOF 20
ENDMDL
MODEL 4
REMARK VINA RESULT:    -5.927      3.902      8.261
REMARK INTER + INTRA:         -15.300
REMARK INTER:                 -13.463
REMARK INTRA:                  -1.837
REMARK UNBOUND:                -2.444
REMARK SMILES CCCCCCCCCCCCCCCCCCCCCC(=O)[O-]
REMARK SMILES IDX 12 1 11 2 10 3 9 4 8 5 7 6 6 7 5 8 4 9 3 10 2 11 1 12 13 13
REMARK SMILES IDX 14 14 15 15 16 16 17 17 18 18 19 19 20 20 21 21 22 22 23 23
REMARK SMILES IDX 24 24
REMARK H PARENT
REMARK Flexibility Score: inf
ROOT
ATOM      1  C   UNL     1      -1.603  38.746 101.591  1.00  0.00     0.000 C 
ENDROOT
BRANCH   1   2
ATOM      2  C   UNL     1      -1.484  40.067 102.369  1.00  0.00     0.000 C 
BRANCH   2   3
ATOM      3  C   UNL     1      -2.837  40.569 102.895  1.00  0.00     0.000 C 
BRANCH   3   4
ATOM      4  C   UNL     1      -2.732  42.022 103.375  1.00  0.00    -0.000 C 
BRANCH   4   5
ATOM      5  C   UNL     1      -3.950  42.843 102.926  1.00  0.00    -0.000 C 
BRANCH   5   6
ATOM      6  C   UNL     1      -3.605  43.857 101.823  1.00  0.00    -0.000 C 
BRANCH   6   7
ATOM      7  C   UNL     1      -4.794  44.155 100.897  1.00  0.00    -0.000 C 
BRANCH   7   8
ATOM      8  C   UNL     1      -4.394  43.988  99.423  1.00  0.00    -0.000 C 
BRANCH   8   9
ATOM      9  C   UNL     1      -5.346  44.719  98.459  1.00  0.00    -0.000 C 
BRANCH   9  10
ATOM     10  C   UNL     1      -5.546  44.032  97.093  1.00  0.00    -0.000 C 
BRANCH  10  11
ATOM     11  C   UNL     1      -4.697  42.768  96.872  1.00  0.00    -0.003 C 
ATOM     12  C   UNL     1      -5.372  41.748  95.957  1.00  0.00     0.004 C 
ENDBRANCH  10  11
ENDBRANCH   9  10
ENDBRANCH   8   9
ENDBRANCH   7   8
ENDBRANCH   6   7
ENDBRANCH   5   6
ENDBRANCH   4   5
ENDBRANCH   3   4
ENDBRANCH   2   3
ENDBRANCH   1   2
BRANCH   1  13
ATOM     13  C   UNL     1      -3.048  38.433 101.173  1.00  0.00     0.000 C 
BRANCH  13  14
ATOM     14  C   UNL     1      -3.604  37.246 101.973  1.00  0.00     0.000 C 
BRANCH  14  15
ATOM     15  C   UNL     1      -4.911  36.682 101.387  1.00  0.00     0.000 C 
BRANCH  15  16
ATOM     16  C   UNL     1      -4.739  35.483 100.435  1.00  0.00     0.000 C 
BRANCH  16  17
ATOM     17  C   UNL     1      -3.309  34.918 100.433  1.00  0.00     0.000 C 
BRANCH  17  18
ATOM     18  C   UNL     1      -2.585  35.167  99.099  1.00  0.00     0.000 C 
BRANCH  18  19
ATOM     19  C   UNL     1      -3.563  35.385  97.931  1.00  0.00     0.000 C 
BRANCH  19  20
ATOM     20  C   UNL     1      -3.302  36.706  97.189  1.00  0.00     0.006 C 
BRANCH  20  21
ATOM     21  C   UNL     1      -4.531  37.193  96.412  1.00  0.00     0.053 C 
BRANCH  21  22
ATOM     22  C   UNL     1      -5.461  37.939  97.317  1.00  0.00     0.041 C 
ATOM     23  O   UNL     1      -6.702  37.917  97.107  1.00  0.00    -0.550 OA
ATOM     24  O   UNL     1      -4.951  38.694  98.368  1.00  0.00    -0.550 OA
ENDBRANCH  21  22
ENDBRANCH  20  21
ENDBRANCH  19  20
ENDBRANCH  18  19
ENDBRANCH  17  18
ENDBRANCH  16  17
ENDBRANCH  15  16
ENDBRANCH  14  15
ENDBRANCH  13  14
ENDBRANCH   1  13
TORSDOF 20
ENDMDL
MODEL 5
REMARK VINA RESULT:    -5.925      1.562      2.758
REMARK INTER + INTRA:         -15.297
REMARK INTER:                 -13.159
REMARK INTRA:                  -2.138
REMARK UNBOUND:                -2.444
REMARK SMILES CCCCCCCCCCCCCCCCCCCCCC(=O)[O-]
REMARK SMILES IDX 12 1 11 2 10 3 9 4 8 5 7 6 6 7 5 8 4 9 3 10 2 11 1 12 13 13
REMARK SMILES IDX 14 14 15 15 16 16 17 17 18 18 19 19 20 20 21 21 22 22 23 23
REMARK SMILES IDX 24 24
REMARK H PARENT
REMARK Flexibility Score: inf
ROOT
ATOM      1  C   UNL     1      -2.503  40.356 102.747  1.00  0.00     0.000 C 
ENDROOT
BRANCH   1   2
ATOM      2  C   UNL     1      -2.894  38.955 103.245  1.00  0.00     0.000 C 
BRANCH   2   3
ATOM      3  C   UNL     1      -2.596  37.855 102.215  1.00  0.00     0.000 C 
BRANCH   3   4
ATOM      4  C   UNL     1      -3.615  37.887 101.069  1.00  0.00    -0.000 C 
BRANCH   4   5
ATOM      5  C   UNL     1      -3.059  38.644  99.855  1.00  0.00    -0.000 C 
BRANCH   5   6
ATOM      6  C   UNL     1      -3.956  38.511  98.613  1.00  0.00    -0.000 C 
BRANCH   6   7
ATOM      7  C   UNL     1      -5.327  37.896  98.933  1.00  0.00    -0.000 C 
BRANCH   7   8
ATOM      8  C   UNL     1      -5.833  37.046  97.759  1.00  0.00    -0.000 C 
BRANCH   8   9
ATOM      9  C   UNL     1      -5.221  35.633  97.734  1.00  0.00    -0.000 C 
BRANCH   9  10
ATOM     10  C   UNL     1      -5.199  34.907  99.095  1.00  0.00    -0.000 C 
BRANCH  10  11
ATOM     11  C   UNL     1      -3.804  34.470  99.574  1.00  0.00    -0.003 C 
ATOM     12  C   UNL     1      -2.675  35.025  98.706  1.00  0.00     0.004 C 
ENDBRANCH  10  11
ENDBRANCH   9  10
ENDBRANCH   8   9
ENDBRANCH   7   8
ENDBRANCH   6   7
ENDBRANCH   5   6
ENDBRANCH   4   5
ENDBRANCH   3   4
ENDBRANCH   2   3
ENDBRANCH   1   2
BRANCH   1  13
ATOM     13  C   UNL     1      -0.983  40.539 102.629  1.00  0.00     0.000 C 
BRANCH  13  14
ATOM     14  C   UNL     1      -0.512  41.753 103.444  1.00  0.00     0.000 C 
BRANCH  14  15
ATOM     15  C   UNL     1      -1.222  43.060 103.047  1.00  0.00     0.000 C 
BRANCH  15  16
ATOM     16  C   UNL     1      -2.094  43.692 104.148  1.00  0.00     0.000 C 
BRANCH  16  17
ATOM     17  C   UNL     1      -3.560  43.882 103.718  1.00  0.00     0.000 C 
BRANCH  17  18
ATOM     18  C   UNL     1      -4.517  42.952 104.483  1.00  0.00     0.000 C 
BRANCH  18  19
ATOM     19  C   UNL     1      -5.765  43.689 105.000  1.00  0.00     0.000 C 
BRANCH  19  20
ATOM     20  C   UNL     1      -6.962  43.553 104.046  1.00  0.00     0.006 C 
BRANCH  20  21
ATOM     21  C   UNL     1      -7.655  44.896 103.781  1.00  0.00     0.053 C 
BRANCH  21  22
ATOM     22  C   UNL     1      -7.305  45.407 102.419  1.00  0.00     0.041 C 
ATOM     23  O   UNL     1      -6.679  46.491 102.291  1.00  0.00    -0.550 OA
ATOM     24  O   UNL     1      -7.707  44.704 101.289  1.00  0.00    -0.550 OA
ENDBRANCH  21  22
ENDBRANCH  20  21
ENDBRANCH  19  20
ENDBRANCH  18  19
ENDBRANCH  17  18
ENDBRANCH  16  17
ENDBRANCH  15  16
ENDBRANCH  14  15
ENDBRANCH  13  14
ENDBRANCH   1  13
TORSDOF 20
ENDMDL
MODEL 6
REMARK VINA RESULT:    -5.888      3.741      9.145
REMARK INTER + INTRA:         -15.216
REMARK INTER:                 -12.729
REMARK INTRA:                  -2.486
REMARK UNBOUND:                -2.444
REMARK SMILES CCCCCCCCCCCCCCCCCCCCCC(=O)[O-]
REMARK SMILES IDX 12 1 11 2 10 3 9 4 8 5 7 6 6 7 5 8 4 9 3 10 2 11 1 12 13 13
REMARK SMILES IDX 14 14 15 15 16 16 17 17 18 18 19 19 20 20 21 21 22 22 23 23
REMARK SMILES IDX 24 24
REMARK H PARENT
REMARK Flexibility Score: inf
ROOT
ATOM      1  C   UNL     1      -2.825  39.805 103.111  1.00  0.00     0.000 C 
ENDROOT
BRANCH   1   2
ATOM      2  C   UNL     1      -3.007  41.330 103.166  1.00  0.00     0.000 C 
BRANCH   2   3
ATOM      3  C   UNL     1      -3.358  41.935 101.799  1.00  0.00     0.000 C 
BRANCH   3   4
ATOM      4  C   UNL     1      -3.468  43.462 101.888  1.00  0.00    -0.000 C 
BRANCH   4   5
ATOM      5  C   UNL     1      -4.568  43.993 100.956  1.00  0.00    -0.000 C 
BRANCH   5   6
ATOM      6  C   UNL     1      -5.450  45.057 101.629  1.00  0.00    -0.000 C 
BRANCH   6   7
ATOM      7  C   UNL     1      -6.859  44.541 101.956  1.00  0.00    -0.000 C 
BRANCH   7   8
ATOM      8  C   UNL     1      -7.168  44.701 103.451  1.00  0.00    -0.000 C 
BRANCH   8   9
ATOM      9  C   UNL     1      -6.967  43.398 104.247  1.00  0.00    -0.000 C 
BRANCH   9  10
ATOM     10  C   UNL     1      -5.596  43.260 104.939  1.00  0.00    -0.000 C 
BRANCH  10  11
ATOM     11  C   UNL     1      -4.936  44.590 105.343  1.00  0.00    -0.003 C 
ATOM     12  C   UNL     1      -3.410  44.538 105.295  1.00  0.00     0.004 C 
ENDBRANCH  10  11
ENDBRANCH   9  10
ENDBRANCH   8   9
ENDBRANCH   7   8
ENDBRANCH   6   7
ENDBRANCH   5   6
ENDBRANCH   4   5
ENDBRANCH   3   4
ENDBRANCH   2   3
ENDBRANCH   1   2
BRANCH   1  13
ATOM     13  C   UNL     1      -1.904  39.359 101.965  1.00  0.00     0.000 C 
BRANCH  13  14
ATOM     14  C   UNL     1      -2.598  38.313 101.079  1.00  0.00     0.000 C 
BRANCH  14  15
ATOM     15  C   UNL     1      -2.765  36.949 101.772  1.00  0.00     0.000 C 
BRANCH  15  16
ATOM     16  C   UNL     1      -2.623  35.724 100.850  1.00  0.00     0.000 C 
BRANCH  16  17
ATOM     17  C   UNL     1      -3.975  35.093 100.476  1.00  0.00     0.000 C 
BRANCH  17  18
ATOM     18  C   UNL     1      -4.249  35.156  98.964  1.00  0.00     0.000 C 
BRANCH  18  19
ATOM     19  C   UNL     1      -2.990  35.507  98.152  1.00  0.00     0.000 C 
BRANCH  19  20
ATOM     20  C   UNL     1      -3.130  36.843  97.404  1.00  0.00     0.006 C 
BRANCH  20  21
ATOM     21  C   UNL     1      -4.302  37.684  97.922  1.00  0.00     0.053 C 
BRANCH  21  22
ATOM     22  C   UNL     1      -5.262  37.984  96.814  1.00  0.00     0.041 C 
ATOM     23  O   UNL     1      -5.718  37.052  96.102  1.00  0.00    -0.550 OA
ATOM     24  O   UNL     1      -5.620  39.299  96.542  1.00  0.00    -0.550 OA
ENDBRANCH  21  22
ENDBRANCH  20  21
ENDBRANCH  19  20
ENDBRANCH  18  19
ENDBRANCH  17  18
ENDBRANCH  16  17
ENDBRANCH  15  16
ENDBRANCH  14  15
ENDBRANCH  13  14
ENDBRANCH   1  13
TORSDOF 20
ENDMDL
MODEL 7
REMARK VINA RESULT:    -5.797      3.350      8.691
REMARK INTER + INTRA:         -15.019
REMARK INTER:                 -13.188
REMARK INTRA:                  -1.831
REMARK UNBOUND:                -2.444
REMARK SMILES CCCCCCCCCCCCCCCCCCCCCC(=O)[O-]
REMARK SMILES IDX 12 1 11 2 10 3 9 4 8 5 7 6 6 7 5 8 4 9 3 10 2 11 1 12 13 13
REMARK SMILES IDX 14 14 15 15 16 16 17 17 18 18 19 19 20 20 21 21 22 22 23 23
REMARK SMILES IDX 24 24
REMARK H PARENT
REMARK Flexibility Score: inf
ROOT
ATOM      1  C   UNL     1      -3.274  37.124 102.797  1.00  0.00     0.000 C 
ENDROOT
BRANCH   1   2
ATOM      2  C   UNL     1      -2.834  38.468 103.401  1.00  0.00     0.000 C 
BRANCH   2   3
ATOM      3  C   UNL     1      -2.073  39.348 102.398  1.00  0.00     0.000 C 
BRANCH   3   4
ATOM      4  C   UNL     1      -1.984  40.795 102.898  1.00  0.00    -0.000 C 
BRANCH   4   5
ATOM      5  C   UNL     1      -0.521  41.237 103.053  1.00  0.00    -0.000 C 
BRANCH   5   6
ATOM      6  C   UNL     1      -0.378  42.759 103.215  1.00  0.00    -0.000 C 
BRANCH   6   7
ATOM      7  C   UNL     1      -1.673  43.431 103.695  1.00  0.00    -0.000 C 
BRANCH   7   8
ATOM      8  C   UNL     1      -2.173  44.454 102.666  1.00  0.00    -0.000 C 
BRANCH   8   9
ATOM      9  C   UNL     1      -3.686  44.717 102.768  1.00  0.00    -0.000 C 
BRANCH   9  10
ATOM     10  C   UNL     1      -4.521  43.529 103.289  1.00  0.00    -0.000 C 
BRANCH  10  11
ATOM     11  C   UNL     1      -5.391  43.839 104.520  1.00  0.00    -0.003 C 
ATOM     12  C   UNL     1      -6.844  43.398 104.348  1.00  0.00     0.004 C 
ENDBRANCH  10  11
ENDBRANCH   9  10
ENDBRANCH   8   9
ENDBRANCH   7   8
ENDBRANCH   6   7
ENDBRANCH   5   6
ENDBRANCH   4   5
ENDBRANCH   3   4
ENDBRANCH   2   3
ENDBRANCH   1   2
BRANCH   1  13
ATOM     13  C   UNL     1      -3.722  37.251 101.334  1.00  0.00     0.000 C 
BRANCH  13  14
ATOM     14  C   UNL     1      -5.122  36.651 101.135  1.00  0.00     0.000 C 
BRANCH  14  15
ATOM     15  C   UNL     1      -5.094  35.247 100.504  1.00  0.00     0.000 C 
BRANCH  15  16
ATOM     16  C   UNL     1      -3.701  34.748 100.077  1.00  0.00     0.000 C 
BRANCH  16  17
ATOM     17  C   UNL     1      -3.474  34.827  98.558  1.00  0.00     0.000 C 
BRANCH  17  18
ATOM     18  C   UNL     1      -3.006  36.222  98.110  1.00  0.00     0.000 C 
BRANCH  18  19
ATOM     19  C   UNL     1      -3.616  36.641  96.760  1.00  0.00     0.000 C 
BRANCH  19  20
ATOM     20  C   UNL     1      -5.150  36.546  96.757  1.00  0.00     0.006 C 
BRANCH  20  21
ATOM     21  C   UNL     1      -5.800  37.544  97.723  1.00  0.00     0.053 C 
BRANCH  21  22
ATOM     22  C   UNL     1      -5.212  38.907  97.543  1.00  0.00     0.041 C 
ATOM     23  O   UNL     1      -4.474  39.402  98.435  1.00  0.00    -0.550 OA
ATOM     24  O   UNL     1      -5.515  39.650  96.407  1.00  0.00    -0.550 OA
ENDBRANCH  21  22
ENDBRANCH  20  21
ENDBRANCH  19  20
ENDBRANCH  18  19
ENDBRANCH  17  18
ENDBRANCH  16  17
ENDBRANCH  15  16
ENDBRANCH  14  15
ENDBRANCH  13  14
ENDBRANCH   1  13
TORSDOF 20
ENDMDL
MODEL 8
REMARK VINA RESULT:    -5.738      3.515      8.982
REMARK INTER + INTRA:         -14.890
REMARK INTER:                 -12.582
REMARK INTRA:                  -2.308
REMARK UNBOUND:                -2.444
REMARK SMILES CCCCCCCCCCCCCCCCCCCCCC(=O)[O-]
REMARK SMILES IDX 12 1 11 2 10 3 9 4 8 5 7 6 6 7 5 8 4 9 3 10 2 11 1 12 13 13
REMARK SMILES IDX 14 14 15 15 16 16 17 17 18 18 19 19 20 20 21 21 22 22 23 23
REMARK SMILES IDX 24 24
REMARK H PARENT
REMARK Flexibility Score: inf
ROOT
ATOM      1  C   UNL     1      -2.489  39.669 103.001  1.00  0.00     0.000 C 
ENDROOT
BRANCH   1   2
ATOM      2  C   UNL     1      -2.838  41.120 103.367  1.00  0.00     0.000 C 
BRANCH   2   3
ATOM      3  C   UNL     1      -1.666  42.087 103.141  1.00  0.00     0.000 C 
BRANCH   3   4
ATOM      4  C   UNL     1      -2.043  43.513 103.560  1.00  0.00    -0.000 C 
BRANCH   4   5
ATOM      5  C   UNL     1      -2.142  44.440 102.341  1.00  0.00    -0.000 C 
BRANCH   5   6
ATOM      6  C   UNL     1      -3.162  45.573 102.540  1.00  0.00    -0.000 C 
BRANCH   6   7
ATOM      7  C   UNL     1      -4.300  45.537 101.510  1.00  0.00    -0.000 C 
BRANCH   7   8
ATOM      8  C   UNL     1      -5.170  44.286 101.699  1.00  0.00    -0.000 C 
BRANCH   8   9
ATOM      9  C   UNL     1      -6.564  44.606 102.268  1.00  0.00    -0.000 C 
BRANCH   9  10
ATOM     10  C   UNL     1      -6.914  43.882 103.585  1.00  0.00    -0.000 C 
BRANCH  10  11
ATOM     11  C   UNL     1      -5.711  43.282 104.334  1.00  0.00    -0.003 C 
ATOM     12  C   UNL     1      -5.123  44.233 105.375  1.00  0.00     0.004 C 
ENDBRANCH  10  11
ENDBRANCH   9  10
ENDBRANCH   8   9
ENDBRANCH   7   8
ENDBRANCH   6   7
ENDBRANCH   5   6
ENDBRANCH   4   5
ENDBRANCH   3   4
ENDBRANCH   2   3
ENDBRANCH   1   2
BRANCH   1  13
ATOM     13  C   UNL     1      -2.832  39.327 101.543  1.00  0.00     0.000 C 
BRANCH  13  14
ATOM     14  C   UNL     1      -2.416  37.887 101.205  1.00  0.00     0.000 C 
BRANCH  14  15
ATOM     15  C   UNL     1      -3.329  36.828 101.848  1.00  0.00     0.000 C 
BRANCH  15  16
ATOM     16  C   UNL     1      -4.751  36.745 101.262  1.00  0.00     0.000 C 
BRANCH  16  17
ATOM     17  C   UNL     1      -5.014  35.431 100.506  1.00  0.00     0.000 C 
BRANCH  17  18
ATOM     18  C   UNL     1      -3.726  34.830  99.917  1.00  0.00     0.000 C 
BRANCH  18  19
ATOM     19  C   UNL     1      -3.679  34.927  98.382  1.00  0.00     0.000 C 
BRANCH  19  20
ATOM     20  C   UNL     1      -3.259  36.323  97.897  1.00  0.00     0.006 C 
BRANCH  20  21
ATOM     21  C   UNL     1      -4.235  36.904  96.867  1.00  0.00     0.053 C 
BRANCH  21  22
ATOM     22  C   UNL     1      -4.814  38.192  97.362  1.00  0.00     0.041 C 
ATOM     23  O   UNL     1      -4.587  38.578  98.538  1.00  0.00    -0.550 OA
ATOM     24  O   UNL     1      -5.641  38.945  96.536  1.00  0.00    -0.550 OA
ENDBRANCH  21  22
ENDBRANCH  20  21
ENDBRANCH  19  20
ENDBRANCH  18  19
ENDBRANCH  17  18
ENDBRANCH  16  17
ENDBRANCH  15  16
ENDBRANCH  14  15
ENDBRANCH  13  14
ENDBRANCH   1  13
TORSDOF 20
ENDMDL
MODEL 9
REMARK VINA RESULT:    -5.735      3.331      4.115
REMARK INTER + INTRA:         -14.885
REMARK INTER:                 -12.740
REMARK INTRA:                  -2.145
REMARK UNBOUND:                -2.444
REMARK SMILES CCCCCCCCCCCCCCCCCCCCCC(=O)[O-]
REMARK SMILES IDX 12 1 11 2 10 3 9 4 8 5 7 6 6 7 5 8 4 9 3 10 2 11 1 12 13 13
REMARK SMILES IDX 14 14 15 15 16 16 17 17 18 18 19 19 20 20 21 21 22 22 23 23
REMARK SMILES IDX 24 24
REMARK H PARENT
REMARK Flexibility Score: inf
ROOT
ATOM      1  C   UNL     1      -2.504  40.181 102.090  1.00  0.00     0.000 C 
ENDROOT
BRANCH   1   2
ATOM      2  C   UNL     1      -2.048  38.764 101.705  1.00  0.00     0.000 C 
BRANCH   2   3
ATOM      3  C   UNL     1      -3.049  38.049 100.786  1.00  0.00     0.000 C 
BRANCH   3   4
ATOM      4  C   UNL     1      -3.601  36.784 101.456  1.00  0.00    -0.000 C 
BRANCH   4   5
ATOM      5  C   UNL     1      -5.107  36.634 101.199  1.00  0.00    -0.000 C 
BRANCH   5   6
ATOM      6  C   UNL     1      -5.457  35.324 100.476  1.00  0.00    -0.000 C 
BRANCH   6   7
ATOM      7  C   UNL     1      -4.215  34.500 100.105  1.00  0.00    -0.000 C 
BRANCH   7   8
ATOM      8  C   UNL     1      -4.010  34.472  98.584  1.00  0.00    -0.000 C 
BRANCH   8   9
ATOM      9  C   UNL     1      -2.838  35.356  98.121  1.00  0.00    -0.000 C 
BRANCH   9  10
ATOM     10  C   UNL     1      -3.246  36.675  97.434  1.00  0.00    -0.000 C 
BRANCH  10  11
ATOM     11  C   UNL     1      -4.735  36.779  97.063  1.00  0.00    -0.003 C 
ATOM     12  C   UNL     1      -5.423  37.988  97.694  1.00  0.00     0.004 C 
ENDBRANCH  10  11
ENDBRANCH   9  10
ENDBRANCH   8   9
ENDBRANCH   7   8
ENDBRANCH   6   7
ENDBRANCH   5   6
ENDBRANCH   4   5
ENDBRANCH   3   4
ENDBRANCH   2   3
ENDBRANCH   1   2
BRANCH   1  13
ATOM     13  C   UNL     1      -1.491  40.904 102.990  1.00  0.00     0.000 C 
BRANCH  13  14
ATOM     14  C   UNL     1      -1.992  42.308 103.361  1.00  0.00     0.000 C 
BRANCH  14  15
ATOM     15  C   UNL     1      -3.503  42.354 103.648  1.00  0.00     0.000 C 
BRANCH  15  16
ATOM     16  C   UNL     1      -4.081  43.760 103.893  1.00  0.00     0.000 C 
BRANCH  16  17
ATOM     17  C   UNL     1      -4.814  44.330 102.666  1.00  0.00     0.000 C 
BRANCH  17  18
ATOM     18  C   UNL     1      -4.578  43.488 101.401  1.00  0.00     0.000 C 
BRANCH  18  19
ATOM     19  C   UNL     1      -4.149  44.343 100.196  1.00  0.00     0.000 C 
BRANCH  19  20
ATOM     20  C   UNL     1      -5.127  44.224  99.017  1.00  0.00     0.006 C 
BRANCH  20  21
ATOM     21  C   UNL     1      -4.434  43.774  97.725  1.00  0.00     0.053 C 
BRANCH  21  22
ATOM     22  C   UNL     1      -4.929  44.571  96.560  1.00  0.00     0.041 C 
ATOM     23  O   UNL     1      -5.135  44.012  95.451  1.00  0.00    -0.550 OA
ATOM     24  O   UNL     1      -5.123  45.942  96.688  1.00  0.00    -0.550 OA
ENDBRANCH  21  22
ENDBRANCH  20  21
ENDBRANCH  19  20
ENDBRANCH  18  19
ENDBRANCH  17  18
ENDBRANCH  16  17
ENDBRANCH  15  16
ENDBRANCH  14  15
ENDBRANCH  13  14
ENDBRANCH   1  13
TORSDOF 20
ENDMDL
