MODEL 1
REMARK VINA RESULT:     3.346      0.000      0.000
REMARK INTER + INTRA:           8.183
REMARK INTER:                   7.257
REMARK INTRA:                   0.926
REMARK UNBOUND:                 0.926
REMARK SMILES CCCCCCCCCCCCCCCCCCCCCC(=O)[O-]
REMARK SMILES IDX 12 1 11 2 10 3 9 4 8 5 7 6 6 7 5 8 4 9 3 10 2 11 1 12 13 13
REMARK SMILES IDX 14 14 15 15 16 16 17 17 18 18 19 19 20 20 21 21 22 22 23 23
REMARK SMILES IDX 24 24
REMARK H PARENT
REMARK Flexibility Score: inf
ROOT
ATOM      1  C   UNL     1      39.914  41.634  19.534  1.00  0.00     0.000 C 
ENDROOT
BRANCH   1   2
ATOM      2  C   UNL     1      40.033  43.160  19.688  1.00  0.00     0.000 C 
BRANCH   2   3
ATOM      3  C   UNL     1      40.122  43.609  21.158  1.00  0.00     0.000 C 
BRANCH   3   4
ATOM      4  C   UNL     1      40.124  45.133  21.380  1.00  0.00    -0.000 C 
BRANCH   4   5
ATOM      5  C   UNL     1      39.063  45.596  22.387  1.00  0.00    -0.000 C 
BRANCH   5   6
ATOM      6  C   UNL     1      39.527  45.350  23.831  1.00  0.00    -0.000 C 
BRANCH   6   7
ATOM      7  C   UNL     1      38.403  44.820  24.738  1.00  0.00    -0.000 C 
BRANCH   7   8
ATOM      8  C   UNL     1      37.395  45.884  25.214  1.00  0.00    -0.000 C 
BRANCH   8   9
ATOM      9  C   UNL     1      36.353  46.315  24.163  1.00  0.00    -0.000 C 
BRANCH   9  10
ATOM     10  C   UNL     1      34.887  46.223  24.626  1.00  0.00    -0.000 C 
BRANCH  10  11
ATOM     11  C   UNL     1      33.905  46.835  23.616  1.00  0.00    -0.003 C 
ATOM     12  C   UNL     1      32.742  45.886  23.337  1.00  0.00     0.004 C 
ENDBRANCH  10  11
ENDBRANCH   9  10
ENDBRANCH   8   9
ENDBRANCH   7   8
ENDBRANCH   6   7
ENDBRANCH   5   6
ENDBRANCH   4   5
ENDBRANCH   3   4
ENDBRANCH   2   3
ENDBRANCH   1   2
BRANCH   1  13
ATOM     13  C   UNL     1      39.873  41.192  18.063  1.00  0.00     0.000 C 
BRANCH  13  14
ATOM     14  C   UNL     1      39.157  39.848  17.864  1.00  0.00     0.000 C 
BRANCH  14  15
ATOM     15  C   UNL     1      40.122  38.676  18.100  1.00  0.00     0.000 C 
BRANCH  15  16
ATOM     16  C   UNL     1      40.008  37.584  17.023  1.00  0.00     0.000 C 
BRANCH  16  17
ATOM     17  C   UNL     1      38.773  36.688  17.220  1.00  0.00     0.000 C 
BRANCH  17  18
ATOM     18  C   UNL     1      38.955  35.650  18.342  1.00  0.00     0.000 C 
BRANCH  18  19
ATOM     19  C   UNL     1      38.612  36.151  19.757  1.00  0.00     0.000 C 
BRANCH  19  20
ATOM     20  C   UNL     1      38.224  37.639  19.791  1.00  0.00     0.006 C 
BRANCH  20  21
ATOM     21  C   UNL     1      37.006  37.900  20.687  1.00  0.00     0.053 C 
BRANCH  21  22
ATOM     22  C   UNL     1      36.283  39.148  20.287  1.00  0.00     0.041 C 
ATOM     23  O   UNL     1      36.681  39.825  19.302  1.00  0.00    -0.550 OA
ATOM     24  O   UNL     1      35.187  39.584  21.022  1.00  0.00    -0.550 OA
ENDBRANCH  21  22
ENDBRANCH  20  21
ENDBRANCH  19  20
ENDBRANCH  18  19
ENDBRANCH  17  18
ENDBRANCH  16  17
ENDBRANCH  15  16
ENDBRANCH  14  15
ENDBRANCH  13  14
ENDBRANCH   1  13
TORSDOF 20
ENDMDL
MODEL 2
REMARK VINA RESULT:     3.942      2.367      9.126
REMARK INTER + INTRA:           9.477
REMARK INTER:                   9.880
REMARK INTRA:                  -0.404
REMARK UNBOUND:                 0.926
REMARK SMILES CCCCCCCCCCCCCCCCCCCCCC(=O)[O-]
REMARK SMILES IDX 12 1 11 2 10 3 9 4 8 5 7 6 6 7 5 8 4 9 3 10 2 11 1 12 13 13
REMARK SMILES IDX 14 14 15 15 16 16 17 17 18 18 19 19 20 20 21 21 22 22 23 23
REMARK SMILES IDX 24 24
REMARK H PARENT
REMARK Flexibility Score: inf
ROOT
ATOM      1  C   UNL     1      40.113  43.814  21.290  1.00  0.00     0.000 C 
ENDROOT
BRANCH   1   2
ATOM      2  C   UNL     1      39.955  43.431  19.809  1.00  0.00     0.000 C 
BRANCH   2   3
ATOM      3  C   UNL     1      40.118  41.920  19.558  1.00  0.00     0.000 C 
BRANCH   3   4
ATOM      4  C   UNL     1      39.109  41.306  18.571  1.00  0.00    -0.000 C 
BRANCH   4   5
ATOM      5  C   UNL     1      39.779  40.662  17.350  1.00  0.00    -0.000 C 
BRANCH   5   6
ATOM      6  C   UNL     1      39.502  39.151  17.300  1.00  0.00    -0.000 C 
BRANCH   6   7
ATOM      7  C   UNL     1      39.716  38.459  18.658  1.00  0.00    -0.000 C 
BRANCH   7   8
ATOM      8  C   UNL     1      40.033  36.953  18.578  1.00  0.00    -0.000 C 
BRANCH   8   9
ATOM      9  C   UNL     1      39.220  36.062  19.538  1.00  0.00    -0.000 C 
BRANCH   9  10
ATOM     10  C   UNL     1      37.692  36.202  19.417  1.00  0.00    -0.000 C 
BRANCH  10  11
ATOM     11  C   UNL     1      37.058  36.876  20.643  1.00  0.00    -0.003 C 
ATOM     12  C   UNL     1      36.331  38.159  20.248  1.00  0.00     0.004 C 
ENDBRANCH  10  11
ENDBRANCH   9  10
ENDBRANCH   8   9
ENDBRANCH   7   8
ENDBRANCH   6   7
ENDBRANCH   5   6
ENDBRANCH   4   5
ENDBRANCH   3   4
ENDBRANCH   2   3
ENDBRANCH   1   2
BRANCH   1  13
ATOM     13  C   UNL     1      40.116  45.335  21.508  1.00  0.00     0.000 C 
BRANCH  13  14
ATOM     14  C   UNL     1      40.118  45.724  22.994  1.00  0.00     0.000 C 
BRANCH  14  15
ATOM     15  C   UNL     1      39.436  44.641  23.843  1.00  0.00     0.000 C 
BRANCH  15  16
ATOM     16  C   UNL     1      38.546  45.225  24.953  1.00  0.00     0.000 C 
BRANCH  16  17
ATOM     17  C   UNL     1      37.358  46.028  24.395  1.00  0.00     0.000 C 
BRANCH  17  18
ATOM     18  C   UNL     1      36.104  45.945  25.285  1.00  0.00     0.000 C 
BRANCH  18  19
ATOM     19  C   UNL     1      34.782  45.709  24.532  1.00  0.00     0.000 C 
BRANCH  19  20
ATOM     20  C   UNL     1      33.866  46.944  24.525  1.00  0.00     0.006 C 
BRANCH  20  21
ATOM     21  C   UNL     1      34.318  47.994  23.501  1.00  0.00     0.053 C 
BRANCH  21  22
ATOM     22  C   UNL     1      35.007  47.363  22.330  1.00  0.00     0.041 C 
ATOM     23  O   UNL     1      35.948  47.965  21.748  1.00  0.00    -0.550 OA
ATOM     24  O   UNL     1      34.588  46.124  21.862  1.00  0.00    -0.550 OA
ENDBRANCH  21  22
ENDBRANCH  20  21
ENDBRANCH  19  20
ENDBRANCH  18  19
ENDBRANCH  17  18
ENDBRANCH  16  17
ENDBRANCH  15  16
ENDBRANCH  14  15
ENDBRANCH  13  14
ENDBRANCH   1  13
TORSDOF 20
ENDMDL
MODEL 3
REMARK VINA RESULT:     4.110      2.790      9.043
REMARK INTER + INTRA:           9.841
REMARK INTER:                  10.550
REMARK INTRA:                  -0.709
REMARK UNBOUND:                 0.926
REMARK SMILES CCCCCCCCCCCCCCCCCCCCCC(=O)[O-]
REMARK SMILES IDX 12 1 11 2 10 3 9 4 8 5 7 6 6 7 5 8 4 9 3 10 2 11 1 12 13 13
REMARK SMILES IDX 14 14 15 15 16 16 17 17 18 18 19 19 20 20 21 21 22 22 23 23
REMARK SMILES IDX 24 24
REMARK H PARENT
REMARK Flexibility Score: inf
ROOT
ATOM      1  C   UNL     1      40.045  43.189  21.256  1.00  0.00     0.000 C 
ENDROOT
BRANCH   1   2
ATOM      2  C   UNL     1      40.062  43.274  19.720  1.00  0.00     0.000 C 
BRANCH   2   3
ATOM      3  C   UNL     1      40.123  41.892  19.044  1.00  0.00     0.000 C 
BRANCH   3   4
ATOM      4  C   UNL     1      38.997  40.918  19.437  1.00  0.00    -0.000 C 
BRANCH   4   5
ATOM      5  C   UNL     1      38.662  39.908  18.331  1.00  0.00    -0.000 C 
BRANCH   5   6
ATOM      6  C   UNL     1      39.687  38.763  18.299  1.00  0.00    -0.000 C 
BRANCH   6   7
ATOM      7  C   UNL     1      39.098  37.449  17.759  1.00  0.00    -0.000 C 
BRANCH   7   8
ATOM      8  C   UNL     1      38.885  36.348  18.817  1.00  0.00    -0.000 C 
BRANCH   8   9
ATOM      9  C   UNL     1      37.520  36.385  19.534  1.00  0.00    -0.000 C 
BRANCH   9  10
ATOM     10  C   UNL     1      37.431  37.374  20.710  1.00  0.00    -0.000 C 
BRANCH  10  11
ATOM     11  C   UNL     1      36.746  38.694  20.327  1.00  0.00    -0.003 C 
ATOM     12  C   UNL     1      35.249  38.641  20.624  1.00  0.00     0.004 C 
ENDBRANCH  10  11
ENDBRANCH   9  10
ENDBRANCH   8   9
ENDBRANCH   7   8
ENDBRANCH   6   7
ENDBRANCH   5   6
ENDBRANCH   4   5
ENDBRANCH   3   4
ENDBRANCH   2   3
ENDBRANCH   1   2
BRANCH   1  13
ATOM     13  C   UNL     1      40.031  44.575  21.921  1.00  0.00     0.000 C 
BRANCH  13  14
ATOM     14  C   UNL     1      40.125  44.501  23.452  1.00  0.00     0.000 C 
BRANCH  14  15
ATOM     15  C   UNL     1      38.726  44.511  24.086  1.00  0.00     0.000 C 
BRANCH  15  16
ATOM     16  C   UNL     1      38.043  45.887  24.003  1.00  0.00     0.000 C 
BRANCH  16  17
ATOM     17  C   UNL     1      36.517  45.778  23.837  1.00  0.00     0.000 C 
BRANCH  17  18
ATOM     18  C   UNL     1      35.853  47.122  23.483  1.00  0.00     0.000 C 
BRANCH  18  19
ATOM     19  C   UNL     1      34.358  47.038  23.125  1.00  0.00     0.000 C 
BRANCH  19  20
ATOM     20  C   UNL     1      33.748  45.655  23.412  1.00  0.00     0.006 C 
BRANCH  20  21
ATOM     21  C   UNL     1      32.609  45.727  24.438  1.00  0.00     0.053 C 
BRANCH  21  22
ATOM     22  C   UNL     1      33.067  46.328  25.731  1.00  0.00     0.041 C 
ATOM     23  O   UNL     1      34.050  45.836  26.347  1.00  0.00    -0.550 OA
ATOM     24  O   UNL     1      32.388  47.412  26.273  1.00  0.00    -0.550 OA
ENDBRANCH  21  22
ENDBRANCH  20  21
ENDBRANCH  19  20
ENDBRANCH  18  19
ENDBRANCH  17  18
ENDBRANCH  16  17
ENDBRANCH  15  16
ENDBRANCH  14  15
ENDBRANCH  13  14
ENDBRANCH   1  13
TORSDOF 20
ENDMDL
MODEL 4
REMARK VINA RESULT:     4.309      2.422      9.053
REMARK INTER + INTRA:          10.272
REMARK INTER:                  11.346
REMARK INTRA:                  -1.073
REMARK UNBOUND:                 0.926
REMARK SMILES CCCCCCCCCCCCCCCCCCCCCC(=O)[O-]
REMARK SMILES IDX 12 1 11 2 10 3 9 4 8 5 7 6 6 7 5 8 4 9 3 10 2 11 1 12 13 13
REMARK SMILES IDX 14 14 15 15 16 16 17 17 18 18 19 19 20 20 21 21 22 22 23 23
REMARK SMILES IDX 24 24
REMARK H PARENT
REMARK Flexibility Score: inf
ROOT
ATOM      1  C   UNL     1      39.973  41.573  19.594  1.00  0.00     0.000 C 
ENDROOT
BRANCH   1   2
ATOM      2  C   UNL     1      39.482  40.922  18.290  1.00  0.00     0.000 C 
BRANCH   2   3
ATOM      3  C   UNL     1      40.081  39.523  18.056  1.00  0.00     0.000 C 
BRANCH   3   4
ATOM      4  C   UNL     1      40.104  39.056  16.588  1.00  0.00    -0.000 C 
BRANCH   4   5
ATOM      5  C   UNL     1      39.037  37.997  16.277  1.00  0.00    -0.000 C 
BRANCH   5   6
ATOM      6  C   UNL     1      39.589  36.579  16.490  1.00  0.00    -0.000 C 
BRANCH   6   7
ATOM      7  C   UNL     1      40.078  36.337  17.929  1.00  0.00    -0.000 C 
BRANCH   7   8
ATOM      8  C   UNL     1      39.338  35.219  18.688  1.00  0.00    -0.000 C 
BRANCH   8   9
ATOM      9  C   UNL     1      38.225  35.700  19.641  1.00  0.00    -0.000 C 
BRANCH   9  10
ATOM     10  C   UNL     1      37.696  37.118  19.357  1.00  0.00    -0.000 C 
BRANCH  10  11
ATOM     11  C   UNL     1      37.189  37.827  20.622  1.00  0.00    -0.003 C 
ATOM     12  C   UNL     1      36.923  39.306  20.353  1.00  0.00     0.004 C 
ENDBRANCH  10  11
ENDBRANCH   9  10
ENDBRANCH   8   9
ENDBRANCH   7   8
ENDBRANCH   6   7
ENDBRANCH   5   6
ENDBRANCH   4   5
ENDBRANCH   3   4
ENDBRANCH   2   3
ENDBRANCH   1   2
BRANCH   1  13
ATOM     13  C   UNL     1      40.123  43.098  19.471  1.00  0.00     0.000 C 
BRANCH  13  14
ATOM     14  C   UNL     1      40.125  43.809  20.832  1.00  0.00     0.000 C 
BRANCH  14  15
ATOM     15  C   UNL     1      40.122  45.334  20.651  1.00  0.00     0.000 C 
BRANCH  15  16
ATOM     16  C   UNL     1      39.967  46.092  21.981  1.00  0.00     0.000 C 
BRANCH  16  17
ATOM     17  C   UNL     1      38.579  45.893  22.614  1.00  0.00     0.000 C 
BRANCH  17  18
ATOM     18  C   UNL     1      38.639  45.222  23.999  1.00  0.00     0.000 C 
BRANCH  18  19
ATOM     19  C   UNL     1      37.435  45.507  24.916  1.00  0.00     0.000 C 
BRANCH  19  20
ATOM     20  C   UNL     1      36.231  46.095  24.161  1.00  0.00     0.006 C 
BRANCH  20  21
ATOM     21  C   UNL     1      35.092  46.495  25.110  1.00  0.00     0.053 C 
BRANCH  21  22
ATOM     22  C   UNL     1      33.765  46.484  24.417  1.00  0.00     0.041 C 
ATOM     23  O   UNL     1      33.702  46.619  23.166  1.00  0.00    -0.550 OA
ATOM     24  O   UNL     1      32.595  46.357  25.156  1.00  0.00    -0.550 OA
ENDBRANCH  21  22
ENDBRANCH  20  21
ENDBRANCH  19  20
ENDBRANCH  18  19
ENDBRANCH  17  18
ENDBRANCH  16  17
ENDBRANCH  15  16
ENDBRANCH  14  15
ENDBRANCH  13  14
ENDBRANCH   1  13
TORSDOF 20
ENDMDL
MODEL 5
REMARK VINA RESULT:     4.395      5.131      8.728
REMARK INTER + INTRA:          10.460
REMARK INTER:                  10.093
REMARK INTRA:                   0.367
REMARK UNBOUND:                 0.926
REMARK SMILES CCCCCCCCCCCCCCCCCCCCCC(=O)[O-]
REMARK SMILES IDX 12 1 11 2 10 3 9 4 8 5 7 6 6 7 5 8 4 9 3 10 2 11 1 12 13 13
REMARK SMILES IDX 14 14 15 15 16 16 17 17 18 18 19 19 20 20 21 21 22 22 23 23
REMARK SMILES IDX 24 24
REMARK H PARENT
REMARK Flexibility Score: inf
ROOT
ATOM      1  C   UNL     1      36.408  38.348  20.498  1.00  0.00     0.000 C 
ENDROOT
BRANCH   1   2
ATOM      2  C   UNL     1      36.533  36.844  20.796  1.00  0.00     0.000 C 
BRANCH   2   3
ATOM      3  C   UNL     1      35.207  36.212  21.258  1.00  0.00     0.000 C 
BRANCH   3   4
ATOM      4  C   UNL     1      33.962  37.102  21.089  1.00  0.00    -0.000 C 
BRANCH   4   5
ATOM      5  C   UNL     1      32.763  36.622  21.918  1.00  0.00    -0.000 C 
BRANCH   5   6
ATOM      6  C   UNL     1      32.321  35.215  21.487  1.00  0.00    -0.000 C 
BRANCH   6   7
ATOM      7  C   UNL     1      30.810  35.122  21.210  1.00  0.00    -0.000 C 
BRANCH   7   8
ATOM      8  C   UNL     1      30.424  35.093  19.717  1.00  0.00    -0.000 C 
BRANCH   8   9
ATOM      9  C   UNL     1      28.915  34.949  19.435  1.00  0.00    -0.000 C 
BRANCH   9  10
ATOM     10  C   UNL     1      28.024  34.875  20.688  1.00  0.00    -0.000 C 
BRANCH  10  11
ATOM     11  C   UNL     1      26.788  35.783  20.593  1.00  0.00    -0.003 C 
ATOM     12  C   UNL     1      25.680  35.301  21.527  1.00  0.00     0.004 C 
ENDBRANCH  10  11
ENDBRANCH   9  10
ENDBRANCH   8   9
ENDBRANCH   7   8
ENDBRANCH   6   7
ENDBRANCH   5   6
ENDBRANCH   4   5
ENDBRANCH   3   4
ENDBRANCH   2   3
ENDBRANCH   1   2
BRANCH   1  13
ATOM     13  C   UNL     1      37.326  38.799  19.350  1.00  0.00     0.000 C 
BRANCH  13  14
ATOM     14  C   UNL     1      38.629  39.442  19.847  1.00  0.00     0.000 C 
BRANCH  14  15
ATOM     15  C   UNL     1      38.997  40.662  18.989  1.00  0.00     0.000 C 
BRANCH  15  16
ATOM     16  C   UNL     1      39.459  40.278  17.573  1.00  0.00     0.000 C 
BRANCH  16  17
ATOM     17  C   UNL     1      40.091  38.876  17.520  1.00  0.00     0.000 C 
BRANCH  17  18
ATOM     18  C   UNL     1      39.256  37.869  16.708  1.00  0.00     0.000 C 
BRANCH  18  19
ATOM     19  C   UNL     1      40.035  36.652  16.177  1.00  0.00     0.000 C 
BRANCH  19  20
ATOM     20  C   UNL     1      39.238  35.339  16.274  1.00  0.00     0.006 C 
BRANCH  20  21
ATOM     21  C   UNL     1      38.235  35.356  17.436  1.00  0.00     0.053 C 
BRANCH  21  22
ATOM     22  C   UNL     1      38.928  35.346  18.764  1.00  0.00     0.041 C 
ATOM     23  O   UNL     1      40.124  35.727  18.858  1.00  0.00    -0.550 OA
ATOM     24  O   UNL     1      38.261  34.883  19.892  1.00  0.00    -0.550 OA
ENDBRANCH  21  22
ENDBRANCH  20  21
ENDBRANCH  19  20
ENDBRANCH  18  19
ENDBRANCH  17  18
ENDBRANCH  16  17
ENDBRANCH  15  16
ENDBRANCH  14  15
ENDBRANCH  13  14
ENDBRANCH   1  13
TORSDOF 20
ENDMDL
MODEL 6
REMARK VINA RESULT:     4.505      1.449      2.507
REMARK INTER + INTRA:          10.698
REMARK INTER:                  11.573
REMARK INTRA:                  -0.875
REMARK UNBOUND:                 0.926
REMARK SMILES CCCCCCCCCCCCCCCCCCCCCC(=O)[O-]
REMARK SMILES IDX 12 1 11 2 10 3 9 4 8 5 7 6 6 7 5 8 4 9 3 10 2 11 1 12 13 13
REMARK SMILES IDX 14 14 15 15 16 16 17 17 18 18 19 19 20 20 21 21 22 22 23 23
REMARK SMILES IDX 24 24
REMARK H PARENT
REMARK Flexibility Score: inf
ROOT
ATOM      1  C   UNL     1      40.074  42.880  20.686  1.00  0.00     0.000 C 
ENDROOT
BRANCH   1   2
ATOM      2  C   UNL     1      40.124  44.413  20.805  1.00  0.00     0.000 C 
BRANCH   2   3
ATOM      3  C   UNL     1      40.123  44.901  22.265  1.00  0.00     0.000 C 
BRANCH   3   4
ATOM      4  C   UNL     1      39.479  46.281  22.495  1.00  0.00    -0.000 C 
BRANCH   4   5
ATOM      5  C   UNL     1      37.945  46.233  22.509  1.00  0.00    -0.000 C 
BRANCH   5   6
ATOM      6  C   UNL     1      37.413  45.954  23.923  1.00  0.00    -0.000 C 
BRANCH   6   7
ATOM      7  C   UNL     1      36.043  46.603  24.186  1.00  0.00    -0.000 C 
BRANCH   7   8
ATOM      8  C   UNL     1      35.274  47.033  22.920  1.00  0.00    -0.000 C 
BRANCH   8   9
ATOM      9  C   UNL     1      33.749  46.820  22.978  1.00  0.00    -0.000 C 
BRANCH   9  10
ATOM     10  C   UNL     1      33.274  45.802  24.031  1.00  0.00    -0.000 C 
BRANCH  10  11
ATOM     11  C   UNL     1      32.694  46.472  25.286  1.00  0.00    -0.003 C 
ATOM     12  C   UNL     1      33.219  45.806  26.556  1.00  0.00     0.004 C 
ENDBRANCH  10  11
ENDBRANCH   9  10
ENDBRANCH   8   9
ENDBRANCH   7   8
ENDBRANCH   6   7
ENDBRANCH   5   6
ENDBRANCH   4   5
ENDBRANCH   3   4
ENDBRANCH   2   3
ENDBRANCH   1   2
BRANCH   1  13
ATOM     13  C   UNL     1      40.069  42.403  19.224  1.00  0.00     0.000 C 
BRANCH  13  14
ATOM     14  C   UNL     1      38.793  41.633  18.853  1.00  0.00     0.000 C 
BRANCH  14  15
ATOM     15  C   UNL     1      38.960  40.132  19.134  1.00  0.00     0.000 C 
BRANCH  15  16
ATOM     16  C   UNL     1      40.125  39.505  18.350  1.00  0.00     0.000 C 
BRANCH  16  17
ATOM     17  C   UNL     1      39.720  39.091  16.924  1.00  0.00     0.000 C 
BRANCH  17  18
ATOM     18  C   UNL     1      39.204  37.643  16.841  1.00  0.00     0.000 C 
BRANCH  18  19
ATOM     19  C   UNL     1      39.714  36.702  17.948  1.00  0.00     0.000 C 
BRANCH  19  20
ATOM     20  C   UNL     1      38.742  35.549  18.253  1.00  0.00     0.006 C 
BRANCH  20  21
ATOM     21  C   UNL     1      38.396  35.463  19.746  1.00  0.00     0.053 C 
BRANCH  21  22
ATOM     22  C   UNL     1      37.323  36.437  20.121  1.00  0.00     0.041 C 
ATOM     23  O   UNL     1      36.633  36.252  21.159  1.00  0.00    -0.550 OA
ATOM     24  O   UNL     1      37.061  37.532  19.307  1.00  0.00    -0.550 OA
ENDBRANCH  21  22
ENDBRANCH  20  21
ENDBRANCH  19  20
ENDBRANCH  18  19
ENDBRANCH  17  18
ENDBRANCH  16  17
ENDBRANCH  15  16
ENDBRANCH  14  15
ENDBRANCH  13  14
ENDBRANCH   1  13
TORSDOF 20
ENDMDL
MODEL 7
REMARK VINA RESULT:     4.569     11.979     18.985
REMARK INTER + INTRA:          10.837
REMARK INTER:                  11.929
REMARK INTRA:                  -1.092
REMARK UNBOUND:                 0.926
REMARK SMILES CCCCCCCCCCCCCCCCCCCCCC(=O)[O-]
REMARK SMILES IDX 12 1 11 2 10 3 9 4 8 5 7 6 6 7 5 8 4 9 3 10 2 11 1 12 13 13
REMARK SMILES IDX 14 14 15 15 16 16 17 17 18 18 19 19 20 20 21 21 22 22 23 23
REMARK SMILES IDX 24 24
REMARK H PARENT
REMARK Flexibility Score: inf
ROOT
ATOM      1  C   UNL     1      24.730  50.892  25.848  1.00  0.00     0.000 C 
ENDROOT
BRANCH   1   2
ATOM      2  C   UNL     1      26.046  50.611  25.102  1.00  0.00     0.000 C 
BRANCH   2   3
ATOM      3  C   UNL     1      26.745  49.326  25.583  1.00  0.00     0.000 C 
BRANCH   3   4
ATOM      4  C   UNL     1      28.144  49.528  26.193  1.00  0.00    -0.000 C 
BRANCH   4   5
ATOM      5  C   UNL     1      29.227  48.682  25.508  1.00  0.00    -0.000 C 
BRANCH   5   6
ATOM      6  C   UNL     1      30.219  48.116  26.536  1.00  0.00    -0.000 C 
BRANCH   6   7
ATOM      7  C   UNL     1      31.680  48.186  26.058  1.00  0.00    -0.000 C 
BRANCH   7   8
ATOM      8  C   UNL     1      32.637  47.193  26.746  1.00  0.00    -0.000 C 
BRANCH   8   9
ATOM      9  C   UNL     1      33.540  46.387  25.791  1.00  0.00    -0.000 C 
BRANCH   9  10
ATOM     10  C   UNL     1      32.802  45.686  24.636  1.00  0.00    -0.000 C 
BRANCH  10  11
ATOM     11  C   UNL     1      33.413  46.000  23.263  1.00  0.00    -0.003 C 
ATOM     12  C   UNL     1      34.426  47.138  23.359  1.00  0.00     0.004 C 
ENDBRANCH  10  11
ENDBRANCH   9  10
ENDBRANCH   8   9
ENDBRANCH   7   8
ENDBRANCH   6   7
ENDBRANCH   5   6
ENDBRANCH   4   5
ENDBRANCH   3   4
ENDBRANCH   2   3
ENDBRANCH   1   2
BRANCH   1  13
ATOM     13  C   UNL     1      24.018  52.152  25.331  1.00  0.00     0.000 C 
BRANCH  13  14
ATOM     14  C   UNL     1      23.233  52.886  26.428  1.00  0.00     0.000 C 
BRANCH  14  15
ATOM     15  C   UNL     1      23.033  51.981  27.653  1.00  0.00     0.000 C 
BRANCH  15  16
ATOM     16  C   UNL     1      21.895  52.463  28.570  1.00  0.00     0.000 C 
BRANCH  16  17
ATOM     17  C   UNL     1      22.407  52.955  29.935  1.00  0.00     0.000 C 
BRANCH  17  18
ATOM     18  C   UNL     1      23.943  53.032  30.011  1.00  0.00     0.000 C 
BRANCH  18  19
ATOM     19  C   UNL     1      24.498  53.933  31.129  1.00  0.00     0.000 C 
BRANCH  19  20
ATOM     20  C   UNL     1      23.398  54.515  32.034  1.00  0.00     0.006 C 
BRANCH  20  21
ATOM     21  C   UNL     1      23.689  54.280  33.522  1.00  0.00     0.053 C 
BRANCH  21  22
ATOM     22  C   UNL     1      22.429  54.072  34.305  1.00  0.00     0.041 C 
ATOM     23  O   UNL     1      21.398  53.621  33.739  1.00  0.00    -0.550 OA
ATOM     24  O   UNL     1      22.383  54.410  35.652  1.00  0.00    -0.550 OA
ENDBRANCH  21  22
ENDBRANCH  20  21
ENDBRANCH  19  20
ENDBRANCH  18  19
ENDBRANCH  17  18
ENDBRANCH  16  17
ENDBRANCH  15  16
ENDBRANCH  14  15
ENDBRANCH  13  14
ENDBRANCH   1  13
TORSDOF 20
ENDMDL
MODEL 8
REMARK VINA RESULT:     4.578     10.977     16.732
REMARK INTER + INTRA:          10.857
REMARK INTER:                  11.830
REMARK INTRA:                  -0.973
REMARK UNBOUND:                 0.926
REMARK SMILES CCCCCCCCCCCCCCCCCCCCCC(=O)[O-]
REMARK SMILES IDX 12 1 11 2 10 3 9 4 8 5 7 6 6 7 5 8 4 9 3 10 2 11 1 12 13 13
REMARK SMILES IDX 14 14 15 15 16 16 17 17 18 18 19 19 20 20 21 21 22 22 23 23
REMARK SMILES IDX 24 24
REMARK H PARENT
REMARK Flexibility Score: inf
ROOT
ATOM      1  C   UNL     1      24.537  51.545  25.173  1.00  0.00     0.000 C 
ENDROOT
BRANCH   1   2
ATOM      2  C   UNL     1      23.570  52.382  26.028  1.00  0.00     0.000 C 
BRANCH   2   3
ATOM      3  C   UNL     1      23.183  51.689  27.348  1.00  0.00     0.000 C 
BRANCH   3   4
ATOM      4  C   UNL     1      21.992  52.318  28.094  1.00  0.00    -0.000 C 
BRANCH   4   5
ATOM      5  C   UNL     1      22.355  52.802  29.505  1.00  0.00    -0.000 C 
BRANCH   5   6
ATOM      6  C   UNL     1      23.858  52.632  29.778  1.00  0.00    -0.000 C 
BRANCH   6   7
ATOM      7  C   UNL     1      24.406  53.671  30.772  1.00  0.00    -0.000 C 
BRANCH   7   8
ATOM      8  C   UNL     1      23.365  54.242  31.755  1.00  0.00    -0.000 C 
BRANCH   8   9
ATOM      9  C   UNL     1      23.913  54.604  33.150  1.00  0.00    -0.000 C 
BRANCH   9  10
ATOM     10  C   UNL     1      22.894  54.488  34.298  1.00  0.00    -0.000 C 
BRANCH  10  11
ATOM     11  C   UNL     1      21.646  53.684  33.906  1.00  0.00    -0.003 C 
ATOM     12  C   UNL     1      20.403  54.571  33.897  1.00  0.00     0.004 C 
ENDBRANCH  10  11
ENDBRANCH   9  10
ENDBRANCH   8   9
ENDBRANCH   7   8
ENDBRANCH   6   7
ENDBRANCH   5   6
ENDBRANCH   4   5
ENDBRANCH   3   4
ENDBRANCH   2   3
ENDBRANCH   1   2
BRANCH   1  13
ATOM     13  C   UNL     1      25.386  50.581  26.017  1.00  0.00     0.000 C 
BRANCH  13  14
ATOM     14  C   UNL     1      26.529  49.938  25.218  1.00  0.00     0.000 C 
BRANCH  14  15
ATOM     15  C   UNL     1      27.776  49.758  26.097  1.00  0.00     0.000 C 
BRANCH  15  16
ATOM     16  C   UNL     1      28.813  48.808  25.473  1.00  0.00     0.000 C 
BRANCH  16  17
ATOM     17  C   UNL     1      29.892  48.372  26.479  1.00  0.00     0.000 C 
BRANCH  17  18
ATOM     18  C   UNL     1      31.013  47.535  25.835  1.00  0.00     0.000 C 
BRANCH  18  19
ATOM     19  C   UNL     1      32.407  47.716  26.462  1.00  0.00     0.000 C 
BRANCH  19  20
ATOM     20  C   UNL     1      33.384  46.587  26.090  1.00  0.00     0.006 C 
BRANCH  20  21
ATOM     21  C   UNL     1      32.917  45.799  24.858  1.00  0.00     0.053 C 
BRANCH  21  22
ATOM     22  C   UNL     1      33.540  46.321  23.600  1.00  0.00     0.041 C 
ATOM     23  O   UNL     1      33.396  45.697  22.515  1.00  0.00    -0.550 OA
ATOM     24  O   UNL     1      34.308  47.478  23.632  1.00  0.00    -0.550 OA
ENDBRANCH  21  22
ENDBRANCH  20  21
ENDBRANCH  19  20
ENDBRANCH  18  19
ENDBRANCH  17  18
ENDBRANCH  16  17
ENDBRANCH  15  16
ENDBRANCH  14  15
ENDBRANCH  13  14
ENDBRANCH   1  13
TORSDOF 20
ENDMDL
MODEL 9
REMARK VINA RESULT:     4.750     11.712     17.554
REMARK INTER + INTRA:          11.230
REMARK INTER:                  11.935
REMARK INTRA:                  -0.705
REMARK UNBOUND:                 0.926
REMARK SMILES CCCCCCCCCCCCCCCCCCCCCC(=O)[O-]
REMARK SMILES IDX 12 1 11 2 10 3 9 4 8 5 7 6 6 7 5 8 4 9 3 10 2 11 1 12 13 13
REMARK SMILES IDX 14 14 15 15 16 16 17 17 18 18 19 19 20 20 21 21 22 22 23 23
REMARK SMILES IDX 24 24
REMARK H PARENT
REMARK Flexibility Score: inf
ROOT
ATOM      1  C   UNL     1      23.531  52.499  26.223  1.00  0.00     0.000 C 
ENDROOT
BRANCH   1   2
ATOM      2  C   UNL     1      23.197  51.706  27.498  1.00  0.00     0.000 C 
BRANCH   2   3
ATOM      3  C   UNL     1      22.059  52.341  28.318  1.00  0.00     0.000 C 
BRANCH   3   4
ATOM      4  C   UNL     1      22.480  52.931  29.677  1.00  0.00    -0.000 C 
BRANCH   4   5
ATOM      5  C   UNL     1      23.972  52.735  29.981  1.00  0.00    -0.000 C 
BRANCH   5   6
ATOM      6  C   UNL     1      24.496  53.840  30.912  1.00  0.00    -0.000 C 
BRANCH   6   7
ATOM      7  C   UNL     1      23.437  54.326  31.918  1.00  0.00    -0.000 C 
BRANCH   7   8
ATOM      8  C   UNL     1      23.754  54.016  33.394  1.00  0.00    -0.000 C 
BRANCH   8   9
ATOM      9  C   UNL     1      23.007  54.891  34.420  1.00  0.00    -0.000 C 
BRANCH   9  10
ATOM     10  C   UNL     1      22.728  54.211  35.774  1.00  0.00    -0.000 C 
BRANCH  10  11
ATOM     11  C   UNL     1      21.368  53.499  35.812  1.00  0.00    -0.003 C 
ATOM     12  C   UNL     1      20.660  53.594  34.463  1.00  0.00     0.004 C 
ENDBRANCH  10  11
ENDBRANCH   9  10
ENDBRANCH   8   9
ENDBRANCH   7   8
ENDBRANCH   6   7
ENDBRANCH   5   6
ENDBRANCH   4   5
ENDBRANCH   3   4
ENDBRANCH   2   3
ENDBRANCH   1   2
BRANCH   1  13
ATOM     13  C   UNL     1      24.398  51.695  25.240  1.00  0.00     0.000 C 
BRANCH  13  14
ATOM     14  C   UNL     1      25.086  50.491  25.899  1.00  0.00     0.000 C 
BRANCH  14  15
ATOM     15  C   UNL     1      26.421  50.179  25.206  1.00  0.00     0.000 C 
BRANCH  15  16
ATOM     16  C   UNL     1      27.324  49.255  26.041  1.00  0.00     0.000 C 
BRANCH  16  17
ATOM     17  C   UNL     1      28.713  49.060  25.409  1.00  0.00     0.000 C 
BRANCH  17  18
ATOM     18  C   UNL     1      29.772  48.578  26.418  1.00  0.00     0.000 C 
BRANCH  18  19
ATOM     19  C   UNL     1      30.827  47.613  25.848  1.00  0.00     0.000 C 
BRANCH  19  20
ATOM     20  C   UNL     1      32.245  47.893  26.376  1.00  0.00     0.006 C 
BRANCH  20  21
ATOM     21  C   UNL     1      33.167  46.674  26.232  1.00  0.00     0.053 C 
BRANCH  21  22
ATOM     22  C   UNL     1      33.411  46.333  24.795  1.00  0.00     0.041 C 
ATOM     23  O   UNL     1      34.290  46.949  24.136  1.00  0.00    -0.550 OA
ATOM     24  O   UNL     1      32.644  45.355  24.172  1.00  0.00    -0.550 OA
ENDBRANCH  21  22
ENDBRANCH  20  21
ENDBRANCH  19  20
ENDBRANCH  18  19
ENDBRANCH  17  18
ENDBRANCH  16  17
ENDBRANCH  15  16
ENDBRANCH  14  15
ENDBRANCH  13  14
ENDBRANCH   1  13
TORSDOF 20
ENDMDL
