MODEL 1
REMARK VINA RESULT:    -3.208      0.000      0.000
REMARK INTER + INTRA:          -5.595
REMARK INTER:                  -5.083
REMARK INTRA:                  -0.512
REMARK UNBOUND:                -0.512
REMARK SMILES CCCCCCCCCCCC(=O)[O-]
REMARK SMILES IDX 7 1 8 2 9 3 10 4 11 5 12 6 13 7 14 8 6 9 5 10 4 11 3 12 2 13
REMARK SMILES IDX 1 14
REMARK H PARENT
REMARK Flexibility Score: inf
ROOT
ATOM      1  C   UNL     1     -15.985  17.538  -8.849  1.00  0.00     0.000 C 
ENDROOT
BRANCH   1   2
ATOM      2  C   UNL     1     -16.908  16.317  -8.759  1.00  0.00     0.000 C 
BRANCH   2   3
ATOM      3  C   UNL     1     -16.632  15.333  -9.902  1.00  0.00     0.000 C 
BRANCH   3   4
ATOM      4  C   UNL     1     -16.548  13.893  -9.382  1.00  0.00     0.006 C 
BRANCH   4   5
ATOM      5  C   UNL     1     -15.096  13.488  -9.117  1.00  0.00     0.053 C 
BRANCH   5   6
ATOM      6  C   UNL     1     -14.879  13.241  -7.657  1.00  0.00     0.041 C 
ATOM      7  O   UNL     1     -13.793  12.746  -7.254  1.00  0.00    -0.550 OA
ATOM      8  O   UNL     1     -15.894  13.510  -6.748  1.00  0.00    -0.550 OA
ENDBRANCH   5   6
ENDBRANCH   4   5
ENDBRANCH   3   4
ENDBRANCH   2   3
ENDBRANCH   1   2
BRANCH   1   9
ATOM      9  C   UNL     1     -16.687  18.705  -9.559  1.00  0.00     0.000 C 
BRANCH   9  10
ATOM     10  C   UNL     1     -15.888  19.235 -10.761  1.00  0.00    -0.000 C 
BRANCH  10  11
ATOM     11  C   UNL     1     -16.455  20.557 -11.310  1.00  0.00    -0.000 C 
BRANCH  11  12
ATOM     12  C   UNL     1     -15.424  21.343 -12.136  1.00  0.00    -0.000 C 
BRANCH  12  13
ATOM     13  C   UNL     1     -14.014  20.742 -12.052  1.00  0.00    -0.003 C 
ATOM     14  C   UNL     1     -12.949  21.835 -12.075  1.00  0.00     0.004 C 
ENDBRANCH  12  13
ENDBRANCH  11  12
ENDBRANCH  10  11
ENDBRANCH   9  10
ENDBRANCH   1   9
TORSDOF 10
ENDMDL
MODEL 2
REMARK VINA RESULT:    -3.043      1.924      2.216
REMARK INTER + INTRA:          -5.334
REMARK INTER:                  -4.897
REMARK INTRA:                  -0.438
REMARK UNBOUND:                -0.512
REMARK SMILES CCCCCCCCCCCC(=O)[O-]
REMARK SMILES IDX 7 1 8 2 9 3 10 4 11 5 12 6 13 7 14 8 6 9 5 10 4 11 3 12 2 13
REMARK SMILES IDX 1 14
REMARK H PARENT
REMARK Flexibility Score: inf
ROOT
ATOM      1  C   UNL     1     -15.605  17.200  -8.935  1.00  0.00     0.000 C 
ENDROOT
BRANCH   1   2
ATOM      2  C   UNL     1     -16.338  16.455  -7.812  1.00  0.00     0.000 C 
BRANCH   2   3
ATOM      3  C   UNL     1     -16.207  14.936  -7.982  1.00  0.00     0.000 C 
BRANCH   3   4
ATOM      4  C   UNL     1     -15.534  14.587  -9.315  1.00  0.00     0.006 C 
BRANCH   4   5
ATOM      5  C   UNL     1     -14.881  13.204  -9.256  1.00  0.00     0.053 C 
BRANCH   5   6
ATOM      6  C   UNL     1     -14.960  12.529 -10.589  1.00  0.00     0.041 C 
ATOM      7  O   UNL     1     -15.999  11.899 -10.920  1.00  0.00    -0.550 OA
ATOM      8  O   UNL     1     -13.867  12.555 -11.446  1.00  0.00    -0.550 OA
ENDBRANCH   5   6
ENDBRANCH   4   5
ENDBRANCH   3   4
ENDBRANCH   2   3
ENDBRANCH   1   2
BRANCH   1   9
ATOM      9  C   UNL     1     -16.491  18.304  -9.530  1.00  0.00     0.000 C 
BRANCH   9  10
ATOM     10  C   UNL     1     -16.185  18.578 -11.012  1.00  0.00    -0.000 C 
BRANCH  10  11
ATOM     11  C   UNL     1     -15.367  19.866 -11.217  1.00  0.00    -0.000 C 
BRANCH  11  12
ATOM     12  C   UNL     1     -14.642  19.894 -12.573  1.00  0.00    -0.000 C 
BRANCH  12  13
ATOM     13  C   UNL     1     -13.229  20.486 -12.477  1.00  0.00    -0.003 C 
ATOM     14  C   UNL     1     -13.280  21.975 -12.144  1.00  0.00     0.004 C 
ENDBRANCH  12  13
ENDBRANCH  11  12
ENDBRANCH  10  11
ENDBRANCH   9  10
ENDBRANCH   1   9
TORSDOF 10
ENDMDL
MODEL 3
REMARK VINA RESULT:    -3.014      3.771      7.179
REMARK INTER + INTRA:          -5.288
REMARK INTER:                  -4.778
REMARK INTRA:                  -0.510
REMARK UNBOUND:                -0.512
REMARK SMILES CCCCCCCCCCCC(=O)[O-]
REMARK SMILES IDX 7 1 8 2 9 3 10 4 11 5 12 6 13 7 14 8 6 9 5 10 4 11 3 12 2 13
REMARK SMILES IDX 1 14
REMARK H PARENT
REMARK Flexibility Score: inf
ROOT
ATOM      1  C   UNL     1     -15.668  16.927  -8.605  1.00  0.00     0.000 C 
ENDROOT
BRANCH   1   2
ATOM      2  C   UNL     1     -16.453  18.131  -9.140  1.00  0.00     0.000 C 
BRANCH   2   3
ATOM      3  C   UNL     1     -16.093  18.417 -10.603  1.00  0.00     0.000 C 
BRANCH   3   4
ATOM      4  C   UNL     1     -16.075  19.926 -10.881  1.00  0.00     0.006 C 
BRANCH   4   5
ATOM      5  C   UNL     1     -15.580  20.217 -12.300  1.00  0.00     0.053 C 
BRANCH   5   6
ATOM      6  C   UNL     1     -14.192  20.774 -12.266  1.00  0.00     0.041 C 
ATOM      7  O   UNL     1     -13.200  20.016 -12.434  1.00  0.00    -0.550 OA
ATOM      8  O   UNL     1     -13.991  22.123 -12.000  1.00  0.00    -0.550 OA
ENDBRANCH   5   6
ENDBRANCH   4   5
ENDBRANCH   3   4
ENDBRANCH   2   3
ENDBRANCH   1   2
BRANCH   1   9
ATOM      9  C   UNL     1     -16.477  16.178  -7.535  1.00  0.00     0.000 C 
BRANCH   9  10
ATOM     10  C   UNL     1     -16.702  14.699  -7.890  1.00  0.00    -0.000 C 
BRANCH  10  11
ATOM     11  C   UNL     1     -15.731  13.760  -7.151  1.00  0.00    -0.000 C 
BRANCH  11  12
ATOM     12  C   UNL     1     -14.631  13.207  -8.072  1.00  0.00    -0.000 C 
BRANCH  12  13
ATOM     13  C   UNL     1     -14.962  13.379  -9.561  1.00  0.00    -0.003 C 
ATOM     14  C   UNL     1     -14.606  12.123 -10.351  1.00  0.00     0.004 C 
ENDBRANCH  12  13
ENDBRANCH  11  12
ENDBRANCH  10  11
ENDBRANCH   9  10
ENDBRANCH   1   9
TORSDOF 10
ENDMDL
MODEL 4
REMARK VINA RESULT:    -2.851      3.419      6.006
REMARK INTER + INTRA:          -5.029
REMARK INTER:                  -4.008
REMARK INTRA:                  -1.021
REMARK UNBOUND:                -0.512
REMARK SMILES CCCCCCCCCCCC(=O)[O-]
REMARK SMILES IDX 7 1 8 2 9 3 10 4 11 5 12 6 13 7 14 8 6 9 5 10 4 11 3 12 2 13
REMARK SMILES IDX 1 14
REMARK H PARENT
REMARK Flexibility Score: inf
ROOT
ATOM      1  C   UNL     1     -15.104  13.501  -7.788  1.00  0.00     0.000 C 
ENDROOT
BRANCH   1   2
ATOM      2  C   UNL     1     -16.478  14.081  -7.432  1.00  0.00     0.000 C 
BRANCH   2   3
ATOM      3  C   UNL     1     -16.373  15.571  -7.081  1.00  0.00     0.000 C 
BRANCH   3   4
ATOM      4  C   UNL     1     -16.944  16.443  -8.206  1.00  0.00     0.006 C 
BRANCH   4   5
ATOM      5  C   UNL     1     -15.842  17.268  -8.876  1.00  0.00     0.053 C 
BRANCH   5   6
ATOM      6  C   UNL     1     -16.410  18.106  -9.977  1.00  0.00     0.041 C 
ATOM      7  O   UNL     1     -16.692  19.316  -9.771  1.00  0.00    -0.550 OA
ATOM      8  O   UNL     1     -16.676  17.537 -11.216  1.00  0.00    -0.550 OA
ENDBRANCH   5   6
ENDBRANCH   4   5
ENDBRANCH   3   4
ENDBRANCH   2   3
ENDBRANCH   1   2
BRANCH   1   9
ATOM      9  C   UNL     1     -14.884  13.503  -9.308  1.00  0.00     0.000 C 
BRANCH   9  10
ATOM     10  C   UNL     1     -16.172  13.207 -10.094  1.00  0.00    -0.000 C 
BRANCH  10  11
ATOM     11  C   UNL     1     -16.261  14.010 -11.405  1.00  0.00    -0.000 C 
BRANCH  11  12
ATOM     12  C   UNL     1     -15.901  13.166 -12.639  1.00  0.00    -0.000 C 
BRANCH  12  13
ATOM     13  C   UNL     1     -14.465  13.410 -13.125  1.00  0.00    -0.003 C 
ATOM     14  C   UNL     1     -13.506  12.374 -12.545  1.00  0.00     0.004 C 
ENDBRANCH  12  13
ENDBRANCH  11  12
ENDBRANCH  10  11
ENDBRANCH   9  10
ENDBRANCH   1   9
TORSDOF 10
ENDMDL
MODEL 5
REMARK VINA RESULT:    -2.775      3.008      4.709
REMARK INTER + INTRA:          -4.910
REMARK INTER:                  -4.103
REMARK INTRA:                  -0.807
REMARK UNBOUND:                -0.512
REMARK SMILES CCCCCCCCCCCC(=O)[O-]
REMARK SMILES IDX 7 1 8 2 9 3 10 4 11 5 12 6 13 7 14 8 6 9 5 10 4 11 3 12 2 13
REMARK SMILES IDX 1 14
REMARK H PARENT
REMARK Flexibility Score: inf
ROOT
ATOM      1  C   UNL     1     -15.138  13.489  -7.627  1.00  0.00     0.000 C 
ENDROOT
BRANCH   1   2
ATOM      2  C   UNL     1     -14.992  13.142  -9.114  1.00  0.00     0.000 C 
BRANCH   2   3
ATOM      3  C   UNL     1     -16.217  13.606  -9.911  1.00  0.00     0.000 C 
BRANCH   3   4
ATOM      4  C   UNL     1     -16.200  13.030 -11.332  1.00  0.00     0.006 C 
BRANCH   4   5
ATOM      5  C   UNL     1     -14.980  13.524 -12.111  1.00  0.00     0.053 C 
BRANCH   5   6
ATOM      6  C   UNL     1     -14.294  12.381 -12.792  1.00  0.00     0.041 C 
ATOM      7  O   UNL     1     -14.947  11.356 -13.121  1.00  0.00    -0.550 OA
ATOM      8  O   UNL     1     -12.924  12.428 -13.018  1.00  0.00    -0.550 OA
ENDBRANCH   5   6
ENDBRANCH   4   5
ENDBRANCH   3   4
ENDBRANCH   2   3
ENDBRANCH   1   2
BRANCH   1   9
ATOM      9  C   UNL     1     -16.507  14.126  -7.344  1.00  0.00     0.000 C 
BRANCH   9  10
ATOM     10  C   UNL     1     -16.404  15.610  -6.958  1.00  0.00    -0.000 C 
BRANCH  10  11
ATOM     11  C   UNL     1     -16.970  16.543  -8.043  1.00  0.00    -0.000 C 
BRANCH  11  12
ATOM     12  C   UNL     1     -15.867  17.232  -8.863  1.00  0.00    -0.000 C 
BRANCH  12  13
ATOM     13  C   UNL     1     -16.355  17.689 -10.246  1.00  0.00    -0.003 C 
ATOM     14  C   UNL     1     -16.157  19.192 -10.427  1.00  0.00     0.004 C 
ENDBRANCH  12  13
ENDBRANCH  11  12
ENDBRANCH  10  11
ENDBRANCH   9  10
ENDBRANCH   1   9
TORSDOF 10
ENDMDL
MODEL 6
REMARK VINA RESULT:    -2.707      3.764      6.891
REMARK INTER + INTRA:          -4.802
REMARK INTER:                  -4.275
REMARK INTRA:                  -0.527
REMARK UNBOUND:                -0.512
REMARK SMILES CCCCCCCCCCCC(=O)[O-]
REMARK SMILES IDX 7 1 8 2 9 3 10 4 11 5 12 6 13 7 14 8 6 9 5 10 4 11 3 12 2 13
REMARK SMILES IDX 1 14
REMARK H PARENT
REMARK Flexibility Score: inf
ROOT
ATOM      1  C   UNL     1     -15.798  16.649  -9.021  1.00  0.00     0.000 C 
ENDROOT
BRANCH   1   2
ATOM      2  C   UNL     1     -16.765  17.669  -8.406  1.00  0.00     0.000 C 
BRANCH   2   3
ATOM      3  C   UNL     1     -17.051  18.815  -9.384  1.00  0.00     0.000 C 
BRANCH   3   4
ATOM      4  C   UNL     1     -15.988  18.875 -10.489  1.00  0.00     0.006 C 
BRANCH   4   5
ATOM      5  C   UNL     1     -16.065  20.198 -11.254  1.00  0.00     0.053 C 
BRANCH   5   6
ATOM      6  C   UNL     1     -14.731  20.546 -11.836  1.00  0.00     0.041 C 
ATOM      7  O   UNL     1     -14.381  21.751 -11.943  1.00  0.00    -0.550 OA
ATOM      8  O   UNL     1     -13.896  19.541 -12.307  1.00  0.00    -0.550 OA
ENDBRANCH   5   6
ENDBRANCH   4   5
ENDBRANCH   3   4
ENDBRANCH   2   3
ENDBRANCH   1   2
BRANCH   1   9
ATOM      9  C   UNL     1     -16.163  15.220  -8.593  1.00  0.00     0.000 C 
BRANCH   9  10
ATOM     10  C   UNL     1     -16.914  14.445  -9.688  1.00  0.00    -0.000 C 
BRANCH  10  11
ATOM     11  C   UNL     1     -15.981  13.957 -10.811  1.00  0.00    -0.000 C 
BRANCH  11  12
ATOM     12  C   UNL     1     -14.765  13.185 -10.273  1.00  0.00    -0.000 C 
BRANCH  12  13
ATOM     13  C   UNL     1     -14.498  11.887 -11.049  1.00  0.00    -0.003 C 
ATOM     14  C   UNL     1     -13.939  12.183 -12.438  1.00  0.00     0.004 C 
ENDBRANCH  12  13
ENDBRANCH  11  12
ENDBRANCH  10  11
ENDBRANCH   9  10
ENDBRANCH   1   9
TORSDOF 10
ENDMDL
MODEL 7
REMARK VINA RESULT:    -2.445      3.825      7.418
REMARK INTER + INTRA:          -4.387
REMARK INTER:                  -4.001
REMARK INTRA:                  -0.386
REMARK UNBOUND:                -0.512
REMARK SMILES CCCCCCCCCCCC(=O)[O-]
REMARK SMILES IDX 7 1 8 2 9 3 10 4 11 5 12 6 13 7 14 8 6 9 5 10 4 11 3 12 2 13
REMARK SMILES IDX 1 14
REMARK H PARENT
REMARK Flexibility Score: inf
ROOT
ATOM      1  C   UNL     1     -16.058  18.585  -9.940  1.00  0.00     0.000 C 
ENDROOT
BRANCH   1   2
ATOM      2  C   UNL     1     -16.972  19.799 -10.143  1.00  0.00     0.000 C 
BRANCH   2   3
ATOM      3  C   UNL     1     -16.870  20.332 -11.578  1.00  0.00     0.000 C 
BRANCH   3   4
ATOM      4  C   UNL     1     -15.885  21.505 -11.661  1.00  0.00     0.006 C 
BRANCH   4   5
ATOM      5  C   UNL     1     -14.961  21.361 -12.873  1.00  0.00     0.053 C 
BRANCH   5   6
ATOM      6  C   UNL     1     -13.558  21.083 -12.433  1.00  0.00     0.041 C 
ATOM      7  O   UNL     1     -13.127  19.900 -12.403  1.00  0.00    -0.550 OA
ATOM      8  O   UNL     1     -12.744  22.125 -12.009  1.00  0.00    -0.550 OA
ENDBRANCH   5   6
ENDBRANCH   4   5
ENDBRANCH   3   4
ENDBRANCH   2   3
ENDBRANCH   1   2
BRANCH   1   9
ATOM      9  C   UNL     1     -16.800  17.455  -9.212  1.00  0.00     0.000 C 
BRANCH   9  10
ATOM     10  C   UNL     1     -15.998  16.143  -9.176  1.00  0.00    -0.000 C 
BRANCH  10  11
ATOM     11  C   UNL     1     -16.798  14.979  -8.565  1.00  0.00    -0.000 C 
BRANCH  11  12
ATOM     12  C   UNL     1     -16.438  14.724  -7.092  1.00  0.00    -0.000 C 
BRANCH  12  13
ATOM     13  C   UNL     1     -15.940  13.293  -6.842  1.00  0.00    -0.003 C 
ATOM     14  C   UNL     1     -14.466  13.153  -7.212  1.00  0.00     0.004 C 
ENDBRANCH  12  13
ENDBRANCH  11  12
ENDBRANCH  10  11
ENDBRANCH   9  10
ENDBRANCH   1   9
TORSDOF 10
ENDMDL
MODEL 8
REMARK VINA RESULT:    -2.389      3.429      5.092
REMARK INTER + INTRA:          -4.298
REMARK INTER:                  -3.542
REMARK INTRA:                  -0.756
REMARK UNBOUND:                -0.512
REMARK SMILES CCCCCCCCCCCC(=O)[O-]
REMARK SMILES IDX 7 1 8 2 9 3 10 4 11 5 12 6 13 7 14 8 6 9 5 10 4 11 3 12 2 13
REMARK SMILES IDX 1 14
REMARK H PARENT
REMARK Flexibility Score: inf
ROOT
ATOM      1  C   UNL     1     -15.822  15.750  -9.758  1.00  0.00     0.000 C 
ENDROOT
BRANCH   1   2
ATOM      2  C   UNL     1     -15.977  16.770  -8.623  1.00  0.00     0.000 C 
BRANCH   2   3
ATOM      3  C   UNL     1     -15.986  16.076  -7.256  1.00  0.00     0.000 C 
BRANCH   3   4
ATOM      4  C   UNL     1     -17.125  15.053  -7.165  1.00  0.00     0.006 C 
BRANCH   4   5
ATOM      5  C   UNL     1     -16.641  13.655  -7.558  1.00  0.00     0.053 C 
BRANCH   5   6
ATOM      6  C   UNL     1     -15.954  12.994  -6.405  1.00  0.00     0.041 C 
ATOM      7  O   UNL     1     -14.697  12.944  -6.361  1.00  0.00    -0.550 OA
ATOM      8  O   UNL     1     -16.704  12.389  -5.404  1.00  0.00    -0.550 OA
ENDBRANCH   5   6
ENDBRANCH   4   5
ENDBRANCH   3   4
ENDBRANCH   2   3
ENDBRANCH   1   2
BRANCH   1   9
ATOM      9  C   UNL     1     -16.994  15.846 -10.745  1.00  0.00     0.000 C 
BRANCH   9  10
ATOM     10  C   UNL     1     -16.903  14.810 -11.878  1.00  0.00    -0.000 C 
BRANCH  10  11
ATOM     11  C   UNL     1     -17.051  13.365 -11.370  1.00  0.00    -0.000 C 
BRANCH  11  12
ATOM     12  C   UNL     1     -16.067  12.397 -12.049  1.00  0.00    -0.000 C 
BRANCH  12  13
ATOM     13  C   UNL     1     -14.621  12.589 -11.569  1.00  0.00    -0.003 C 
ATOM     14  C   UNL     1     -14.474  12.194 -10.102  1.00  0.00     0.004 C 
ENDBRANCH  12  13
ENDBRANCH  11  12
ENDBRANCH  10  11
ENDBRANCH   9  10
ENDBRANCH   1   9
TORSDOF 10
ENDMDL
MODEL 9
REMARK VINA RESULT:    -2.235      2.559      3.205
REMARK INTER + INTRA:          -4.054
REMARK INTER:                  -3.492
REMARK INTRA:                  -0.561
REMARK UNBOUND:                -0.512
REMARK SMILES CCCCCCCCCCCC(=O)[O-]
REMARK SMILES IDX 7 1 8 2 9 3 10 4 11 5 12 6 13 7 14 8 6 9 5 10 4 11 3 12 2 13
REMARK SMILES IDX 1 14
REMARK H PARENT
REMARK Flexibility Score: inf
ROOT
ATOM      1  C   UNL     1     -16.049  16.341  -8.760  1.00  0.00     0.000 C 
ENDROOT
BRANCH   1   2
ATOM      2  C   UNL     1     -15.340  15.008  -9.033  1.00  0.00     0.000 C 
BRANCH   2   3
ATOM      3  C   UNL     1     -16.355  13.879  -9.249  1.00  0.00     0.000 C 
BRANCH   3   4
ATOM      4  C   UNL     1     -15.697  12.670  -9.927  1.00  0.00     0.006 C 
BRANCH   4   5
ATOM      5  C   UNL     1     -14.566  13.110 -10.858  1.00  0.00     0.053 C 
BRANCH   5   6
ATOM      6  C   UNL     1     -14.448  12.174 -12.020  1.00  0.00     0.041 C 
ATOM      7  O   UNL     1     -15.267  11.227 -12.156  1.00  0.00    -0.550 OA
ATOM      8  O   UNL     1     -13.404  12.317 -12.925  1.00  0.00    -0.550 OA
ENDBRANCH   5   6
ENDBRANCH   4   5
ENDBRANCH   3   4
ENDBRANCH   2   3
ENDBRANCH   1   2
BRANCH   1   9
ATOM      9  C   UNL     1     -17.125  16.616  -9.821  1.00  0.00     0.000 C 
BRANCH   9  10
ATOM     10  C   UNL     1     -16.658  17.613 -10.895  1.00  0.00    -0.000 C 
BRANCH  10  11
ATOM     11  C   UNL     1     -16.261  18.977 -10.302  1.00  0.00    -0.000 C 
BRANCH  11  12
ATOM     12  C   UNL     1     -15.417  19.819 -11.273  1.00  0.00    -0.000 C 
BRANCH  12  13
ATOM     13  C   UNL     1     -16.274  20.705 -12.188  1.00  0.00    -0.003 C 
ATOM     14  C   UNL     1     -16.805  21.920 -11.433  1.00  0.00     0.004 C 
ENDBRANCH  12  13
ENDBRANCH  11  12
ENDBRANCH  10  11
ENDBRANCH   9  10
ENDBRANCH   1   9
TORSDOF 10
ENDMDL
