MODEL 1
REMARK VINA RESULT:    -5.348      0.000      0.000
REMARK INTER + INTRA:          -5.504
REMARK INTER:                  -5.504
REMARK INTRA:                   0.000
REMARK UNBOUND:                 0.000
REMARK SMILES O=c1ccc2ccc(O)cc2o1
REMARK SMILES IDX 6 1 7 2 8 3 10 4 11 5 5 6 4 7 3 8 2 9 1 10 12 11 9 12
REMARK H PARENT 9 13
REMARK Flexibility Score: inf
ROOT
ATOM      1  C   UNL     1      19.780  -1.341 -19.177  1.00  0.00     0.016 A 
ATOM      2  C   UNL     1      19.836  -0.801 -17.888  1.00  0.00     0.047 A 
ATOM      3  C   UNL     1      20.579   0.363 -17.640  1.00  0.00     0.119 A 
ATOM      4  C   UNL     1      21.269   0.986 -18.685  1.00  0.00     0.094 A 
ATOM      5  C   UNL     1      21.219   0.453 -19.979  1.00  0.00     0.142 A 
ATOM      6  C   UNL     1      20.470  -0.718 -20.226  1.00  0.00     0.018 A 
ATOM      7  C   UNL     1      20.439  -1.228 -21.528  1.00  0.00     0.019 A 
ATOM      8  C   UNL     1      21.143  -0.569 -22.536  1.00  0.00     0.094 A 
ATOM      9  C   UNL     1      21.864   0.586 -22.218  1.00  0.00     0.336 A 
ATOM     10  O   UNL     1      22.505   1.193 -23.115  1.00  0.00    -0.246 OA
ATOM     11  O   UNL     1      21.876   1.050 -20.971  1.00  0.00    -0.423 OA
ENDROOT
BRANCH   3  12
ATOM     12  O   UNL     1      20.639   0.906 -16.358  1.00  0.00    -0.508 OA
ATOM     13  H   UNL     1      20.096   1.721 -16.102  1.00  0.00     0.293 HD
ENDBRANCH   3  12
TORSDOF 1
ENDMDL
MODEL 2
REMARK VINA RESULT:    -5.305      0.764      4.224
REMARK INTER + INTRA:          -5.460
REMARK INTER:                  -5.460
REMARK INTRA:                   0.000
REMARK UNBOUND:                 0.000
REMARK SMILES O=c1ccc2ccc(O)cc2o1
REMARK SMILES IDX 6 1 7 2 8 3 10 4 11 5 5 6 4 7 3 8 2 9 1 10 12 11 9 12
REMARK H PARENT 9 13
REMARK Flexibility Score: inf
ROOT
ATOM      1  C   UNL     1      20.375  -1.267 -21.429  1.00  0.00     0.016 A 
ATOM      2  C   UNL     1      21.081  -0.567 -22.413  1.00  0.00     0.047 A 
ATOM      3  C   UNL     1      21.736   0.632 -22.095  1.00  0.00     0.119 A 
ATOM      4  C   UNL     1      21.683   1.131 -20.789  1.00  0.00     0.094 A 
ATOM      5  C   UNL     1      20.979   0.437 -19.797  1.00  0.00     0.142 A 
ATOM      6  C   UNL     1      20.320  -0.769 -20.120  1.00  0.00     0.018 A 
ATOM      7  C   UNL     1      19.624  -1.440 -19.109  1.00  0.00     0.019 A 
ATOM      8  C   UNL     1      19.602  -0.902 -17.823  1.00  0.00     0.094 A 
ATOM      9  C   UNL     1      20.277   0.297 -17.577  1.00  0.00     0.336 A 
ATOM     10  O   UNL     1      20.268   0.798 -16.421  1.00  0.00    -0.246 OA
ATOM     11  O   UNL     1      20.932   0.915 -18.556  1.00  0.00    -0.423 OA
ENDROOT
BRANCH   3  12
ATOM     12  O   UNL     1      22.441   1.334 -23.070  1.00  0.00    -0.508 OA
ATOM     13  H   UNL     1      22.194   2.283 -23.323  1.00  0.00     0.293 HD
ENDBRANCH   3  12
TORSDOF 1
ENDMDL
MODEL 3
REMARK VINA RESULT:    -5.262     16.041     18.346
REMARK INTER + INTRA:          -5.416
REMARK INTER:                  -5.416
REMARK INTRA:                   0.000
REMARK UNBOUND:                 0.000
REMARK SMILES O=c1ccc2ccc(O)cc2o1
REMARK SMILES IDX 6 1 7 2 8 3 10 4 11 5 5 6 4 7 3 8 2 9 1 10 12 11 9 12
REMARK H PARENT 9 13
REMARK Flexibility Score: inf
ROOT
ATOM      1  C   UNL     1       8.257  -8.038  -6.653  1.00  0.00     0.016 A 
ATOM      2  C   UNL     1       7.635  -7.160  -5.758  1.00  0.00     0.047 A 
ATOM      3  C   UNL     1       8.052  -5.823  -5.676  1.00  0.00     0.119 A 
ATOM      4  C   UNL     1       9.094  -5.364  -6.490  1.00  0.00     0.094 A 
ATOM      5  C   UNL     1       9.721  -6.236  -7.388  1.00  0.00     0.142 A 
ATOM      6  C   UNL     1       9.300  -7.581  -7.470  1.00  0.00     0.018 A 
ATOM      7  C   UNL     1       9.946  -8.429  -8.375  1.00  0.00     0.019 A 
ATOM      8  C   UNL     1      10.978  -7.924  -9.166  1.00  0.00     0.094 A 
ATOM      9  C   UNL     1      11.342  -6.580  -9.031  1.00  0.00     0.336 A 
ATOM     10  O   UNL     1      12.272  -6.107  -9.736  1.00  0.00    -0.246 OA
ATOM     11  O   UNL     1      10.711  -5.796  -8.162  1.00  0.00    -0.423 OA
ENDROOT
BRANCH   3  12
ATOM     12  O   UNL     1       7.438  -4.943  -4.787  1.00  0.00    -0.508 OA
ATOM     13  H   UNL     1       7.958  -4.486  -4.048  1.00  0.00     0.293 HD
ENDBRANCH   3  12
TORSDOF 1
ENDMDL
MODEL 4
REMARK VINA RESULT:    -5.147      2.409      4.657
REMARK INTER + INTRA:          -5.298
REMARK INTER:                  -5.298
REMARK INTRA:                   0.000
REMARK UNBOUND:                 0.000
REMARK SMILES O=c1ccc2ccc(O)cc2o1
REMARK SMILES IDX 6 1 7 2 8 3 10 4 11 5 5 6 4 7 3 8 2 9 1 10 12 11 9 12
REMARK H PARENT 9 13
REMARK Flexibility Score: inf
ROOT
ATOM      1  C   UNL     1      21.433   0.768 -19.996  1.00  0.00     0.016 A 
ATOM      2  C   UNL     1      20.295   0.064 -20.406  1.00  0.00     0.047 A 
ATOM      3  C   UNL     1      19.392  -0.435 -19.454  1.00  0.00     0.119 A 
ATOM      4  C   UNL     1      19.631  -0.231 -18.091  1.00  0.00     0.094 A 
ATOM      5  C   UNL     1      20.767   0.473 -17.672  1.00  0.00     0.142 A 
ATOM      6  C   UNL     1      21.674   0.974 -18.631  1.00  0.00     0.018 A 
ATOM      7  C   UNL     1      22.800   1.671 -18.183  1.00  0.00     0.019 A 
ATOM      8  C   UNL     1      22.993   1.851 -16.814  1.00  0.00     0.094 A 
ATOM      9  C   UNL     1      22.053   1.325 -15.922  1.00  0.00     0.336 A 
ATOM     10  O   UNL     1      22.210   1.476 -14.681  1.00  0.00    -0.246 OA
ATOM     11  O   UNL     1      20.989   0.666 -16.374  1.00  0.00    -0.423 OA
ENDROOT
BRANCH   3  12
ATOM     12  O   UNL     1      18.257  -1.137 -19.855  1.00  0.00    -0.508 OA
ATOM     13  H   UNL     1      17.561  -0.718 -20.460  1.00  0.00     0.293 HD
ENDBRANCH   3  12
TORSDOF 1
ENDMDL
MODEL 5
REMARK VINA RESULT:    -5.072      1.900      2.754
REMARK INTER + INTRA:          -5.220
REMARK INTER:                  -5.220
REMARK INTRA:                   0.000
REMARK UNBOUND:                 0.000
REMARK SMILES O=c1ccc2ccc(O)cc2o1
REMARK SMILES IDX 6 1 7 2 8 3 10 4 11 5 5 6 4 7 3 8 2 9 1 10 12 11 9 12
REMARK H PARENT 9 13
REMARK Flexibility Score: inf
ROOT
ATOM      1  C   UNL     1      19.198   0.299 -16.388  1.00  0.00     0.016 A 
ATOM      2  C   UNL     1      20.108   1.010 -15.599  1.00  0.00     0.047 A 
ATOM      3  C   UNL     1      21.385   1.316 -16.095  1.00  0.00     0.119 A 
ATOM      4  C   UNL     1      21.751   0.906 -17.381  1.00  0.00     0.094 A 
ATOM      5  C   UNL     1      20.847   0.194 -18.178  1.00  0.00     0.142 A 
ATOM      6  C   UNL     1      19.562  -0.112 -17.678  1.00  0.00     0.018 A 
ATOM      7  C   UNL     1      18.680  -0.825 -18.496  1.00  0.00     0.019 A 
ATOM      8  C   UNL     1      19.092  -1.210 -19.772  1.00  0.00     0.094 A 
ATOM      9  C   UNL     1      20.380  -0.872 -20.200  1.00  0.00     0.336 A 
ATOM     10  O   UNL     1      20.769  -1.211 -21.349  1.00  0.00    -0.246 OA
ATOM     11  O   UNL     1      21.199  -0.192 -19.402  1.00  0.00    -0.423 OA
ENDROOT
BRANCH   3  12
ATOM     12  O   UNL     1      22.297   2.024 -15.314  1.00  0.00    -0.508 OA
ATOM     13  H   UNL     1      23.078   1.564 -14.862  1.00  0.00     0.293 HD
ENDBRANCH   3  12
TORSDOF 1
ENDMDL
MODEL 6
REMARK VINA RESULT:    -4.985      1.792      4.820
REMARK INTER + INTRA:          -5.131
REMARK INTER:                  -5.131
REMARK INTRA:                   0.000
REMARK UNBOUND:                 0.000
REMARK SMILES O=c1ccc2ccc(O)cc2o1
REMARK SMILES IDX 6 1 7 2 8 3 10 4 11 5 5 6 4 7 3 8 2 9 1 10 12 11 9 12
REMARK H PARENT 9 13
REMARK Flexibility Score: inf
ROOT
ATOM      1  C   UNL     1      21.596   1.059 -20.037  1.00  0.00     0.016 A 
ATOM      2  C   UNL     1      21.776   0.626 -21.355  1.00  0.00     0.047 A 
ATOM      3  C   UNL     1      21.133  -0.534 -21.812  1.00  0.00     0.119 A 
ATOM      4  C   UNL     1      20.310  -1.264 -20.948  1.00  0.00     0.094 A 
ATOM      5  C   UNL     1      20.124  -0.838 -19.627  1.00  0.00     0.142 A 
ATOM      6  C   UNL     1      20.771   0.330 -19.169  1.00  0.00     0.018 A 
ATOM      7  C   UNL     1      20.567   0.730 -17.844  1.00  0.00     0.019 A 
ATOM      8  C   UNL     1      19.736  -0.030 -17.022  1.00  0.00     0.094 A 
ATOM      9  C   UNL     1      19.128  -1.176 -17.544  1.00  0.00     0.336 A 
ATOM     10  O   UNL     1      18.375  -1.875 -16.816  1.00  0.00    -0.246 OA
ATOM     11  O   UNL     1      19.339  -1.534 -18.808  1.00  0.00    -0.423 OA
ENDROOT
BRANCH   3  12
ATOM     12  O   UNL     1      21.308  -0.970 -23.124  1.00  0.00    -0.508 OA
ATOM     13  H   UNL     1      21.000  -1.888 -23.424  1.00  0.00     0.293 HD
ENDBRANCH   3  12
TORSDOF 1
ENDMDL
MODEL 7
REMARK VINA RESULT:    -4.841     15.073     17.356
REMARK INTER + INTRA:          -4.982
REMARK INTER:                  -4.982
REMARK INTRA:                   0.000
REMARK UNBOUND:                 0.000
REMARK SMILES O=c1ccc2ccc(O)cc2o1
REMARK SMILES IDX 6 1 7 2 8 3 10 4 11 5 5 6 4 7 3 8 2 9 1 10 12 11 9 12
REMARK H PARENT 9 13
REMARK Flexibility Score: inf
ROOT
ATOM      1  C   UNL     1       8.760  -6.513  -6.985  1.00  0.00     0.016 A 
ATOM      2  C   UNL     1       7.510  -5.885  -6.988  1.00  0.00     0.047 A 
ATOM      3  C   UNL     1       7.111  -5.110  -8.088  1.00  0.00     0.119 A 
ATOM      4  C   UNL     1       7.966  -4.963  -9.186  1.00  0.00     0.094 A 
ATOM      5  C   UNL     1       9.218  -5.588  -9.191  1.00  0.00     0.142 A 
ATOM      6  C   UNL     1       9.618  -6.368  -8.083  1.00  0.00     0.018 A 
ATOM      7  C   UNL     1      10.875  -6.979  -8.117  1.00  0.00     0.019 A 
ATOM      8  C   UNL     1      11.691  -6.804  -9.235  1.00  0.00     0.094 A 
ATOM      9  C   UNL     1      11.229  -6.017 -10.295  1.00  0.00     0.336 A 
ATOM     10  O   UNL     1      11.951  -5.847 -11.312  1.00  0.00    -0.246 OA
ATOM     11  O   UNL     1      10.028  -5.447 -10.238  1.00  0.00    -0.423 OA
ENDROOT
BRANCH   3  12
ATOM     12  O   UNL     1       5.867  -4.482  -8.097  1.00  0.00    -0.508 OA
ATOM     13  H   UNL     1       5.621  -3.804  -8.809  1.00  0.00     0.293 HD
ENDBRANCH   3  12
TORSDOF 1
ENDMDL
MODEL 8
REMARK VINA RESULT:    -4.825      7.308      8.472
REMARK INTER + INTRA:          -4.966
REMARK INTER:                  -4.966
REMARK INTRA:                   0.000
REMARK UNBOUND:                 0.000
REMARK SMILES O=c1ccc2ccc(O)cc2o1
REMARK SMILES IDX 6 1 7 2 8 3 10 4 11 5 5 6 4 7 3 8 2 9 1 10 12 11 9 12
REMARK H PARENT 9 13
REMARK Flexibility Score: inf
ROOT
ATOM      1  C   UNL     1      24.966   8.595 -18.194  1.00  0.00     0.016 A 
ATOM      2  C   UNL     1      24.180   9.653 -17.726  1.00  0.00     0.047 A 
ATOM      3  C   UNL     1      22.797   9.664 -17.962  1.00  0.00     0.119 A 
ATOM      4  C   UNL     1      22.201   8.614 -18.669  1.00  0.00     0.094 A 
ATOM      5  C   UNL     1      22.980   7.552 -19.142  1.00  0.00     0.142 A 
ATOM      6  C   UNL     1      24.372   7.543 -18.904  1.00  0.00     0.018 A 
ATOM      7  C   UNL     1      25.125   6.469 -19.389  1.00  0.00     0.019 A 
ATOM      8  C   UNL     1      24.484   5.446 -20.087  1.00  0.00     0.094 A 
ATOM      9  C   UNL     1      23.102   5.522 -20.286  1.00  0.00     0.336 A 
ATOM     10  O   UNL     1      22.507   4.608 -20.915  1.00  0.00    -0.246 OA
ATOM     11  O   UNL     1      22.409   6.555 -19.814  1.00  0.00    -0.423 OA
ENDROOT
BRANCH   3  12
ATOM     12  O   UNL     1      22.007  10.714 -17.498  1.00  0.00    -0.508 OA
ATOM     13  H   UNL     1      21.205  10.551 -16.902  1.00  0.00     0.293 HD
ENDBRANCH   3  12
TORSDOF 1
ENDMDL
