MODEL 1
REMARK VINA RESULT:    -3.112      0.000      0.000
REMARK INTER + INTRA:         -13.419
REMARK INTER:                  -7.843
REMARK INTRA:                  -5.576
REMARK UNBOUND:                -5.576
REMARK SMILES CCCCCCCCCCCCCCCCCCCCCCCCCCCC(=O)[O-]
REMARK SMILES IDX 15 1 16 2 17 3 18 4 19 5 20 6 21 7 22 8 23 9 24 10 25 11
REMARK SMILES IDX 26 12 27 13 28 14 29 15 30 16 14 17 13 18 12 19 11 20 10 21
REMARK SMILES IDX 9 22 8 23 7 24 6 25 5 26 4 27 3 28 2 29 1 30
REMARK H PARENT
REMARK Flexibility Score: inf
ROOT
ATOM      1  C   UNL     1     -32.078  -0.119 -38.308  1.00  0.00     0.000 C 
ENDROOT
BRANCH   1   2
ATOM      2  C   UNL     1     -31.014  -0.498 -39.357  1.00  0.00     0.000 C 
BRANCH   2   3
ATOM      3  C   UNL     1     -29.675   0.255 -39.230  1.00  0.00     0.000 C 
BRANCH   3   4
ATOM      4  C   UNL     1     -29.634   1.624 -39.934  1.00  0.00     0.000 C 
BRANCH   4   5
ATOM      5  C   UNL     1     -28.705   2.625 -39.231  1.00  0.00     0.000 C 
BRANCH   5   6
ATOM      6  C   UNL     1     -29.197   4.068 -39.426  1.00  0.00     0.000 C 
BRANCH   6   7
ATOM      7  C   UNL     1     -28.655   5.032 -38.358  1.00  0.00     0.000 C 
BRANCH   7   8
ATOM      8  C   UNL     1     -27.387   4.548 -37.629  1.00  0.00     0.000 C 
BRANCH   8   9
ATOM      9  C   UNL     1     -26.851   5.540 -36.575  1.00  0.00     0.000 C 
BRANCH   9  10
ATOM     10  C   UNL     1     -26.909   4.968 -35.148  1.00  0.00     0.000 C 
BRANCH  10  11
ATOM     11  C   UNL     1     -25.693   5.370 -34.298  1.00  0.00     0.000 C 
BRANCH  11  12
ATOM     12  C   UNL     1     -24.705   4.208 -34.098  1.00  0.00     0.006 C 
BRANCH  12  13
ATOM     13  C   UNL     1     -24.469   3.420 -35.395  1.00  0.00     0.053 C 
BRANCH  13  14
ATOM     14  C   UNL     1     -24.035   2.009 -35.129  1.00  0.00     0.041 C 
ATOM     15  O   UNL     1     -23.852   1.613 -33.946  1.00  0.00    -0.550 OA
ATOM     16  O   UNL     1     -23.849   1.126 -36.185  1.00  0.00    -0.550 OA
ENDBRANCH  13  14
ENDBRANCH  12  13
ENDBRANCH  11  12
ENDBRANCH  10  11
ENDBRANCH   9  10
ENDBRANCH   8   9
ENDBRANCH   7   8
ENDBRANCH   6   7
ENDBRANCH   5   6
ENDBRANCH   4   5
ENDBRANCH   3   4
ENDBRANCH   2   3
ENDBRANCH   1   2
BRANCH   1  17
ATOM     17  C   UNL     1     -33.084   0.956 -38.757  1.00  0.00     0.000 C 
BRANCH  17  18
ATOM     18  C   UNL     1     -32.816   2.327 -38.115  1.00  0.00     0.000 C 
BRANCH  18  19
ATOM     19  C   UNL     1     -32.021   2.221 -36.803  1.00  0.00     0.000 C 
BRANCH  19  20
ATOM     20  C   UNL     1     -31.456   3.577 -36.343  1.00  0.00     0.000 C 
BRANCH  20  21
ATOM     21  C   UNL     1     -30.230   3.413 -35.420  1.00  0.00     0.000 C 
BRANCH  21  22
ATOM     22  C   UNL     1     -29.480   2.083 -35.613  1.00  0.00    -0.000 C 
BRANCH  22  23
ATOM     23  C   UNL     1     -28.435   1.823 -34.516  1.00  0.00    -0.000 C 
BRANCH  23  24
ATOM     24  C   UNL     1     -27.425   0.724 -34.892  1.00  0.00    -0.000 C 
BRANCH  24  25
ATOM     25  C   UNL     1     -27.658   0.047 -36.259  1.00  0.00    -0.000 C 
BRANCH  25  26
ATOM     26  C   UNL     1     -27.887  -1.475 -36.208  1.00  0.00    -0.000 C 
BRANCH  26  27
ATOM     27  C   UNL     1     -29.367  -1.863 -36.338  1.00  0.00    -0.000 C 
BRANCH  27  28
ATOM     28  C   UNL     1     -29.926  -2.347 -34.991  1.00  0.00    -0.000 C 
BRANCH  28  29
ATOM     29  C   UNL     1     -30.562  -1.213 -34.173  1.00  0.00    -0.003 C 
ATOM     30  C   UNL     1     -31.953  -0.830 -34.673  1.00  0.00     0.004 C 
ENDBRANCH  28  29
ENDBRANCH  27  28
ENDBRANCH  26  27
ENDBRANCH  25  26
ENDBRANCH  24  25
ENDBRANCH  23  24
ENDBRANCH  22  23
ENDBRANCH  21  22
ENDBRANCH  20  21
ENDBRANCH  19  20
ENDBRANCH  18  19
ENDBRANCH  17  18
ENDBRANCH   1  17
TORSDOF 26
ENDMDL
MODEL 2
REMARK VINA RESULT:    -3.085      1.813      4.802
REMARK INTER + INTRA:         -13.349
REMARK INTER:                  -8.144
REMARK INTRA:                  -5.205
REMARK UNBOUND:                -5.576
REMARK SMILES CCCCCCCCCCCCCCCCCCCCCCCCCCCC(=O)[O-]
REMARK SMILES IDX 15 1 16 2 17 3 18 4 19 5 20 6 21 7 22 8 23 9 24 10 25 11
REMARK SMILES IDX 26 12 27 13 28 14 29 15 30 16 14 17 13 18 12 19 11 20 10 21
REMARK SMILES IDX 9 22 8 23 7 24 6 25 5 26 4 27 3 28 2 29 1 30
REMARK H PARENT
REMARK Flexibility Score: inf
ROOT
ATOM      1  C   UNL     1     -28.260   5.561 -37.895  1.00  0.00     0.000 C 
ENDROOT
BRANCH   1   2
ATOM      2  C   UNL     1     -27.351   4.348 -37.619  1.00  0.00     0.000 C 
BRANCH   2   3
ATOM      3  C   UNL     1     -26.229   4.595 -36.590  1.00  0.00     0.000 C 
BRANCH   3   4
ATOM      4  C   UNL     1     -26.676   5.323 -35.309  1.00  0.00     0.000 C 
BRANCH   4   5
ATOM      5  C   UNL     1     -25.645   5.215 -34.176  1.00  0.00     0.000 C 
BRANCH   5   6
ATOM      6  C   UNL     1     -26.283   4.645 -32.899  1.00  0.00     0.000 C 
BRANCH   6   7
ATOM      7  C   UNL     1     -27.434   3.668 -33.193  1.00  0.00     0.000 C 
BRANCH   7   8
ATOM      8  C   UNL     1     -27.003   2.207 -33.422  1.00  0.00     0.000 C 
BRANCH   8   9
ATOM      9  C   UNL     1     -25.718   1.805 -32.667  1.00  0.00     0.000 C 
BRANCH   9  10
ATOM     10  C   UNL     1     -24.738   1.018 -33.554  1.00  0.00     0.000 C 
BRANCH  10  11
ATOM     11  C   UNL     1     -24.027   1.907 -34.587  1.00  0.00     0.000 C 
BRANCH  11  12
ATOM     12  C   UNL     1     -24.414   1.554 -36.034  1.00  0.00     0.006 C 
BRANCH  12  13
ATOM     13  C   UNL     1     -23.461   2.185 -37.059  1.00  0.00     0.053 C 
BRANCH  13  14
ATOM     14  C   UNL     1     -22.695   1.153 -37.831  1.00  0.00     0.041 C 
ATOM     15  O   UNL     1     -23.205   0.613 -38.850  1.00  0.00    -0.550 OA
ATOM     16  O   UNL     1     -21.410   0.798 -37.438  1.00  0.00    -0.550 OA
ENDBRANCH  13  14
ENDBRANCH  12  13
ENDBRANCH  11  12
ENDBRANCH  10  11
ENDBRANCH   9  10
ENDBRANCH   8   9
ENDBRANCH   7   8
ENDBRANCH   6   7
ENDBRANCH   5   6
ENDBRANCH   4   5
ENDBRANCH   3   4
ENDBRANCH   2   3
ENDBRANCH   1   2
BRANCH   1  17
ATOM     17  C   UNL     1     -29.281   5.368 -39.030  1.00  0.00     0.000 C 
BRANCH  17  18
ATOM     18  C   UNL     1     -29.316   3.924 -39.560  1.00  0.00     0.000 C 
BRANCH  18  19
ATOM     19  C   UNL     1     -30.747   3.416 -39.800  1.00  0.00     0.000 C 
BRANCH  19  20
ATOM     20  C   UNL     1     -31.762   4.018 -38.812  1.00  0.00     0.000 C 
BRANCH  20  21
ATOM     21  C   UNL     1     -32.794   2.976 -38.332  1.00  0.00     0.000 C 
BRANCH  21  22
ATOM     22  C   UNL     1     -32.764   1.659 -39.128  1.00  0.00    -0.000 C 
BRANCH  22  23
ATOM     23  C   UNL     1     -32.982   0.421 -38.242  1.00  0.00    -0.000 C 
BRANCH  23  24
ATOM     24  C   UNL     1     -31.824  -0.590 -38.322  1.00  0.00    -0.000 C 
BRANCH  24  25
ATOM     25  C   UNL     1     -30.688  -0.224 -39.300  1.00  0.00    -0.000 C 
BRANCH  25  26
ATOM     26  C   UNL     1     -29.366   0.206 -38.640  1.00  0.00    -0.000 C 
BRANCH  26  27
ATOM     27  C   UNL     1     -29.357  -0.016 -37.120  1.00  0.00    -0.000 C 
BRANCH  27  28
ATOM     28  C   UNL     1     -28.833   1.230 -36.388  1.00  0.00    -0.000 C 
BRANCH  28  29
ATOM     29  C   UNL     1     -29.946   2.237 -36.063  1.00  0.00    -0.003 C 
ATOM     30  C   UNL     1     -31.093   1.614 -35.269  1.00  0.00     0.004 C 
ENDBRANCH  28  29
ENDBRANCH  27  28
ENDBRANCH  26  27
ENDBRANCH  25  26
ENDBRANCH  24  25
ENDBRANCH  23  24
ENDBRANCH  22  23
ENDBRANCH  21  22
ENDBRANCH  20  21
ENDBRANCH  19  20
ENDBRANCH  18  19
ENDBRANCH  17  18
ENDBRANCH   1  17
TORSDOF 26
ENDMDL
MODEL 3
REMARK VINA RESULT:    -3.063      3.283      6.544
REMARK INTER + INTRA:         -13.293
REMARK INTER:                  -8.012
REMARK INTRA:                  -5.282
REMARK UNBOUND:                -5.576
REMARK SMILES CCCCCCCCCCCCCCCCCCCCCCCCCCCC(=O)[O-]
REMARK SMILES IDX 15 1 16 2 17 3 18 4 19 5 20 6 21 7 22 8 23 9 24 10 25 11
REMARK SMILES IDX 26 12 27 13 28 14 29 15 30 16 14 17 13 18 12 19 11 20 10 21
REMARK SMILES IDX 9 22 8 23 7 24 6 25 5 26 4 27 3 28 2 29 1 30
REMARK H PARENT
REMARK Flexibility Score: inf
ROOT
ATOM      1  C   UNL     1     -31.694  -0.540 -38.674  1.00  0.00     0.000 C 
ENDROOT
BRANCH   1   2
ATOM      2  C   UNL     1     -30.543  -1.041 -39.569  1.00  0.00     0.000 C 
BRANCH   2   3
ATOM      3  C   UNL     1     -29.529   0.040 -39.993  1.00  0.00     0.000 C 
BRANCH   3   4
ATOM      4  C   UNL     1     -28.069  -0.255 -39.605  1.00  0.00     0.000 C 
BRANCH   4   5
ATOM      5  C   UNL     1     -27.624   0.508 -38.349  1.00  0.00     0.000 C 
BRANCH   5   6
ATOM      6  C   UNL     1     -27.371  -0.454 -37.177  1.00  0.00     0.000 C 
BRANCH   6   7
ATOM      7  C   UNL     1     -28.583  -0.580 -36.238  1.00  0.00     0.000 C 
BRANCH   7   8
ATOM      8  C   UNL     1     -29.258  -1.965 -36.230  1.00  0.00     0.000 C 
BRANCH   8   9
ATOM      9  C   UNL     1     -30.623  -1.993 -35.511  1.00  0.00     0.000 C 
BRANCH   9  10
ATOM     10  C   UNL     1     -30.570  -1.331 -34.123  1.00  0.00     0.000 C 
BRANCH  10  11
ATOM     11  C   UNL     1     -31.895  -0.652 -33.739  1.00  0.00     0.000 C 
BRANCH  11  12
ATOM     12  C   UNL     1     -32.774  -1.543 -32.843  1.00  0.00     0.006 C 
BRANCH  12  13
ATOM     13  C   UNL     1     -33.779  -2.370 -33.658  1.00  0.00     0.053 C 
BRANCH  13  14
ATOM     14  C   UNL     1     -33.524  -3.843 -33.544  1.00  0.00     0.041 C 
ATOM     15  O   UNL     1     -32.373  -4.268 -33.253  1.00  0.00    -0.550 OA
ATOM     16  O   UNL     1     -34.561  -4.748 -33.739  1.00  0.00    -0.550 OA
ENDBRANCH  13  14
ENDBRANCH  12  13
ENDBRANCH  11  12
ENDBRANCH  10  11
ENDBRANCH   9  10
ENDBRANCH   8   9
ENDBRANCH   7   8
ENDBRANCH   6   7
ENDBRANCH   5   6
ENDBRANCH   4   5
ENDBRANCH   3   4
ENDBRANCH   2   3
ENDBRANCH   1   2
BRANCH   1  17
ATOM     17  C   UNL     1     -31.684   0.972 -38.383  1.00  0.00     0.000 C 
BRANCH  17  18
ATOM     18  C   UNL     1     -31.743   1.289 -36.879  1.00  0.00     0.000 C 
BRANCH  18  19
ATOM     19  C   UNL     1     -30.650   2.276 -36.439  1.00  0.00     0.000 C 
BRANCH  19  20
ATOM     20  C   UNL     1     -31.103   3.744 -36.541  1.00  0.00     0.000 C 
BRANCH  20  21
ATOM     21  C   UNL     1     -30.487   4.459 -37.762  1.00  0.00     0.000 C 
BRANCH  21  22
ATOM     22  C   UNL     1     -29.432   3.621 -38.507  1.00  0.00    -0.000 C 
BRANCH  22  23
ATOM     23  C   UNL     1     -28.036   4.264 -38.487  1.00  0.00    -0.000 C 
BRANCH  23  24
ATOM     24  C   UNL     1     -27.908   5.398 -37.455  1.00  0.00    -0.000 C 
BRANCH  24  25
ATOM     25  C   UNL     1     -26.774   5.232 -36.422  1.00  0.00    -0.000 C 
BRANCH  25  26
ATOM     26  C   UNL     1     -27.137   4.406 -35.174  1.00  0.00    -0.000 C 
BRANCH  26  27
ATOM     27  C   UNL     1     -27.060   2.891 -35.417  1.00  0.00    -0.000 C 
BRANCH  27  28
ATOM     28  C   UNL     1     -25.648   2.362 -35.123  1.00  0.00    -0.000 C 
BRANCH  28  29
ATOM     29  C   UNL     1     -24.857   2.045 -36.401  1.00  0.00    -0.003 C 
ATOM     30  C   UNL     1     -23.747   3.059 -36.677  1.00  0.00     0.004 C 
ENDBRANCH  28  29
ENDBRANCH  27  28
ENDBRANCH  26  27
ENDBRANCH  25  26
ENDBRANCH  24  25
ENDBRANCH  23  24
ENDBRANCH  22  23
ENDBRANCH  21  22
ENDBRANCH  20  21
ENDBRANCH  19  20
ENDBRANCH  18  19
ENDBRANCH  17  18
ENDBRANCH   1  17
TORSDOF 26
ENDMDL
MODEL 4
REMARK VINA RESULT:    -3.006      1.147      2.450
REMARK INTER + INTRA:         -13.150
REMARK INTER:                  -7.905
REMARK INTRA:                  -5.246
REMARK UNBOUND:                -5.576
REMARK SMILES CCCCCCCCCCCCCCCCCCCCCCCCCCCC(=O)[O-]
REMARK SMILES IDX 15 1 16 2 17 3 18 4 19 5 20 6 21 7 22 8 23 9 24 10 25 11
REMARK SMILES IDX 26 12 27 13 28 14 29 15 30 16 14 17 13 18 12 19 11 20 10 21
REMARK SMILES IDX 9 22 8 23 7 24 6 25 5 26 4 27 3 28 2 29 1 30
REMARK H PARENT
REMARK Flexibility Score: inf
ROOT
ATOM      1  C   UNL     1     -30.670  -0.541 -39.273  1.00  0.00     0.000 C 
ENDROOT
BRANCH   1   2
ATOM      2  C   UNL     1     -29.347   0.206 -39.534  1.00  0.00     0.000 C 
BRANCH   2   3
ATOM      3  C   UNL     1     -29.503   1.671 -39.986  1.00  0.00     0.000 C 
BRANCH   3   4
ATOM      4  C   UNL     1     -28.780   2.702 -39.101  1.00  0.00     0.000 C 
BRANCH   4   5
ATOM      5  C   UNL     1     -29.116   4.151 -39.483  1.00  0.00     0.000 C 
BRANCH   5   6
ATOM      6  C   UNL     1     -28.583   5.139 -38.432  1.00  0.00     0.000 C 
BRANCH   6   7
ATOM      7  C   UNL     1     -27.381   4.584 -37.650  1.00  0.00     0.000 C 
BRANCH   7   8
ATOM      8  C   UNL     1     -26.847   5.507 -36.537  1.00  0.00     0.000 C 
BRANCH   8   9
ATOM      9  C   UNL     1     -26.937   4.900 -35.121  1.00  0.00     0.000 C 
BRANCH   9  10
ATOM     10  C   UNL     1     -25.688   5.200 -34.274  1.00  0.00     0.000 C 
BRANCH  10  11
ATOM     11  C   UNL     1     -24.681   4.039 -34.271  1.00  0.00     0.000 C 
BRANCH  11  12
ATOM     12  C   UNL     1     -25.270   2.747 -34.863  1.00  0.00     0.006 C 
BRANCH  12  13
ATOM     13  C   UNL     1     -24.566   2.333 -36.164  1.00  0.00     0.053 C 
BRANCH  13  14
ATOM     14  C   UNL     1     -23.651   1.162 -35.965  1.00  0.00     0.041 C 
ATOM     15  O   UNL     1     -23.559   0.269 -36.850  1.00  0.00    -0.550 OA
ATOM     16  O   UNL     1     -22.885   1.064 -34.809  1.00  0.00    -0.550 OA
ENDBRANCH  13  14
ENDBRANCH  12  13
ENDBRANCH  11  12
ENDBRANCH  10  11
ENDBRANCH   9  10
ENDBRANCH   8   9
ENDBRANCH   7   8
ENDBRANCH   6   7
ENDBRANCH   5   6
ENDBRANCH   4   5
ENDBRANCH   3   4
ENDBRANCH   2   3
ENDBRANCH   1   2
BRANCH   1  17
ATOM     17  C   UNL     1     -31.321  -0.259 -37.907  1.00  0.00     0.000 C 
BRANCH  17  18
ATOM     18  C   UNL     1     -32.746   0.307 -38.032  1.00  0.00     0.000 C 
BRANCH  18  19
ATOM     19  C   UNL     1     -32.842   1.443 -39.063  1.00  0.00     0.000 C 
BRANCH  19  20
ATOM     20  C   UNL     1     -32.801   2.837 -38.411  1.00  0.00     0.000 C 
BRANCH  20  21
ATOM     21  C   UNL     1     -32.311   2.782 -36.949  1.00  0.00     0.000 C 
BRANCH  21  22
ATOM     22  C   UNL     1     -31.441   3.983 -36.538  1.00  0.00    -0.000 C 
BRANCH  22  23
ATOM     23  C   UNL     1     -30.344   3.608 -35.529  1.00  0.00    -0.000 C 
BRANCH  23  24
ATOM     24  C   UNL     1     -30.075   2.094 -35.464  1.00  0.00    -0.000 C 
BRANCH  24  25
ATOM     25  C   UNL     1     -28.650   1.655 -35.861  1.00  0.00    -0.000 C 
BRANCH  25  26
ATOM     26  C   UNL     1     -28.194   0.303 -35.280  1.00  0.00    -0.000 C 
BRANCH  26  27
ATOM     27  C   UNL     1     -27.520  -0.599 -36.324  1.00  0.00    -0.000 C 
BRANCH  27  28
ATOM     28  C   UNL     1     -28.360  -1.861 -36.581  1.00  0.00    -0.000 C 
BRANCH  28  29
ATOM     29  C   UNL     1     -27.803  -2.719 -37.727  1.00  0.00    -0.003 C 
ATOM     30  C   UNL     1     -27.807  -4.212 -37.403  1.00  0.00     0.004 C 
ENDBRANCH  28  29
ENDBRANCH  27  28
ENDBRANCH  26  27
ENDBRANCH  25  26
ENDBRANCH  24  25
ENDBRANCH  23  24
ENDBRANCH  22  23
ENDBRANCH  21  22
ENDBRANCH  20  21
ENDBRANCH  19  20
ENDBRANCH  18  19
ENDBRANCH  17  18
ENDBRANCH   1  17
TORSDOF 26
ENDMDL
MODEL 5
REMARK VINA RESULT:    -2.979      1.708      3.001
REMARK INTER + INTRA:         -13.084
REMARK INTER:                  -8.044
REMARK INTRA:                  -5.040
REMARK UNBOUND:                -5.576
REMARK SMILES CCCCCCCCCCCCCCCCCCCCCCCCCCCC(=O)[O-]
REMARK SMILES IDX 15 1 16 2 17 3 18 4 19 5 20 6 21 7 22 8 23 9 24 10 25 11
REMARK SMILES IDX 26 12 27 13 28 14 29 15 30 16 14 17 13 18 12 19 11 20 10 21
REMARK SMILES IDX 9 22 8 23 7 24 6 25 5 26 4 27 3 28 2 29 1 30
REMARK H PARENT
REMARK Flexibility Score: inf
ROOT
ATOM      1  C   UNL     1     -33.130   1.228 -38.677  1.00  0.00     0.000 C 
ENDROOT
BRANCH   1   2
ATOM      2  C   UNL     1     -32.526  -0.109 -38.203  1.00  0.00     0.000 C 
BRANCH   2   3
ATOM      3  C   UNL     1     -31.304  -0.593 -39.009  1.00  0.00     0.000 C 
BRANCH   3   4
ATOM      4  C   UNL     1     -30.089  -1.004 -38.157  1.00  0.00     0.000 C 
BRANCH   4   5
ATOM      5  C   UNL     1     -28.835  -0.178 -38.477  1.00  0.00     0.000 C 
BRANCH   5   6
ATOM      6  C   UNL     1     -28.999   0.590 -39.798  1.00  0.00     0.000 C 
BRANCH   6   7
ATOM      7  C   UNL     1     -28.010   1.759 -39.936  1.00  0.00     0.000 C 
BRANCH   7   8
ATOM      8  C   UNL     1     -28.655   3.157 -39.968  1.00  0.00     0.000 C 
BRANCH   8   9
ATOM      9  C   UNL     1     -29.031   3.708 -38.576  1.00  0.00     0.000 C 
BRANCH   9  10
ATOM     10  C   UNL     1     -28.300   5.022 -38.248  1.00  0.00     0.000 C 
BRANCH  10  11
ATOM     11  C   UNL     1     -27.205   4.842 -37.183  1.00  0.00     0.000 C 
BRANCH  11  12
ATOM     12  C   UNL     1     -27.680   3.997 -35.988  1.00  0.00     0.006 C 
BRANCH  12  13
ATOM     13  C   UNL     1     -26.562   3.105 -35.429  1.00  0.00     0.053 C 
BRANCH  13  14
ATOM     14  C   UNL     1     -25.581   2.696 -36.487  1.00  0.00     0.041 C 
ATOM     15  O   UNL     1     -25.846   1.738 -37.262  1.00  0.00    -0.550 OA
ATOM     16  O   UNL     1     -24.382   3.383 -36.630  1.00  0.00    -0.550 OA
ENDBRANCH  13  14
ENDBRANCH  12  13
ENDBRANCH  11  12
ENDBRANCH  10  11
ENDBRANCH   9  10
ENDBRANCH   8   9
ENDBRANCH   7   8
ENDBRANCH   6   7
ENDBRANCH   5   6
ENDBRANCH   4   5
ENDBRANCH   3   4
ENDBRANCH   2   3
ENDBRANCH   1   2
BRANCH   1  17
ATOM     17  C   UNL     1     -32.146   2.175 -39.387  1.00  0.00     0.000 C 
BRANCH  17  18
ATOM     18  C   UNL     1     -32.794   3.506 -39.800  1.00  0.00     0.000 C 
BRANCH  18  19
ATOM     19  C   UNL     1     -32.562   4.623 -38.768  1.00  0.00     0.000 C 
BRANCH  19  20
ATOM     20  C   UNL     1     -33.763   4.816 -37.826  1.00  0.00     0.000 C 
BRANCH  20  21
ATOM     21  C   UNL     1     -33.493   4.250 -36.416  1.00  0.00     0.000 C 
BRANCH  21  22
ATOM     22  C   UNL     1     -32.019   4.337 -35.982  1.00  0.00    -0.000 C 
BRANCH  22  23
ATOM     23  C   UNL     1     -31.565   3.119 -35.162  1.00  0.00    -0.000 C 
BRANCH  23  24
ATOM     24  C   UNL     1     -30.723   2.121 -35.977  1.00  0.00    -0.000 C 
BRANCH  24  25
ATOM     25  C   UNL     1     -30.093   0.968 -35.169  1.00  0.00    -0.000 C 
BRANCH  25  26
ATOM     26  C   UNL     1     -30.963   0.417 -34.024  1.00  0.00    -0.000 C 
BRANCH  26  27
ATOM     27  C   UNL     1     -32.014  -0.594 -34.504  1.00  0.00    -0.000 C 
BRANCH  27  28
ATOM     28  C   UNL     1     -31.381  -1.976 -34.731  1.00  0.00    -0.000 C 
BRANCH  28  29
ATOM     29  C   UNL     1     -31.835  -3.012 -33.692  1.00  0.00    -0.003 C 
ATOM     30  C   UNL     1     -33.351  -3.196 -33.663  1.00  0.00     0.004 C 
ENDBRANCH  28  29
ENDBRANCH  27  28
ENDBRANCH  26  27
ENDBRANCH  25  26
ENDBRANCH  24  25
ENDBRANCH  23  24
ENDBRANCH  22  23
ENDBRANCH  21  22
ENDBRANCH  20  21
ENDBRANCH  19  20
ENDBRANCH  18  19
ENDBRANCH  17  18
ENDBRANCH   1  17
TORSDOF 26
ENDMDL
MODEL 6
REMARK VINA RESULT:    -2.952      2.338      5.405
REMARK INTER + INTRA:         -13.014
REMARK INTER:                  -8.574
REMARK INTRA:                  -4.441
REMARK UNBOUND:                -5.576
REMARK SMILES CCCCCCCCCCCCCCCCCCCCCCCCCCCC(=O)[O-]
REMARK SMILES IDX 15 1 16 2 17 3 18 4 19 5 20 6 21 7 22 8 23 9 24 10 25 11
REMARK SMILES IDX 26 12 27 13 28 14 29 15 30 16 14 17 13 18 12 19 11 20 10 21
REMARK SMILES IDX 9 22 8 23 7 24 6 25 5 26 4 27 3 28 2 29 1 30
REMARK H PARENT
REMARK Flexibility Score: inf
ROOT
ATOM      1  C   UNL     1     -27.556   5.277 -37.499  1.00  0.00     0.000 C 
ENDROOT
BRANCH   1   2
ATOM      2  C   UNL     1     -26.813   3.977 -37.135  1.00  0.00     0.000 C 
BRANCH   2   3
ATOM      3  C   UNL     1     -25.856   4.089 -35.931  1.00  0.00     0.000 C 
BRANCH   3   4
ATOM      4  C   UNL     1     -26.320   5.053 -34.824  1.00  0.00     0.000 C 
BRANCH   4   5
ATOM      5  C   UNL     1     -25.325   5.138 -33.656  1.00  0.00     0.000 C 
BRANCH   5   6
ATOM      6  C   UNL     1     -25.970   4.662 -32.344  1.00  0.00     0.000 C 
BRANCH   6   7
ATOM      7  C   UNL     1     -26.577   3.253 -32.456  1.00  0.00     0.000 C 
BRANCH   7   8
ATOM      8  C   UNL     1     -25.553   2.102 -32.460  1.00  0.00     0.000 C 
BRANCH   8   9
ATOM      9  C   UNL     1     -24.356   2.323 -31.510  1.00  0.00     0.000 C 
BRANCH   9  10
ATOM     10  C   UNL     1     -23.018   2.417 -32.264  1.00  0.00     0.000 C 
BRANCH  10  11
ATOM     11  C   UNL     1     -23.095   1.834 -33.685  1.00  0.00     0.000 C 
BRANCH  11  12
ATOM     12  C   UNL     1     -22.237   0.569 -33.849  1.00  0.00     0.006 C 
BRANCH  12  13
ATOM     13  C   UNL     1     -20.891   0.683 -33.119  1.00  0.00     0.053 C 
BRANCH  13  14
ATOM     14  C   UNL     1     -20.508  -0.594 -32.434  1.00  0.00     0.041 C 
ATOM     15  O   UNL     1     -19.646  -0.588 -31.514  1.00  0.00    -0.550 OA
ATOM     16  O   UNL     1     -21.116  -1.790 -32.796  1.00  0.00    -0.550 OA
ENDBRANCH  13  14
ENDBRANCH  12  13
ENDBRANCH  11  12
ENDBRANCH  10  11
ENDBRANCH   9  10
ENDBRANCH   8   9
ENDBRANCH   7   8
ENDBRANCH   6   7
ENDBRANCH   5   6
ENDBRANCH   4   5
ENDBRANCH   3   4
ENDBRANCH   2   3
ENDBRANCH   1   2
BRANCH   1  17
ATOM     17  C   UNL     1     -28.682   5.117 -38.537  1.00  0.00     0.000 C 
BRANCH  17  18
ATOM     18  C   UNL     1     -28.666   3.743 -39.225  1.00  0.00     0.000 C 
BRANCH  18  19
ATOM     19  C   UNL     1     -30.056   3.314 -39.722  1.00  0.00     0.000 C 
BRANCH  19  20
ATOM     20  C   UNL     1     -31.163   4.298 -39.304  1.00  0.00     0.000 C 
BRANCH  20  21
ATOM     21  C   UNL     1     -32.498   3.581 -39.009  1.00  0.00     0.000 C 
BRANCH  21  22
ATOM     22  C   UNL     1     -32.523   2.108 -39.452  1.00  0.00    -0.000 C 
BRANCH  22  23
ATOM     23  C   UNL     1     -33.147   1.179 -38.399  1.00  0.00    -0.000 C 
BRANCH  23  24
ATOM     24  C   UNL     1     -32.353  -0.125 -38.197  1.00  0.00    -0.000 C 
BRANCH  24  25
ATOM     25  C   UNL     1     -31.078  -0.265 -39.054  1.00  0.00    -0.000 C 
BRANCH  25  26
ATOM     26  C   UNL     1     -29.755  -0.273 -38.267  1.00  0.00    -0.000 C 
BRANCH  26  27
ATOM     27  C   UNL     1     -29.937   0.095 -36.787  1.00  0.00    -0.000 C 
BRANCH  27  28
ATOM     28  C   UNL     1     -29.356   1.486 -36.494  1.00  0.00    -0.000 C 
BRANCH  28  29
ATOM     29  C   UNL     1     -30.435   2.507 -36.103  1.00  0.00    -0.003 C 
ATOM     30  C   UNL     1     -29.927   3.555 -35.114  1.00  0.00     0.004 C 
ENDBRANCH  28  29
ENDBRANCH  27  28
ENDBRANCH  26  27
ENDBRANCH  25  26
ENDBRANCH  24  25
ENDBRANCH  23  24
ENDBRANCH  22  23
ENDBRANCH  21  22
ENDBRANCH  20  21
ENDBRANCH  19  20
ENDBRANCH  18  19
ENDBRANCH  17  18
ENDBRANCH   1  17
TORSDOF 26
ENDMDL
MODEL 7
REMARK VINA RESULT:    -2.950      2.486      5.701
REMARK INTER + INTRA:         -13.011
REMARK INTER:                  -7.662
REMARK INTRA:                  -5.348
REMARK UNBOUND:                -5.576
REMARK SMILES CCCCCCCCCCCCCCCCCCCCCCCCCCCC(=O)[O-]
REMARK SMILES IDX 15 1 16 2 17 3 18 4 19 5 20 6 21 7 22 8 23 9 24 10 25 11
REMARK SMILES IDX 26 12 27 13 28 14 29 15 30 16 14 17 13 18 12 19 11 20 10 21
REMARK SMILES IDX 9 22 8 23 7 24 6 25 5 26 4 27 3 28 2 29 1 30
REMARK H PARENT
REMARK Flexibility Score: inf
ROOT
ATOM      1  C   UNL     1     -31.387   3.917 -38.740  1.00  0.00     0.000 C 
ENDROOT
BRANCH   1   2
ATOM      2  C   UNL     1     -32.241   2.768 -38.168  1.00  0.00     0.000 C 
BRANCH   2   3
ATOM      3  C   UNL     1     -32.273   1.490 -39.028  1.00  0.00     0.000 C 
BRANCH   3   4
ATOM      4  C   UNL     1     -32.536   0.190 -38.246  1.00  0.00     0.000 C 
BRANCH   4   5
ATOM      5  C   UNL     1     -31.303  -0.725 -38.185  1.00  0.00     0.000 C 
BRANCH   5   6
ATOM      6  C   UNL     1     -30.682  -0.910 -39.579  1.00  0.00     0.000 C 
BRANCH   6   7
ATOM      7  C   UNL     1     -29.152  -0.749 -39.576  1.00  0.00     0.000 C 
BRANCH   7   8
ATOM      8  C   UNL     1     -28.629   0.481 -38.810  1.00  0.00     0.000 C 
BRANCH   8   9
ATOM      9  C   UNL     1     -27.504   0.162 -37.803  1.00  0.00     0.000 C 
BRANCH   9  10
ATOM     10  C   UNL     1     -27.845   0.624 -36.376  1.00  0.00     0.000 C 
BRANCH  10  11
ATOM     11  C   UNL     1     -29.206   1.333 -36.291  1.00  0.00     0.000 C 
BRANCH  11  12
ATOM     12  C   UNL     1     -29.823   1.257 -34.884  1.00  0.00     0.006 C 
BRANCH  12  13
ATOM     13  C   UNL     1     -31.293   1.701 -34.871  1.00  0.00     0.053 C 
BRANCH  13  14
ATOM     14  C   UNL     1     -31.449   3.134 -34.458  1.00  0.00     0.041 C 
ATOM     15  O   UNL     1     -30.878   4.049 -35.110  1.00  0.00    -0.550 OA
ATOM     16  O   UNL     1     -32.241   3.462 -33.364  1.00  0.00    -0.550 OA
ENDBRANCH  13  14
ENDBRANCH  12  13
ENDBRANCH  11  12
ENDBRANCH  10  11
ENDBRANCH   9  10
ENDBRANCH   8   9
ENDBRANCH   7   8
ENDBRANCH   6   7
ENDBRANCH   5   6
ENDBRANCH   4   5
ENDBRANCH   3   4
ENDBRANCH   2   3
ENDBRANCH   1   2
BRANCH   1  17
ATOM     17  C   UNL     1     -30.392   3.506 -39.840  1.00  0.00     0.000 C 
BRANCH  17  18
ATOM     18  C   UNL     1     -28.972   4.041 -39.587  1.00  0.00     0.000 C 
BRANCH  18  19
ATOM     19  C   UNL     1     -28.851   4.788 -38.249  1.00  0.00     0.000 C 
BRANCH  19  20
ATOM     20  C   UNL     1     -27.671   4.288 -37.397  1.00  0.00     0.000 C 
BRANCH  20  21
ATOM     21  C   UNL     1     -26.834   5.450 -36.822  1.00  0.00     0.000 C 
BRANCH  21  22
ATOM     22  C   UNL     1     -26.705   5.424 -35.288  1.00  0.00    -0.000 C 
BRANCH  22  23
ATOM     23  C   UNL     1     -27.164   4.093 -34.673  1.00  0.00    -0.000 C 
BRANCH  23  24
ATOM     24  C   UNL     1     -26.002   3.118 -34.408  1.00  0.00    -0.000 C 
BRANCH  24  25
ATOM     25  C   UNL     1     -24.587   3.719 -34.543  1.00  0.00    -0.000 C 
BRANCH  25  26
ATOM     26  C   UNL     1     -23.759   3.189 -35.729  1.00  0.00    -0.000 C 
BRANCH  26  27
ATOM     27  C   UNL     1     -24.601   2.394 -36.737  1.00  0.00    -0.000 C 
BRANCH  27  28
ATOM     28  C   UNL     1     -23.958   1.030 -37.032  1.00  0.00    -0.000 C 
BRANCH  28  29
ATOM     29  C   UNL     1     -22.931   0.617 -35.967  1.00  0.00    -0.003 C 
ATOM     30  C   UNL     1     -21.579   0.235 -36.566  1.00  0.00     0.004 C 
ENDBRANCH  28  29
ENDBRANCH  27  28
ENDBRANCH  26  27
ENDBRANCH  25  26
ENDBRANCH  24  25
ENDBRANCH  23  24
ENDBRANCH  22  23
ENDBRANCH  21  22
ENDBRANCH  20  21
ENDBRANCH  19  20
ENDBRANCH  18  19
ENDBRANCH  17  18
ENDBRANCH   1  17
TORSDOF 26
ENDMDL
MODEL 8
REMARK VINA RESULT:    -2.941      2.723      5.770
REMARK INTER + INTRA:         -12.987
REMARK INTER:                  -7.493
REMARK INTRA:                  -5.494
REMARK UNBOUND:                -5.576
REMARK SMILES CCCCCCCCCCCCCCCCCCCCCCCCCCCC(=O)[O-]
REMARK SMILES IDX 15 1 16 2 17 3 18 4 19 5 20 6 21 7 22 8 23 9 24 10 25 11
REMARK SMILES IDX 26 12 27 13 28 14 29 15 30 16 14 17 13 18 12 19 11 20 10 21
REMARK SMILES IDX 9 22 8 23 7 24 6 25 5 26 4 27 3 28 2 29 1 30
REMARK H PARENT
REMARK Flexibility Score: inf
ROOT
ATOM      1  C   UNL     1     -31.389   3.978 -36.854  1.00  0.00     0.000 C 
ENDROOT
BRANCH   1   2
ATOM      2  C   UNL     1     -32.258   2.705 -36.817  1.00  0.00     0.000 C 
BRANCH   2   3
ATOM      3  C   UNL     1     -33.216   2.535 -38.012  1.00  0.00     0.000 C 
BRANCH   3   4
ATOM      4  C   UNL     1     -33.007   1.248 -38.830  1.00  0.00     0.000 C 
BRANCH   4   5
ATOM      5  C   UNL     1     -32.130   0.218 -38.102  1.00  0.00     0.000 C 
BRANCH   5   6
ATOM      6  C   UNL     1     -31.132  -0.441 -39.067  1.00  0.00     0.000 C 
BRANCH   6   7
ATOM      7  C   UNL     1     -29.667  -0.201 -38.664  1.00  0.00     0.000 C 
BRANCH   7   8
ATOM      8  C   UNL     1     -29.082  -1.241 -37.689  1.00  0.00     0.000 C 
BRANCH   8   9
ATOM      9  C   UNL     1     -28.665  -0.655 -36.323  1.00  0.00     0.000 C 
BRANCH   9  10
ATOM     10  C   UNL     1     -28.967   0.850 -36.213  1.00  0.00     0.000 C 
BRANCH  10  11
ATOM     11  C   UNL     1     -29.547   1.240 -34.844  1.00  0.00     0.000 C 
BRANCH  11  12
ATOM     12  C   UNL     1     -30.067   0.024 -34.058  1.00  0.00     0.006 C 
BRANCH  12  13
ATOM     13  C   UNL     1     -31.602  -0.030 -34.024  1.00  0.00     0.053 C 
BRANCH  13  14
ATOM     14  C   UNL     1     -32.125  -1.411 -34.284  1.00  0.00     0.041 C 
ATOM     15  O   UNL     1     -31.330  -2.385 -34.376  1.00  0.00    -0.550 OA
ATOM     16  O   UNL     1     -33.493  -1.627 -34.406  1.00  0.00    -0.550 OA
ENDBRANCH  13  14
ENDBRANCH  12  13
ENDBRANCH  11  12
ENDBRANCH  10  11
ENDBRANCH   9  10
ENDBRANCH   8   9
ENDBRANCH   7   8
ENDBRANCH   6   7
ENDBRANCH   5   6
ENDBRANCH   4   5
ENDBRANCH   3   4
ENDBRANCH   2   3
ENDBRANCH   1   2
BRANCH   1  17
ATOM     17  C   UNL     1     -31.502   4.808 -38.146  1.00  0.00     0.000 C 
BRANCH  17  18
ATOM     18  C   UNL     1     -30.165   4.924 -38.897  1.00  0.00     0.000 C 
BRANCH  18  19
ATOM     19  C   UNL     1     -29.535   3.554 -39.198  1.00  0.00     0.000 C 
BRANCH  19  20
ATOM     20  C   UNL     1     -28.158   3.378 -38.534  1.00  0.00     0.000 C 
BRANCH  20  21
ATOM     21  C   UNL     1     -27.723   4.636 -37.754  1.00  0.00     0.000 C 
BRANCH  21  22
ATOM     22  C   UNL     1     -27.647   4.429 -36.231  1.00  0.00    -0.000 C 
BRANCH  22  23
ATOM     23  C   UNL     1     -26.575   5.306 -35.563  1.00  0.00    -0.000 C 
BRANCH  23  24
ATOM     24  C   UNL     1     -26.051   4.716 -34.241  1.00  0.00    -0.000 C 
BRANCH  24  25
ATOM     25  C   UNL     1     -25.315   3.365 -34.363  1.00  0.00    -0.000 C 
BRANCH  25  26
ATOM     26  C   UNL     1     -24.073   3.373 -35.274  1.00  0.00    -0.000 C 
BRANCH  26  27
ATOM     27  C   UNL     1     -24.334   2.735 -36.646  1.00  0.00    -0.000 C 
BRANCH  27  28
ATOM     28  C   UNL     1     -25.369   1.605 -36.536  1.00  0.00    -0.000 C 
BRANCH  28  29
ATOM     29  C   UNL     1     -25.573   0.857 -37.862  1.00  0.00    -0.003 C 
ATOM     30  C   UNL     1     -25.265  -0.635 -37.753  1.00  0.00     0.004 C 
ENDBRANCH  28  29
ENDBRANCH  27  28
ENDBRANCH  26  27
ENDBRANCH  25  26
ENDBRANCH  24  25
ENDBRANCH  23  24
ENDBRANCH  22  23
ENDBRANCH  21  22
ENDBRANCH  20  21
ENDBRANCH  19  20
ENDBRANCH  18  19
ENDBRANCH  17  18
ENDBRANCH   1  17
TORSDOF 26
ENDMDL
MODEL 9
REMARK VINA RESULT:    -2.904      3.020      5.995
REMARK INTER + INTRA:         -12.895
REMARK INTER:                  -7.729
REMARK INTRA:                  -5.166
REMARK UNBOUND:                -5.576
REMARK SMILES CCCCCCCCCCCCCCCCCCCCCCCCCCCC(=O)[O-]
REMARK SMILES IDX 15 1 16 2 17 3 18 4 19 5 20 6 21 7 22 8 23 9 24 10 25 11
REMARK SMILES IDX 26 12 27 13 28 14 29 15 30 16 14 17 13 18 12 19 11 20 10 21
REMARK SMILES IDX 9 22 8 23 7 24 6 25 5 26 4 27 3 28 2 29 1 30
REMARK H PARENT
REMARK Flexibility Score: inf
ROOT
ATOM      1  C   UNL     1     -28.198   3.500 -38.446  1.00  0.00     0.000 C 
ENDROOT
BRANCH   1   2
ATOM      2  C   UNL     1     -29.043   3.601 -39.731  1.00  0.00     0.000 C 
BRANCH   2   3
ATOM      3  C   UNL     1     -30.567   3.658 -39.506  1.00  0.00     0.000 C 
BRANCH   3   4
ATOM      4  C   UNL     1     -31.302   2.322 -39.716  1.00  0.00     0.000 C 
BRANCH   4   5
ATOM      5  C   UNL     1     -32.677   2.288 -39.031  1.00  0.00     0.000 C 
BRANCH   5   6
ATOM      6  C   UNL     1     -32.967   0.899 -38.441  1.00  0.00     0.000 C 
BRANCH   6   7
ATOM      7  C   UNL     1     -31.778  -0.068 -38.580  1.00  0.00     0.000 C 
BRANCH   7   8
ATOM      8  C   UNL     1     -31.031  -0.373 -37.268  1.00  0.00     0.000 C 
BRANCH   8   9
ATOM      9  C   UNL     1     -30.025   0.720 -36.850  1.00  0.00     0.000 C 
BRANCH   9  10
ATOM     10  C   UNL     1     -30.100   1.042 -35.347  1.00  0.00     0.000 C 
BRANCH  10  11
ATOM     11  C   UNL     1     -31.270   1.977 -34.998  1.00  0.00     0.000 C 
BRANCH  11  12
ATOM     12  C   UNL     1     -30.863   3.460 -35.012  1.00  0.00     0.006 C 
BRANCH  12  13
ATOM     13  C   UNL     1     -31.583   4.249 -36.116  1.00  0.00     0.053 C 
BRANCH  13  14
ATOM     14  C   UNL     1     -32.776   4.992 -35.595  1.00  0.00     0.041 C 
ATOM     15  O   UNL     1     -33.518   5.636 -36.384  1.00  0.00    -0.550 OA
ATOM     16  O   UNL     1     -33.082   4.958 -34.239  1.00  0.00    -0.550 OA
ENDBRANCH  13  14
ENDBRANCH  12  13
ENDBRANCH  11  12
ENDBRANCH  10  11
ENDBRANCH   9  10
ENDBRANCH   8   9
ENDBRANCH   7   8
ENDBRANCH   6   7
ENDBRANCH   5   6
ENDBRANCH   4   5
ENDBRANCH   3   4
ENDBRANCH   2   3
ENDBRANCH   1   2
BRANCH   1  17
ATOM     17  C   UNL     1     -28.161   4.777 -37.586  1.00  0.00     0.000 C 
BRANCH  17  18
ATOM     18  C   UNL     1     -26.753   5.100 -37.060  1.00  0.00     0.000 C 
BRANCH  18  19
ATOM     19  C   UNL     1     -26.761   5.558 -35.592  1.00  0.00     0.000 C 
BRANCH  19  20
ATOM     20  C   UNL     1     -27.240   4.455 -34.631  1.00  0.00     0.000 C 
BRANCH  20  21
ATOM     21  C   UNL     1     -26.249   4.224 -33.470  1.00  0.00     0.000 C 
BRANCH  21  22
ATOM     22  C   UNL     1     -24.784   4.524 -33.834  1.00  0.00    -0.000 C 
BRANCH  22  23
ATOM     23  C   UNL     1     -24.026   3.282 -34.329  1.00  0.00    -0.000 C 
BRANCH  23  24
ATOM     24  C   UNL     1     -23.680   3.342 -35.827  1.00  0.00    -0.000 C 
BRANCH  24  25
ATOM     25  C   UNL     1     -24.448   2.352 -36.727  1.00  0.00    -0.000 C 
BRANCH  25  26
ATOM     26  C   UNL     1     -25.335   1.339 -35.981  1.00  0.00    -0.000 C 
BRANCH  26  27
ATOM     27  C   UNL     1     -26.485   0.801 -36.845  1.00  0.00    -0.000 C 
BRANCH  27  28
ATOM     28  C   UNL     1     -26.038  -0.431 -37.648  1.00  0.00    -0.000 C 
BRANCH  28  29
ATOM     29  C   UNL     1     -26.257  -0.265 -39.158  1.00  0.00    -0.003 C 
ATOM     30  C   UNL     1     -27.716   0.011 -39.518  1.00  0.00     0.004 C 
ENDBRANCH  28  29
ENDBRANCH  27  28
ENDBRANCH  26  27
ENDBRANCH  25  26
ENDBRANCH  24  25
ENDBRANCH  23  24
ENDBRANCH  22  23
ENDBRANCH  21  22
ENDBRANCH  20  21
ENDBRANCH  19  20
ENDBRANCH  18  19
ENDBRANCH  17  18
ENDBRANCH   1  17
TORSDOF 26
ENDMDL
