MODEL 1
REMARK VINA RESULT:     0.000      0.000      0.000
REMARK INTER + INTRA:           0.257
REMARK INTER:                   0.000
REMARK INTRA:                   0.257
REMARK UNBOUND:                 0.257
REMARK SMILES C[C@@H]1[C@H]2C3=CC[C@@H]4[C@]5(C)CC[C@@H](O)C(C)(C)[C@@H]5CC[C@]4(C)[C@@]3(C)CC[C@]2(C(=O)[O-])CC[C@@H]1C
REMARK SMILES IDX 26 1 30 2 25 3 3 4 31 5 24 6 4 7 2 8 32 9 22 10 5 11 1 12
REMARK SMILES IDX 33 13 23 14 20 15 6 16 7 17 19 18 21 19 8 20 18 21 17 22
REMARK SMILES IDX 10 23 9 24 14 25 11 26 12 27 15 28 16 29 27 30 28 31 29 32
REMARK SMILES IDX 13 33
REMARK H PARENT 13 34
REMARK Flexibility Score: inf
ROOT
ATOM      1  C   UNL     1       4.607  45.969  29.888  1.00  0.00     0.017 C 
ATOM      2  C   UNL     1       3.333  45.556  29.101  1.00  0.00     0.014 C 
ATOM      3  C   UNL     1       5.871  46.020  28.957  1.00  0.00     0.014 C 
ATOM      4  C   UNL     1       4.313  47.394  30.469  1.00  0.00     0.030 C 
ATOM      5  C   UNL     1       2.093  45.518  30.025  1.00  0.00     0.004 C 
ATOM      6  C   UNL     1       6.248  47.439  28.481  1.00  0.00     0.013 C 
ATOM      7  C   UNL     1       5.633  48.061  30.846  1.00  0.00    -0.063 C 
ATOM      8  C   UNL     1       3.113  47.414  31.458  1.00  0.00    -0.003 C 
ATOM      9  C   UNL     1       1.824  46.861  30.754  1.00  0.00    -0.011 C 
ATOM     10  C   UNL     1       6.513  48.503  29.653  1.00  0.00    -0.006 C 
ATOM     11  C   UNL     1       6.115  47.892  32.085  1.00  0.00    -0.027 C 
ATOM     12  C   UNL     1       2.880  48.818  32.051  1.00  0.00     0.008 C 
ATOM     13  C   UNL     1       1.140  47.861  29.796  1.00  0.00     0.008 C 
ATOM     14  C   UNL     1       5.921  49.856  29.138  1.00  0.00     0.017 C 
ATOM     15  C   UNL     1       8.086  48.708  30.057  1.00  0.00    -0.020 C 
ATOM     16  C   UNL     1       7.561  47.976  32.428  1.00  0.00     0.032 C 
ATOM     17  C   UNL     1       8.500  47.712  31.207  1.00  0.00     0.006 C 
ATOM     18  C   UNL     1       8.385  50.149  30.602  1.00  0.00     0.008 C 
ATOM     19  C   UNL     1       8.947  48.541  28.770  1.00  0.00     0.012 C 
ATOM     20  C   UNL     1      10.068  47.723  31.589  1.00  0.00    -0.025 C 
ATOM     21  C   UNL     1       9.634  50.315  31.511  1.00  0.00     0.005 C 
ATOM     22  C   UNL     1      10.706  49.183  31.484  1.00  0.00     0.003 C 
ATOM     23  C   UNL     1      10.323  47.089  33.009  1.00  0.00     0.010 C 
ATOM     24  C   UNL     1      10.811  46.764  30.594  1.00  0.00     0.012 C 
ATOM     25  C   UNL     1      11.891  49.461  32.511  1.00  0.00    -0.006 C 
ATOM     26  C   UNL     1      10.355  48.098  34.162  1.00  0.00     0.033 C 
ATOM     27  C   UNL     1      11.431  49.199  33.990  1.00  0.00     0.120 C 
ATOM     28  C   UNL     1      12.377  50.937  32.411  1.00  0.00     0.014 C 
ATOM     29  C   UNL     1      13.140  48.607  32.137  1.00  0.00     0.014 C 
ENDROOT
BRANCH   1  30
ATOM     30  C   UNL     1       4.886  44.887  30.938  1.00  0.00     0.048 C 
ATOM     31  O   UNL     1       5.542  43.860  30.614  1.00  0.00    -0.550 OA
ATOM     32  O   UNL     1       4.522  45.035  32.268  1.00  0.00    -0.550 OA
ENDBRANCH   1  30
BRANCH  27  33
ATOM     33  O   UNL     1      12.529  48.981  34.845  1.00  0.00    -0.393 OA
ATOM     34  H   UNL     1      12.316  48.208  35.429  1.00  0.00     0.210 HD
ENDBRANCH  27  33
TORSDOF 2
ENDMDL
MODEL 2
REMARK VINA RESULT:     0.000      5.272      9.827
REMARK INTER + INTRA:           0.257
REMARK INTER:                   0.000
REMARK INTRA:                   0.257
REMARK UNBOUND:                 0.257
REMARK SMILES C[C@@H]1[C@H]2C3=CC[C@@H]4[C@]5(C)CC[C@@H](O)C(C)(C)[C@@H]5CC[C@]4(C)[C@@]3(C)CC[C@]2(C(=O)[O-])CC[C@@H]1C
REMARK SMILES IDX 26 1 30 2 25 3 3 4 31 5 24 6 4 7 2 8 32 9 22 10 5 11 1 12
REMARK SMILES IDX 33 13 23 14 20 15 6 16 7 17 19 18 21 19 8 20 18 21 17 22
REMARK SMILES IDX 10 23 9 24 14 25 11 26 12 27 15 28 16 29 27 30 28 31 29 32
REMARK SMILES IDX 13 33
REMARK H PARENT 13 34
REMARK Flexibility Score: inf
ROOT
ATOM      1  C   UNL     1      14.044  45.546  33.762  1.00  0.00     0.017 C 
ATOM      2  C   UNL     1      15.540  45.941  33.622  1.00  0.00     0.014 C 
ATOM      3  C   UNL     1      13.866  43.991  33.887  1.00  0.00     0.014 C 
ATOM      4  C   UNL     1      13.533  46.250  35.065  1.00  0.00     0.030 C 
ATOM      5  C   UNL     1      15.706  47.475  33.509  1.00  0.00     0.004 C 
ATOM      6  C   UNL     1      13.671  43.493  35.335  1.00  0.00     0.013 C 
ATOM      7  C   UNL     1      12.250  45.566  35.529  1.00  0.00    -0.063 C 
ATOM      8  C   UNL     1      13.612  47.802  34.992  1.00  0.00    -0.003 C 
ATOM      9  C   UNL     1      15.087  48.253  34.700  1.00  0.00    -0.011 C 
ATOM     10  C   UNL     1      12.435  44.149  36.121  1.00  0.00    -0.006 C 
ATOM     11  C   UNL     1      11.072  46.020  35.080  1.00  0.00    -0.027 C 
ATOM     12  C   UNL     1      13.055  48.466  36.267  1.00  0.00     0.008 C 
ATOM     13  C   UNL     1      16.028  48.193  35.923  1.00  0.00     0.008 C 
ATOM     14  C   UNL     1      12.924  44.339  37.594  1.00  0.00     0.017 C 
ATOM     15  C   UNL     1      11.059  43.263  36.107  1.00  0.00    -0.020 C 
ATOM     16  C   UNL     1       9.849  45.180  34.971  1.00  0.00     0.032 C 
ATOM     17  C   UNL     1      10.158  43.652  34.873  1.00  0.00     0.006 C 
ATOM     18  C   UNL     1      10.176  43.502  37.383  1.00  0.00     0.008 C 
ATOM     19  C   UNL     1      11.448  41.755  36.124  1.00  0.00     0.012 C 
ATOM     20  C   UNL     1       8.840  42.740  34.675  1.00  0.00    -0.025 C 
ATOM     21  C   UNL     1       8.659  43.191  37.260  1.00  0.00     0.005 C 
ATOM     22  C   UNL     1       8.196  42.298  36.068  1.00  0.00     0.003 C 
ATOM     23  C   UNL     1       7.777  43.453  33.756  1.00  0.00     0.010 C 
ATOM     24  C   UNL     1       9.258  41.461  33.871  1.00  0.00     0.012 C 
ATOM     25  C   UNL     1       6.614  42.119  36.036  1.00  0.00    -0.006 C 
ATOM     26  C   UNL     1       6.721  44.266  34.512  1.00  0.00     0.033 C 
ATOM     27  C   UNL     1       5.908  43.428  35.529  1.00  0.00     0.120 C 
ATOM     28  C   UNL     1       6.064  41.794  37.456  1.00  0.00     0.014 C 
ATOM     29  C   UNL     1       6.228  40.883  35.169  1.00  0.00     0.014 C 
ENDROOT
BRANCH   1  30
ATOM     30  C   UNL     1      13.322  45.963  32.475  1.00  0.00     0.048 C 
ATOM     31  O   UNL     1      13.329  45.189  31.479  1.00  0.00    -0.550 OA
ATOM     32  O   UNL     1      12.576  47.129  32.389  1.00  0.00    -0.550 OA
ENDBRANCH   1  30
BRANCH  27  33
ATOM     33  O   UNL     1       4.608  43.165  35.054  1.00  0.00    -0.393 OA
ATOM     34  H   UNL     1       4.686  42.686  34.189  1.00  0.00     0.210 HD
ENDBRANCH  27  33
TORSDOF 2
ENDMDL
MODEL 3
REMARK VINA RESULT:     0.000      5.963      7.510
REMARK INTER + INTRA:           0.257
REMARK INTER:                   0.000
REMARK INTRA:                   0.257
REMARK UNBOUND:                 0.257
REMARK SMILES C[C@@H]1[C@H]2C3=CC[C@@H]4[C@]5(C)CC[C@@H](O)C(C)(C)[C@@H]5CC[C@]4(C)[C@@]3(C)CC[C@]2(C(=O)[O-])CC[C@@H]1C
REMARK SMILES IDX 26 1 30 2 25 3 3 4 31 5 24 6 4 7 2 8 32 9 22 10 5 11 1 12
REMARK SMILES IDX 33 13 23 14 20 15 6 16 7 17 19 18 21 19 8 20 18 21 17 22
REMARK SMILES IDX 10 23 9 24 14 25 11 26 12 27 15 28 16 29 27 30 28 31 29 32
REMARK SMILES IDX 13 33
REMARK H PARENT 13 34
REMARK Flexibility Score: inf
ROOT
ATOM      1  C   UNL     1       1.441  51.155  31.805  1.00  0.00     0.017 C 
ATOM      2  C   UNL     1       0.822  50.891  30.405  1.00  0.00     0.014 C 
ATOM      3  C   UNL     1       2.986  50.869  31.817  1.00  0.00     0.014 C 
ATOM      4  C   UNL     1       1.174  52.667  32.117  1.00  0.00     0.030 C 
ATOM      5  C   UNL     1      -0.697  51.185  30.401  1.00  0.00     0.004 C 
ATOM      6  C   UNL     1       3.862  52.133  31.685  1.00  0.00     0.013 C 
ATOM      7  C   UNL     1       2.125  53.123  33.221  1.00  0.00    -0.063 C 
ATOM      8  C   UNL     1      -0.340  53.017  32.192  1.00  0.00    -0.003 C 
ATOM      9  C   UNL     1      -1.049  52.628  30.847  1.00  0.00    -0.011 C 
ATOM     10  C   UNL     1       3.607  53.259  32.801  1.00  0.00    -0.006 C 
ATOM     11  C   UNL     1       1.737  53.013  34.499  1.00  0.00    -0.027 C 
ATOM     12  C   UNL     1      -0.570  54.498  32.551  1.00  0.00     0.008 C 
ATOM     13  C   UNL     1      -0.806  53.619  29.687  1.00  0.00     0.008 C 
ATOM     14  C   UNL     1       3.737  54.629  32.056  1.00  0.00     0.017 C 
ATOM     15  C   UNL     1       4.640  53.221  34.069  1.00  0.00    -0.020 C 
ATOM     16  C   UNL     1       2.681  52.873  35.641  1.00  0.00     0.032 C 
ATOM     17  C   UNL     1       4.075  52.305  35.221  1.00  0.00     0.006 C 
ATOM     18  C   UNL     1       4.861  54.638  34.708  1.00  0.00     0.008 C 
ATOM     19  C   UNL     1       6.033  52.755  33.551  1.00  0.00     0.012 C 
ATOM     20  C   UNL     1       5.077  52.076  36.466  1.00  0.00    -0.025 C 
ATOM     21  C   UNL     1       5.336  54.679  36.187  1.00  0.00     0.005 C 
ATOM     22  C   UNL     1       5.947  53.376  36.788  1.00  0.00     0.003 C 
ATOM     23  C   UNL     1       4.305  51.575  37.745  1.00  0.00     0.010 C 
ATOM     24  C   UNL     1       6.036  50.892  36.098  1.00  0.00     0.012 C 
ATOM     25  C   UNL     1       6.328  53.551  38.325  1.00  0.00    -0.006 C 
ATOM     26  C   UNL     1       3.868  52.687  38.704  1.00  0.00     0.033 C 
ATOM     27  C   UNL     1       5.043  53.547  39.229  1.00  0.00     0.120 C 
ATOM     28  C   UNL     1       7.080  54.893  38.561  1.00  0.00     0.014 C 
ATOM     29  C   UNL     1       7.340  52.448  38.759  1.00  0.00     0.014 C 
ENDROOT
BRANCH   1  30
ATOM     30  C   UNL     1       0.811  50.168  32.795  1.00  0.00     0.048 C 
ATOM     31  O   UNL     1       1.294  49.009  32.910  1.00  0.00    -0.550 OA
ATOM     32  O   UNL     1      -0.223  50.531  33.644  1.00  0.00    -0.550 OA
ENDBRANCH   1  30
BRANCH  27  33
ATOM     33  O   UNL     1       5.351  53.234  40.568  1.00  0.00    -0.393 OA
ATOM     34  H   UNL     1       4.781  53.796  41.154  1.00  0.00     0.210 HD
ENDBRANCH  27  33
TORSDOF 2
ENDMDL
MODEL 4
REMARK VINA RESULT:     0.000      4.078      6.306
REMARK INTER + INTRA:           0.257
REMARK INTER:                   0.000
REMARK INTRA:                   0.257
REMARK UNBOUND:                 0.257
REMARK SMILES C[C@@H]1[C@H]2C3=CC[C@@H]4[C@]5(C)CC[C@@H](O)C(C)(C)[C@@H]5CC[C@]4(C)[C@@]3(C)CC[C@]2(C(=O)[O-])CC[C@@H]1C
REMARK SMILES IDX 26 1 30 2 25 3 3 4 31 5 24 6 4 7 2 8 32 9 22 10 5 11 1 12
REMARK SMILES IDX 33 13 23 14 20 15 6 16 7 17 19 18 21 19 8 20 18 21 17 22
REMARK SMILES IDX 10 23 9 24 14 25 11 26 12 27 15 28 16 29 27 30 28 31 29 32
REMARK SMILES IDX 13 33
REMARK H PARENT 13 34
REMARK Flexibility Score: inf
ROOT
ATOM      1  C   UNL     1       6.664  51.533  35.203  1.00  0.00     0.017 C 
ATOM      2  C   UNL     1       5.471  51.135  36.115  1.00  0.00     0.014 C 
ATOM      3  C   UNL     1       8.033  51.443  35.968  1.00  0.00     0.014 C 
ATOM      4  C   UNL     1       6.651  50.517  34.009  1.00  0.00     0.030 C 
ATOM      5  C   UNL     1       4.129  51.217  35.348  1.00  0.00     0.004 C 
ATOM      6  C   UNL     1       8.829  50.150  35.689  1.00  0.00     0.013 C 
ATOM      7  C   UNL     1       8.019  50.528  33.331  1.00  0.00    -0.063 C 
ATOM      8  C   UNL     1       5.353  50.594  33.156  1.00  0.00    -0.003 C 
ATOM      9  C   UNL     1       4.097  50.347  34.065  1.00  0.00    -0.011 C 
ATOM     10  C   UNL     1       9.163  49.877  34.143  1.00  0.00    -0.006 C 
ATOM     11  C   UNL     1       8.236  51.381  32.321  1.00  0.00    -0.027 C 
ATOM     12  C   UNL     1       5.392  49.620  31.961  1.00  0.00     0.008 C 
ATOM     13  C   UNL     1       3.852  48.867  34.430  1.00  0.00     0.008 C 
ATOM     14  C   UNL     1       9.025  48.331  33.948  1.00  0.00     0.017 C 
ATOM     15  C   UNL     1      10.650  50.362  33.661  1.00  0.00    -0.020 C 
ATOM     16  C   UNL     1       9.581  51.902  31.953  1.00  0.00     0.032 C 
ATOM     17  C   UNL     1      10.606  51.847  33.132  1.00  0.00     0.006 C 
ATOM     18  C   UNL     1      11.213  49.495  32.481  1.00  0.00     0.008 C 
ATOM     19  C   UNL     1      11.636  50.171  34.851  1.00  0.00     0.012 C 
ATOM     20  C   UNL     1      12.044  52.483  32.764  1.00  0.00    -0.025 C 
ATOM     21  C   UNL     1      12.300  50.147  31.582  1.00  0.00     0.005 C 
ATOM     22  C   UNL     1      13.039  51.404  32.135  1.00  0.00     0.003 C 
ATOM     23  C   UNL     1      11.897  53.740  31.824  1.00  0.00     0.010 C 
ATOM     24  C   UNL     1      12.668  53.053  34.084  1.00  0.00     0.012 C 
ATOM     25  C   UNL     1      14.075  51.997  31.080  1.00  0.00    -0.006 C 
ATOM     26  C   UNL     1      11.998  53.433  30.326  1.00  0.00     0.033 C 
ATOM     27  C   UNL     1      13.331  52.756  29.923  1.00  0.00     0.120 C 
ATOM     28  C   UNL     1      14.929  50.863  30.443  1.00  0.00     0.014 C 
ATOM     29  C   UNL     1      15.109  52.916  31.798  1.00  0.00     0.014 C 
ENDROOT
BRANCH   1  30
ATOM     30  C   UNL     1       6.486  53.002  34.804  1.00  0.00     0.048 C 
ATOM     31  O   UNL     1       6.903  53.911  35.574  1.00  0.00    -0.550 OA
ATOM     32  O   UNL     1       5.962  53.378  33.577  1.00  0.00    -0.550 OA
ENDBRANCH   1  30
BRANCH  27  33
ATOM     33  O   UNL     1      14.185  53.659  29.261  1.00  0.00    -0.393 OA
ATOM     34  H   UNL     1      14.434  54.374  29.902  1.00  0.00     0.210 HD
ENDBRANCH  27  33
TORSDOF 2
ENDMDL
MODEL 5
REMARK VINA RESULT:     0.000      6.531      9.585
REMARK INTER + INTRA:           0.257
REMARK INTER:                   0.000
REMARK INTRA:                   0.257
REMARK UNBOUND:                 0.257
REMARK SMILES C[C@@H]1[C@H]2C3=CC[C@@H]4[C@]5(C)CC[C@@H](O)C(C)(C)[C@@H]5CC[C@]4(C)[C@@]3(C)CC[C@]2(C(=O)[O-])CC[C@@H]1C
REMARK SMILES IDX 26 1 30 2 25 3 3 4 31 5 24 6 4 7 2 8 32 9 22 10 5 11 1 12
REMARK SMILES IDX 33 13 23 14 20 15 6 16 7 17 19 18 21 19 8 20 18 21 17 22
REMARK SMILES IDX 10 23 9 24 14 25 11 26 12 27 15 28 16 29 27 30 28 31 29 32
REMARK SMILES IDX 13 33
REMARK H PARENT 13 34
REMARK Flexibility Score: inf
ROOT
ATOM      1  C   UNL     1      10.165  50.813  35.954  1.00  0.00     0.017 C 
ATOM      2  C   UNL     1       9.371  51.804  35.060  1.00  0.00     0.014 C 
ATOM      3  C   UNL     1      11.668  50.709  35.509  1.00  0.00     0.014 C 
ATOM      4  C   UNL     1      10.077  51.382  37.412  1.00  0.00     0.030 C 
ATOM      5  C   UNL     1       7.895  51.907  35.513  1.00  0.00     0.004 C 
ATOM      6  C   UNL     1      12.638  51.556  36.359  1.00  0.00     0.013 C 
ATOM      7  C   UNL     1      11.184  50.758  38.257  1.00  0.00    -0.063 C 
ATOM      8  C   UNL     1       8.621  51.451  37.953  1.00  0.00    -0.003 C 
ATOM      9  C   UNL     1       7.732  52.324  36.998  1.00  0.00    -0.011 C 
ATOM     10  C   UNL     1      12.616  51.244  37.933  1.00  0.00    -0.006 C 
ATOM     11  C   UNL     1      10.933  49.619  38.918  1.00  0.00    -0.027 C 
ATOM     12  C   UNL     1       8.572  51.966  39.405  1.00  0.00     0.008 C 
ATOM     13  C   UNL     1       7.935  53.847  37.150  1.00  0.00     0.008 C 
ATOM     14  C   UNL     1      12.789  52.628  38.641  1.00  0.00     0.017 C 
ATOM     15  C   UNL     1      13.777  50.212  38.449  1.00  0.00    -0.020 C 
ATOM     16  C   UNL     1      11.982  48.632  39.293  1.00  0.00     0.032 C 
ATOM     17  C   UNL     1      13.261  48.723  38.399  1.00  0.00     0.006 C 
ATOM     18  C   UNL     1      14.200  50.477  39.937  1.00  0.00     0.008 C 
ATOM     19  C   UNL     1      15.053  50.442  37.587  1.00  0.00     0.012 C 
ATOM     20  C   UNL     1      14.370  47.604  38.749  1.00  0.00    -0.025 C 
ATOM     21  C   UNL     1      14.839  49.291  40.711  1.00  0.00     0.005 C 
ATOM     22  C   UNL     1      15.389  48.094  39.877  1.00  0.00     0.003 C 
ATOM     23  C   UNL     1      13.703  46.231  39.140  1.00  0.00     0.010 C 
ATOM     24  C   UNL     1      15.167  47.292  37.435  1.00  0.00     0.012 C 
ATOM     25  C   UNL     1      15.954  46.930  40.806  1.00  0.00    -0.006 C 
ATOM     26  C   UNL     1      13.482  46.033  40.643  1.00  0.00     0.033 C 
ATOM     27  C   UNL     1      14.784  46.124  41.476  1.00  0.00     0.120 C 
ATOM     28  C   UNL     1      16.850  47.511  41.939  1.00  0.00     0.014 C 
ATOM     29  C   UNL     1      16.901  45.999  39.990  1.00  0.00     0.014 C 
ENDROOT
BRANCH   1  30
ATOM     30  C   UNL     1       9.560  49.417  35.767  1.00  0.00     0.048 C 
ATOM     31  O   UNL     1       9.942  48.697  34.804  1.00  0.00    -0.550 OA
ATOM     32  O   UNL     1       8.666  48.870  36.674  1.00  0.00    -0.550 OA
ENDBRANCH   1  30
BRANCH  27  33
ATOM     33  O   UNL     1      15.209  44.851  41.904  1.00  0.00    -0.393 OA
ATOM     34  H   UNL     1      16.189  44.888  42.056  1.00  0.00     0.210 HD
ENDBRANCH  27  33
TORSDOF 2
ENDMDL
MODEL 6
REMARK VINA RESULT:     0.000      4.941      8.355
REMARK INTER + INTRA:           0.257
REMARK INTER:                   0.000
REMARK INTRA:                   0.257
REMARK UNBOUND:                 0.257
REMARK SMILES C[C@@H]1[C@H]2C3=CC[C@@H]4[C@]5(C)CC[C@@H](O)C(C)(C)[C@@H]5CC[C@]4(C)[C@@]3(C)CC[C@]2(C(=O)[O-])CC[C@@H]1C
REMARK SMILES IDX 26 1 30 2 25 3 3 4 31 5 24 6 4 7 2 8 32 9 22 10 5 11 1 12
REMARK SMILES IDX 33 13 23 14 20 15 6 16 7 17 19 18 21 19 8 20 18 21 17 22
REMARK SMILES IDX 10 23 9 24 14 25 11 26 12 27 15 28 16 29 27 30 28 31 29 32
REMARK SMILES IDX 13 33
REMARK H PARENT 13 34
REMARK Flexibility Score: inf
ROOT
ATOM      1  C   UNL     1      11.688  41.983  35.396  1.00  0.00     0.017 C 
ATOM      2  C   UNL     1      12.858  41.074  35.864  1.00  0.00     0.014 C 
ATOM      3  C   UNL     1      12.208  43.367  34.865  1.00  0.00     0.014 C 
ATOM      4  C   UNL     1      10.971  41.202  34.242  1.00  0.00     0.030 C 
ATOM      5  C   UNL     1      12.337  39.710  36.375  1.00  0.00     0.004 C 
ATOM      6  C   UNL     1      12.303  43.458  33.327  1.00  0.00     0.013 C 
ATOM      7  C   UNL     1      10.131  42.181  33.426  1.00  0.00    -0.063 C 
ATOM      8  C   UNL     1      10.366  39.847  34.706  1.00  0.00    -0.003 C 
ATOM      9  C   UNL     1      11.486  38.942  35.330  1.00  0.00    -0.011 C 
ATOM     10  C   UNL     1      10.935  43.163  32.541  1.00  0.00    -0.006 C 
ATOM     11  C   UNL     1       8.857  42.397  33.781  1.00  0.00    -0.027 C 
ATOM     12  C   UNL     1       9.623  39.127  33.562  1.00  0.00     0.008 C 
ATOM     13  C   UNL     1      12.405  38.257  34.295  1.00  0.00     0.008 C 
ATOM     14  C   UNL     1      11.347  42.371  31.257  1.00  0.00     0.017 C 
ATOM     15  C   UNL     1      10.080  44.493  32.118  1.00  0.00    -0.020 C 
ATOM     16  C   UNL     1       8.116  43.653  33.484  1.00  0.00     0.032 C 
ATOM     17  C   UNL     1       9.055  44.880  33.251  1.00  0.00     0.006 C 
ATOM     18  C   UNL     1       9.230  44.274  30.817  1.00  0.00     0.008 C 
ATOM     19  C   UNL     1      11.086  45.636  31.792  1.00  0.00     0.012 C 
ATOM     20  C   UNL     1       8.258  46.263  33.007  1.00  0.00    -0.025 C 
ATOM     21  C   UNL     1       7.995  45.195  30.618  1.00  0.00     0.005 C 
ATOM     22  C   UNL     1       7.922  46.503  31.464  1.00  0.00     0.003 C 
ATOM     23  C   UNL     1       6.957  46.344  33.893  1.00  0.00     0.010 C 
ATOM     24  C   UNL     1       9.159  47.435  33.527  1.00  0.00     0.012 C 
ATOM     25  C   UNL     1       6.575  47.309  31.200  1.00  0.00    -0.006 C 
ATOM     26  C   UNL     1       5.682  45.849  33.203  1.00  0.00     0.033 C 
ATOM     27  C   UNL     1       5.352  46.610  31.895  1.00  0.00     0.120 C 
ATOM     28  C   UNL     1       6.274  47.403  29.675  1.00  0.00     0.014 C 
ATOM     29  C   UNL     1       6.731  48.789  31.664  1.00  0.00     0.014 C 
ENDROOT
BRANCH   1  30
ATOM     30  C   UNL     1      10.809  42.288  36.614  1.00  0.00     0.048 C 
ATOM     31  O   UNL     1      11.114  43.245  37.377  1.00  0.00    -0.550 OA
ATOM     32  O   UNL     1       9.629  41.607  36.865  1.00  0.00    -0.550 OA
ENDBRANCH   1  30
BRANCH  27  33
ATOM     33  O   UNL     1       4.278  47.503  32.078  1.00  0.00    -0.393 OA
ATOM     34  H   UNL     1       3.957  47.412  33.013  1.00  0.00     0.210 HD
ENDBRANCH  27  33
TORSDOF 2
ENDMDL
MODEL 7
REMARK VINA RESULT:     0.000      7.934     11.855
REMARK INTER + INTRA:           0.257
REMARK INTER:                   0.000
REMARK INTRA:                   0.257
REMARK UNBOUND:                 0.257
REMARK SMILES C[C@@H]1[C@H]2C3=CC[C@@H]4[C@]5(C)CC[C@@H](O)C(C)(C)[C@@H]5CC[C@]4(C)[C@@]3(C)CC[C@]2(C(=O)[O-])CC[C@@H]1C
REMARK SMILES IDX 26 1 30 2 25 3 3 4 31 5 24 6 4 7 2 8 32 9 22 10 5 11 1 12
REMARK SMILES IDX 33 13 23 14 20 15 6 16 7 17 19 18 21 19 8 20 18 21 17 22
REMARK SMILES IDX 10 23 9 24 14 25 11 26 12 27 15 28 16 29 27 30 28 31 29 32
REMARK SMILES IDX 13 33
REMARK H PARENT 13 34
REMARK Flexibility Score: inf
ROOT
ATOM      1  C   UNL     1       9.938  46.823  38.286  1.00  0.00     0.017 C 
ATOM      2  C   UNL     1      11.255  47.497  37.811  1.00  0.00     0.014 C 
ATOM      3  C   UNL     1       9.762  45.392  37.662  1.00  0.00     0.014 C 
ATOM      4  C   UNL     1      10.046  46.716  39.846  1.00  0.00     0.030 C 
ATOM      5  C   UNL     1      11.423  48.900  38.439  1.00  0.00     0.004 C 
ATOM      6  C   UNL     1      10.168  44.238  38.604  1.00  0.00     0.013 C 
ATOM      7  C   UNL     1       9.046  45.677  40.345  1.00  0.00    -0.063 C 
ATOM      8  C   UNL     1      10.153  48.101  40.546  1.00  0.00    -0.003 C 
ATOM      9  C   UNL     1      11.390  48.892  39.990  1.00  0.00    -0.011 C 
ATOM     10  C   UNL     1       9.401  44.208  40.014  1.00  0.00    -0.006 C 
ATOM     11  C   UNL     1       7.809  46.071  40.673  1.00  0.00    -0.027 C 
ATOM     12  C   UNL     1      10.207  47.966  42.081  1.00  0.00     0.008 C 
ATOM     13  C   UNL     1      12.751  48.426  40.550  1.00  0.00     0.008 C 
ATOM     14  C   UNL     1      10.467  43.758  41.066  1.00  0.00     0.017 C 
ATOM     15  C   UNL     1       8.108  43.206  40.075  1.00  0.00    -0.020 C 
ATOM     16  C   UNL     1       6.617  45.181  40.627  1.00  0.00     0.032 C 
ATOM     17  C   UNL     1       6.793  43.967  39.658  1.00  0.00     0.006 C 
ATOM     18  C   UNL     1       7.849  42.646  41.519  1.00  0.00     0.008 C 
ATOM     19  C   UNL     1       8.406  41.969  39.176  1.00  0.00     0.012 C 
ATOM     20  C   UNL     1       5.475  43.041  39.542  1.00  0.00    -0.025 C 
ATOM     21  C   UNL     1       6.406  42.166  41.840  1.00  0.00     0.005 C 
ATOM     22  C   UNL     1       5.452  41.882  40.640  1.00  0.00     0.003 C 
ATOM     23  C   UNL     1       4.156  43.903  39.594  1.00  0.00     0.010 C 
ATOM     24  C   UNL     1       5.465  42.398  38.112  1.00  0.00     0.012 C 
ATOM     25  C   UNL     1       3.995  41.461  41.124  1.00  0.00    -0.006 C 
ATOM     26  C   UNL     1       3.547  44.054  40.992  1.00  0.00     0.033 C 
ATOM     27  C   UNL     1       3.197  42.702  41.662  1.00  0.00     0.120 C 
ATOM     28  C   UNL     1       4.074  40.406  42.267  1.00  0.00     0.014 C 
ATOM     29  C   UNL     1       3.231  40.740  39.973  1.00  0.00     0.014 C 
ENDROOT
BRANCH   1  30
ATOM     30  C   UNL     1       8.764  47.666  37.775  1.00  0.00     0.048 C 
ATOM     31  O   UNL     1       8.322  47.475  36.609  1.00  0.00    -0.550 OA
ATOM     32  O   UNL     1       8.100  48.576  38.582  1.00  0.00    -0.550 OA
ENDBRANCH   1  30
BRANCH  27  33
ATOM     33  O   UNL     1       1.808  42.470  41.655  1.00  0.00    -0.393 OA
ATOM     34  H   UNL     1       1.634  41.628  42.150  1.00  0.00     0.210 HD
ENDBRANCH  27  33
TORSDOF 2
ENDMDL
MODEL 8
REMARK VINA RESULT:     0.000      3.863      5.515
REMARK INTER + INTRA:           0.257
REMARK INTER:                   0.000
REMARK INTRA:                   0.257
REMARK UNBOUND:                 0.257
REMARK SMILES C[C@@H]1[C@H]2C3=CC[C@@H]4[C@]5(C)CC[C@@H](O)C(C)(C)[C@@H]5CC[C@]4(C)[C@@]3(C)CC[C@]2(C(=O)[O-])CC[C@@H]1C
REMARK SMILES IDX 26 1 30 2 25 3 3 4 31 5 24 6 4 7 2 8 32 9 22 10 5 11 1 12
REMARK SMILES IDX 33 13 23 14 20 15 6 16 7 17 19 18 21 19 8 20 18 21 17 22
REMARK SMILES IDX 10 23 9 24 14 25 11 26 12 27 15 28 16 29 27 30 28 31 29 32
REMARK SMILES IDX 13 33
REMARK H PARENT 13 34
REMARK Flexibility Score: inf
ROOT
ATOM      1  C   UNL     1       7.482  49.269  34.283  1.00  0.00     0.017 C 
ATOM      2  C   UNL     1       5.969  49.615  34.206  1.00  0.00     0.014 C 
ATOM      3  C   UNL     1       7.784  47.859  33.661  1.00  0.00     0.014 C 
ATOM      4  C   UNL     1       8.221  50.384  33.466  1.00  0.00     0.030 C 
ATOM      5  C   UNL     1       5.683  51.010  34.812  1.00  0.00     0.004 C 
ATOM      6  C   UNL     1       8.326  47.909  32.217  1.00  0.00     0.013 C 
ATOM      7  C   UNL     1       9.616  49.887  33.097  1.00  0.00    -0.063 C 
ATOM      8  C   UNL     1       8.026  51.807  34.061  1.00  0.00    -0.003 C 
ATOM      9  C   UNL     1       6.497  52.151  34.147  1.00  0.00    -0.011 C 
ATOM     10  C   UNL     1       9.659  48.780  32.018  1.00  0.00    -0.006 C 
ATOM     11  C   UNL     1      10.634  50.129  33.935  1.00  0.00    -0.027 C 
ATOM     12  C   UNL     1       8.806  52.874  33.267  1.00  0.00     0.008 C 
ATOM     13  C   UNL     1       5.855  52.551  32.801  1.00  0.00     0.008 C 
ATOM     14  C   UNL     1       9.495  49.495  30.637  1.00  0.00     0.017 C 
ATOM     15  C   UNL     1      11.053  47.923  32.033  1.00  0.00    -0.020 C 
ATOM     16  C   UNL     1      11.856  49.283  34.017  1.00  0.00     0.032 C 
ATOM     17  C   UNL     1      11.632  47.826  33.496  1.00  0.00     0.006 C 
ATOM     18  C   UNL     1      12.178  48.587  31.162  1.00  0.00     0.008 C 
ATOM     19  C   UNL     1      10.776  46.528  31.396  1.00  0.00     0.012 C 
ATOM     20  C   UNL     1      12.931  46.880  33.656  1.00  0.00    -0.025 C 
ATOM     21  C   UNL     1      13.648  48.224  31.512  1.00  0.00     0.005 C 
ATOM     22  C   UNL     1      13.893  46.954  32.384  1.00  0.00     0.003 C 
ATOM     23  C   UNL     1      13.716  47.196  34.985  1.00  0.00     0.010 C 
ATOM     24  C   UNL     1      12.430  45.405  33.838  1.00  0.00     0.012 C 
ATOM     25  C   UNL     1      15.437  46.747  32.712  1.00  0.00    -0.006 C 
ATOM     26  C   UNL     1      14.858  48.206  34.828  1.00  0.00     0.033 C 
ATOM     27  C   UNL     1      15.928  47.773  33.796  1.00  0.00     0.120 C 
ATOM     28  C   UNL     1      16.307  46.941  31.435  1.00  0.00     0.014 C 
ATOM     29  C   UNL     1      15.703  45.275  33.151  1.00  0.00     0.014 C 
ENDROOT
BRANCH   1  30
ATOM     30  C   UNL     1       7.873  49.184  35.763  1.00  0.00     0.048 C 
ATOM     31  O   UNL     1       7.698  48.105  36.391  1.00  0.00    -0.550 OA
ATOM     32  O   UNL     1       8.505  50.227  36.423  1.00  0.00    -0.550 OA
ENDBRANCH   1  30
BRANCH  27  33
ATOM     33  O   UNL     1      17.106  47.334  34.431  1.00  0.00    -0.393 OA
ATOM     34  H   UNL     1      17.178  47.802  35.303  1.00  0.00     0.210 HD
ENDBRANCH  27  33
TORSDOF 2
ENDMDL
MODEL 9
REMARK VINA RESULT:     0.000      5.694      8.847
REMARK INTER + INTRA:           0.257
REMARK INTER:                   0.000
REMARK INTRA:                   0.257
REMARK UNBOUND:                 0.257
REMARK SMILES C[C@@H]1[C@H]2C3=CC[C@@H]4[C@]5(C)CC[C@@H](O)C(C)(C)[C@@H]5CC[C@]4(C)[C@@]3(C)CC[C@]2(C(=O)[O-])CC[C@@H]1C
REMARK SMILES IDX 26 1 30 2 25 3 3 4 31 5 24 6 4 7 2 8 32 9 22 10 5 11 1 12
REMARK SMILES IDX 33 13 23 14 20 15 6 16 7 17 19 18 21 19 8 20 18 21 17 22
REMARK SMILES IDX 10 23 9 24 14 25 11 26 12 27 15 28 16 29 27 30 28 31 29 32
REMARK SMILES IDX 13 33
REMARK H PARENT 13 34
REMARK Flexibility Score: inf
ROOT
ATOM      1  C   UNL     1       7.430  46.572  38.496  1.00  0.00     0.017 C 
ATOM      2  C   UNL     1       8.419  45.438  38.883  1.00  0.00     0.014 C 
ATOM      3  C   UNL     1       7.997  47.464  37.334  1.00  0.00     0.014 C 
ATOM      4  C   UNL     1       6.116  45.856  38.029  1.00  0.00     0.030 C 
ATOM      5  C   UNL     1       7.847  44.560  40.021  1.00  0.00     0.004 C 
ATOM      6  C   UNL     1       7.440  47.111  35.938  1.00  0.00     0.013 C 
ATOM      7  C   UNL     1       5.280  46.836  37.209  1.00  0.00    -0.063 C 
ATOM      8  C   UNL     1       5.453  45.005  39.149  1.00  0.00    -0.003 C 
ATOM      9  C   UNL     1       6.468  43.935  39.685  1.00  0.00    -0.011 C 
ATOM     10  C   UNL     1       5.842  47.170  35.808  1.00  0.00    -0.006 C 
ATOM     11  C   UNL     1       4.381  47.606  37.837  1.00  0.00    -0.027 C 
ATOM     12  C   UNL     1       4.137  44.356  38.675  1.00  0.00     0.008 C 
ATOM     13  C   UNL     1       6.649  42.708  38.764  1.00  0.00     0.008 C 
ATOM     14  C   UNL     1       5.449  45.979  34.873  1.00  0.00     0.017 C 
ATOM     15  C   UNL     1       5.250  48.568  35.196  1.00  0.00    -0.020 C 
ATOM     16  C   UNL     1       3.925  48.928  37.327  1.00  0.00     0.032 C 
ATOM     17  C   UNL     1       4.945  49.597  36.351  1.00  0.00     0.006 C 
ATOM     18  C   UNL     1       3.898  48.364  34.426  1.00  0.00     0.008 C 
ATOM     19  C   UNL     1       6.268  49.113  34.150  1.00  0.00     0.012 C 
ATOM     20  C   UNL     1       4.492  51.065  35.855  1.00  0.00    -0.025 C 
ATOM     21  C   UNL     1       2.970  49.603  34.287  1.00  0.00     0.005 C 
ATOM     22  C   UNL     1       3.597  51.009  34.534  1.00  0.00     0.003 C 
ATOM     23  C   UNL     1       3.766  51.864  37.003  1.00  0.00     0.010 C 
ATOM     24  C   UNL     1       5.791  51.894  35.564  1.00  0.00     0.012 C 
ATOM     25  C   UNL     1       2.516  52.172  34.420  1.00  0.00    -0.006 C 
ATOM     26  C   UNL     1       2.239  51.735  37.003  1.00  0.00     0.033 C 
ATOM     27  C   UNL     1       1.580  52.199  35.681  1.00  0.00     0.120 C 
ATOM     28  C   UNL     1       1.622  51.976  33.160  1.00  0.00     0.014 C 
ATOM     29  C   UNL     1       3.220  53.544  34.196  1.00  0.00     0.014 C 
ENDROOT
BRANCH   1  30
ATOM     30  C   UNL     1       7.268  47.494  39.710  1.00  0.00     0.048 C 
ATOM     31  O   UNL     1       8.099  48.423  39.901  1.00  0.00    -0.550 OA
ATOM     32  O   UNL     1       6.182  47.406  40.567  1.00  0.00    -0.550 OA
ENDBRANCH   1  30
BRANCH  27  33
ATOM     33  O   UNL     1       0.949  53.450  35.833  1.00  0.00    -0.393 OA
ATOM     34  H   UNL     1       1.089  53.968  34.999  1.00  0.00     0.210 HD
ENDBRANCH  27  33
TORSDOF 2
ENDMDL
