MODEL 1
REMARK VINA RESULT:    -6.784      0.000      0.000
REMARK INTER + INTRA:          -8.110
REMARK INTER:                  -7.974
REMARK INTRA:                  -0.137
REMARK UNBOUND:                -0.137
REMARK SMILES O=C([O-])C=Cc1ccc(O)c(O)c1
REMARK SMILES IDX 6 1 13 2 7 3 11 4 8 5 9 6 5 7 4 8 2 9 1 10 3 11 12 12 10 14
REMARK H PARENT 12 13 10 15
REMARK Flexibility Score: inf
ROOT
ATOM      1  C   UNL     1     -17.532 -36.714 -10.817  1.00  0.00    -0.022 A 
ATOM      2  C   UNL     1     -18.535 -36.874 -11.787  1.00  0.00     0.058 A 
ATOM      3  C   UNL     1     -16.186 -36.686 -11.231  1.00  0.00     0.012 A 
ATOM      4  C   UNL     1     -18.212 -36.977 -13.144  1.00  0.00     0.157 A 
ATOM      5  C   UNL     1     -15.860 -36.789 -12.585  1.00  0.00     0.051 A 
ATOM      6  C   UNL     1     -16.868 -36.932 -13.548  1.00  0.00     0.157 A 
ENDROOT
BRANCH   1   7
ATOM      7  C   UNL     1     -17.931 -36.621  -9.391  1.00  0.00     0.010 C 
ATOM      8  C   UNL     1     -17.131 -36.155  -8.422  1.00  0.00     0.025 C 
BRANCH   8   9
ATOM      9  C   UNL     1     -17.574 -36.068  -7.022  1.00  0.00     0.064 C 
ATOM     10  O   UNL     1     -17.753 -37.125  -6.360  1.00  0.00    -0.545 OA
ATOM     11  O   UNL     1     -17.802 -34.838  -6.415  1.00  0.00    -0.545 OA
ENDBRANCH   8   9
ENDBRANCH   1   7
BRANCH   4  12
ATOM     12  O   UNL     1     -19.239 -37.125 -14.076  1.00  0.00    -0.504 OA
ATOM     13  H   UNL     1     -20.212 -37.184 -13.799  1.00  0.00     0.293 HD
ENDBRANCH   4  12
BRANCH   6  14
ATOM     14  O   UNL     1     -16.538 -37.034 -14.899  1.00  0.00    -0.504 OA
ATOM     15  H   UNL     1     -16.982 -37.714 -15.504  1.00  0.00     0.293 HD
ENDBRANCH   6  14
TORSDOF 4
ENDMDL
MODEL 2
REMARK VINA RESULT:    -6.636      1.981      3.158
REMARK INTER + INTRA:          -7.937
REMARK INTER:                  -7.795
REMARK INTRA:                  -0.142
REMARK UNBOUND:                -0.137
REMARK SMILES O=C([O-])C=Cc1ccc(O)c(O)c1
REMARK SMILES IDX 6 1 13 2 7 3 11 4 8 5 9 6 5 7 4 8 2 9 1 10 3 11 12 12 10 14
REMARK H PARENT 12 13 10 15
REMARK Flexibility Score: inf
ROOT
ATOM      1  C   UNL     1     -16.033 -36.367 -12.657  1.00  0.00    -0.022 A 
ATOM      2  C   UNL     1     -14.875 -35.856 -13.266  1.00  0.00     0.058 A 
ATOM      3  C   UNL     1     -17.130 -36.716 -13.470  1.00  0.00     0.012 A 
ATOM      4  C   UNL     1     -14.795 -35.718 -14.656  1.00  0.00     0.157 A 
ATOM      5  C   UNL     1     -17.053 -36.579 -14.858  1.00  0.00     0.051 A 
ATOM      6  C   UNL     1     -15.889 -36.083 -15.458  1.00  0.00     0.157 A 
ENDROOT
BRANCH   1   7
ATOM      7  C   UNL     1     -16.067 -36.482 -11.178  1.00  0.00     0.010 C 
ATOM      8  C   UNL     1     -17.181 -36.728 -10.476  1.00  0.00     0.025 C 
BRANCH   8   9
ATOM      9  C   UNL     1     -17.165 -36.847  -9.009  1.00  0.00     0.064 C 
ATOM     10  O   UNL     1     -16.073 -36.747  -8.389  1.00  0.00    -0.545 OA
ATOM     11  O   UNL     1     -18.336 -37.072  -8.294  1.00  0.00    -0.545 OA
ENDBRANCH   8   9
ENDBRANCH   1   7
BRANCH   4  12
ATOM     12  O   UNL     1     -13.623 -35.215 -15.221  1.00  0.00    -0.504 OA
ATOM     13  H   UNL     1     -13.407 -35.332 -16.204  1.00  0.00     0.293 HD
ENDBRANCH   4  12
BRANCH   6  14
ATOM     14  O   UNL     1     -15.816 -35.948 -16.844  1.00  0.00    -0.504 OA
ATOM     15  H   UNL     1     -16.268 -36.608 -17.466  1.00  0.00     0.293 HD
ENDBRANCH   6  14
TORSDOF 4
ENDMDL
MODEL 3
REMARK VINA RESULT:    -6.405      1.972      2.835
REMARK INTER + INTRA:          -7.665
REMARK INTER:                  -7.531
REMARK INTRA:                  -0.134
REMARK UNBOUND:                -0.137
REMARK SMILES O=C([O-])C=Cc1ccc(O)c(O)c1
REMARK SMILES IDX 6 1 13 2 7 3 11 4 8 5 9 6 5 7 4 8 2 9 1 10 3 11 12 12 10 14
REMARK H PARENT 12 13 10 15
REMARK Flexibility Score: inf
ROOT
ATOM      1  C   UNL     1     -15.364 -36.643 -12.761  1.00  0.00    -0.022 A 
ATOM      2  C   UNL     1     -16.352 -36.161 -13.635  1.00  0.00     0.058 A 
ATOM      3  C   UNL     1     -14.156 -37.125 -13.303  1.00  0.00     0.012 A 
ATOM      4  C   UNL     1     -16.138 -36.132 -15.017  1.00  0.00     0.157 A 
ATOM      5  C   UNL     1     -13.939 -37.098 -14.683  1.00  0.00     0.051 A 
ATOM      6  C   UNL     1     -14.924 -36.601 -15.546  1.00  0.00     0.157 A 
ENDROOT
BRANCH   1   7
ATOM      7  C   UNL     1     -15.649 -36.660 -11.306  1.00  0.00     0.010 C 
ATOM      8  C   UNL     1     -16.884 -36.730 -10.789  1.00  0.00     0.025 C 
BRANCH   8   9
ATOM      9  C   UNL     1     -17.119 -36.758  -9.337  1.00  0.00     0.064 C 
ATOM     10  O   UNL     1     -16.190 -37.114  -8.564  1.00  0.00    -0.545 OA
ATOM     11  O   UNL     1     -18.351 -36.401  -8.802  1.00  0.00    -0.545 OA
ENDBRANCH   8   9
ENDBRANCH   1   7
BRANCH   4  12
ATOM     12  O   UNL     1     -17.141 -35.635 -15.849  1.00  0.00    -0.504 OA
ATOM     13  H   UNL     1     -17.095 -34.708 -16.254  1.00  0.00     0.293 HD
ENDBRANCH   4  12
BRANCH   6  14
ATOM     14  O   UNL     1     -14.703 -36.575 -16.922  1.00  0.00    -0.504 OA
ATOM     15  H   UNL     1     -15.470 -36.587 -17.584  1.00  0.00     0.293 HD
ENDBRANCH   6  14
TORSDOF 4
ENDMDL
MODEL 4
REMARK VINA RESULT:    -6.402      1.243      5.801
REMARK INTER + INTRA:          -7.661
REMARK INTER:                  -7.524
REMARK INTRA:                  -0.137
REMARK UNBOUND:                -0.137
REMARK SMILES O=C([O-])C=Cc1ccc(O)c(O)c1
REMARK SMILES IDX 6 1 13 2 7 3 11 4 8 5 9 6 5 7 4 8 2 9 1 10 3 11 12 12 10 14
REMARK H PARENT 12 13 10 15
REMARK Flexibility Score: inf
ROOT
ATOM      1  C   UNL     1     -16.892 -36.802 -10.779  1.00  0.00    -0.022 A 
ATOM      2  C   UNL     1     -18.085 -36.648 -10.055  1.00  0.00     0.058 A 
ATOM      3  C   UNL     1     -15.664 -36.657 -10.102  1.00  0.00     0.012 A 
ATOM      4  C   UNL     1     -18.064 -36.382  -8.682  1.00  0.00     0.157 A 
ATOM      5  C   UNL     1     -15.640 -36.391  -8.731  1.00  0.00     0.051 A 
ATOM      6  C   UNL     1     -16.835 -36.254  -8.014  1.00  0.00     0.157 A 
ENDROOT
BRANCH   1   7
ATOM      7  C   UNL     1     -16.973 -37.072 -12.235  1.00  0.00     0.010 C 
ATOM      8  C   UNL     1     -16.219 -36.450 -13.152  1.00  0.00     0.025 C 
BRANCH   8   9
ATOM      9  C   UNL     1     -16.325 -36.760 -14.586  1.00  0.00     0.064 C 
ATOM     10  O   UNL     1     -17.432 -37.124 -15.064  1.00  0.00    -0.545 OA
ATOM     11  O   UNL     1     -15.221 -36.662 -15.426  1.00  0.00    -0.545 OA
ENDBRANCH   8   9
ENDBRANCH   1   7
BRANCH   4  12
ATOM     12  O   UNL     1     -19.272 -36.246  -7.999  1.00  0.00    -0.504 OA
ATOM     13  H   UNL     1     -19.757 -35.359  -7.933  1.00  0.00     0.293 HD
ENDBRANCH   4  12
BRANCH   6  14
ATOM     14  O   UNL     1     -16.806 -35.990  -6.645  1.00  0.00    -0.504 OA
ATOM     15  H   UNL     1     -15.933 -35.931  -6.135  1.00  0.00     0.293 HD
ENDBRANCH   6  14
TORSDOF 4
ENDMDL
MODEL 5
REMARK VINA RESULT:    -6.299      2.164      6.188
REMARK INTER + INTRA:          -7.540
REMARK INTER:                  -7.415
REMARK INTRA:                  -0.126
REMARK UNBOUND:                -0.137
REMARK SMILES O=C([O-])C=Cc1ccc(O)c(O)c1
REMARK SMILES IDX 6 1 13 2 7 3 11 4 8 5 9 6 5 7 4 8 2 9 1 10 3 11 12 12 10 14
REMARK H PARENT 12 13 10 15
REMARK Flexibility Score: inf
ROOT
ATOM      1  C   UNL     1     -16.275 -36.734 -12.152  1.00  0.00    -0.022 A 
ATOM      2  C   UNL     1     -15.576 -36.501 -10.956  1.00  0.00     0.058 A 
ATOM      3  C   UNL     1     -17.662 -36.976 -12.091  1.00  0.00     0.012 A 
ATOM      4  C   UNL     1     -16.243 -36.481  -9.726  1.00  0.00     0.157 A 
ATOM      5  C   UNL     1     -18.330 -36.956 -10.865  1.00  0.00     0.051 A 
ATOM      6  C   UNL     1     -17.628 -36.707  -9.678  1.00  0.00     0.157 A 
ENDROOT
BRANCH   1   7
ATOM      7  C   UNL     1     -15.516 -36.755 -13.426  1.00  0.00     0.010 C 
ATOM      8  C   UNL     1     -14.844 -35.701 -13.911  1.00  0.00     0.025 C 
BRANCH   8   9
ATOM      9  C   UNL     1     -14.094 -35.772 -15.174  1.00  0.00     0.064 C 
ATOM     10  O   UNL     1     -12.903 -35.364 -15.213  1.00  0.00    -0.545 OA
ATOM     11  O   UNL     1     -14.679 -36.277 -16.330  1.00  0.00    -0.545 OA
ENDBRANCH   8   9
ENDBRANCH   1   7
BRANCH   4  12
ATOM     12  O   UNL     1     -15.513 -36.235  -8.564  1.00  0.00    -0.504 OA
ATOM     13  H   UNL     1     -14.701 -36.787  -8.311  1.00  0.00     0.293 HD
ENDBRANCH   4  12
BRANCH   6  14
ATOM     14  O   UNL     1     -18.299 -36.689  -8.457  1.00  0.00    -0.504 OA
ATOM     15  H   UNL     1     -17.955 -36.151  -7.670  1.00  0.00     0.293 HD
ENDBRANCH   6  14
TORSDOF 4
ENDMDL
MODEL 6
REMARK VINA RESULT:    -5.239      2.098      5.818
REMARK INTER + INTRA:          -6.294
REMARK INTER:                  -6.167
REMARK INTRA:                  -0.127
REMARK UNBOUND:                -0.137
REMARK SMILES O=C([O-])C=Cc1ccc(O)c(O)c1
REMARK SMILES IDX 6 1 13 2 7 3 11 4 8 5 9 6 5 7 4 8 2 9 1 10 3 11 12 12 10 14
REMARK H PARENT 12 13 10 15
REMARK Flexibility Score: inf
ROOT
ATOM      1  C   UNL     1     -15.800 -36.722 -11.824  1.00  0.00    -0.022 A 
ATOM      2  C   UNL     1     -17.196 -36.751 -11.975  1.00  0.00     0.058 A 
ATOM      3  C   UNL     1     -15.258 -36.687 -10.524  1.00  0.00     0.012 A 
ATOM      4  C   UNL     1     -18.039 -36.772 -10.858  1.00  0.00     0.157 A 
ATOM      5  C   UNL     1     -16.097 -36.708  -9.407  1.00  0.00     0.051 A 
ATOM      6  C   UNL     1     -17.488 -36.753  -9.566  1.00  0.00     0.157 A 
ENDROOT
BRANCH   1   7
ATOM      7  C   UNL     1     -14.954 -36.689 -13.043  1.00  0.00     0.010 C 
ATOM      8  C   UNL     1     -15.132 -35.823 -14.050  1.00  0.00     0.025 C 
BRANCH   8   9
ATOM      9  C   UNL     1     -14.259 -35.819 -15.235  1.00  0.00     0.064 C 
ATOM     10  O   UNL     1     -14.740 -36.110 -16.362  1.00  0.00    -0.545 OA
ATOM     11  O   UNL     1     -12.909 -35.503 -15.132  1.00  0.00    -0.545 OA
ENDBRANCH   8   9
ENDBRANCH   1   7
BRANCH   4  12
ATOM     12  O   UNL     1     -19.420 -36.812 -11.052  1.00  0.00    -0.504 OA
ATOM     13  H   UNL     1     -19.831 -37.026 -11.953  1.00  0.00     0.293 HD
ENDBRANCH   4  12
BRANCH   6  14
ATOM     14  O   UNL     1     -18.322 -36.775  -8.449  1.00  0.00    -0.504 OA
ATOM     15  H   UNL     1     -17.966 -36.596  -7.518  1.00  0.00     0.293 HD
ENDBRANCH   6  14
TORSDOF 4
ENDMDL
MODEL 7
REMARK VINA RESULT:    -4.402     13.773     15.583
REMARK INTER + INTRA:          -5.311
REMARK INTER:                  -5.183
REMARK INTRA:                  -0.128
REMARK UNBOUND:                -0.137
REMARK SMILES O=C([O-])C=Cc1ccc(O)c(O)c1
REMARK SMILES IDX 6 1 13 2 7 3 11 4 8 5 9 6 5 7 4 8 2 9 1 10 3 11 12 12 10 14
REMARK H PARENT 12 13 10 15
REMARK Flexibility Score: inf
ROOT
ATOM      1  C   UNL     1      -9.165 -24.454  -8.603  1.00  0.00    -0.022 A 
ATOM      2  C   UNL     1      -8.903 -25.318  -7.527  1.00  0.00     0.058 A 
ATOM      3  C   UNL     1      -9.725 -23.189  -8.336  1.00  0.00     0.012 A 
ATOM      4  C   UNL     1      -9.167 -24.927  -6.210  1.00  0.00     0.157 A 
ATOM      5  C   UNL     1      -9.991 -22.796  -7.022  1.00  0.00     0.051 A 
ATOM      6  C   UNL     1      -9.712 -23.658  -5.954  1.00  0.00     0.157 A 
ENDROOT
BRANCH   1   7
ATOM      7  C   UNL     1      -8.875 -24.925  -9.980  1.00  0.00     0.010 C 
ATOM      8  C   UNL     1      -9.377 -26.052 -10.503  1.00  0.00     0.025 C 
BRANCH   8   9
ATOM      9  C   UNL     1      -9.073 -26.473 -11.879  1.00  0.00     0.064 C 
ATOM     10  O   UNL     1      -8.960 -27.700 -12.143  1.00  0.00    -0.545 OA
ATOM     11  O   UNL     1      -8.902 -25.539 -12.895  1.00  0.00    -0.545 OA
ENDBRANCH   8   9
ENDBRANCH   1   7
BRANCH   4  12
ATOM     12  O   UNL     1      -8.883 -25.812  -5.171  1.00  0.00    -0.504 OA
ATOM     13  H   UNL     1      -9.021 -26.811  -5.261  1.00  0.00     0.293 HD
ENDBRANCH   4  12
BRANCH   6  14
ATOM     14  O   UNL     1      -9.977 -23.261  -4.645  1.00  0.00    -0.504 OA
ATOM     15  H   UNL     1      -9.591 -23.758  -3.850  1.00  0.00     0.293 HD
ENDBRANCH   6  14
TORSDOF 4
ENDMDL
MODEL 8
REMARK VINA RESULT:    -4.285      3.538      5.396
REMARK INTER + INTRA:          -5.173
REMARK INTER:                  -5.045
REMARK INTRA:                  -0.129
REMARK UNBOUND:                -0.137
REMARK SMILES O=C([O-])C=Cc1ccc(O)c(O)c1
REMARK SMILES IDX 6 1 13 2 7 3 11 4 8 5 9 6 5 7 4 8 2 9 1 10 3 11 12 12 10 14
REMARK H PARENT 12 13 10 15
REMARK Flexibility Score: inf
ROOT
ATOM      1  C   UNL     1     -15.697 -35.753 -14.508  1.00  0.00    -0.022 A 
ATOM      2  C   UNL     1     -15.085 -34.585 -14.023  1.00  0.00     0.058 A 
ATOM      3  C   UNL     1     -14.952 -36.614 -15.339  1.00  0.00     0.012 A 
ATOM      4  C   UNL     1     -13.754 -34.289 -14.334  1.00  0.00     0.157 A 
ATOM      5  C   UNL     1     -13.623 -36.320 -15.652  1.00  0.00     0.051 A 
ATOM      6  C   UNL     1     -13.016 -35.161 -15.151  1.00  0.00     0.157 A 
ENDROOT
BRANCH   1   7
ATOM      7  C   UNL     1     -17.114 -36.013 -14.155  1.00  0.00     0.010 C 
ATOM      8  C   UNL     1     -17.498 -36.803 -13.143  1.00  0.00     0.025 C 
BRANCH   8   9
ATOM      9  C   UNL     1     -18.917 -37.021 -12.822  1.00  0.00     0.064 C 
ATOM     10  O   UNL     1     -19.757 -37.125 -13.755  1.00  0.00    -0.545 OA
ATOM     11  O   UNL     1     -19.349 -37.111 -11.503  1.00  0.00    -0.545 OA
ENDBRANCH   8   9
ENDBRANCH   1   7
BRANCH   4  12
ATOM     12  O   UNL     1     -13.182 -33.124 -13.824  1.00  0.00    -0.504 OA
ATOM     13  H   UNL     1     -13.518 -32.203 -14.080  1.00  0.00     0.293 HD
ENDBRANCH   4  12
BRANCH   6  14
ATOM     14  O   UNL     1     -11.689 -34.872 -15.465  1.00  0.00    -0.504 OA
ATOM     15  H   UNL     1     -11.358 -34.870 -16.422  1.00  0.00     0.293 HD
ENDBRANCH   6  14
TORSDOF 4
ENDMDL
MODEL 9
REMARK VINA RESULT:    -3.957     13.311     15.110
REMARK INTER + INTRA:          -4.788
REMARK INTER:                  -4.656
REMARK INTRA:                  -0.133
REMARK UNBOUND:                -0.137
REMARK SMILES O=C([O-])C=Cc1ccc(O)c(O)c1
REMARK SMILES IDX 6 1 13 2 7 3 11 4 8 5 9 6 5 7 4 8 2 9 1 10 3 11 12 12 10 14
REMARK H PARENT 12 13 10 15
REMARK Flexibility Score: inf
ROOT
ATOM      1  C   UNL     1      -8.978 -25.497  -9.471  1.00  0.00    -0.022 A 
ATOM      2  C   UNL     1      -8.980 -24.174  -9.000  1.00  0.00     0.058 A 
ATOM      3  C   UNL     1      -8.918 -26.550  -8.536  1.00  0.00     0.012 A 
ATOM      4  C   UNL     1      -8.950 -23.899  -7.628  1.00  0.00     0.157 A 
ATOM      5  C   UNL     1      -8.888 -26.279  -7.166  1.00  0.00     0.051 A 
ATOM      6  C   UNL     1      -8.905 -24.956  -6.705  1.00  0.00     0.157 A 
ENDROOT
BRANCH   1   7
ATOM      7  C   UNL     1      -9.001 -25.730 -10.936  1.00  0.00     0.010 C 
ATOM      8  C   UNL     1      -9.977 -26.394 -11.569  1.00  0.00     0.025 C 
BRANCH   8   9
ATOM      9  C   UNL     1      -9.965 -26.591 -13.027  1.00  0.00     0.064 C 
ATOM     10  O   UNL     1      -8.904 -26.382 -13.674  1.00  0.00    -0.545 OA
ATOM     11  O   UNL     1     -11.107 -27.000 -13.707  1.00  0.00    -0.545 OA
ENDBRANCH   8   9
ENDBRANCH   1   7
BRANCH   4  12
ATOM     12  O   UNL     1      -8.963 -22.571  -7.203  1.00  0.00    -0.504 OA
ATOM     13  H   UNL     1      -9.019 -22.320  -6.223  1.00  0.00     0.293 HD
ENDBRANCH   4  12
BRANCH   6  14
ATOM     14  O   UNL     1      -8.875 -24.690  -5.336  1.00  0.00    -0.504 OA
ATOM     15  H   UNL     1      -8.978 -25.428  -4.650  1.00  0.00     0.293 HD
ENDBRANCH   6  14
TORSDOF 4
ENDMDL
