MODEL 1
REMARK VINA RESULT:     9.092      0.000      0.000
REMARK INTER + INTRA:          20.223
REMARK INTER:                  20.785
REMARK INTRA:                  -0.562
REMARK UNBOUND:                -0.562
REMARK SMILES CCCCCCCCCCCCCCCCCCCCCCCC(=O)[O-]
REMARK SMILES IDX 13 1 14 2 15 3 16 4 17 5 18 6 19 7 20 8 21 9 22 10 23 11
REMARK SMILES IDX 24 12 25 13 26 14 12 15 11 16 10 17 9 18 8 19 7 20 6 21 5 22
REMARK SMILES IDX 4 23 3 24 2 25 1 26
REMARK H PARENT
REMARK Flexibility Score: inf
ROOT
ATOM      1  C   UNL     1      -4.005   7.953   2.864  1.00  0.00     0.000 C 
ENDROOT
BRANCH   1   2
ATOM      2  C   UNL     1      -3.811   9.449   2.587  1.00  0.00     0.000 C 
BRANCH   2   3
ATOM      3  C   UNL     1      -3.367   9.688   1.136  1.00  0.00     0.000 C 
BRANCH   3   4
ATOM      4  C   UNL     1      -4.014   8.711   0.143  1.00  0.00     0.000 C 
BRANCH   4   5
ATOM      5  C   UNL     1      -4.999   9.404  -0.814  1.00  0.00     0.000 C 
BRANCH   5   6
ATOM      6  C   UNL     1      -4.526   9.382  -2.279  1.00  0.00     0.000 C 
BRANCH   6   7
ATOM      7  C   UNL     1      -3.562   8.233  -2.644  1.00  0.00     0.000 C 
BRANCH   7   8
ATOM      8  C   UNL     1      -2.063   8.571  -2.537  1.00  0.00     0.000 C 
BRANCH   8   9
ATOM      9  C   UNL     1      -1.470   8.208  -1.165  1.00  0.00     0.000 C 
BRANCH   9  10
ATOM     10  C   UNL     1       0.070   8.224  -1.158  1.00  0.00     0.006 C 
BRANCH  10  11
ATOM     11  C   UNL     1       0.725   6.886  -1.540  1.00  0.00     0.053 C 
BRANCH  11  12
ATOM     12  C   UNL     1       2.219   6.933  -1.426  1.00  0.00     0.041 C 
ATOM     13  O   UNL     1       2.861   5.908  -1.078  1.00  0.00    -0.550 OA
ATOM     14  O   UNL     1       2.895   8.125  -1.658  1.00  0.00    -0.550 OA
ENDBRANCH  11  12
ENDBRANCH  10  11
ENDBRANCH   9  10
ENDBRANCH   8   9
ENDBRANCH   7   8
ENDBRANCH   6   7
ENDBRANCH   5   6
ENDBRANCH   4   5
ENDBRANCH   3   4
ENDBRANCH   2   3
ENDBRANCH   1   2
BRANCH   1  15
ATOM     15  C   UNL     1      -4.542   7.720   4.284  1.00  0.00     0.000 C 
BRANCH  15  16
ATOM     16  C   UNL     1      -3.819   6.560   5.003  1.00  0.00     0.000 C 
BRANCH  16  17
ATOM     17  C   UNL     1      -3.917   6.635   6.536  1.00  0.00     0.000 C 
BRANCH  17  18
ATOM     18  C   UNL     1      -2.808   5.838   7.243  1.00  0.00    -0.000 C 
BRANCH  18  19
ATOM     19  C   UNL     1      -2.373   6.492   8.573  1.00  0.00    -0.000 C 
BRANCH  19  20
ATOM     20  C   UNL     1      -3.082   5.910   9.810  1.00  0.00    -0.000 C 
BRANCH  20  21
ATOM     21  C   UNL     1      -4.513   6.426  10.034  1.00  0.00    -0.000 C 
BRANCH  21  22
ATOM     22  C   UNL     1      -5.575   5.543   9.353  1.00  0.00    -0.000 C 
BRANCH  22  23
ATOM     23  C   UNL     1      -5.839   4.240  10.125  1.00  0.00    -0.000 C 
BRANCH  23  24
ATOM     24  C   UNL     1      -5.671   2.988   9.248  1.00  0.00    -0.000 C 
BRANCH  24  25
ATOM     25  C   UNL     1      -4.747   3.276   8.059  1.00  0.00    -0.003 C 
ATOM     26  C   UNL     1      -3.614   2.255   7.983  1.00  0.00     0.004 C 
ENDBRANCH  24  25
ENDBRANCH  23  24
ENDBRANCH  22  23
ENDBRANCH  21  22
ENDBRANCH  20  21
ENDBRANCH  19  20
ENDBRANCH  18  19
ENDBRANCH  17  18
ENDBRANCH  16  17
ENDBRANCH  15  16
ENDBRANCH   1  15
TORSDOF 22
ENDMDL
MODEL 2
REMARK VINA RESULT:     9.258      3.402     10.698
REMARK INTER + INTRA:          20.604
REMARK INTER:                  20.926
REMARK INTRA:                  -0.322
REMARK UNBOUND:                -0.562
REMARK SMILES CCCCCCCCCCCCCCCCCCCCCCCC(=O)[O-]
REMARK SMILES IDX 13 1 14 2 15 3 16 4 17 5 18 6 19 7 20 8 21 9 22 10 23 11
REMARK SMILES IDX 24 12 25 13 26 14 12 15 11 16 10 17 9 18 8 19 7 20 6 21 5 22
REMARK SMILES IDX 4 23 3 24 2 25 1 26
REMARK H PARENT
REMARK Flexibility Score: inf
ROOT
ATOM      1  C   UNL     1      -4.630   7.409   4.187  1.00  0.00     0.000 C 
ENDROOT
BRANCH   1   2
ATOM      2  C   UNL     1      -3.851   7.113   5.475  1.00  0.00     0.000 C 
BRANCH   2   3
ATOM      3  C   UNL     1      -3.539   5.613   5.598  1.00  0.00     0.000 C 
BRANCH   3   4
ATOM      4  C   UNL     1      -3.510   5.125   7.054  1.00  0.00     0.000 C 
BRANCH   4   5
ATOM      5  C   UNL     1      -3.162   3.631   7.172  1.00  0.00     0.000 C 
BRANCH   5   6
ATOM      6  C   UNL     1      -4.222   2.829   7.949  1.00  0.00     0.000 C 
BRANCH   6   7
ATOM      7  C   UNL     1      -5.625   3.469   8.004  1.00  0.00     0.000 C 
BRANCH   7   8
ATOM      8  C   UNL     1      -6.179   3.723   9.418  1.00  0.00     0.000 C 
BRANCH   8   9
ATOM      9  C   UNL     1      -5.897   5.149   9.919  1.00  0.00     0.000 C 
BRANCH   9  10
ATOM     10  C   UNL     1      -4.395   5.423  10.123  1.00  0.00     0.006 C 
BRANCH  10  11
ATOM     11  C   UNL     1      -3.964   6.871   9.836  1.00  0.00     0.053 C 
BRANCH  11  12
ATOM     12  C   UNL     1      -2.482   6.996   9.657  1.00  0.00     0.041 C 
ATOM     13  O   UNL     1      -1.722   6.045   9.980  1.00  0.00    -0.550 OA
ATOM     14  O   UNL     1      -1.938   8.183   9.180  1.00  0.00    -0.550 OA
ENDBRANCH  11  12
ENDBRANCH  10  11
ENDBRANCH   9  10
ENDBRANCH   8   9
ENDBRANCH   7   8
ENDBRANCH   6   7
ENDBRANCH   5   6
ENDBRANCH   4   5
ENDBRANCH   3   4
ENDBRANCH   2   3
ENDBRANCH   1   2
BRANCH   1  15
ATOM     15  C   UNL     1      -3.678   7.787   3.043  1.00  0.00     0.000 C 
BRANCH  15  16
ATOM     16  C   UNL     1      -4.091   9.102   2.346  1.00  0.00     0.000 C 
BRANCH  16  17
ATOM     17  C   UNL     1      -3.461   9.281   0.955  1.00  0.00     0.000 C 
BRANCH  17  18
ATOM     18  C   UNL     1      -4.476   9.743  -0.104  1.00  0.00    -0.000 C 
BRANCH  18  19
ATOM     19  C   UNL     1      -4.554   8.774  -1.304  1.00  0.00    -0.000 C 
BRANCH  19  20
ATOM     20  C   UNL     1      -3.343   8.863  -2.251  1.00  0.00    -0.000 C 
BRANCH  20  21
ATOM     21  C   UNL     1      -1.974   8.846  -1.549  1.00  0.00    -0.000 C 
BRANCH  21  22
ATOM     22  C   UNL     1      -1.260   7.488  -1.677  1.00  0.00    -0.000 C 
BRANCH  22  23
ATOM     23  C   UNL     1       0.189   7.628  -2.169  1.00  0.00    -0.000 C 
BRANCH  23  24
ATOM     24  C   UNL     1       1.220   7.382  -1.057  1.00  0.00    -0.000 C 
BRANCH  24  25
ATOM     25  C   UNL     1       2.642   7.655  -1.560  1.00  0.00    -0.003 C 
ATOM     26  C   UNL     1       2.850   9.141  -1.844  1.00  0.00     0.004 C 
ENDBRANCH  24  25
ENDBRANCH  23  24
ENDBRANCH  22  23
ENDBRANCH  21  22
ENDBRANCH  20  21
ENDBRANCH  19  20
ENDBRANCH  18  19
ENDBRANCH  17  18
ENDBRANCH  16  17
ENDBRANCH  15  16
ENDBRANCH   1  15
TORSDOF 22
ENDMDL
MODEL 3
REMARK VINA RESULT:     9.586      3.286      5.175
REMARK INTER + INTRA:          21.353
REMARK INTER:                  22.550
REMARK INTRA:                  -1.197
REMARK UNBOUND:                -0.562
REMARK SMILES CCCCCCCCCCCCCCCCCCCCCCCC(=O)[O-]
REMARK SMILES IDX 13 1 14 2 15 3 16 4 17 5 18 6 19 7 20 8 21 9 22 10 23 11
REMARK SMILES IDX 24 12 25 13 26 14 12 15 11 16 10 17 9 18 8 19 7 20 6 21 5 22
REMARK SMILES IDX 4 23 3 24 2 25 1 26
REMARK H PARENT
REMARK Flexibility Score: inf
ROOT
ATOM      1  C   UNL     1      -0.804   2.994   2.282  1.00  0.00     0.000 C 
ENDROOT
BRANCH   1   2
ATOM      2  C   UNL     1       0.050   2.353   1.181  1.00  0.00     0.000 C 
BRANCH   2   3
ATOM      3  C   UNL     1       0.475   3.396   0.135  1.00  0.00     0.000 C 
BRANCH   3   4
ATOM      4  C   UNL     1       1.956   3.284  -0.255  1.00  0.00     0.000 C 
BRANCH   4   5
ATOM      5  C   UNL     1       2.579   4.643  -0.618  1.00  0.00     0.000 C 
BRANCH   5   6
ATOM      6  C   UNL     1       1.541   5.779  -0.679  1.00  0.00     0.000 C 
BRANCH   6   7
ATOM      7  C   UNL     1       1.985   7.038  -1.455  1.00  0.00     0.000 C 
BRANCH   7   8
ATOM      8  C   UNL     1       0.851   7.997  -1.860  1.00  0.00     0.000 C 
BRANCH   8   9
ATOM      9  C   UNL     1      -0.546   7.415  -1.583  1.00  0.00     0.000 C 
BRANCH   9  10
ATOM     10  C   UNL     1      -1.535   8.468  -1.047  1.00  0.00     0.006 C 
BRANCH  10  11
ATOM     11  C   UNL     1      -2.811   8.633  -1.889  1.00  0.00     0.053 C 
BRANCH  11  12
ATOM     12  C   UNL     1      -4.016   8.912  -1.042  1.00  0.00     0.041 C 
ATOM     13  O   UNL     1      -5.163   8.937  -1.561  1.00  0.00    -0.550 OA
ATOM     14  O   UNL     1      -3.864   9.194   0.310  1.00  0.00    -0.550 OA
ENDBRANCH  11  12
ENDBRANCH  10  11
ENDBRANCH   9  10
ENDBRANCH   8   9
ENDBRANCH   7   8
ENDBRANCH   6   7
ENDBRANCH   5   6
ENDBRANCH   4   5
ENDBRANCH   3   4
ENDBRANCH   2   3
ENDBRANCH   1   2
BRANCH   1  15
ATOM     15  C   UNL     1      -2.188   2.334   2.360  1.00  0.00     0.000 C 
BRANCH  15  16
ATOM     16  C   UNL     1      -3.024   2.862   3.546  1.00  0.00     0.000 C 
BRANCH  16  17
ATOM     17  C   UNL     1      -2.323   3.978   4.339  1.00  0.00     0.000 C 
BRANCH  17  18
ATOM     18  C   UNL     1      -3.086   4.370   5.617  1.00  0.00    -0.000 C 
BRANCH  18  19
ATOM     19  C   UNL     1      -3.179   5.901   5.796  1.00  0.00    -0.000 C 
BRANCH  19  20
ATOM     20  C   UNL     1      -2.905   6.372   7.237  1.00  0.00    -0.000 C 
BRANCH  20  21
ATOM     21  C   UNL     1      -3.038   5.278   8.309  1.00  0.00    -0.000 C 
BRANCH  21  22
ATOM     22  C   UNL     1      -3.395   5.846   9.694  1.00  0.00    -0.000 C 
BRANCH  22  23
ATOM     23  C   UNL     1      -4.836   5.514  10.114  1.00  0.00    -0.000 C 
BRANCH  23  24
ATOM     24  C   UNL     1      -5.600   4.728   9.038  1.00  0.00    -0.000 C 
BRANCH  24  25
ATOM     25  C   UNL     1      -5.440   3.218   9.249  1.00  0.00    -0.003 C 
ATOM     26  C   UNL     1      -4.917   2.537   7.987  1.00  0.00     0.004 C 
ENDBRANCH  24  25
ENDBRANCH  23  24
ENDBRANCH  22  23
ENDBRANCH  21  22
ENDBRANCH  20  21
ENDBRANCH  19  20
ENDBRANCH  18  19
ENDBRANCH  17  18
ENDBRANCH  16  17
ENDBRANCH  15  16
ENDBRANCH   1  15
TORSDOF 22
ENDMDL
MODEL 4
REMARK VINA RESULT:     9.589      4.722     10.680
REMARK INTER + INTRA:          21.359
REMARK INTER:                  22.499
REMARK INTRA:                  -1.140
REMARK UNBOUND:                -0.562
REMARK SMILES CCCCCCCCCCCCCCCCCCCCCCCC(=O)[O-]
REMARK SMILES IDX 13 1 14 2 15 3 16 4 17 5 18 6 19 7 20 8 21 9 22 10 23 11
REMARK SMILES IDX 24 12 25 13 26 14 12 15 11 16 10 17 9 18 8 19 7 20 6 21 5 22
REMARK SMILES IDX 4 23 3 24 2 25 1 26
REMARK H PARENT
REMARK Flexibility Score: inf
ROOT
ATOM      1  C   UNL     1      -0.648   1.937   1.027  1.00  0.00     0.000 C 
ENDROOT
BRANCH   1   2
ATOM      2  C   UNL     1      -1.119   2.597   2.329  1.00  0.00     0.000 C 
BRANCH   2   3
ATOM      3  C   UNL     1      -2.653   2.636   2.405  1.00  0.00     0.000 C 
BRANCH   3   4
ATOM      4  C   UNL     1      -3.176   2.932   3.818  1.00  0.00     0.000 C 
BRANCH   4   5
ATOM      5  C   UNL     1      -2.457   4.120   4.480  1.00  0.00     0.000 C 
BRANCH   5   6
ATOM      6  C   UNL     1      -3.032   4.472   5.864  1.00  0.00     0.000 C 
BRANCH   6   7
ATOM      7  C   UNL     1      -3.386   5.960   6.073  1.00  0.00     0.000 C 
BRANCH   7   8
ATOM      8  C   UNL     1      -3.755   6.354   7.515  1.00  0.00     0.000 C 
BRANCH   8   9
ATOM      9  C   UNL     1      -2.998   5.527   8.568  1.00  0.00     0.000 C 
BRANCH   9  10
ATOM     10  C   UNL     1      -3.744   5.448   9.914  1.00  0.00     0.006 C 
BRANCH  10  11
ATOM     11  C   UNL     1      -5.272   5.320   9.792  1.00  0.00     0.053 C 
BRANCH  11  12
ATOM     12  C   UNL     1      -5.715   3.891   9.703  1.00  0.00     0.041 C 
ATOM     13  O   UNL     1      -4.868   2.960   9.751  1.00  0.00    -0.550 OA
ATOM     14  O   UNL     1      -7.059   3.591   9.515  1.00  0.00    -0.550 OA
ENDBRANCH  11  12
ENDBRANCH  10  11
ENDBRANCH   9  10
ENDBRANCH   8   9
ENDBRANCH   7   8
ENDBRANCH   6   7
ENDBRANCH   5   6
ENDBRANCH   4   5
ENDBRANCH   3   4
ENDBRANCH   2   3
ENDBRANCH   1   2
BRANCH   1  15
ATOM     15  C   UNL     1       0.817   2.287   0.731  1.00  0.00     0.000 C 
BRANCH  15  16
ATOM     16  C   UNL     1       0.950   3.468  -0.255  1.00  0.00     0.000 C 
BRANCH  16  17
ATOM     17  C   UNL     1       2.399   3.736  -0.696  1.00  0.00     0.000 C 
BRANCH  17  18
ATOM     18  C   UNL     1       2.846   5.183  -0.428  1.00  0.00    -0.000 C 
BRANCH  18  19
ATOM     19  C   UNL     1       2.231   6.182  -1.432  1.00  0.00    -0.000 C 
BRANCH  19  20
ATOM     20  C   UNL     1       1.083   7.024  -0.843  1.00  0.00    -0.000 C 
BRANCH  20  21
ATOM     21  C   UNL     1       0.399   7.969  -1.845  1.00  0.00    -0.000 C 
BRANCH  21  22
ATOM     22  C   UNL     1      -1.134   7.826  -1.842  1.00  0.00    -0.000 C 
BRANCH  22  23
ATOM     23  C   UNL     1      -1.796   8.601  -0.692  1.00  0.00    -0.000 C 
BRANCH  23  24
ATOM     24  C   UNL     1      -3.310   8.352  -0.605  1.00  0.00    -0.000 C 
BRANCH  24  25
ATOM     25  C   UNL     1      -3.906   9.043   0.628  1.00  0.00    -0.003 C 
ATOM     26  C   UNL     1      -2.924  10.048   1.225  1.00  0.00     0.004 C 
ENDBRANCH  24  25
ENDBRANCH  23  24
ENDBRANCH  22  23
ENDBRANCH  21  22
ENDBRANCH  20  21
ENDBRANCH  19  20
ENDBRANCH  18  19
ENDBRANCH  17  18
ENDBRANCH  16  17
ENDBRANCH  15  16
ENDBRANCH   1  15
TORSDOF 22
ENDMDL
MODEL 5
REMARK VINA RESULT:     9.746      3.501     10.659
REMARK INTER + INTRA:          21.719
REMARK INTER:                  22.192
REMARK INTRA:                  -0.473
REMARK UNBOUND:                -0.562
REMARK SMILES CCCCCCCCCCCCCCCCCCCCCCCC(=O)[O-]
REMARK SMILES IDX 13 1 14 2 15 3 16 4 17 5 18 6 19 7 20 8 21 9 22 10 23 11
REMARK SMILES IDX 24 12 25 13 26 14 12 15 11 16 10 17 9 18 8 19 7 20 6 21 5 22
REMARK SMILES IDX 4 23 3 24 2 25 1 26
REMARK H PARENT
REMARK Flexibility Score: inf
ROOT
ATOM      1  C   UNL     1      -4.467   7.101   5.080  1.00  0.00     0.000 C 
ENDROOT
BRANCH   1   2
ATOM      2  C   UNL     1      -3.646   6.009   5.777  1.00  0.00     0.000 C 
BRANCH   2   3
ATOM      3  C   UNL     1      -2.976   6.551   7.050  1.00  0.00     0.000 C 
BRANCH   3   4
ATOM      4  C   UNL     1      -2.606   5.444   8.048  1.00  0.00     0.000 C 
BRANCH   4   5
ATOM      5  C   UNL     1      -2.388   5.980   9.474  1.00  0.00     0.000 C 
BRANCH   5   6
ATOM      6  C   UNL     1      -3.339   7.137   9.830  1.00  0.00     0.000 C 
BRANCH   6   7
ATOM      7  C   UNL     1      -4.797   6.727  10.123  1.00  0.00     0.000 C 
BRANCH   7   8
ATOM      8  C   UNL     1      -5.068   5.211  10.123  1.00  0.00     0.000 C 
BRANCH   8   9
ATOM      9  C   UNL     1      -6.251   4.820   9.222  1.00  0.00     0.000 C 
BRANCH   9  10
ATOM     10  C   UNL     1      -6.154   3.372   8.704  1.00  0.00     0.006 C 
BRANCH  10  11
ATOM     11  C   UNL     1      -4.907   2.607   9.175  1.00  0.00     0.053 C 
BRANCH  11  12
ATOM     12  C   UNL     1      -4.040   2.176   8.031  1.00  0.00     0.041 C 
ATOM     13  O   UNL     1      -4.543   1.988   6.891  1.00  0.00    -0.550 OA
ATOM     14  O   UNL     1      -2.688   1.937   8.236  1.00  0.00    -0.550 OA
ENDBRANCH  11  12
ENDBRANCH  10  11
ENDBRANCH   9  10
ENDBRANCH   8   9
ENDBRANCH   7   8
ENDBRANCH   6   7
ENDBRANCH   5   6
ENDBRANCH   4   5
ENDBRANCH   3   4
ENDBRANCH   2   3
ENDBRANCH   1   2
BRANCH   1  15
ATOM     15  C   UNL     1      -3.619   7.851   4.043  1.00  0.00     0.000 C 
BRANCH  15  16
ATOM     16  C   UNL     1      -4.413   8.174   2.758  1.00  0.00     0.000 C 
BRANCH  16  17
ATOM     17  C   UNL     1      -3.957   9.471   2.068  1.00  0.00     0.000 C 
BRANCH  17  18
ATOM     18  C   UNL     1      -3.412   9.231   0.649  1.00  0.00    -0.000 C 
BRANCH  18  19
ATOM     19  C   UNL     1      -4.338   8.321  -0.187  1.00  0.00    -0.000 C 
BRANCH  19  20
ATOM     20  C   UNL     1      -4.368   8.678  -1.685  1.00  0.00    -0.000 C 
BRANCH  20  21
ATOM     21  C   UNL     1      -2.984   8.851  -2.333  1.00  0.00    -0.000 C 
BRANCH  21  22
ATOM     22  C   UNL     1      -1.832   8.503  -1.373  1.00  0.00    -0.000 C 
BRANCH  22  23
ATOM     23  C   UNL     1      -0.812   7.539  -2.001  1.00  0.00    -0.000 C 
BRANCH  23  24
ATOM     24  C   UNL     1       0.599   8.142  -2.084  1.00  0.00    -0.000 C 
BRANCH  24  25
ATOM     25  C   UNL     1       1.482   7.623  -0.943  1.00  0.00    -0.003 C 
ATOM     26  C   UNL     1       1.870   6.163  -1.167  1.00  0.00     0.004 C 
ENDBRANCH  24  25
ENDBRANCH  23  24
ENDBRANCH  22  23
ENDBRANCH  21  22
ENDBRANCH  20  21
ENDBRANCH  19  20
ENDBRANCH  18  19
ENDBRANCH  17  18
ENDBRANCH  16  17
ENDBRANCH  15  16
ENDBRANCH   1  15
TORSDOF 22
ENDMDL
MODEL 6
REMARK VINA RESULT:     9.804      0.977      2.184
REMARK INTER + INTRA:          21.851
REMARK INTER:                  22.280
REMARK INTRA:                  -0.430
REMARK UNBOUND:                -0.562
REMARK SMILES CCCCCCCCCCCCCCCCCCCCCCCC(=O)[O-]
REMARK SMILES IDX 13 1 14 2 15 3 16 4 17 5 18 6 19 7 20 8 21 9 22 10 23 11
REMARK SMILES IDX 24 12 25 13 26 14 12 15 11 16 10 17 9 18 8 19 7 20 6 21 5 22
REMARK SMILES IDX 4 23 3 24 2 25 1 26
REMARK H PARENT
REMARK Flexibility Score: inf
ROOT
ATOM      1  C   UNL     1      -4.568   6.690   4.864  1.00  0.00     0.000 C 
ENDROOT
BRANCH   1   2
ATOM      2  C   UNL     1      -4.423   8.084   4.241  1.00  0.00     0.000 C 
BRANCH   2   3
ATOM      3  C   UNL     1      -4.071   7.988   2.748  1.00  0.00     0.000 C 
BRANCH   3   4
ATOM      4  C   UNL     1      -3.676   9.340   2.138  1.00  0.00     0.000 C 
BRANCH   4   5
ATOM      5  C   UNL     1      -3.406   9.252   0.626  1.00  0.00     0.000 C 
BRANCH   5   6
ATOM      6  C   UNL     1      -4.587   9.758  -0.224  1.00  0.00     0.000 C 
BRANCH   6   7
ATOM      7  C   UNL     1      -5.008   8.834  -1.386  1.00  0.00     0.000 C 
BRANCH   7   8
ATOM      8  C   UNL     1      -4.033   8.787  -2.577  1.00  0.00     0.000 C 
BRANCH   8   9
ATOM      9  C   UNL     1      -2.583   9.094  -2.169  1.00  0.00     0.000 C 
BRANCH   9  10
ATOM     10  C   UNL     1      -1.839   7.857  -1.629  1.00  0.00     0.006 C 
BRANCH  10  11
ATOM     11  C   UNL     1      -0.423   8.142  -1.102  1.00  0.00     0.053 C 
BRANCH  11  12
ATOM     12  C   UNL     1       0.632   7.446  -1.908  1.00  0.00     0.041 C 
ATOM     13  O   UNL     1       1.701   7.069  -1.361  1.00  0.00    -0.550 OA
ATOM     14  O   UNL     1       0.452   7.261  -3.273  1.00  0.00    -0.550 OA
ENDBRANCH  11  12
ENDBRANCH  10  11
ENDBRANCH   9  10
ENDBRANCH   8   9
ENDBRANCH   7   8
ENDBRANCH   6   7
ENDBRANCH   5   6
ENDBRANCH   4   5
ENDBRANCH   3   4
ENDBRANCH   2   3
ENDBRANCH   1   2
BRANCH   1  15
ATOM     15  C   UNL     1      -3.358   6.354   5.749  1.00  0.00     0.000 C 
BRANCH  15  16
ATOM     16  C   UNL     1      -3.646   6.583   7.248  1.00  0.00     0.000 C 
BRANCH  16  17
ATOM     17  C   UNL     1      -2.553   6.021   8.173  1.00  0.00     0.000 C 
BRANCH  17  18
ATOM     18  C   UNL     1      -3.075   5.699   9.584  1.00  0.00    -0.000 C 
BRANCH  18  19
ATOM     19  C   UNL     1      -4.324   6.530   9.951  1.00  0.00    -0.000 C 
BRANCH  19  20
ATOM     20  C   UNL     1      -5.638   5.729   9.898  1.00  0.00    -0.000 C 
BRANCH  20  21
ATOM     21  C   UNL     1      -5.480   4.216  10.125  1.00  0.00    -0.000 C 
BRANCH  21  22
ATOM     22  C   UNL     1      -6.465   3.384   9.283  1.00  0.00    -0.000 C 
BRANCH  22  23
ATOM     23  C   UNL     1      -5.790   2.719   8.073  1.00  0.00    -0.000 C 
BRANCH  23  24
ATOM     24  C   UNL     1      -4.319   3.133   7.913  1.00  0.00    -0.000 C 
BRANCH  24  25
ATOM     25  C   UNL     1      -3.564   2.134   7.029  1.00  0.00    -0.003 C 
ATOM     26  C   UNL     1      -2.841   1.087   7.873  1.00  0.00     0.004 C 
ENDBRANCH  24  25
ENDBRANCH  23  24
ENDBRANCH  22  23
ENDBRANCH  21  22
ENDBRANCH  20  21
ENDBRANCH  19  20
ENDBRANCH  18  19
ENDBRANCH  17  18
ENDBRANCH  16  17
ENDBRANCH  15  16
ENDBRANCH   1  15
TORSDOF 22
ENDMDL
MODEL 7
REMARK VINA RESULT:     9.996      4.609     10.577
REMARK INTER + INTRA:          22.291
REMARK INTER:                  23.654
REMARK INTRA:                  -1.363
REMARK UNBOUND:                -0.562
REMARK SMILES CCCCCCCCCCCCCCCCCCCCCCCC(=O)[O-]
REMARK SMILES IDX 13 1 14 2 15 3 16 4 17 5 18 6 19 7 20 8 21 9 22 10 23 11
REMARK SMILES IDX 24 12 25 13 26 14 12 15 11 16 10 17 9 18 8 19 7 20 6 21 5 22
REMARK SMILES IDX 4 23 3 24 2 25 1 26
REMARK H PARENT
REMARK Flexibility Score: inf
ROOT
ATOM      1  C   UNL     1       0.615   2.358  -0.014  1.00  0.00     0.000 C 
ENDROOT
BRANCH   1   2
ATOM      2  C   UNL     1       0.182   1.774   1.336  1.00  0.00     0.000 C 
BRANCH   2   3
ATOM      3  C   UNL     1      -0.773   2.729   2.070  1.00  0.00     0.000 C 
BRANCH   3   4
ATOM      4  C   UNL     1      -2.244   2.299   1.970  1.00  0.00     0.000 C 
BRANCH   4   5
ATOM      5  C   UNL     1      -3.084   2.777   3.167  1.00  0.00     0.000 C 
BRANCH   5   6
ATOM      6  C   UNL     1      -2.320   3.750   4.084  1.00  0.00     0.000 C 
BRANCH   6   7
ATOM      7  C   UNL     1      -3.038   4.119   5.400  1.00  0.00     0.000 C 
BRANCH   7   8
ATOM      8  C   UNL     1      -2.757   5.537   5.929  1.00  0.00     0.000 C 
BRANCH   8   9
ATOM      9  C   UNL     1      -3.777   5.989   6.987  1.00  0.00     0.000 C 
BRANCH   9  10
ATOM     10  C   UNL     1      -3.437   5.478   8.401  1.00  0.00     0.006 C 
BRANCH  10  11
ATOM     11  C   UNL     1      -4.640   4.943   9.194  1.00  0.00     0.053 C 
BRANCH  11  12
ATOM     12  C   UNL     1      -4.943   3.512   8.867  1.00  0.00     0.041 C 
ATOM     13  O   UNL     1      -6.117   3.071   8.979  1.00  0.00    -0.550 OA
ATOM     14  O   UNL     1      -3.917   2.655   8.486  1.00  0.00    -0.550 OA
ENDBRANCH  11  12
ENDBRANCH  10  11
ENDBRANCH   9  10
ENDBRANCH   8   9
ENDBRANCH   7   8
ENDBRANCH   6   7
ENDBRANCH   5   6
ENDBRANCH   4   5
ENDBRANCH   3   4
ENDBRANCH   2   3
ENDBRANCH   1   2
BRANCH   1  15
ATOM     15  C   UNL     1       2.096   2.064  -0.293  1.00  0.00     0.000 C 
BRANCH  15  16
ATOM     16  C   UNL     1       2.874   3.325  -0.726  1.00  0.00     0.000 C 
BRANCH  16  17
ATOM     17  C   UNL     1       2.004   4.592  -0.777  1.00  0.00     0.000 C 
BRANCH  17  18
ATOM     18  C   UNL     1       2.830   5.886  -0.674  1.00  0.00    -0.000 C 
BRANCH  18  19
ATOM     19  C   UNL     1       2.299   6.996  -1.608  1.00  0.00    -0.000 C 
BRANCH  19  20
ATOM     20  C   UNL     1       0.855   7.431  -1.294  1.00  0.00    -0.000 C 
BRANCH  20  21
ATOM     21  C   UNL     1      -0.040   7.627  -2.530  1.00  0.00    -0.000 C 
BRANCH  21  22
ATOM     22  C   UNL     1      -1.516   7.863  -2.160  1.00  0.00    -0.000 C 
BRANCH  22  23
ATOM     23  C   UNL     1      -1.684   8.452  -0.750  1.00  0.00    -0.000 C 
BRANCH  23  24
ATOM     24  C   UNL     1      -3.069   8.167  -0.150  1.00  0.00    -0.000 C 
BRANCH  24  25
ATOM     25  C   UNL     1      -3.875   9.463   0.002  1.00  0.00    -0.003 C 
ATOM     26  C   UNL     1      -4.910   9.602  -1.112  1.00  0.00     0.004 C 
ENDBRANCH  24  25
ENDBRANCH  23  24
ENDBRANCH  22  23
ENDBRANCH  21  22
ENDBRANCH  20  21
ENDBRANCH  19  20
ENDBRANCH  18  19
ENDBRANCH  17  18
ENDBRANCH  16  17
ENDBRANCH  15  16
ENDBRANCH   1  15
TORSDOF 22
ENDMDL
MODEL 8
REMARK VINA RESULT:    10.253      3.770      6.201
REMARK INTER + INTRA:          22.879
REMARK INTER:                  23.519
REMARK INTRA:                  -0.641
REMARK UNBOUND:                -0.562
REMARK SMILES CCCCCCCCCCCCCCCCCCCCCCCC(=O)[O-]
REMARK SMILES IDX 13 1 14 2 15 3 16 4 17 5 18 6 19 7 20 8 21 9 22 10 23 11
REMARK SMILES IDX 24 12 25 13 26 14 12 15 11 16 10 17 9 18 8 19 7 20 6 21 5 22
REMARK SMILES IDX 4 23 3 24 2 25 1 26
REMARK H PARENT
REMARK Flexibility Score: inf
ROOT
ATOM      1  C   UNL     1       1.478   1.205   0.270  1.00  0.00     0.000 C 
ENDROOT
BRANCH   1   2
ATOM      2  C   UNL     1       1.553   2.605  -0.354  1.00  0.00     0.000 C 
BRANCH   2   3
ATOM      3  C   UNL     1       2.995   2.950  -0.760  1.00  0.00     0.000 C 
BRANCH   3   4
ATOM      4  C   UNL     1       3.284   4.458  -0.715  1.00  0.00     0.000 C 
BRANCH   4   5
ATOM      5  C   UNL     1       2.002   5.308  -0.720  1.00  0.00     0.000 C 
BRANCH   5   6
ATOM      6  C   UNL     1       2.231   6.734  -1.255  1.00  0.00     0.000 C 
BRANCH   6   7
ATOM      7  C   UNL     1       0.995   7.406  -1.891  1.00  0.00     0.000 C 
BRANCH   7   8
ATOM      8  C   UNL     1      -0.089   7.866  -0.899  1.00  0.00     0.000 C 
BRANCH   8   9
ATOM      9  C   UNL     1      -1.500   7.841  -1.509  1.00  0.00     0.000 C 
BRANCH   9  10
ATOM     10  C   UNL     1      -2.386   8.999  -1.012  1.00  0.00     0.006 C 
BRANCH  10  11
ATOM     11  C   UNL     1      -3.832   8.600  -0.677  1.00  0.00     0.053 C 
BRANCH  11  12
ATOM     12  C   UNL     1      -4.819   9.183  -1.643  1.00  0.00     0.041 C 
ATOM     13  O   UNL     1      -5.993   9.444  -1.270  1.00  0.00    -0.550 OA
ATOM     14  O   UNL     1      -4.453   9.391  -2.967  1.00  0.00    -0.550 OA
ENDBRANCH  11  12
ENDBRANCH  10  11
ENDBRANCH   9  10
ENDBRANCH   8   9
ENDBRANCH   7   8
ENDBRANCH   6   7
ENDBRANCH   5   6
ENDBRANCH   4   5
ENDBRANCH   3   4
ENDBRANCH   2   3
ENDBRANCH   1   2
BRANCH   1  15
ATOM     15  C   UNL     1       0.217   1.055   1.134  1.00  0.00     0.000 C 
BRANCH  15  16
ATOM     16  C   UNL     1      -0.600   2.363   1.213  1.00  0.00     0.000 C 
BRANCH  16  17
ATOM     17  C   UNL     1      -1.757   2.300   2.225  1.00  0.00     0.000 C 
BRANCH  17  18
ATOM     18  C   UNL     1      -1.577   3.280   3.397  1.00  0.00    -0.000 C 
BRANCH  18  19
ATOM     19  C   UNL     1      -2.909   3.581   4.119  1.00  0.00    -0.000 C 
BRANCH  19  20
ATOM     20  C   UNL     1      -2.731   4.045   5.577  1.00  0.00    -0.000 C 
BRANCH  20  21
ATOM     21  C   UNL     1      -3.460   5.353   5.929  1.00  0.00    -0.000 C 
BRANCH  21  22
ATOM     22  C   UNL     1      -3.056   5.903   7.309  1.00  0.00    -0.000 C 
BRANCH  22  23
ATOM     23  C   UNL     1      -3.880   5.288   8.452  1.00  0.00    -0.000 C 
BRANCH  23  24
ATOM     24  C   UNL     1      -4.291   3.834   8.171  1.00  0.00    -0.000 C 
BRANCH  24  25
ATOM     25  C   UNL     1      -5.103   3.261   9.339  1.00  0.00    -0.003 C 
ATOM     26  C   UNL     1      -6.602   3.424   9.101  1.00  0.00     0.004 C 
ENDBRANCH  24  25
ENDBRANCH  23  24
ENDBRANCH  22  23
ENDBRANCH  21  22
ENDBRANCH  20  21
ENDBRANCH  19  20
ENDBRANCH  18  19
ENDBRANCH  17  18
ENDBRANCH  16  17
ENDBRANCH  15  16
ENDBRANCH   1  15
TORSDOF 22
ENDMDL
MODEL 9
REMARK VINA RESULT:    11.721      3.676     10.976
REMARK INTER + INTRA:          26.233
REMARK INTER:                  26.184
REMARK INTRA:                   0.049
REMARK UNBOUND:                -0.562
REMARK SMILES CCCCCCCCCCCCCCCCCCCCCCCC(=O)[O-]
REMARK SMILES IDX 13 1 14 2 15 3 16 4 17 5 18 6 19 7 20 8 21 9 22 10 23 11
REMARK SMILES IDX 24 12 25 13 26 14 12 15 11 16 10 17 9 18 8 19 7 20 6 21 5 22
REMARK SMILES IDX 4 23 3 24 2 25 1 26
REMARK H PARENT
REMARK Flexibility Score: inf
ROOT
ATOM      1  C   UNL     1      -4.429   8.074   4.383  1.00  0.00     0.000 C 
ENDROOT
BRANCH   1   2
ATOM      2  C   UNL     1      -4.305   6.680   5.012  1.00  0.00     0.000 C 
BRANCH   2   3
ATOM      3  C   UNL     1      -3.235   6.665   6.114  1.00  0.00     0.000 C 
BRANCH   3   4
ATOM      4  C   UNL     1      -3.331   5.432   7.024  1.00  0.00     0.000 C 
BRANCH   4   5
ATOM      5  C   UNL     1      -2.298   5.455   8.165  1.00  0.00     0.000 C 
BRANCH   5   6
ATOM      6  C   UNL     1      -2.163   6.840   8.822  1.00  0.00     0.000 C 
BRANCH   6   7
ATOM      7  C   UNL     1      -2.990   7.042  10.110  1.00  0.00     0.000 C 
BRANCH   7   8
ATOM      8  C   UNL     1      -4.489   6.714   9.990  1.00  0.00     0.000 C 
BRANCH   8   9
ATOM      9  C   UNL     1      -4.780   5.210  10.125  1.00  0.00     0.000 C 
BRANCH   9  10
ATOM     10  C   UNL     1      -5.942   4.743   9.228  1.00  0.00     0.006 C 
BRANCH  10  11
ATOM     11  C   UNL     1      -6.123   3.218   9.158  1.00  0.00     0.053 C 
BRANCH  11  12
ATOM     12  C   UNL     1      -5.110   2.567   8.265  1.00  0.00     0.041 C 
ATOM     13  O   UNL     1      -5.467   2.048   7.174  1.00  0.00    -0.550 OA
ATOM     14  O   UNL     1      -3.782   2.492   8.663  1.00  0.00    -0.550 OA
ENDBRANCH  11  12
ENDBRANCH  10  11
ENDBRANCH   9  10
ENDBRANCH   8   9
ENDBRANCH   7   8
ENDBRANCH   6   7
ENDBRANCH   5   6
ENDBRANCH   4   5
ENDBRANCH   3   4
ENDBRANCH   2   3
ENDBRANCH   1   2
BRANCH   1  15
ATOM     15  C   UNL     1      -4.159   8.023   2.873  1.00  0.00     0.000 C 
BRANCH  15  16
ATOM     16  C   UNL     1      -4.021   9.431   2.253  1.00  0.00     0.000 C 
BRANCH  16  17
ATOM     17  C   UNL     1      -3.354   9.425   0.866  1.00  0.00     0.000 C 
BRANCH  17  18
ATOM     18  C   UNL     1      -4.375   9.398  -0.285  1.00  0.00    -0.000 C 
BRANCH  18  19
ATOM     19  C   UNL     1      -3.987   8.389  -1.388  1.00  0.00    -0.000 C 
BRANCH  19  20
ATOM     20  C   UNL     1      -2.559   8.584  -1.930  1.00  0.00    -0.000 C 
BRANCH  20  21
ATOM     21  C   UNL     1      -1.440   8.308  -0.911  1.00  0.00    -0.000 C 
BRANCH  21  22
ATOM     22  C   UNL     1      -0.321   7.422  -1.486  1.00  0.00    -0.000 C 
BRANCH  22  23
ATOM     23  C   UNL     1       0.777   8.239  -2.187  1.00  0.00    -0.000 C 
BRANCH  23  24
ATOM     24  C   UNL     1       2.187   7.890  -1.686  1.00  0.00    -0.000 C 
BRANCH  24  25
ATOM     25  C   UNL     1       3.221   8.881  -2.233  1.00  0.00    -0.003 C 
ATOM     26  C   UNL     1       4.087   9.449  -1.112  1.00  0.00     0.004 C 
ENDBRANCH  24  25
ENDBRANCH  23  24
ENDBRANCH  22  23
ENDBRANCH  21  22
ENDBRANCH  20  21
ENDBRANCH  19  20
ENDBRANCH  18  19
ENDBRANCH  17  18
ENDBRANCH  16  17
ENDBRANCH  15  16
ENDBRANCH   1  15
TORSDOF 22
ENDMDL
