MODEL 1
REMARK VINA RESULT:     3.873      0.000      0.000
REMARK INTER + INTRA:           7.230
REMARK INTER:                   8.854
REMARK INTRA:                  -1.624
REMARK UNBOUND:                -1.624
REMARK SMILES CCCCCCCCCCCCCCCCCCCCCCCC(=O)[O-]
REMARK SMILES IDX 13 1 14 2 15 3 16 4 17 5 18 6 19 7 20 8 21 9 22 10 23 11
REMARK SMILES IDX 24 12 25 13 26 14 12 15 11 16 10 17 9 18 8 19 7 20 6 21 5 22
REMARK SMILES IDX 4 23 3 24 2 25 1 26
REMARK H PARENT
REMARK Flexibility Score: inf
ROOT
ATOM      1  C   UNL     1     -29.316 -21.265 -20.091  1.00  0.00     0.000 C 
ENDROOT
BRANCH   1   2
ATOM      2  C   UNL     1     -29.705 -22.719 -20.412  1.00  0.00     0.000 C 
BRANCH   2   3
ATOM      3  C   UNL     1     -29.355 -23.125 -21.852  1.00  0.00     0.000 C 
BRANCH   3   4
ATOM      4  C   UNL     1     -27.900 -22.801 -22.229  1.00  0.00     0.000 C 
BRANCH   4   5
ATOM      5  C   UNL     1     -27.788 -21.658 -23.253  1.00  0.00     0.000 C 
BRANCH   5   6
ATOM      6  C   UNL     1     -28.949 -21.616 -24.268  1.00  0.00     0.000 C 
BRANCH   6   7
ATOM      7  C   UNL     1     -29.160 -20.207 -24.853  1.00  0.00     0.000 C 
BRANCH   7   8
ATOM      8  C   UNL     1     -30.615 -19.956 -25.279  1.00  0.00     0.000 C 
BRANCH   8   9
ATOM      9  C   UNL     1     -31.424 -21.256 -25.409  1.00  0.00     0.000 C 
BRANCH   9  10
ATOM     10  C   UNL     1     -32.457 -21.375 -24.279  1.00  0.00     0.006 C 
BRANCH  10  11
ATOM     11  C   UNL     1     -31.853 -21.064 -22.904  1.00  0.00     0.053 C 
BRANCH  11  12
ATOM     12  C   UNL     1     -32.569 -19.938 -22.223  1.00  0.00     0.041 C 
ATOM     13  O   UNL     1     -32.151 -19.497 -21.121  1.00  0.00    -0.550 OA
ATOM     14  O   UNL     1     -33.678 -19.353 -22.824  1.00  0.00    -0.550 OA
ENDBRANCH  11  12
ENDBRANCH  10  11
ENDBRANCH   9  10
ENDBRANCH   8   9
ENDBRANCH   7   8
ENDBRANCH   6   7
ENDBRANCH   5   6
ENDBRANCH   4   5
ENDBRANCH   3   4
ENDBRANCH   2   3
ENDBRANCH   1   2
BRANCH   1  15
ATOM     15  C   UNL     1     -28.730 -21.114 -18.676  1.00  0.00     0.000 C 
BRANCH  15  16
ATOM     16  C   UNL     1     -27.559 -22.079 -18.422  1.00  0.00     0.000 C 
BRANCH  16  17
ATOM     17  C   UNL     1     -27.873 -23.124 -17.337  1.00  0.00     0.000 C 
BRANCH  17  18
ATOM     18  C   UNL     1     -29.344 -23.108 -16.868  1.00  0.00    -0.000 C 
BRANCH  18  19
ATOM     19  C   UNL     1     -29.465 -23.013 -15.338  1.00  0.00    -0.000 C 
BRANCH  19  20
ATOM     20  C   UNL     1     -30.924 -23.034 -14.855  1.00  0.00    -0.000 C 
BRANCH  20  21
ATOM     21  C   UNL     1     -31.659 -21.714 -15.134  1.00  0.00    -0.000 C 
BRANCH  21  22
ATOM     22  C   UNL     1     -31.758 -20.861 -13.861  1.00  0.00    -0.000 C 
BRANCH  22  23
ATOM     23  C   UNL     1     -30.424 -20.164 -13.520  1.00  0.00    -0.000 C 
BRANCH  23  24
ATOM     24  C   UNL     1     -30.581 -18.676 -13.165  1.00  0.00    -0.000 C 
BRANCH  24  25
ATOM     25  C   UNL     1     -29.465 -18.160 -12.245  1.00  0.00    -0.003 C 
ATOM     26  C   UNL     1     -29.074 -19.211 -11.211  1.00  0.00     0.004 C 
ENDBRANCH  24  25
ENDBRANCH  23  24
ENDBRANCH  22  23
ENDBRANCH  21  22
ENDBRANCH  20  21
ENDBRANCH  19  20
ENDBRANCH  18  19
ENDBRANCH  17  18
ENDBRANCH  16  17
ENDBRANCH  15  16
ENDBRANCH   1  15
TORSDOF 22
ENDMDL
MODEL 2
REMARK VINA RESULT:     4.222      0.794      1.613
REMARK INTER + INTRA:           8.028
REMARK INTER:                   9.551
REMARK INTRA:                  -1.523
REMARK UNBOUND:                -1.624
REMARK SMILES CCCCCCCCCCCCCCCCCCCCCCCC(=O)[O-]
REMARK SMILES IDX 13 1 14 2 15 3 16 4 17 5 18 6 19 7 20 8 21 9 22 10 23 11
REMARK SMILES IDX 24 12 25 13 26 14 12 15 11 16 10 17 9 18 8 19 7 20 6 21 5 22
REMARK SMILES IDX 4 23 3 24 2 25 1 26
REMARK H PARENT
REMARK Flexibility Score: inf
ROOT
ATOM      1  C   UNL     1     -28.437 -21.151 -18.671  1.00  0.00     0.000 C 
ENDROOT
BRANCH   1   2
ATOM      2  C   UNL     1     -29.149 -21.261 -20.031  1.00  0.00     0.000 C 
BRANCH   2   3
ATOM      3  C   UNL     1     -29.402 -22.717 -20.454  1.00  0.00     0.000 C 
BRANCH   3   4
ATOM      4  C   UNL     1     -28.699 -23.090 -21.770  1.00  0.00     0.000 C 
BRANCH   4   5
ATOM      5  C   UNL     1     -27.634 -22.062 -22.191  1.00  0.00     0.000 C 
BRANCH   5   6
ATOM      6  C   UNL     1     -28.056 -21.182 -23.386  1.00  0.00     0.000 C 
BRANCH   6   7
ATOM      7  C   UNL     1     -29.216 -21.804 -24.185  1.00  0.00     0.000 C 
BRANCH   7   8
ATOM      8  C   UNL     1     -29.892 -20.795 -25.127  1.00  0.00     0.000 C 
BRANCH   8   9
ATOM      9  C   UNL     1     -31.341 -20.488 -24.721  1.00  0.00     0.000 C 
BRANCH   9  10
ATOM     10  C   UNL     1     -31.845 -21.494 -23.675  1.00  0.00     0.006 C 
BRANCH  10  11
ATOM     11  C   UNL     1     -31.793 -20.927 -22.251  1.00  0.00     0.053 C 
BRANCH  11  12
ATOM     12  C   UNL     1     -32.828 -19.866 -22.036  1.00  0.00     0.041 C 
ATOM     13  O   UNL     1     -32.614 -18.929 -21.223  1.00  0.00    -0.550 OA
ATOM     14  O   UNL     1     -34.016 -19.894 -22.758  1.00  0.00    -0.550 OA
ENDBRANCH  11  12
ENDBRANCH  10  11
ENDBRANCH   9  10
ENDBRANCH   8   9
ENDBRANCH   7   8
ENDBRANCH   6   7
ENDBRANCH   5   6
ENDBRANCH   4   5
ENDBRANCH   3   4
ENDBRANCH   2   3
ENDBRANCH   1   2
BRANCH   1  15
ATOM     15  C   UNL     1     -27.713 -22.452 -18.281  1.00  0.00     0.000 C 
BRANCH  15  16
ATOM     16  C   UNL     1     -28.010 -22.876 -16.833  1.00  0.00     0.000 C 
BRANCH  16  17
ATOM     17  C   UNL     1     -29.508 -23.121 -16.578  1.00  0.00     0.000 C 
BRANCH  17  18
ATOM     18  C   UNL     1     -29.981 -22.667 -15.181  1.00  0.00    -0.000 C 
BRANCH  18  19
ATOM     19  C   UNL     1     -31.513 -22.570 -15.089  1.00  0.00    -0.000 C 
BRANCH  19  20
ATOM     20  C   UNL     1     -31.999 -21.157 -14.731  1.00  0.00    -0.000 C 
BRANCH  20  21
ATOM     21  C   UNL     1     -31.539 -20.708 -13.336  1.00  0.00    -0.000 C 
BRANCH  21  22
ATOM     22  C   UNL     1     -30.611 -19.488 -13.430  1.00  0.00    -0.000 C 
BRANCH  22  23
ATOM     23  C   UNL     1     -29.371 -19.626 -12.522  1.00  0.00    -0.000 C 
BRANCH  23  24
ATOM     24  C   UNL     1     -29.323 -18.592 -11.384  1.00  0.00    -0.000 C 
BRANCH  24  25
ATOM     25  C   UNL     1     -29.105 -17.158 -11.888  1.00  0.00    -0.003 C 
ATOM     26  C   UNL     1     -30.422 -16.522 -12.324  1.00  0.00     0.004 C 
ENDBRANCH  24  25
ENDBRANCH  23  24
ENDBRANCH  22  23
ENDBRANCH  21  22
ENDBRANCH  20  21
ENDBRANCH  19  20
ENDBRANCH  18  19
ENDBRANCH  17  18
ENDBRANCH  16  17
ENDBRANCH  15  16
ENDBRANCH   1  15
TORSDOF 22
ENDMDL
MODEL 3
REMARK VINA RESULT:     4.788      4.136      4.981
REMARK INTER + INTRA:           9.322
REMARK INTER:                  10.203
REMARK INTRA:                  -0.881
REMARK UNBOUND:                -1.624
REMARK SMILES CCCCCCCCCCCCCCCCCCCCCCCC(=O)[O-]
REMARK SMILES IDX 13 1 14 2 15 3 16 4 17 5 18 6 19 7 20 8 21 9 22 10 23 11
REMARK SMILES IDX 24 12 25 13 26 14 12 15 11 16 10 17 9 18 8 19 7 20 6 21 5 22
REMARK SMILES IDX 4 23 3 24 2 25 1 26
REMARK H PARENT
REMARK Flexibility Score: inf
ROOT
ATOM      1  C   UNL     1     -27.640 -22.276 -19.027  1.00  0.00     0.000 C 
ENDROOT
BRANCH   1   2
ATOM      2  C   UNL     1     -28.755 -23.074 -19.727  1.00  0.00     0.000 C 
BRANCH   2   3
ATOM      3  C   UNL     1     -28.711 -22.941 -21.258  1.00  0.00     0.000 C 
BRANCH   3   4
ATOM      4  C   UNL     1     -27.297 -23.118 -21.834  1.00  0.00     0.000 C 
BRANCH   4   5
ATOM      5  C   UNL     1     -27.163 -22.571 -23.266  1.00  0.00     0.000 C 
BRANCH   5   6
ATOM      6  C   UNL     1     -27.961 -21.274 -23.515  1.00  0.00     0.000 C 
BRANCH   6   7
ATOM      7  C   UNL     1     -29.248 -21.529 -24.321  1.00  0.00     0.000 C 
BRANCH   7   8
ATOM      8  C   UNL     1     -29.851 -20.237 -24.894  1.00  0.00     0.000 C 
BRANCH   8   9
ATOM      9  C   UNL     1     -31.387 -20.241 -24.870  1.00  0.00     0.000 C 
BRANCH   9  10
ATOM     10  C   UNL     1     -31.921 -21.411 -24.030  1.00  0.00     0.006 C 
BRANCH  10  11
ATOM     11  C   UNL     1     -31.946 -21.087 -22.531  1.00  0.00     0.053 C 
BRANCH  11  12
ATOM     12  C   UNL     1     -32.869 -19.948 -22.223  1.00  0.00     0.041 C 
ATOM     13  O   UNL     1     -33.984 -19.862 -22.802  1.00  0.00    -0.550 OA
ATOM     14  O   UNL     1     -32.513 -18.999 -21.271  1.00  0.00    -0.550 OA
ENDBRANCH  11  12
ENDBRANCH  10  11
ENDBRANCH   9  10
ENDBRANCH   8   9
ENDBRANCH   7   8
ENDBRANCH   6   7
ENDBRANCH   5   6
ENDBRANCH   4   5
ENDBRANCH   3   4
ENDBRANCH   2   3
ENDBRANCH   1   2
BRANCH   1  15
ATOM     15  C   UNL     1     -26.993 -23.062 -17.874  1.00  0.00     0.000 C 
BRANCH  15  16
ATOM     16  C   UNL     1     -27.896 -23.125 -16.630  1.00  0.00     0.000 C 
BRANCH  16  17
ATOM     17  C   UNL     1     -27.100 -23.102 -15.313  1.00  0.00     0.000 C 
BRANCH  17  18
ATOM     18  C   UNL     1     -25.618 -22.707 -15.493  1.00  0.00    -0.000 C 
BRANCH  18  19
ATOM     19  C   UNL     1     -24.913 -22.472 -14.146  1.00  0.00    -0.000 C 
BRANCH  19  20
ATOM     20  C   UNL     1     -23.499 -21.891 -14.309  1.00  0.00    -0.000 C 
BRANCH  20  21
ATOM     21  C   UNL     1     -22.848 -21.532 -12.964  1.00  0.00    -0.000 C 
BRANCH  21  22
ATOM     22  C   UNL     1     -21.660 -20.581 -13.167  1.00  0.00    -0.000 C 
BRANCH  22  23
ATOM     23  C   UNL     1     -21.262 -19.857 -11.864  1.00  0.00    -0.000 C 
BRANCH  23  24
ATOM     24  C   UNL     1     -20.990 -18.355 -12.053  1.00  0.00    -0.000 C 
BRANCH  24  25
ATOM     25  C   UNL     1     -21.166 -17.548 -10.758  1.00  0.00    -0.003 C 
ATOM     26  C   UNL     1     -21.242 -16.052 -11.048  1.00  0.00     0.004 C 
ENDBRANCH  24  25
ENDBRANCH  23  24
ENDBRANCH  22  23
ENDBRANCH  21  22
ENDBRANCH  20  21
ENDBRANCH  19  20
ENDBRANCH  18  19
ENDBRANCH  17  18
ENDBRANCH  16  17
ENDBRANCH  15  16
ENDBRANCH   1  15
TORSDOF 22
ENDMDL
MODEL 4
REMARK VINA RESULT:     4.889      1.813      2.930
REMARK INTER + INTRA:           9.553
REMARK INTER:                  11.617
REMARK INTRA:                  -2.064
REMARK UNBOUND:                -1.624
REMARK SMILES CCCCCCCCCCCCCCCCCCCCCCCC(=O)[O-]
REMARK SMILES IDX 13 1 14 2 15 3 16 4 17 5 18 6 19 7 20 8 21 9 22 10 23 11
REMARK SMILES IDX 24 12 25 13 26 14 12 15 11 16 10 17 9 18 8 19 7 20 6 21 5 22
REMARK SMILES IDX 4 23 3 24 2 25 1 26
REMARK H PARENT
REMARK Flexibility Score: inf
ROOT
ATOM      1  C   UNL     1     -30.714 -19.962 -20.202  1.00  0.00     0.000 C 
ENDROOT
BRANCH   1   2
ATOM      2  C   UNL     1     -31.289 -20.610 -21.474  1.00  0.00     0.000 C 
BRANCH   2   3
ATOM      3  C   UNL     1     -32.023 -21.930 -21.190  1.00  0.00     0.000 C 
BRANCH   3   4
ATOM      4  C   UNL     1     -31.069 -23.125 -21.034  1.00  0.00     0.000 C 
BRANCH   4   5
ATOM      5  C   UNL     1     -29.933 -23.123 -22.072  1.00  0.00     0.000 C 
BRANCH   5   6
ATOM      6  C   UNL     1     -28.522 -23.120 -21.450  1.00  0.00     0.000 C 
BRANCH   6   7
ATOM      7  C   UNL     1     -27.531 -22.262 -22.259  1.00  0.00     0.000 C 
BRANCH   7   8
ATOM      8  C   UNL     1     -28.027 -21.975 -23.685  1.00  0.00     0.000 C 
BRANCH   8   9
ATOM      9  C   UNL     1     -28.640 -20.574 -23.826  1.00  0.00     0.000 C 
BRANCH   9  10
ATOM     10  C   UNL     1     -29.568 -20.500 -25.048  1.00  0.00     0.006 C 
BRANCH  10  11
ATOM     11  C   UNL     1     -30.349 -21.801 -25.265  1.00  0.00     0.053 C 
BRANCH  11  12
ATOM     12  C   UNL     1     -31.318 -21.687 -26.401  1.00  0.00     0.041 C 
ATOM     13  O   UNL     1     -31.468 -20.588 -26.996  1.00  0.00    -0.550 OA
ATOM     14  O   UNL     1     -32.033 -22.802 -26.823  1.00  0.00    -0.550 OA
ENDBRANCH  11  12
ENDBRANCH  10  11
ENDBRANCH   9  10
ENDBRANCH   8   9
ENDBRANCH   7   8
ENDBRANCH   6   7
ENDBRANCH   5   6
ENDBRANCH   4   5
ENDBRANCH   3   4
ENDBRANCH   2   3
ENDBRANCH   1   2
BRANCH   1  15
ATOM     15  C   UNL     1     -29.190 -20.145 -20.089  1.00  0.00     0.000 C 
BRANCH  15  16
ATOM     16  C   UNL     1     -28.764 -20.669 -18.707  1.00  0.00     0.000 C 
BRANCH  16  17
ATOM     17  C   UNL     1     -27.828 -21.887 -18.794  1.00  0.00     0.000 C 
BRANCH  17  18
ATOM     18  C   UNL     1     -27.883 -22.801 -17.551  1.00  0.00    -0.000 C 
BRANCH  18  19
ATOM     19  C   UNL     1     -29.324 -23.027 -17.061  1.00  0.00    -0.000 C 
BRANCH  19  20
ATOM     20  C   UNL     1     -29.522 -22.625 -15.591  1.00  0.00    -0.000 C 
BRANCH  20  21
ATOM     21  C   UNL     1     -30.955 -22.874 -15.096  1.00  0.00    -0.000 C 
BRANCH  21  22
ATOM     22  C   UNL     1     -31.611 -21.565 -14.635  1.00  0.00    -0.000 C 
BRANCH  22  23
ATOM     23  C   UNL     1     -30.571 -20.472 -14.313  1.00  0.00    -0.000 C 
BRANCH  23  24
ATOM     24  C   UNL     1     -30.920 -19.639 -13.067  1.00  0.00    -0.000 C 
BRANCH  24  25
ATOM     25  C   UNL     1     -29.717 -19.423 -12.137  1.00  0.00    -0.003 C 
ATOM     26  C   UNL     1     -29.149 -18.015 -12.291  1.00  0.00     0.004 C 
ENDBRANCH  24  25
ENDBRANCH  23  24
ENDBRANCH  22  23
ENDBRANCH  21  22
ENDBRANCH  20  21
ENDBRANCH  19  20
ENDBRANCH  18  19
ENDBRANCH  17  18
ENDBRANCH  16  17
ENDBRANCH  15  16
ENDBRANCH   1  15
TORSDOF 22
ENDMDL
MODEL 5
REMARK VINA RESULT:     5.088      1.810      2.971
REMARK INTER + INTRA:          10.007
REMARK INTER:                  10.459
REMARK INTRA:                  -0.451
REMARK UNBOUND:                -1.624
REMARK SMILES CCCCCCCCCCCCCCCCCCCCCCCC(=O)[O-]
REMARK SMILES IDX 13 1 14 2 15 3 16 4 17 5 18 6 19 7 20 8 21 9 22 10 23 11
REMARK SMILES IDX 24 12 25 13 26 14 12 15 11 16 10 17 9 18 8 19 7 20 6 21 5 22
REMARK SMILES IDX 4 23 3 24 2 25 1 26
REMARK H PARENT
REMARK Flexibility Score: inf
ROOT
ATOM      1  C   UNL     1     -29.022 -20.794 -19.859  1.00  0.00     0.000 C 
ENDROOT
BRANCH   1   2
ATOM      2  C   UNL     1     -30.194 -19.943 -20.380  1.00  0.00     0.000 C 
BRANCH   2   3
ATOM      3  C   UNL     1     -31.399 -20.792 -20.814  1.00  0.00     0.000 C 
BRANCH   3   4
ATOM      4  C   UNL     1     -32.497 -19.966 -21.505  1.00  0.00     0.000 C 
BRANCH   4   5
ATOM      5  C   UNL     1     -32.868 -20.510 -22.895  1.00  0.00     0.000 C 
BRANCH   5   6
ATOM      6  C   UNL     1     -32.835 -19.443 -24.010  1.00  0.00     0.000 C 
BRANCH   6   7
ATOM      7  C   UNL     1     -31.413 -19.216 -24.556  1.00  0.00     0.000 C 
BRANCH   7   8
ATOM      8  C   UNL     1     -31.270 -19.644 -26.025  1.00  0.00     0.000 C 
BRANCH   8   9
ATOM      9  C   UNL     1     -30.868 -21.120 -26.173  1.00  0.00     0.000 C 
BRANCH   9  10
ATOM     10  C   UNL     1     -30.410 -21.703 -24.828  1.00  0.00     0.006 C 
BRANCH  10  11
ATOM     11  C   UNL     1     -28.995 -21.248 -24.450  1.00  0.00     0.053 C 
BRANCH  11  12
ATOM     12  C   UNL     1     -28.452 -22.024 -23.290  1.00  0.00     0.041 C 
ATOM     13  O   UNL     1     -29.219 -22.734 -22.589  1.00  0.00    -0.550 OA
ATOM     14  O   UNL     1     -27.092 -21.990 -23.003  1.00  0.00    -0.550 OA
ENDBRANCH  11  12
ENDBRANCH  10  11
ENDBRANCH   9  10
ENDBRANCH   8   9
ENDBRANCH   7   8
ENDBRANCH   6   7
ENDBRANCH   5   6
ENDBRANCH   4   5
ENDBRANCH   3   4
ENDBRANCH   2   3
ENDBRANCH   1   2
BRANCH   1  15
ATOM     15  C   UNL     1     -29.268 -22.302 -20.040  1.00  0.00     0.000 C 
BRANCH  15  16
ATOM     16  C   UNL     1     -28.824 -23.119 -18.814  1.00  0.00     0.000 C 
BRANCH  16  17
ATOM     17  C   UNL     1     -28.433 -22.234 -17.618  1.00  0.00     0.000 C 
BRANCH  17  18
ATOM     18  C   UNL     1     -27.972 -23.033 -16.381  1.00  0.00    -0.000 C 
BRANCH  18  19
ATOM     19  C   UNL     1     -29.070 -23.125 -15.306  1.00  0.00    -0.000 C 
BRANCH  19  20
ATOM     20  C   UNL     1     -30.220 -22.134 -15.546  1.00  0.00    -0.000 C 
BRANCH  20  21
ATOM     21  C   UNL     1     -31.247 -22.132 -14.404  1.00  0.00    -0.000 C 
BRANCH  21  22
ATOM     22  C   UNL     1     -32.045 -20.820 -14.386  1.00  0.00    -0.000 C 
BRANCH  22  23
ATOM     23  C   UNL     1     -31.157 -19.601 -14.058  1.00  0.00    -0.000 C 
BRANCH  23  24
ATOM     24  C   UNL     1     -30.213 -19.831 -12.866  1.00  0.00    -0.000 C 
BRANCH  24  25
ATOM     25  C   UNL     1     -29.876 -18.536 -12.113  1.00  0.00    -0.003 C 
ATOM     26  C   UNL     1     -28.779 -18.771 -11.078  1.00  0.00     0.004 C 
ENDBRANCH  24  25
ENDBRANCH  23  24
ENDBRANCH  22  23
ENDBRANCH  21  22
ENDBRANCH  20  21
ENDBRANCH  19  20
ENDBRANCH  18  19
ENDBRANCH  17  18
ENDBRANCH  16  17
ENDBRANCH  15  16
ENDBRANCH   1  15
TORSDOF 22
ENDMDL
MODEL 6
REMARK VINA RESULT:     5.614      3.133      9.395
REMARK INTER + INTRA:          11.211
REMARK INTER:                  12.311
REMARK INTRA:                  -1.101
REMARK UNBOUND:                -1.624
REMARK SMILES CCCCCCCCCCCCCCCCCCCCCCCC(=O)[O-]
REMARK SMILES IDX 13 1 14 2 15 3 16 4 17 5 18 6 19 7 20 8 21 9 22 10 23 11
REMARK SMILES IDX 24 12 25 13 26 14 12 15 11 16 10 17 9 18 8 19 7 20 6 21 5 22
REMARK SMILES IDX 4 23 3 24 2 25 1 26
REMARK H PARENT
REMARK Flexibility Score: inf
ROOT
ATOM      1  C   UNL     1     -28.020 -19.988 -19.668  1.00  0.00     0.000 C 
ENDROOT
BRANCH   1   2
ATOM      2  C   UNL     1     -28.243 -20.819 -18.391  1.00  0.00     0.000 C 
BRANCH   2   3
ATOM      3  C   UNL     1     -27.170 -21.900 -18.190  1.00  0.00     0.000 C 
BRANCH   3   4
ATOM      4  C   UNL     1     -27.641 -23.051 -17.286  1.00  0.00     0.000 C 
BRANCH   4   5
ATOM      5  C   UNL     1     -29.173 -23.125 -17.162  1.00  0.00     0.000 C 
BRANCH   5   6
ATOM      6  C   UNL     1     -29.686 -23.018 -15.710  1.00  0.00     0.000 C 
BRANCH   6   7
ATOM      7  C   UNL     1     -30.490 -21.727 -15.471  1.00  0.00     0.000 C 
BRANCH   7   8
ATOM      8  C   UNL     1     -31.505 -21.868 -14.326  1.00  0.00     0.000 C 
BRANCH   8   9
ATOM      9  C   UNL     1     -32.147 -20.527 -13.938  1.00  0.00     0.000 C 
BRANCH   9  10
ATOM     10  C   UNL     1     -31.077 -19.446 -13.724  1.00  0.00     0.006 C 
BRANCH  10  11
ATOM     11  C   UNL     1     -30.026 -19.867 -12.690  1.00  0.00     0.053 C 
BRANCH  11  12
ATOM     12  C   UNL     1     -29.577 -18.710 -11.851  1.00  0.00     0.041 C 
ATOM     13  O   UNL     1     -28.695 -18.874 -10.967  1.00  0.00    -0.550 OA
ATOM     14  O   UNL     1     -30.108 -17.444 -12.067  1.00  0.00    -0.550 OA
ENDBRANCH  11  12
ENDBRANCH  10  11
ENDBRANCH   9  10
ENDBRANCH   8   9
ENDBRANCH   7   8
ENDBRANCH   6   7
ENDBRANCH   5   6
ENDBRANCH   4   5
ENDBRANCH   3   4
ENDBRANCH   2   3
ENDBRANCH   1   2
BRANCH   1  15
ATOM     15  C   UNL     1     -28.306 -20.792 -20.948  1.00  0.00     0.000 C 
BRANCH  15  16
ATOM     16  C   UNL     1     -29.434 -21.821 -20.753  1.00  0.00     0.000 C 
BRANCH  16  17
ATOM     17  C   UNL     1     -29.677 -22.682 -22.004  1.00  0.00     0.000 C 
BRANCH  17  18
ATOM     18  C   UNL     1     -31.171 -22.922 -22.310  1.00  0.00    -0.000 C 
BRANCH  18  19
ATOM     19  C   UNL     1     -32.083 -21.938 -21.557  1.00  0.00    -0.000 C 
BRANCH  19  20
ATOM     20  C   UNL     1     -32.643 -20.832 -22.467  1.00  0.00    -0.000 C 
BRANCH  20  21
ATOM     21  C   UNL     1     -32.112 -20.924 -23.905  1.00  0.00    -0.000 C 
BRANCH  21  22
ATOM     22  C   UNL     1     -31.421 -19.617 -24.320  1.00  0.00    -0.000 C 
BRANCH  22  23
ATOM     23  C   UNL     1     -31.131 -19.563 -25.834  1.00  0.00    -0.000 C 
BRANCH  23  24
ATOM     24  C   UNL     1     -30.126 -20.629 -26.306  1.00  0.00    -0.000 C 
BRANCH  24  25
ATOM     25  C   UNL     1     -30.603 -22.062 -26.031  1.00  0.00    -0.003 C 
ATOM     26  C   UNL     1     -31.580 -22.532 -27.105  1.00  0.00     0.004 C 
ENDBRANCH  24  25
ENDBRANCH  23  24
ENDBRANCH  22  23
ENDBRANCH  21  22
ENDBRANCH  20  21
ENDBRANCH  19  20
ENDBRANCH  18  19
ENDBRANCH  17  18
ENDBRANCH  16  17
ENDBRANCH  15  16
ENDBRANCH   1  15
TORSDOF 22
ENDMDL
MODEL 7
REMARK VINA RESULT:     5.816      2.105      2.912
REMARK INTER + INTRA:          11.672
REMARK INTER:                  12.750
REMARK INTRA:                  -1.078
REMARK UNBOUND:                -1.624
REMARK SMILES CCCCCCCCCCCCCCCCCCCCCCCC(=O)[O-]
REMARK SMILES IDX 13 1 14 2 15 3 16 4 17 5 18 6 19 7 20 8 21 9 22 10 23 11
REMARK SMILES IDX 24 12 25 13 26 14 12 15 11 16 10 17 9 18 8 19 7 20 6 21 5 22
REMARK SMILES IDX 4 23 3 24 2 25 1 26
REMARK H PARENT
REMARK Flexibility Score: inf
ROOT
ATOM      1  C   UNL     1     -28.015 -19.781 -19.266  1.00  0.00     0.000 C 
ENDROOT
BRANCH   1   2
ATOM      2  C   UNL     1     -29.476 -19.836 -19.746  1.00  0.00     0.000 C 
BRANCH   2   3
ATOM      3  C   UNL     1     -29.931 -21.259 -20.105  1.00  0.00     0.000 C 
BRANCH   3   4
ATOM      4  C   UNL     1     -29.357 -21.754 -21.442  1.00  0.00     0.000 C 
BRANCH   4   5
ATOM      5  C   UNL     1     -30.196 -22.880 -22.073  1.00  0.00     0.000 C 
BRANCH   5   6
ATOM      6  C   UNL     1     -31.363 -22.373 -22.945  1.00  0.00     0.000 C 
BRANCH   6   7
ATOM      7  C   UNL     1     -31.989 -21.082 -22.386  1.00  0.00     0.000 C 
BRANCH   7   8
ATOM      8  C   UNL     1     -32.337 -20.069 -23.488  1.00  0.00     0.000 C 
BRANCH   8   9
ATOM      9  C   UNL     1     -31.183 -19.856 -24.479  1.00  0.00     0.000 C 
BRANCH   9  10
ATOM     10  C   UNL     1     -31.679 -19.954 -25.930  1.00  0.00     0.006 C 
BRANCH  10  11
ATOM     11  C   UNL     1     -30.657 -20.636 -26.848  1.00  0.00     0.053 C 
BRANCH  11  12
ATOM     12  C   UNL     1     -30.924 -22.103 -26.986  1.00  0.00     0.041 C 
ATOM     13  O   UNL     1     -32.107 -22.531 -27.012  1.00  0.00    -0.550 OA
ATOM     14  O   UNL     1     -29.866 -22.995 -27.121  1.00  0.00    -0.550 OA
ENDBRANCH  11  12
ENDBRANCH  10  11
ENDBRANCH   9  10
ENDBRANCH   8   9
ENDBRANCH   7   8
ENDBRANCH   6   7
ENDBRANCH   5   6
ENDBRANCH   4   5
ENDBRANCH   3   4
ENDBRANCH   2   3
ENDBRANCH   1   2
BRANCH   1  15
ATOM     15  C   UNL     1     -27.311 -21.145 -19.374  1.00  0.00     0.000 C 
BRANCH  15  16
ATOM     16  C   UNL     1     -27.011 -21.760 -17.996  1.00  0.00     0.000 C 
BRANCH  16  17
ATOM     17  C   UNL     1     -27.697 -23.122 -17.789  1.00  0.00     0.000 C 
BRANCH  17  18
ATOM     18  C   UNL     1     -29.052 -23.028 -17.056  1.00  0.00    -0.000 C 
BRANCH  18  19
ATOM     19  C   UNL     1     -28.894 -23.125 -15.529  1.00  0.00    -0.000 C 
BRANCH  19  20
ATOM     20  C   UNL     1     -30.224 -22.938 -14.782  1.00  0.00    -0.000 C 
BRANCH  20  21
ATOM     21  C   UNL     1     -31.000 -21.699 -15.253  1.00  0.00    -0.000 C 
BRANCH  21  22
ATOM     22  C   UNL     1     -31.686 -20.998 -14.071  1.00  0.00    -0.000 C 
BRANCH  22  23
ATOM     23  C   UNL     1     -31.071 -19.614 -13.776  1.00  0.00    -0.000 C 
BRANCH  23  24
ATOM     24  C   UNL     1     -29.738 -19.683 -13.012  1.00  0.00    -0.000 C 
BRANCH  24  25
ATOM     25  C   UNL     1     -29.712 -18.779 -11.771  1.00  0.00    -0.003 C 
ATOM     26  C   UNL     1     -29.558 -17.312 -12.162  1.00  0.00     0.004 C 
ENDBRANCH  24  25
ENDBRANCH  23  24
ENDBRANCH  22  23
ENDBRANCH  21  22
ENDBRANCH  20  21
ENDBRANCH  19  20
ENDBRANCH  18  19
ENDBRANCH  17  18
ENDBRANCH  16  17
ENDBRANCH  15  16
ENDBRANCH   1  15
TORSDOF 22
ENDMDL
