MODEL 1
REMARK VINA RESULT:    -4.159      0.000      0.000
REMARK INTER + INTRA:          -4.281
REMARK INTER:                  -4.281
REMARK INTRA:                   0.000
REMARK UNBOUND:                 0.000
REMARK SMILES CC1(C)[C@@H]2CC[C@@](C)(C2)[C@H]1O
REMARK SMILES IDX 1 1 2 2 4 3 5 4 6 5 7 6 9 7 10 8 8 9 3 10 11 11
REMARK H PARENT 11 12
REMARK Flexibility Score: inf
ROOT
ATOM      1  C   UNL     1     165.134 166.895 169.684  1.00  0.00     0.014 C 
ATOM      2  C   UNL     1     166.443 166.958 168.855  1.00  0.00    -0.006 C 
ATOM      3  C   UNL     1     167.677 167.080 169.815  1.00  0.00    -0.002 C 
ATOM      4  C   UNL     1     168.965 167.425 169.038  1.00  0.00     0.005 C 
ATOM      5  C   UNL     1     169.235 166.140 168.238  1.00  0.00     0.010 C 
ATOM      6  C   UNL     1     168.120 165.187 168.729  1.00  0.00    -0.006 C 
ATOM      7  C   UNL     1     167.966 165.631 170.170  1.00  0.00     0.013 C 
ATOM      8  C   UNL     1     166.772 165.632 168.085  1.00  0.00     0.126 C 
ATOM      9  C   UNL     1     168.476 163.705 168.552  1.00  0.00     0.014 C 
ATOM     10  C   UNL     1     166.305 168.150 167.875  1.00  0.00     0.014 C 
ENDROOT
BRANCH   8  11
ATOM     11  O   UNL     1     165.754 164.658 168.186  1.00  0.00    -0.392 OA
ATOM     12  H   UNL     1     165.135 164.759 167.420  1.00  0.00     0.211 HD
ENDBRANCH   8  11
TORSDOF 1
ENDMDL
MODEL 2
REMARK VINA RESULT:    -4.116      2.745      4.563
REMARK INTER + INTRA:          -4.237
REMARK INTER:                  -4.237
REMARK INTRA:                   0.000
REMARK UNBOUND:                 0.000
REMARK SMILES CC1(C)[C@@H]2CC[C@@](C)(C2)[C@H]1O
REMARK SMILES IDX 1 1 2 2 4 3 5 4 6 5 7 6 9 7 10 8 8 9 3 10 11 11
REMARK H PARENT 11 12
REMARK Flexibility Score: inf
ROOT
ATOM      1  C   UNL     1     171.069 168.781 169.543  1.00  0.00     0.014 C 
ATOM      2  C   UNL     1     169.761 168.245 168.903  1.00  0.00    -0.006 C 
ATOM      3  C   UNL     1     168.786 167.744 170.024  1.00  0.00    -0.002 C 
ATOM      4  C   UNL     1     167.603 166.952 169.428  1.00  0.00     0.005 C 
ATOM      5  C   UNL     1     166.802 168.038 168.690  1.00  0.00     0.010 C 
ATOM      6  C   UNL     1     167.578 169.331 169.034  1.00  0.00    -0.006 C 
ATOM      7  C   UNL     1     168.068 169.019 170.433  1.00  0.00     0.013 C 
ATOM      8  C   UNL     1     168.897 169.351 168.203  1.00  0.00     0.126 C 
ATOM      9  C   UNL     1     166.715 170.595 168.927  1.00  0.00     0.014 C 
ATOM     10  C   UNL     1     170.167 167.138 167.898  1.00  0.00     0.014 C 
ENDROOT
BRANCH   8  11
ATOM     11  O   UNL     1     169.522 170.617 168.174  1.00  0.00    -0.392 OA
ATOM     12  H   UNL     1     169.971 170.735 167.299  1.00  0.00     0.211 HD
ENDBRANCH   8  11
TORSDOF 1
ENDMDL
MODEL 3
REMARK VINA RESULT:    -4.112      2.052      3.353
REMARK INTER + INTRA:          -4.232
REMARK INTER:                  -4.232
REMARK INTRA:                   0.000
REMARK UNBOUND:                 0.000
REMARK SMILES CC1(C)[C@@H]2CC[C@@](C)(C2)[C@H]1O
REMARK SMILES IDX 1 1 2 2 4 3 5 4 6 5 7 6 9 7 10 8 8 9 3 10 11 11
REMARK H PARENT 11 12
REMARK Flexibility Score: inf
ROOT
ATOM      1  C   UNL     1     167.221 169.959 169.677  1.00  0.00     0.014 C 
ATOM      2  C   UNL     1     167.148 168.641 168.862  1.00  0.00    -0.006 C 
ATOM      3  C   UNL     1     167.141 167.412 169.836  1.00  0.00    -0.002 C 
ATOM      4  C   UNL     1     167.351 166.087 169.073  1.00  0.00     0.005 C 
ATOM      5  C   UNL     1     166.045 165.942 168.274  1.00  0.00     0.010 C 
ATOM      6  C   UNL     1     165.212 167.155 168.752  1.00  0.00    -0.006 C 
ATOM      7  C   UNL     1     165.669 167.278 170.191  1.00  0.00     0.013 C 
ATOM      8  C   UNL     1     165.795 168.443 168.094  1.00  0.00     0.126 C 
ATOM      9  C   UNL     1     163.702 166.954 168.577  1.00  0.00     0.014 C 
ATOM     10  C   UNL     1     168.348 168.644 167.883  1.00  0.00     0.014 C 
ENDROOT
BRANCH   8  11
ATOM     11  O   UNL     1     164.932 169.557 168.182  1.00  0.00    -0.392 OA
ATOM     12  H   UNL     1     164.279 169.519 167.439  1.00  0.00     0.211 HD
ENDBRANCH   8  11
TORSDOF 1
ENDMDL
MODEL 4
REMARK VINA RESULT:    -4.046      2.092      3.289
REMARK INTER + INTRA:          -4.165
REMARK INTER:                  -4.165
REMARK INTRA:                   0.000
REMARK UNBOUND:                 0.000
REMARK SMILES CC1(C)[C@@H]2CC[C@@](C)(C2)[C@H]1O
REMARK SMILES IDX 1 1 2 2 4 3 5 4 6 5 7 6 9 7 10 8 8 9 3 10 11 11
REMARK H PARENT 11 12
REMARK Flexibility Score: inf
ROOT
ATOM      1  C   UNL     1     168.236 165.244 169.575  1.00  0.00     0.014 C 
ATOM      2  C   UNL     1     168.233 166.589 168.802  1.00  0.00    -0.006 C 
ATOM      3  C   UNL     1     168.249 167.785 169.816  1.00  0.00    -0.002 C 
ATOM      4  C   UNL     1     167.966 169.128 169.109  1.00  0.00     0.005 C 
ATOM      5  C   UNL     1     169.228 169.338 168.257  1.00  0.00     0.010 C 
ATOM      6  C   UNL     1     170.117 168.137 168.655  1.00  0.00    -0.006 C 
ATOM      7  C   UNL     1     169.731 167.953 170.109  1.00  0.00     0.013 C 
ATOM      8  C   UNL     1     169.543 166.853 167.981  1.00  0.00     0.126 C 
ATOM      9  C   UNL     1     171.611 168.390 168.419  1.00  0.00     0.014 C 
ATOM     10  C   UNL     1     166.989 166.581 167.879  1.00  0.00     0.014 C 
ENDROOT
BRANCH   8  11
ATOM     11  O   UNL     1     170.441 165.764 167.992  1.00  0.00    -0.392 OA
ATOM     12  H   UNL     1     171.058 165.862 168.760  1.00  0.00     0.211 HD
ENDBRANCH   8  11
TORSDOF 1
ENDMDL
MODEL 5
REMARK VINA RESULT:    -3.918      1.043      3.207
REMARK INTER + INTRA:          -4.032
REMARK INTER:                  -4.032
REMARK INTRA:                   0.000
REMARK UNBOUND:                 0.000
REMARK SMILES CC1(C)[C@@H]2CC[C@@](C)(C2)[C@H]1O
REMARK SMILES IDX 1 1 2 2 4 3 5 4 6 5 7 6 9 7 10 8 8 9 3 10 11 11
REMARK H PARENT 11 12
REMARK Flexibility Score: inf
ROOT
ATOM      1  C   UNL     1     168.833 165.339 167.885  1.00  0.00     0.014 C 
ATOM      2  C   UNL     1     168.072 166.059 169.030  1.00  0.00    -0.006 C 
ATOM      3  C   UNL     1     168.138 167.611 168.819  1.00  0.00    -0.002 C 
ATOM      4  C   UNL     1     167.642 168.371 170.067  1.00  0.00     0.005 C 
ATOM      5  C   UNL     1     166.137 168.056 170.084  1.00  0.00     0.010 C 
ATOM      6  C   UNL     1     165.943 167.231 168.789  1.00  0.00    -0.006 C 
ATOM      7  C   UNL     1     166.972 167.868 167.877  1.00  0.00     0.013 C 
ATOM      8  C   UNL     1     166.525 165.803 169.022  1.00  0.00     0.126 C 
ATOM      9  C   UNL     1     164.505 167.276 168.258  1.00  0.00     0.014 C 
ATOM     10  C   UNL     1     168.707 165.590 170.363  1.00  0.00     0.014 C 
ENDROOT
BRANCH   8  11
ATOM     11  O   UNL     1     166.115 164.866 168.049  1.00  0.00    -0.392 OA
ATOM     12  H   UNL     1     166.070 165.315 167.167  1.00  0.00     0.211 HD
ENDBRANCH   8  11
TORSDOF 1
ENDMDL
MODEL 6
REMARK VINA RESULT:    -3.842      2.714      3.631
REMARK INTER + INTRA:          -3.954
REMARK INTER:                  -3.954
REMARK INTRA:                   0.000
REMARK UNBOUND:                 0.000
REMARK SMILES CC1(C)[C@@H]2CC[C@@](C)(C2)[C@H]1O
REMARK SMILES IDX 1 1 2 2 4 3 5 4 6 5 7 6 9 7 10 8 8 9 3 10 11 11
REMARK H PARENT 11 12
REMARK Flexibility Score: inf
ROOT
ATOM      1  C   UNL     1     166.749 170.325 168.506  1.00  0.00     0.014 C 
ATOM      2  C   UNL     1     167.506 169.314 169.407  1.00  0.00    -0.006 C 
ATOM      3  C   UNL     1     167.090 167.850 169.031  1.00  0.00    -0.002 C 
ATOM      4  C   UNL     1     167.597 166.834 170.076  1.00  0.00     0.005 C 
ATOM      5  C   UNL     1     169.120 166.859 169.866  1.00  0.00     0.010 C 
ATOM      6  C   UNL     1     169.286 167.817 168.663  1.00  0.00    -0.006 C 
ATOM      7  C   UNL     1     168.024 167.525 167.877  1.00  0.00     0.013 C 
ATOM      8  C   UNL     1     169.054 169.277 169.159  1.00  0.00     0.126 C 
ATOM      9  C   UNL     1     170.589 167.587 167.887  1.00  0.00     0.014 C 
ATOM     10  C   UNL     1     167.187 169.687 170.877  1.00  0.00     0.014 C 
ENDROOT
BRANCH   8  11
ATOM     11  O   UNL     1     169.500 170.257 168.246  1.00  0.00    -0.392 OA
ATOM     12  H   UNL     1     170.390 170.582 168.530  1.00  0.00     0.211 HD
ENDBRANCH   8  11
TORSDOF 1
ENDMDL
MODEL 7
REMARK VINA RESULT:    -3.818      2.331      3.646
REMARK INTER + INTRA:          -3.929
REMARK INTER:                  -3.929
REMARK INTRA:                   0.000
REMARK UNBOUND:                 0.000
REMARK SMILES CC1(C)[C@@H]2CC[C@@](C)(C2)[C@H]1O
REMARK SMILES IDX 1 1 2 2 4 3 5 4 6 5 7 6 9 7 10 8 8 9 3 10 11 11
REMARK H PARENT 11 12
REMARK Flexibility Score: inf
ROOT
ATOM      1  C   UNL     1     164.874 166.799 168.221  1.00  0.00     0.014 C 
ATOM      2  C   UNL     1     165.828 167.459 169.251  1.00  0.00    -0.006 C 
ATOM      3  C   UNL     1     167.315 167.109 168.898  1.00  0.00    -0.002 C 
ATOM      4  C   UNL     1     168.274 167.505 170.042  1.00  0.00     0.005 C 
ATOM      5  C   UNL     1     168.229 169.041 170.010  1.00  0.00     0.010 C 
ATOM      6  C   UNL     1     167.323 169.334 168.790  1.00  0.00    -0.006 C 
ATOM      7  C   UNL     1     167.674 168.177 167.877  1.00  0.00     0.013 C 
ATOM      8  C   UNL     1     165.847 169.025 169.187  1.00  0.00     0.126 C 
ATOM      9  C   UNL     1     167.563 170.722 168.183  1.00  0.00     0.014 C 
ATOM     10  C   UNL     1     165.395 166.964 170.654  1.00  0.00     0.014 C 
ENDROOT
BRANCH   8  11
ATOM     11  O   UNL     1     164.901 169.562 168.286  1.00  0.00    -0.392 OA
ATOM     12  H   UNL     1     164.778 168.930 167.534  1.00  0.00     0.211 HD
ENDBRANCH   8  11
TORSDOF 1
ENDMDL
MODEL 8
REMARK VINA RESULT:    -3.780      1.858      2.347
REMARK INTER + INTRA:          -3.891
REMARK INTER:                  -3.891
REMARK INTRA:                   0.000
REMARK UNBOUND:                 0.000
REMARK SMILES CC1(C)[C@@H]2CC[C@@](C)(C2)[C@H]1O
REMARK SMILES IDX 1 1 2 2 4 3 5 4 6 5 7 6 9 7 10 8 8 9 3 10 11 11
REMARK H PARENT 11 12
REMARK Flexibility Score: inf
ROOT
ATOM      1  C   UNL     1     167.075 169.349 170.133  1.00  0.00     0.014 C 
ATOM      2  C   UNL     1     168.203 168.998 169.128  1.00  0.00    -0.006 C 
ATOM      3  C   UNL     1     169.452 168.448 169.901  1.00  0.00    -0.002 C 
ATOM      4  C   UNL     1     170.686 168.350 168.979  1.00  0.00     0.005 C 
ATOM      5  C   UNL     1     170.306 167.213 168.017  1.00  0.00     0.010 C 
ATOM      6  C   UNL     1     168.940 166.739 168.567  1.00  0.00    -0.006 C 
ATOM      7  C   UNL     1     169.123 166.971 170.053  1.00  0.00     0.013 C 
ATOM      8  C   UNL     1     167.860 167.795 168.183  1.00  0.00     0.126 C 
ATOM      9  C   UNL     1     168.608 165.291 168.184  1.00  0.00     0.014 C 
ATOM     10  C   UNL     1     168.500 170.281 168.311  1.00  0.00     0.014 C 
ENDROOT
BRANCH   8  11
ATOM     11  O   UNL     1     166.537 167.324 168.331  1.00  0.00    -0.392 OA
ATOM     12  H   UNL     1     166.253 166.889 167.489  1.00  0.00     0.211 HD
ENDBRANCH   8  11
TORSDOF 1
ENDMDL
MODEL 9
REMARK VINA RESULT:    -3.774      2.105      2.827
REMARK INTER + INTRA:          -3.885
REMARK INTER:                  -3.885
REMARK INTRA:                   0.000
REMARK UNBOUND:                 0.000
REMARK SMILES CC1(C)[C@@H]2CC[C@@](C)(C2)[C@H]1O
REMARK SMILES IDX 1 1 2 2 4 3 5 4 6 5 7 6 9 7 10 8 8 9 3 10 11 11
REMARK H PARENT 11 12
REMARK Flexibility Score: inf
ROOT
ATOM      1  C   UNL     1     166.009 166.871 169.889  1.00  0.00     0.014 C 
ATOM      2  C   UNL     1     166.541 167.931 168.888  1.00  0.00    -0.006 C 
ATOM      3  C   UNL     1     167.125 169.157 169.672  1.00  0.00    -0.002 C 
ATOM      4  C   UNL     1     167.407 170.345 168.729  1.00  0.00     0.005 C 
ATOM      5  C   UNL     1     168.588 169.840 167.884  1.00  0.00     0.010 C 
ATOM      6  C   UNL     1     168.895 168.460 168.514  1.00  0.00    -0.006 C 
ATOM      7  C   UNL     1     168.549 168.714 169.967  1.00  0.00     0.013 C 
ATOM      8  C   UNL     1     167.789 167.456 168.066  1.00  0.00     0.126 C 
ATOM      9  C   UNL     1     170.338 167.997 168.273  1.00  0.00     0.014 C 
ATOM     10  C   UNL     1     165.365 168.302 167.950  1.00  0.00     0.014 C 
ENDROOT
BRANCH   8  11
ATOM     11  O   UNL     1     168.132 166.106 168.294  1.00  0.00    -0.392 OA
ATOM     12  H   UNL     1     168.322 165.670 167.426  1.00  0.00     0.211 HD
ENDBRANCH   8  11
TORSDOF 1
ENDMDL
