MODEL 1
REMARK VINA RESULT:    -7.034      0.000      0.000
REMARK INTER + INTRA:          -8.058
REMARK INTER:                  -8.473
REMARK INTRA:                   0.415
REMARK UNBOUND:                 0.415
REMARK SMILES O=c1c(O)c(-c2ccc(O)c(O)c2)oc2cc(O)cc(O)c12
REMARK SMILES IDX 5 1 3 2 2 3 1 4 22 5 20 6 19 7 17 8 16 9 15 10 14 11 6 12
REMARK SMILES IDX 7 13 8 14 9 15 13 16 11 17 10 18 12 20 4 22 21 24 18 26
REMARK H PARENT 10 19 12 21 4 23 21 25 18 27
REMARK Flexibility Score: inf
ROOT
ATOM      1  C   UNL     1       9.405  -7.391  -9.118  1.00  0.00     0.180 A 
ATOM      2  C   UNL     1       8.540  -8.311  -9.736  1.00  0.00     0.208 A 
ATOM      3  C   UNL     1       8.945  -8.931 -10.929  1.00  0.00     0.238 A 
ATOM      4  O   UNL     1       8.190  -9.795 -11.448  1.00  0.00    -0.285 OA
ATOM      5  C   UNL     1      10.201  -8.611 -11.498  1.00  0.00     0.111 A 
ATOM      6  C   UNL     1      10.696  -9.149 -12.725  1.00  0.00     0.134 A 
ATOM      7  C   UNL     1      12.006  -8.862 -13.126  1.00  0.00     0.093 A 
ATOM      8  C   UNL     1      12.816  -8.007 -12.381  1.00  0.00     0.123 A 
ATOM      9  C   UNL     1      12.323  -7.429 -11.211  1.00  0.00     0.094 A 
ATOM     10  C   UNL     1      11.032  -7.725 -10.766  1.00  0.00     0.146 A 
ATOM     11  O   UNL     1      10.604  -7.162  -9.641  1.00  0.00    -0.452 OA
ENDROOT
BRANCH   1  12
ATOM     12  C   UNL     1       9.039  -6.680  -7.872  1.00  0.00     0.025 A 
ATOM     13  C   UNL     1       7.718  -6.675  -7.395  1.00  0.00     0.016 A 
ATOM     14  C   UNL     1       7.392  -5.976  -6.231  1.00  0.00     0.051 A 
ATOM     15  C   UNL     1       8.369  -5.261  -5.529  1.00  0.00     0.157 A 
ATOM     16  C   UNL     1      10.015  -5.945  -7.183  1.00  0.00     0.062 A 
ATOM     17  C   UNL     1       9.697  -5.242  -6.013  1.00  0.00     0.158 A 
BRANCH  15  18
ATOM     18  O   UNL     1       7.978  -4.588  -4.370  1.00  0.00    -0.504 OA
ATOM     19  H   UNL     1       8.517  -4.572  -3.517  1.00  0.00     0.293 HD
ENDBRANCH  15  18
BRANCH  17  20
ATOM     20  O   UNL     1      10.723  -4.544  -5.374  1.00  0.00    -0.504 OA
ATOM     21  H   UNL     1      10.599  -4.008  -4.527  1.00  0.00     0.293 HD
ENDBRANCH  17  20
ENDBRANCH   1  12
BRANCH   2  22
ATOM     22  O   UNL     1       7.314  -8.629  -9.146  1.00  0.00    -0.502 OA
ATOM     23  H   UNL     1       6.594  -9.147  -9.634  1.00  0.00     0.293 HD
ENDBRANCH   2  22
BRANCH   6  24
ATOM     24  O   UNL     1       9.936  -9.940 -13.593  1.00  0.00    -0.507 OA
ATOM     25  H   UNL     1       9.093 -10.430 -13.334  1.00  0.00     0.293 HD
ENDBRANCH   6  24
BRANCH   8  26
ATOM     26  O   UNL     1      14.110  -7.731 -12.818  1.00  0.00    -0.508 OA
ATOM     27  H   UNL     1      14.285  -7.313 -13.724  1.00  0.00     0.293 HD
ENDBRANCH   8  26
TORSDOF 6
ENDMDL
MODEL 2
REMARK VINA RESULT:    -6.928      1.704      6.438
REMARK INTER + INTRA:          -7.930
REMARK INTER:                  -8.363
REMARK INTRA:                   0.433
REMARK UNBOUND:                 0.415
REMARK SMILES O=c1c(O)c(-c2ccc(O)c(O)c2)oc2cc(O)cc(O)c12
REMARK SMILES IDX 5 1 3 2 2 3 1 4 22 5 20 6 19 7 17 8 16 9 15 10 14 11 6 12
REMARK SMILES IDX 7 13 8 14 9 15 13 16 11 17 10 18 12 20 4 22 21 24 18 26
REMARK H PARENT 10 19 12 21 4 23 21 25 18 27
REMARK Flexibility Score: inf
ROOT
ATOM      1  C   UNL     1      10.762  -7.082  -9.252  1.00  0.00     0.180 A 
ATOM      2  C   UNL     1       9.891  -8.177  -9.390  1.00  0.00     0.208 A 
ATOM      3  C   UNL     1       8.859  -8.348  -8.453  1.00  0.00     0.238 A 
ATOM      4  O   UNL     1       8.049  -9.298  -8.613  1.00  0.00    -0.285 OA
ATOM      5  C   UNL     1       8.722  -7.435  -7.381  1.00  0.00     0.111 A 
ATOM      6  C   UNL     1       7.738  -7.535  -6.351  1.00  0.00     0.134 A 
ATOM      7  C   UNL     1       7.611  -6.503  -5.413  1.00  0.00     0.093 A 
ATOM      8  C   UNL     1       8.473  -5.407  -5.428  1.00  0.00     0.123 A 
ATOM      9  C   UNL     1       9.477  -5.328  -6.394  1.00  0.00     0.094 A 
ATOM     10  C   UNL     1       9.605  -6.324  -7.365  1.00  0.00     0.146 A 
ATOM     11  O   UNL     1      10.567  -6.205  -8.273  1.00  0.00    -0.452 OA
ENDROOT
BRANCH   1  12
ATOM     12  C   UNL     1      11.887  -6.848 -10.185  1.00  0.00     0.025 A 
ATOM     13  C   UNL     1      12.275  -7.821 -11.121  1.00  0.00     0.016 A 
ATOM     14  C   UNL     1      13.354  -7.587 -11.974  1.00  0.00     0.051 A 
ATOM     15  C   UNL     1      14.075  -6.389 -11.904  1.00  0.00     0.157 A 
ATOM     16  C   UNL     1      12.622  -5.656 -10.098  1.00  0.00     0.062 A 
ATOM     17  C   UNL     1      13.706  -5.412 -10.951  1.00  0.00     0.158 A 
BRANCH  15  18
ATOM     18  O   UNL     1      15.141  -6.217 -12.789  1.00  0.00    -0.504 OA
ATOM     19  H   UNL     1      15.308  -6.803 -13.594  1.00  0.00     0.293 HD
ENDBRANCH  15  18
BRANCH  17  20
ATOM     20  O   UNL     1      14.382  -4.198 -10.815  1.00  0.00    -0.504 OA
ATOM     21  H   UNL     1      14.692  -3.634 -11.593  1.00  0.00     0.293 HD
ENDBRANCH  17  20
ENDBRANCH   1  12
BRANCH   2  22
ATOM     22  O   UNL     1      10.030  -9.054 -10.468  1.00  0.00    -0.502 OA
ATOM     23  H   UNL     1       9.796 -10.037 -10.403  1.00  0.00     0.293 HD
ENDBRANCH   2  22
BRANCH   6  24
ATOM     24  O   UNL     1       6.886  -8.632  -6.190  1.00  0.00    -0.507 OA
ATOM     25  H   UNL     1       7.092  -9.570  -6.498  1.00  0.00     0.293 HD
ENDBRANCH   6  24
BRANCH   8  26
ATOM     26  O   UNL     1       8.329  -4.406  -4.470  1.00  0.00    -0.508 OA
ATOM     27  H   UNL     1       7.425  -4.000  -4.259  1.00  0.00     0.293 HD
ENDBRANCH   8  26
TORSDOF 6
ENDMDL
MODEL 3
REMARK VINA RESULT:    -6.919      1.255      2.852
REMARK INTER + INTRA:          -7.919
REMARK INTER:                  -8.462
REMARK INTRA:                   0.543
REMARK UNBOUND:                 0.415
REMARK SMILES O=c1c(O)c(-c2ccc(O)c(O)c2)oc2cc(O)cc(O)c12
REMARK SMILES IDX 5 1 3 2 2 3 1 4 22 5 20 6 19 7 17 8 16 9 15 10 14 11 6 12
REMARK SMILES IDX 7 13 8 14 9 15 13 16 11 17 10 18 12 20 4 22 21 24 18 26
REMARK H PARENT 10 19 12 21 4 23 21 25 18 27
REMARK Flexibility Score: inf
ROOT
ATOM      1  C   UNL     1       9.974  -7.003  -9.299  1.00  0.00     0.180 A 
ATOM      2  C   UNL     1      11.321  -6.836  -9.665  1.00  0.00     0.208 A 
ATOM      3  C   UNL     1      11.779  -7.412 -10.860  1.00  0.00     0.238 A 
ATOM      4  O   UNL     1      12.972  -7.214 -11.210  1.00  0.00    -0.285 OA
ATOM      5  C   UNL     1      10.889  -8.162 -11.666  1.00  0.00     0.111 A 
ATOM      6  C   UNL     1      11.255  -8.824 -12.878  1.00  0.00     0.134 A 
ATOM      7  C   UNL     1      10.264  -9.427 -13.662  1.00  0.00     0.093 A 
ATOM      8  C   UNL     1       8.933  -9.449 -13.248  1.00  0.00     0.123 A 
ATOM      9  C   UNL     1       8.573  -8.857 -12.036  1.00  0.00     0.094 A 
ATOM     10  C   UNL     1       9.534  -8.216 -11.250  1.00  0.00     0.146 A 
ATOM     11  O   UNL     1       9.149  -7.655 -10.110  1.00  0.00    -0.452 OA
ENDROOT
BRANCH   1  12
ATOM     12  C   UNL     1       9.424  -6.445  -8.043  1.00  0.00     0.025 A 
ATOM     13  C   UNL     1       8.055  -6.539  -7.740  1.00  0.00     0.016 A 
ATOM     14  C   UNL     1       7.555  -5.984  -6.561  1.00  0.00     0.051 A 
ATOM     15  C   UNL     1       8.402  -5.316  -5.669  1.00  0.00     0.157 A 
ATOM     16  C   UNL     1      10.271  -5.756  -7.161  1.00  0.00     0.062 A 
ATOM     17  C   UNL     1       9.778  -5.198  -5.975  1.00  0.00     0.158 A 
BRANCH  15  18
ATOM     18  O   UNL     1       7.839  -4.788  -4.506  1.00  0.00    -0.504 OA
ATOM     19  H   UNL     1       7.396  -3.882  -4.454  1.00  0.00     0.293 HD
ENDBRANCH  15  18
BRANCH  17  20
ATOM     20  O   UNL     1      10.682  -4.538  -5.141  1.00  0.00    -0.504 OA
ATOM     21  H   UNL     1      11.579  -4.916  -4.870  1.00  0.00     0.293 HD
ENDBRANCH  17  20
ENDBRANCH   1  12
BRANCH   2  22
ATOM     22  O   UNL     1      12.177  -6.074  -8.865  1.00  0.00    -0.502 OA
ATOM     23  H   UNL     1      13.172  -6.253  -8.810  1.00  0.00     0.293 HD
ENDBRANCH   2  22
BRANCH   6  24
ATOM     24  O   UNL     1      12.570  -8.941 -13.337  1.00  0.00    -0.507 OA
ATOM     25  H   UNL     1      13.322  -9.376 -12.824  1.00  0.00     0.293 HD
ENDBRANCH   6  24
BRANCH   8  26
ATOM     26  O   UNL     1       7.975 -10.072 -14.045  1.00  0.00    -0.508 OA
ATOM     27  H   UNL     1       7.774  -9.747 -14.984  1.00  0.00     0.293 HD
ENDBRANCH   8  26
TORSDOF 6
ENDMDL
MODEL 4
REMARK VINA RESULT:    -6.894      9.937     14.000
REMARK INTER + INTRA:          -7.889
REMARK INTER:                  -7.725
REMARK INTRA:                  -0.164
REMARK UNBOUND:                 0.415
REMARK SMILES O=c1c(O)c(-c2ccc(O)c(O)c2)oc2cc(O)cc(O)c12
REMARK SMILES IDX 5 1 3 2 2 3 1 4 22 5 20 6 19 7 17 8 16 9 15 10 14 11 6 12
REMARK SMILES IDX 7 13 8 14 9 15 13 16 11 17 10 18 12 20 4 22 21 24 18 26
REMARK H PARENT 10 19 12 21 4 23 21 25 18 27
REMARK Flexibility Score: inf
ROOT
ATOM      1  C   UNL     1      18.525  -1.039 -16.724  1.00  0.00     0.180 A 
ATOM      2  C   UNL     1      17.871  -0.232 -15.777  1.00  0.00     0.208 A 
ATOM      3  C   UNL     1      17.147  -0.846 -14.743  1.00  0.00     0.238 A 
ATOM      4  O   UNL     1      16.609  -0.119 -13.867  1.00  0.00    -0.285 OA
ATOM      5  C   UNL     1      17.071  -2.258 -14.678  1.00  0.00     0.111 A 
ATOM      6  C   UNL     1      16.331  -2.986 -13.696  1.00  0.00     0.134 A 
ATOM      7  C   UNL     1      16.434  -4.381 -13.649  1.00  0.00     0.093 A 
ATOM      8  C   UNL     1      17.195  -5.079 -14.585  1.00  0.00     0.123 A 
ATOM      9  C   UNL     1      17.874  -4.382 -15.585  1.00  0.00     0.094 A 
ATOM     10  C   UNL     1      17.820  -2.987 -15.636  1.00  0.00     0.146 A 
ATOM     11  O   UNL     1      18.490  -2.362 -16.597  1.00  0.00    -0.452 OA
ENDROOT
BRANCH   1  12
ATOM     12  C   UNL     1      19.288  -0.466 -17.856  1.00  0.00     0.025 A 
ATOM     13  C   UNL     1      18.888  -0.675 -19.186  1.00  0.00     0.016 A 
ATOM     14  C   UNL     1      19.638  -0.145 -20.238  1.00  0.00     0.051 A 
ATOM     15  C   UNL     1      20.803   0.589 -19.988  1.00  0.00     0.157 A 
ATOM     16  C   UNL     1      20.468   0.250 -17.603  1.00  0.00     0.062 A 
ATOM     17  C   UNL     1      21.225   0.786 -18.653  1.00  0.00     0.158 A 
BRANCH  15  18
ATOM     18  O   UNL     1      21.503   1.095 -21.084  1.00  0.00    -0.504 OA
ATOM     19  H   UNL     1      21.946   2.002 -21.102  1.00  0.00     0.293 HD
ENDBRANCH  15  18
BRANCH  17  20
ATOM     20  O   UNL     1      22.381   1.498 -18.324  1.00  0.00    -0.504 OA
ATOM     21  H   UNL     1      23.000   1.915 -19.005  1.00  0.00     0.293 HD
ENDBRANCH  17  20
ENDBRANCH   1  12
BRANCH   2  22
ATOM     22  O   UNL     1      17.977   1.159 -15.847  1.00  0.00    -0.502 OA
ATOM     23  H   UNL     1      17.493   1.775 -15.205  1.00  0.00     0.293 HD
ENDBRANCH   2  22
BRANCH   6  24
ATOM     24  O   UNL     1      15.468  -2.392 -12.771  1.00  0.00    -0.507 OA
ATOM     25  H   UNL     1      14.733  -1.742 -13.006  1.00  0.00     0.293 HD
ENDBRANCH   6  24
BRANCH   8  26
ATOM     26  O   UNL     1      17.262  -6.469 -14.518  1.00  0.00    -0.508 OA
ATOM     27  H   UNL     1      17.677  -7.017 -15.264  1.00  0.00     0.293 HD
ENDBRANCH   8  26
TORSDOF 6
ENDMDL
MODEL 5
REMARK VINA RESULT:    -6.772      1.839      3.453
REMARK INTER + INTRA:          -7.742
REMARK INTER:                  -7.607
REMARK INTRA:                  -0.136
REMARK UNBOUND:                 0.415
REMARK SMILES O=c1c(O)c(-c2ccc(O)c(O)c2)oc2cc(O)cc(O)c12
REMARK SMILES IDX 5 1 3 2 2 3 1 4 22 5 20 6 19 7 17 8 16 9 15 10 14 11 6 12
REMARK SMILES IDX 7 13 8 14 9 15 13 16 11 17 10 18 12 20 4 22 21 24 18 26
REMARK H PARENT 10 19 12 21 4 23 21 25 18 27
REMARK Flexibility Score: inf
ROOT
ATOM      1  C   UNL     1       9.084  -7.358  -8.261  1.00  0.00     0.180 A 
ATOM      2  C   UNL     1      10.422  -7.489  -8.672  1.00  0.00     0.208 A 
ATOM      3  C   UNL     1      10.694  -7.966  -9.964  1.00  0.00     0.238 A 
ATOM      4  O   UNL     1      11.892  -8.030 -10.346  1.00  0.00    -0.285 OA
ATOM      5  C   UNL     1       9.627  -8.322 -10.823  1.00  0.00     0.111 A 
ATOM      6  C   UNL     1       9.787  -8.854 -12.139  1.00  0.00     0.134 A 
ATOM      7  C   UNL     1       8.662  -9.047 -12.948  1.00  0.00     0.093 A 
ATOM      8  C   UNL     1       7.378  -8.790 -12.469  1.00  0.00     0.123 A 
ATOM      9  C   UNL     1       7.205  -8.326 -11.164  1.00  0.00     0.094 A 
ATOM     10  C   UNL     1       8.312  -8.089 -10.345  1.00  0.00     0.146 A 
ATOM     11  O   UNL     1       8.104  -7.637  -9.114  1.00  0.00    -0.452 OA
ENDROOT
BRANCH   1  12
ATOM     12  C   UNL     1       8.718  -6.884  -6.907  1.00  0.00     0.025 A 
ATOM     13  C   UNL     1       9.061  -5.596  -6.466  1.00  0.00     0.016 A 
ATOM     14  C   UNL     1       8.727  -5.180  -5.176  1.00  0.00     0.051 A 
ATOM     15  C   UNL     1       8.059  -6.041  -4.298  1.00  0.00     0.157 A 
ATOM     16  C   UNL     1       8.069  -7.757  -6.021  1.00  0.00     0.062 A 
ATOM     17  C   UNL     1       7.729  -7.348  -4.725  1.00  0.00     0.158 A 
BRANCH  15  18
ATOM     18  O   UNL     1       7.751  -5.562  -3.023  1.00  0.00    -0.504 OA
ATOM     19  H   UNL     1       7.377  -4.642  -2.841  1.00  0.00     0.293 HD
ENDBRANCH  15  18
BRANCH  17  20
ATOM     20  O   UNL     1       7.073  -8.267  -3.903  1.00  0.00    -0.504 OA
ATOM     21  H   UNL     1       7.201  -9.267  -3.959  1.00  0.00     0.293 HD
ENDBRANCH  17  20
ENDBRANCH   1  12
BRANCH   2  22
ATOM     22  O   UNL     1      11.460  -7.112  -7.816  1.00  0.00    -0.502 OA
ATOM     23  H   UNL     1      11.811  -7.720  -7.086  1.00  0.00     0.293 HD
ENDBRANCH   2  22
BRANCH   6  24
ATOM     24  O   UNL     1      11.019  -9.232 -12.682  1.00  0.00    -0.507 OA
ATOM     25  H   UNL     1      11.301  -9.066 -13.636  1.00  0.00     0.293 HD
ENDBRANCH   6  24
BRANCH   8  26
ATOM     26  O   UNL     1       6.278  -9.008 -13.296  1.00  0.00    -0.508 OA
ATOM     27  H   UNL     1       6.376  -9.063 -14.303  1.00  0.00     0.293 HD
ENDBRANCH   8  26
TORSDOF 6
ENDMDL
MODEL 6
REMARK VINA RESULT:    -6.659     12.755     17.005
REMARK INTER + INTRA:          -7.606
REMARK INTER:                  -7.518
REMARK INTRA:                  -0.089
REMARK UNBOUND:                 0.415
REMARK SMILES O=c1c(O)c(-c2ccc(O)c(O)c2)oc2cc(O)cc(O)c12
REMARK SMILES IDX 5 1 3 2 2 3 1 4 22 5 20 6 19 7 17 8 16 9 15 10 14 11 6 12
REMARK SMILES IDX 7 13 8 14 9 15 13 16 11 17 10 18 12 20 4 22 21 24 18 26
REMARK H PARENT 10 19 12 21 4 23 21 25 18 27
REMARK Flexibility Score: inf
ROOT
ATOM      1  C   UNL     1      20.642   0.624 -17.641  1.00  0.00     0.180 A 
ATOM      2  C   UNL     1      21.723   1.112 -16.886  1.00  0.00     0.208 A 
ATOM      3  C   UNL     1      21.514   1.462 -15.543  1.00  0.00     0.238 A 
ATOM      4  O   UNL     1      22.498   1.846 -14.858  1.00  0.00    -0.285 OA
ATOM      5  C   UNL     1      20.224   1.336 -14.975  1.00  0.00     0.111 A 
ATOM      6  C   UNL     1      19.888   1.699 -13.635  1.00  0.00     0.134 A 
ATOM      7  C   UNL     1      18.611   1.410 -13.140  1.00  0.00     0.093 A 
ATOM      8  C   UNL     1      17.638   0.831 -13.953  1.00  0.00     0.123 A 
ATOM      9  C   UNL     1      17.936   0.526 -15.282  1.00  0.00     0.094 A 
ATOM     10  C   UNL     1      19.213   0.770 -15.794  1.00  0.00     0.146 A 
ATOM     11  O   UNL     1      19.459   0.455 -17.061  1.00  0.00    -0.452 OA
ENDROOT
BRANCH   1  12
ATOM     12  C   UNL     1      20.779   0.256 -19.068  1.00  0.00     0.025 A 
ATOM     13  C   UNL     1      20.525  -1.051 -19.513  1.00  0.00     0.016 A 
ATOM     14  C   UNL     1      20.685  -1.380 -20.861  1.00  0.00     0.051 A 
ATOM     15  C   UNL     1      21.111  -0.421 -21.786  1.00  0.00     0.157 A 
ATOM     16  C   UNL     1      21.228   1.214 -19.990  1.00  0.00     0.062 A 
ATOM     17  C   UNL     1      21.390   0.893 -21.344  1.00  0.00     0.158 A 
BRANCH  15  18
ATOM     18  O   UNL     1      21.246  -0.814 -23.118  1.00  0.00    -0.504 OA
ATOM     19  H   UNL     1      21.010  -0.229 -23.906  1.00  0.00     0.293 HD
ENDBRANCH  15  18
BRANCH  17  20
ATOM     20  O   UNL     1      21.828   1.902 -22.204  1.00  0.00    -0.504 OA
ATOM     21  H   UNL     1      21.946   1.782 -23.200  1.00  0.00     0.293 HD
ENDBRANCH  17  20
ENDBRANCH   1  12
BRANCH   2  22
ATOM     22  O   UNL     1      22.994   1.207 -17.460  1.00  0.00    -0.502 OA
ATOM     23  H   UNL     1      23.305   0.587 -18.198  1.00  0.00     0.293 HD
ENDBRANCH   2  22
BRANCH   6  24
ATOM     24  O   UNL     1      20.758   2.366 -12.767  1.00  0.00    -0.507 OA
ATOM     25  H   UNL     1      21.751   2.200 -12.708  1.00  0.00     0.293 HD
ENDBRANCH   6  24
BRANCH   8  26
ATOM     26  O   UNL     1      16.372   0.571 -13.432  1.00  0.00    -0.508 OA
ATOM     27  H   UNL     1      15.933   1.199 -12.769  1.00  0.00     0.293 HD
ENDBRANCH   8  26
TORSDOF 6
ENDMDL
MODEL 7
REMARK VINA RESULT:    -6.540      3.228      6.478
REMARK INTER + INTRA:          -7.463
REMARK INTER:                  -7.141
REMARK INTRA:                  -0.322
REMARK UNBOUND:                 0.415
REMARK SMILES O=c1c(O)c(-c2ccc(O)c(O)c2)oc2cc(O)cc(O)c12
REMARK SMILES IDX 5 1 3 2 2 3 1 4 22 5 20 6 19 7 17 8 16 9 15 10 14 11 6 12
REMARK SMILES IDX 7 13 8 14 9 15 13 16 11 17 10 18 12 20 4 22 21 24 18 26
REMARK H PARENT 10 19 12 21 4 23 21 25 18 27
REMARK Flexibility Score: inf
ROOT
ATOM      1  C   UNL     1      12.790  -5.944 -10.544  1.00  0.00     0.180 A 
ATOM      2  C   UNL     1      12.684  -7.205 -11.157  1.00  0.00     0.208 A 
ATOM      3  C   UNL     1      11.767  -8.137 -10.645  1.00  0.00     0.238 A 
ATOM      4  O   UNL     1      11.638  -9.243 -11.231  1.00  0.00    -0.285 OA
ATOM      5  C   UNL     1      10.981  -7.804  -9.516  1.00  0.00     0.111 A 
ATOM      6  C   UNL     1      10.049  -8.685  -8.888  1.00  0.00     0.134 A 
ATOM      7  C   UNL     1       9.230  -8.206  -7.859  1.00  0.00     0.093 A 
ATOM      8  C   UNL     1       9.354  -6.899  -7.390  1.00  0.00     0.123 A 
ATOM      9  C   UNL     1      10.302  -6.046  -7.956  1.00  0.00     0.094 A 
ATOM     10  C   UNL     1      11.109  -6.485  -9.009  1.00  0.00     0.146 A 
ATOM     11  O   UNL     1      11.991  -5.638  -9.527  1.00  0.00    -0.452 OA
ENDROOT
BRANCH   1  12
ATOM     12  C   UNL     1      13.749  -4.918 -11.012  1.00  0.00     0.025 A 
ATOM     13  C   UNL     1      13.409  -4.010 -12.027  1.00  0.00     0.016 A 
ATOM     14  C   UNL     1      14.339  -3.067 -12.469  1.00  0.00     0.051 A 
ATOM     15  C   UNL     1      15.625  -3.019 -11.920  1.00  0.00     0.157 A 
ATOM     16  C   UNL     1      15.046  -4.887 -10.475  1.00  0.00     0.062 A 
ATOM     17  C   UNL     1      15.984  -3.943 -10.912  1.00  0.00     0.158 A 
BRANCH  15  18
ATOM     18  O   UNL     1      16.505  -2.049 -12.404  1.00  0.00    -0.504 OA
ATOM     19  H   UNL     1      17.356  -1.775 -11.935  1.00  0.00     0.293 HD
ENDBRANCH  15  18
BRANCH  17  20
ATOM     20  O   UNL     1      17.250  -3.964 -10.324  1.00  0.00    -0.504 OA
ATOM     21  H   UNL     1      17.662  -4.782  -9.897  1.00  0.00     0.293 HD
ENDBRANCH  17  20
ENDBRANCH   1  12
BRANCH   2  22
ATOM     22  O   UNL     1      13.454  -7.505 -12.283  1.00  0.00    -0.502 OA
ATOM     23  H   UNL     1      13.811  -8.435 -12.466  1.00  0.00     0.293 HD
ENDBRANCH   2  22
BRANCH   6  24
ATOM     24  O   UNL     1       9.911 -10.037  -9.217  1.00  0.00    -0.507 OA
ATOM     25  H   UNL     1      10.590 -10.576  -9.732  1.00  0.00     0.293 HD
ENDBRANCH   6  24
BRANCH   8  26
ATOM     26  O   UNL     1       8.534  -6.460  -6.353  1.00  0.00    -0.508 OA
ATOM     27  H   UNL     1       8.593  -5.513  -5.995  1.00  0.00     0.293 HD
ENDBRANCH   8  26
TORSDOF 6
ENDMDL
MODEL 8
REMARK VINA RESULT:    -6.493      1.982      6.949
REMARK INTER + INTRA:          -7.406
REMARK INTER:                  -7.083
REMARK INTRA:                  -0.323
REMARK UNBOUND:                 0.415
REMARK SMILES O=c1c(O)c(-c2ccc(O)c(O)c2)oc2cc(O)cc(O)c12
REMARK SMILES IDX 5 1 3 2 2 3 1 4 22 5 20 6 19 7 17 8 16 9 15 10 14 11 6 12
REMARK SMILES IDX 7 13 8 14 9 15 13 16 11 17 10 18 12 20 4 22 21 24 18 26
REMARK H PARENT 10 19 12 21 4 23 21 25 18 27
REMARK Flexibility Score: inf
ROOT
ATOM      1  C   UNL     1      10.194  -7.819 -10.247  1.00  0.00     0.180 A 
ATOM      2  C   UNL     1      10.062  -8.576  -9.070  1.00  0.00     0.208 A 
ATOM      3  C   UNL     1       9.185  -8.130  -8.068  1.00  0.00     0.238 A 
ATOM      4  O   UNL     1       9.031  -8.840  -7.040  1.00  0.00    -0.285 OA
ATOM      5  C   UNL     1       8.464  -6.926  -8.248  1.00  0.00     0.111 A 
ATOM      6  C   UNL     1       7.579  -6.359  -7.282  1.00  0.00     0.134 A 
ATOM      7  C   UNL     1       6.818  -5.233  -7.618  1.00  0.00     0.093 A 
ATOM      8  C   UNL     1       6.958  -4.614  -8.860  1.00  0.00     0.123 A 
ATOM      9  C   UNL     1       7.864  -5.125  -9.790  1.00  0.00     0.094 A 
ATOM     10  C   UNL     1       8.611  -6.268  -9.497  1.00  0.00     0.146 A 
ATOM     11  O   UNL     1       9.454  -6.728 -10.414  1.00  0.00    -0.452 OA
ENDROOT
BRANCH   1  12
ATOM     12  C   UNL     1      11.115  -8.211 -11.338  1.00  0.00     0.025 A 
ATOM     13  C   UNL     1      12.481  -7.886 -11.293  1.00  0.00     0.016 A 
ATOM     14  C   UNL     1      13.325  -8.245 -12.344  1.00  0.00     0.051 A 
ATOM     15  C   UNL     1      12.827  -8.920 -13.464  1.00  0.00     0.157 A 
ATOM     16  C   UNL     1      10.609  -8.868 -12.469  1.00  0.00     0.062 A 
ATOM     17  C   UNL     1      11.449  -9.233 -13.529  1.00  0.00     0.158 A 
BRANCH  15  18
ATOM     18  O   UNL     1      13.726  -9.254 -14.479  1.00  0.00    -0.504 OA
ATOM     19  H   UNL     1      14.636  -9.660 -14.316  1.00  0.00     0.293 HD
ENDBRANCH  15  18
BRANCH  17  20
ATOM     20  O   UNL     1      10.877  -9.896 -14.616  1.00  0.00    -0.504 OA
ATOM     21  H   UNL     1      11.383 -10.523 -15.225  1.00  0.00     0.293 HD
ENDBRANCH  17  20
ENDBRANCH   1  12
BRANCH   2  22
ATOM     22  O   UNL     1      10.767  -9.773  -8.923  1.00  0.00    -0.502 OA
ATOM     23  H   UNL     1      11.687  -9.814  -8.502  1.00  0.00     0.293 HD
ENDBRANCH   2  22
BRANCH   6  24
ATOM     24  O   UNL     1       7.432  -6.844  -5.978  1.00  0.00    -0.507 OA
ATOM     25  H   UNL     1       6.559  -7.140  -5.570  1.00  0.00     0.293 HD
ENDBRANCH   6  24
BRANCH   8  26
ATOM     26  O   UNL     1       6.197  -3.486  -9.156  1.00  0.00    -0.508 OA
ATOM     27  H   UNL     1       5.371  -3.247  -8.618  1.00  0.00     0.293 HD
ENDBRANCH   8  26
TORSDOF 6
ENDMDL
MODEL 9
REMARK VINA RESULT:    -6.449     10.320     13.229
REMARK INTER + INTRA:          -7.353
REMARK INTER:                  -7.070
REMARK INTRA:                  -0.282
REMARK UNBOUND:                 0.415
REMARK SMILES O=c1c(O)c(-c2ccc(O)c(O)c2)oc2cc(O)cc(O)c12
REMARK SMILES IDX 5 1 3 2 2 3 1 4 22 5 20 6 19 7 17 8 16 9 15 10 14 11 6 12
REMARK SMILES IDX 7 13 8 14 9 15 13 16 11 17 10 18 12 20 4 22 21 24 18 26
REMARK H PARENT 10 19 12 21 4 23 21 25 18 27
REMARK Flexibility Score: inf
ROOT
ATOM      1  C   UNL     1      17.991  -0.294 -15.494  1.00  0.00     0.180 A 
ATOM      2  C   UNL     1      19.026   0.519 -14.999  1.00  0.00     0.208 A 
ATOM      3  C   UNL     1      20.066   0.897 -15.862  1.00  0.00     0.238 A 
ATOM      4  O   UNL     1      20.961   1.669 -15.428  1.00  0.00    -0.285 OA
ATOM      5  C   UNL     1      20.069   0.445 -17.203  1.00  0.00     0.111 A 
ATOM      6  C   UNL     1      21.094   0.734 -18.155  1.00  0.00     0.134 A 
ATOM      7  C   UNL     1      20.928   0.345 -19.489  1.00  0.00     0.093 A 
ATOM      8  C   UNL     1      19.807  -0.379 -19.894  1.00  0.00     0.123 A 
ATOM      9  C   UNL     1      18.827  -0.718 -18.960  1.00  0.00     0.094 A 
ATOM     10  C   UNL     1      18.947  -0.312 -17.629  1.00  0.00     0.146 A 
ATOM     11  O   UNL     1      17.987  -0.647 -16.775  1.00  0.00    -0.452 OA
ENDROOT
BRANCH   1  12
ATOM     12  C   UNL     1      16.872  -0.753 -14.640  1.00  0.00     0.025 A 
ATOM     13  C   UNL     1      15.800   0.097 -14.321  1.00  0.00     0.016 A 
ATOM     14  C   UNL     1      14.769  -0.351 -13.493  1.00  0.00     0.051 A 
ATOM     15  C   UNL     1      14.791  -1.644 -12.958  1.00  0.00     0.157 A 
ATOM     16  C   UNL     1      16.908  -2.042 -14.087  1.00  0.00     0.062 A 
ATOM     17  C   UNL     1      15.877  -2.499 -13.256  1.00  0.00     0.158 A 
BRANCH  15  18
ATOM     18  O   UNL     1      13.726  -2.030 -12.142  1.00  0.00    -0.504 OA
ATOM     19  H   UNL     1      13.003  -1.403 -11.822  1.00  0.00     0.293 HD
ENDBRANCH  15  18
BRANCH  17  20
ATOM     20  O   UNL     1      15.974  -3.798 -12.753  1.00  0.00    -0.504 OA
ATOM     21  H   UNL     1      15.372  -4.560 -13.035  1.00  0.00     0.293 HD
ENDBRANCH  17  20
ENDBRANCH   1  12
BRANCH   2  22
ATOM     22  O   UNL     1      18.992   0.972 -13.678  1.00  0.00    -0.502 OA
ATOM     23  H   UNL     1      18.135   1.018 -13.141  1.00  0.00     0.293 HD
ENDBRANCH   2  22
BRANCH   6  24
ATOM     24  O   UNL     1      22.297   1.371 -17.835  1.00  0.00    -0.507 OA
ATOM     25  H   UNL     1      22.371   2.304 -17.458  1.00  0.00     0.293 HD
ENDBRANCH   6  24
BRANCH   8  26
ATOM     26  O   UNL     1      19.682  -0.764 -21.227  1.00  0.00    -0.508 OA
ATOM     27  H   UNL     1      19.043  -1.499 -21.508  1.00  0.00     0.293 HD
ENDBRANCH   8  26
TORSDOF 6
ENDMDL
