MODEL 1
REMARK VINA RESULT:    -2.509      0.000      0.000
REMARK INTER + INTRA:          -2.582
REMARK INTER:                  -2.582
REMARK INTRA:                   0.000
REMARK UNBOUND:                 0.000
REMARK SMILES O=c1ccc2ccc(O)cc2o1
REMARK SMILES IDX 6 1 7 2 8 3 10 4 11 5 5 6 4 7 3 8 2 9 1 10 12 11 9 12
REMARK H PARENT 9 13
REMARK Flexibility Score: inf
ROOT
ATOM      1  C   UNL     1      -1.891 -31.325  -3.547  1.00  0.00     0.016 A 
ATOM      2  C   UNL     1      -3.177 -31.524  -4.059  1.00  0.00     0.047 A 
ATOM      3  C   UNL     1      -3.354 -31.919  -5.394  1.00  0.00     0.119 A 
ATOM      4  C   UNL     1      -2.240 -32.115  -6.218  1.00  0.00     0.094 A 
ATOM      5  C   UNL     1      -0.949 -31.918  -5.715  1.00  0.00     0.142 A 
ATOM      6  C   UNL     1      -0.773 -31.520  -4.371  1.00  0.00     0.018 A 
ATOM      7  C   UNL     1       0.529 -31.331  -3.897  1.00  0.00     0.019 A 
ATOM      8  C   UNL     1       1.607 -31.539  -4.756  1.00  0.00     0.094 A 
ATOM      9  C   UNL     1       1.357 -31.932  -6.076  1.00  0.00     0.336 A 
ATOM     10  O   UNL     1       2.316 -32.125  -6.867  1.00  0.00    -0.246 OA
ATOM     11  O   UNL     1       0.108 -32.105  -6.501  1.00  0.00    -0.423 OA
ENDROOT
BRANCH   3  12
ATOM     12  O   UNL     1      -4.632 -32.119  -5.910  1.00  0.00    -0.508 OA
ATOM     13  H   UNL     1      -5.111 -33.007  -5.810  1.00  0.00     0.293 HD
ENDBRANCH   3  12
TORSDOF 1
ENDMDL
MODEL 2
REMARK VINA RESULT:    -2.404      0.781      4.221
REMARK INTER + INTRA:          -2.474
REMARK INTER:                  -2.474
REMARK INTRA:                   0.000
REMARK UNBOUND:                 0.000
REMARK SMILES O=c1ccc2ccc(O)cc2o1
REMARK SMILES IDX 6 1 7 2 8 3 10 4 11 5 5 6 4 7 3 8 2 9 1 10 12 11 9 12
REMARK H PARENT 9 13
REMARK Flexibility Score: inf
ROOT
ATOM      1  C   UNL     1       0.665 -31.354  -3.974  1.00  0.00     0.016 A 
ATOM      2  C   UNL     1       1.728 -31.548  -4.862  1.00  0.00     0.047 A 
ATOM      3  C   UNL     1       1.481 -31.930  -6.190  1.00  0.00     0.119 A 
ATOM      4  C   UNL     1       0.165 -32.117  -6.629  1.00  0.00     0.094 A 
ATOM      5  C   UNL     1      -0.905 -31.926  -5.748  1.00  0.00     0.142 A 
ATOM      6  C   UNL     1      -0.654 -31.542  -4.412  1.00  0.00     0.018 A 
ATOM      7  C   UNL     1      -1.744 -31.358  -3.556  1.00  0.00     0.019 A 
ATOM      8  C   UNL     1      -3.036 -31.558  -4.040  1.00  0.00     0.094 A 
ATOM      9  C   UNL     1      -3.209 -31.937  -5.375  1.00  0.00     0.336 A 
ATOM     10  O   UNL     1      -4.367 -32.122  -5.832  1.00  0.00    -0.246 OA
ATOM     11  O   UNL     1      -2.154 -32.105  -6.170  1.00  0.00    -0.423 OA
ENDROOT
BRANCH   3  12
ATOM     12  O   UNL     1       2.535 -32.124  -7.079  1.00  0.00    -0.508 OA
ATOM     13  H   UNL     1       3.179 -31.376  -7.309  1.00  0.00     0.293 HD
ENDBRANCH   3  12
TORSDOF 1
ENDMDL
MODEL 3
REMARK VINA RESULT:    -1.810      2.198      3.308
REMARK INTER + INTRA:          -1.863
REMARK INTER:                  -1.863
REMARK INTRA:                   0.000
REMARK UNBOUND:                 0.000
REMARK SMILES O=c1ccc2ccc(O)cc2o1
REMARK SMILES IDX 6 1 7 2 8 3 10 4 11 5 5 6 4 7 3 8 2 9 1 10 12 11 9 12
REMARK H PARENT 9 13
REMARK Flexibility Score: inf
ROOT
ATOM      1  C   UNL     1      -0.761 -32.125  -5.942  1.00  0.00     0.016 A 
ATOM      2  C   UNL     1      -1.099 -31.870  -4.609  1.00  0.00     0.047 A 
ATOM      3  C   UNL     1      -0.135 -31.373  -3.718  1.00  0.00     0.119 A 
ATOM      4  C   UNL     1       1.169 -31.131  -4.163  1.00  0.00     0.094 A 
ATOM      5  C   UNL     1       1.517 -31.383  -5.495  1.00  0.00     0.142 A 
ATOM      6  C   UNL     1       0.545 -31.884  -6.390  1.00  0.00     0.018 A 
ATOM      7  C   UNL     1       0.922 -32.125  -7.715  1.00  0.00     0.019 A 
ATOM      8  C   UNL     1       2.234 -31.868  -8.111  1.00  0.00     0.094 A 
ATOM      9  C   UNL     1       3.142 -31.372  -7.169  1.00  0.00     0.336 A 
ATOM     10  O   UNL     1       4.331 -31.134  -7.507  1.00  0.00    -0.246 OA
ATOM     11  O   UNL     1       2.758 -31.151  -5.915  1.00  0.00    -0.423 OA
ENDROOT
BRANCH   3  12
ATOM     12  O   UNL     1      -0.465 -31.117  -2.389  1.00  0.00    -0.508 OA
ATOM     13  H   UNL     1      -1.335 -30.663  -2.137  1.00  0.00     0.293 HD
ENDBRANCH   3  12
TORSDOF 1
ENDMDL
MODEL 4
REMARK VINA RESULT:    -1.721     23.196     24.088
REMARK INTER + INTRA:          -1.771
REMARK INTER:                  -1.771
REMARK INTRA:                   0.000
REMARK UNBOUND:                 0.000
REMARK SMILES O=c1ccc2ccc(O)cc2o1
REMARK SMILES IDX 6 1 7 2 8 3 10 4 11 5 5 6 4 7 3 8 2 9 1 10 12 11 9 12
REMARK H PARENT 9 13
REMARK Flexibility Score: inf
ROOT
ATOM      1  C   UNL     1       2.368 -11.960   8.500  1.00  0.00     0.016 A 
ATOM      2  C   UNL     1       2.165 -12.627   7.288  1.00  0.00     0.047 A 
ATOM      3  C   UNL     1       2.812 -13.846   7.033  1.00  0.00     0.119 A 
ATOM      4  C   UNL     1       3.664 -14.397   7.996  1.00  0.00     0.094 A 
ATOM      5  C   UNL     1       3.875 -13.737   9.212  1.00  0.00     0.142 A 
ATOM      6  C   UNL     1       3.222 -12.510   9.466  1.00  0.00     0.018 A 
ATOM      7  C   UNL     1       3.451 -11.875  10.690  1.00  0.00     0.019 A 
ATOM      8  C   UNL     1       4.310 -12.464  11.617  1.00  0.00     0.094 A 
ATOM      9  C   UNL     1       4.921 -13.681  11.297  1.00  0.00     0.336 A 
ATOM     10  O   UNL     1       5.699 -14.230  12.121  1.00  0.00    -0.246 OA
ATOM     11  O   UNL     1       4.686 -14.266  10.125  1.00  0.00    -0.423 OA
ENDROOT
BRANCH   3  12
ATOM     12  O   UNL     1       2.614 -14.515   5.828  1.00  0.00    -0.508 OA
ATOM     13  H   UNL     1       2.550 -15.526   5.787  1.00  0.00     0.293 HD
ENDBRANCH   3  12
TORSDOF 1
ENDMDL
MODEL 5
REMARK VINA RESULT:    -0.895     11.205     12.058
REMARK INTER + INTRA:          -0.921
REMARK INTER:                  -0.921
REMARK INTRA:                   0.000
REMARK UNBOUND:                 0.000
REMARK SMILES O=c1ccc2ccc(O)cc2o1
REMARK SMILES IDX 6 1 7 2 8 3 10 4 11 5 5 6 4 7 3 8 2 9 1 10 12 11 9 12
REMARK H PARENT 9 13
REMARK Flexibility Score: inf
ROOT
ATOM      1  C   UNL     1      -2.869 -22.747  -5.988  1.00  0.00     0.016 A 
ATOM      2  C   UNL     1      -1.813 -22.865  -5.079  1.00  0.00     0.047 A 
ATOM      3  C   UNL     1      -1.363 -21.743  -4.366  1.00  0.00     0.119 A 
ATOM      4  C   UNL     1      -1.973 -20.500  -4.565  1.00  0.00     0.094 A 
ATOM      5  C   UNL     1      -3.031 -20.371  -5.472  1.00  0.00     0.142 A 
ATOM      6  C   UNL     1      -3.482 -21.502  -6.188  1.00  0.00     0.018 A 
ATOM      7  C   UNL     1      -4.541 -21.343  -7.087  1.00  0.00     0.019 A 
ATOM      8  C   UNL     1      -5.116 -20.083  -7.250  1.00  0.00     0.094 A 
ATOM      9  C   UNL     1      -4.618 -19.008  -6.507  1.00  0.00     0.336 A 
ATOM     10  O   UNL     1      -5.124 -17.863  -6.639  1.00  0.00    -0.246 OA
ATOM     11  O   UNL     1      -3.609 -19.187  -5.657  1.00  0.00    -0.423 OA
ENDROOT
BRANCH   3  12
ATOM     12  O   UNL     1      -0.311 -21.854  -3.461  1.00  0.00    -0.508 OA
ATOM     13  H   UNL     1      -0.069 -21.095  -2.834  1.00  0.00     0.293 HD
ENDBRANCH   3  12
TORSDOF 1
ENDMDL
MODEL 6
REMARK VINA RESULT:    -0.797     11.299     11.663
REMARK INTER + INTRA:          -0.821
REMARK INTER:                  -0.821
REMARK INTRA:                   0.000
REMARK UNBOUND:                 0.000
REMARK SMILES O=c1ccc2ccc(O)cc2o1
REMARK SMILES IDX 6 1 7 2 8 3 10 4 11 5 5 6 4 7 3 8 2 9 1 10 12 11 9 12
REMARK H PARENT 9 13
REMARK Flexibility Score: inf
ROOT
ATOM      1  C   UNL     1      -4.601 -21.323  -7.054  1.00  0.00     0.016 A 
ATOM      2  C   UNL     1      -5.125 -20.049  -7.294  1.00  0.00     0.047 A 
ATOM      3  C   UNL     1      -4.607 -18.932  -6.619  1.00  0.00     0.119 A 
ATOM      4  C   UNL     1      -3.563 -19.094  -5.702  1.00  0.00     0.094 A 
ATOM      5  C   UNL     1      -3.032 -20.365  -5.455  1.00  0.00     0.142 A 
ATOM      6  C   UNL     1      -3.555 -21.487  -6.136  1.00  0.00     0.018 A 
ATOM      7  C   UNL     1      -3.003 -22.744  -5.868  1.00  0.00     0.019 A 
ATOM      8  C   UNL     1      -1.964 -22.853  -4.946  1.00  0.00     0.094 A 
ATOM      9  C   UNL     1      -1.497 -21.698  -4.310  1.00  0.00     0.336 A 
ATOM     10  O   UNL     1      -0.559 -21.775  -3.474  1.00  0.00    -0.246 OA
ATOM     11  O   UNL     1      -2.039 -20.513  -4.583  1.00  0.00    -0.423 OA
ENDROOT
BRANCH   3  12
ATOM     12  O   UNL     1      -5.125 -17.661  -6.854  1.00  0.00    -0.508 OA
ATOM     13  H   UNL     1      -6.093 -17.524  -7.119  1.00  0.00     0.293 HD
ENDBRANCH   3  12
TORSDOF 1
ENDMDL
MODEL 7
REMARK VINA RESULT:    -0.526     22.764     23.753
REMARK INTER + INTRA:          -0.541
REMARK INTER:                  -0.541
REMARK INTRA:                   0.000
REMARK UNBOUND:                 0.000
REMARK SMILES O=c1ccc2ccc(O)cc2o1
REMARK SMILES IDX 6 1 7 2 8 3 10 4 11 5 5 6 4 7 3 8 2 9 1 10 12 11 9 12
REMARK H PARENT 9 13
REMARK Flexibility Score: inf
ROOT
ATOM      1  C   UNL     1       2.796 -11.875   9.942  1.00  0.00     0.016 A 
ATOM      2  C   UNL     1       3.661 -12.296  10.957  1.00  0.00     0.047 A 
ATOM      3  C   UNL     1       4.469 -13.428  10.774  1.00  0.00     0.119 A 
ATOM      4  C   UNL     1       4.411 -14.140   9.571  1.00  0.00     0.094 A 
ATOM      5  C   UNL     1       3.548 -13.727   8.549  1.00  0.00     0.142 A 
ATOM      6  C   UNL     1       2.735 -12.587   8.736  1.00  0.00     0.018 A 
ATOM      7  C   UNL     1       1.885 -12.199   7.697  1.00  0.00     0.019 A 
ATOM      8  C   UNL     1       1.862 -12.941   6.517  1.00  0.00     0.094 A 
ATOM      9  C   UNL     1       2.695 -14.059   6.403  1.00  0.00     0.336 A 
ATOM     10  O   UNL     1       2.690 -14.742   5.345  1.00  0.00    -0.246 OA
ATOM     11  O   UNL     1       3.497 -14.407   7.407  1.00  0.00    -0.423 OA
ENDROOT
BRANCH   3  12
ATOM     12  O   UNL     1       5.332 -13.853  11.782  1.00  0.00    -0.508 OA
ATOM     13  H   UNL     1       5.326 -13.424  12.700  1.00  0.00     0.293 HD
ENDBRANCH   3  12
TORSDOF 1
ENDMDL
