MODEL 1
REMARK VINA RESULT:    -4.154      0.000      0.000
REMARK INTER + INTRA:         -10.076
REMARK INTER:                  -8.040
REMARK INTRA:                  -2.036
REMARK UNBOUND:                -2.036
REMARK SMILES CCCCCCCCCCCCCCCCCC(=O)[O-]
REMARK SMILES IDX 10 1 11 2 12 3 13 4 14 5 15 6 16 7 17 8 18 9 19 10 20 11
REMARK SMILES IDX 9 12 8 13 7 14 6 15 5 16 4 17 3 18 2 19 1 20
REMARK H PARENT
REMARK Flexibility Score: inf
ROOT
ATOM      1  C   UNL     1       4.138  22.958 114.585  1.00  0.00     0.000 C 
ENDROOT
BRANCH   1   2
ATOM      2  C   UNL     1       3.411  21.937 113.688  1.00  0.00     0.000 C 
BRANCH   2   3
ATOM      3  C   UNL     1       1.908  21.761 113.977  1.00  0.00     0.000 C 
BRANCH   3   4
ATOM      4  C   UNL     1       1.185  23.034 114.455  1.00  0.00     0.000 C 
BRANCH   4   5
ATOM      5  C   UNL     1       0.753  23.944 113.296  1.00  0.00     0.000 C 
BRANCH   5   6
ATOM      6  C   UNL     1       1.343  25.350 113.454  1.00  0.00     0.000 C 
BRANCH   6   7
ATOM      7  C   UNL     1       2.035  25.806 112.161  1.00  0.00     0.006 C 
BRANCH   7   8
ATOM      8  C   UNL     1       3.022  26.956 112.403  1.00  0.00     0.053 C 
BRANCH   8   9
ATOM      9  C   UNL     1       2.961  27.979 111.311  1.00  0.00     0.041 C 
ATOM     10  O   UNL     1       2.259  27.771 110.286  1.00  0.00    -0.550 OA
ATOM     11  O   UNL     1       3.706  29.148 111.410  1.00  0.00    -0.550 OA
ENDBRANCH   8   9
ENDBRANCH   7   8
ENDBRANCH   6   7
ENDBRANCH   5   6
ENDBRANCH   4   5
ENDBRANCH   3   4
ENDBRANCH   2   3
ENDBRANCH   1   2
BRANCH   1  12
ATOM     12  C   UNL     1       4.898  24.067 113.835  1.00  0.00     0.000 C 
BRANCH  12  13
ATOM     13  C   UNL     1       5.012  23.797 112.325  1.00  0.00    -0.000 C 
BRANCH  13  14
ATOM     14  C   UNL     1       6.399  24.146 111.756  1.00  0.00    -0.000 C 
BRANCH  14  15
ATOM     15  C   UNL     1       7.012  25.459 112.279  1.00  0.00    -0.000 C 
BRANCH  15  16
ATOM     16  C   UNL     1       6.665  26.674 111.405  1.00  0.00    -0.000 C 
BRANCH  16  17
ATOM     17  C   UNL     1       7.241  26.514 109.990  1.00  0.00    -0.000 C 
BRANCH  17  18
ATOM     18  C   UNL     1       6.149  26.334 108.923  1.00  0.00    -0.000 C 
BRANCH  18  19
ATOM     19  C   UNL     1       6.621  26.739 107.519  1.00  0.00    -0.003 C 
ATOM     20  C   UNL     1       7.512  25.661 106.907  1.00  0.00     0.004 C 
ENDBRANCH  18  19
ENDBRANCH  17  18
ENDBRANCH  16  17
ENDBRANCH  15  16
ENDBRANCH  14  15
ENDBRANCH  13  14
ENDBRANCH  12  13
ENDBRANCH   1  12
TORSDOF 16
ENDMDL
MODEL 2
REMARK VINA RESULT:    -4.052      3.039      5.953
REMARK INTER + INTRA:          -9.878
REMARK INTER:                  -6.654
REMARK INTRA:                  -3.224
REMARK UNBOUND:                -2.036
REMARK SMILES CCCCCCCCCCCCCCCCCC(=O)[O-]
REMARK SMILES IDX 10 1 11 2 12 3 13 4 14 5 15 6 16 7 17 8 18 9 19 10 20 11
REMARK SMILES IDX 9 12 8 13 7 14 6 15 5 16 4 17 3 18 2 19 1 20
REMARK H PARENT
REMARK Flexibility Score: inf
ROOT
ATOM      1  C   UNL     1       3.400  27.231 114.289  1.00  0.00     0.000 C 
ENDROOT
BRANCH   1   2
ATOM      2  C   UNL     1       1.907  26.888 114.114  1.00  0.00     0.000 C 
BRANCH   2   3
ATOM      3  C   UNL     1       1.527  26.281 112.750  1.00  0.00     0.000 C 
BRANCH   3   4
ATOM      4  C   UNL     1       2.642  25.468 112.068  1.00  0.00     0.000 C 
BRANCH   4   5
ATOM      5  C   UNL     1       2.947  25.954 110.643  1.00  0.00     0.000 C 
BRANCH   5   6
ATOM      6  C   UNL     1       4.419  26.359 110.506  1.00  0.00     0.000 C 
BRANCH   6   7
ATOM      7  C   UNL     1       5.297  25.593 111.507  1.00  0.00     0.006 C 
BRANCH   7   8
ATOM      8  C   UNL     1       6.456  26.448 112.036  1.00  0.00     0.053 C 
BRANCH   8   9
ATOM      9  C   UNL     1       7.652  26.380 111.137  1.00  0.00     0.041 C 
ATOM     10  O   UNL     1       8.638  25.662 111.448  1.00  0.00    -0.550 OA
ATOM     11  O   UNL     1       7.690  27.135 109.971  1.00  0.00    -0.550 OA
ENDBRANCH   8   9
ENDBRANCH   7   8
ENDBRANCH   6   7
ENDBRANCH   5   6
ENDBRANCH   4   5
ENDBRANCH   3   4
ENDBRANCH   2   3
ENDBRANCH   1   2
BRANCH   1  12
ATOM     12  C   UNL     1       3.687  28.558 115.017  1.00  0.00     0.000 C 
BRANCH  12  13
ATOM     13  C   UNL     1       4.256  29.640 114.085  1.00  0.00    -0.000 C 
BRANCH  13  14
ATOM     14  C   UNL     1       4.077  29.302 112.594  1.00  0.00    -0.000 C 
BRANCH  14  15
ATOM     15  C   UNL     1       3.189  30.280 111.801  1.00  0.00    -0.000 C 
BRANCH  15  16
ATOM     16  C   UNL     1       2.576  29.650 110.542  1.00  0.00    -0.000 C 
BRANCH  16  17
ATOM     17  C   UNL     1       1.066  29.431 110.718  1.00  0.00    -0.000 C 
BRANCH  17  18
ATOM     18  C   UNL     1       0.453  30.357 111.781  1.00  0.00    -0.000 C 
BRANCH  18  19
ATOM     19  C   UNL     1      -0.250  29.583 112.906  1.00  0.00    -0.003 C 
ATOM     20  C   UNL     1       0.098  30.166 114.273  1.00  0.00     0.004 C 
ENDBRANCH  18  19
ENDBRANCH  17  18
ENDBRANCH  16  17
ENDBRANCH  15  16
ENDBRANCH  14  15
ENDBRANCH  13  14
ENDBRANCH  12  13
ENDBRANCH   1  12
TORSDOF 16
ENDMDL
MODEL 3
REMARK VINA RESULT:    -4.052      2.358      6.284
REMARK INTER + INTRA:          -9.878
REMARK INTER:                  -7.183
REMARK INTRA:                  -2.695
REMARK UNBOUND:                -2.036
REMARK SMILES CCCCCCCCCCCCCCCCCC(=O)[O-]
REMARK SMILES IDX 10 1 11 2 12 3 13 4 14 5 15 6 16 7 17 8 18 9 19 10 20 11
REMARK SMILES IDX 9 12 8 13 7 14 6 15 5 16 4 17 3 18 2 19 1 20
REMARK H PARENT
REMARK Flexibility Score: inf
ROOT
ATOM      1  C   UNL     1       3.355  25.911 110.710  1.00  0.00     0.000 C 
ENDROOT
BRANCH   1   2
ATOM      2  C   UNL     1       4.093  25.015 111.725  1.00  0.00     0.000 C 
BRANCH   2   3
ATOM      3  C   UNL     1       4.542  25.720 113.019  1.00  0.00     0.000 C 
BRANCH   3   4
ATOM      4  C   UNL     1       6.031  25.546 113.370  1.00  0.00     0.000 C 
BRANCH   4   5
ATOM      5  C   UNL     1       6.966  26.141 112.307  1.00  0.00     0.000 C 
BRANCH   5   6
ATOM      6  C   UNL     1       7.795  25.043 111.631  1.00  0.00     0.000 C 
BRANCH   6   7
ATOM      7  C   UNL     1       7.504  24.983 110.124  1.00  0.00     0.006 C 
BRANCH   7   8
ATOM      8  C   UNL     1       7.042  26.336 109.567  1.00  0.00     0.053 C 
BRANCH   8   9
ATOM      9  C   UNL     1       6.980  26.329 108.070  1.00  0.00     0.041 C 
ATOM     10  O   UNL     1       7.904  25.798 107.401  1.00  0.00    -0.550 OA
ATOM     11  O   UNL     1       5.917  26.937 107.414  1.00  0.00    -0.550 OA
ENDBRANCH   8   9
ENDBRANCH   7   8
ENDBRANCH   6   7
ENDBRANCH   5   6
ENDBRANCH   4   5
ENDBRANCH   3   4
ENDBRANCH   2   3
ENDBRANCH   1   2
BRANCH   1  12
ATOM     12  C   UNL     1       3.646  27.418 110.832  1.00  0.00     0.000 C 
BRANCH  12  13
ATOM     13  C   UNL     1       2.640  28.286 110.059  1.00  0.00    -0.000 C 
BRANCH  13  14
ATOM     14  C   UNL     1       2.091  29.457 110.894  1.00  0.00    -0.000 C 
BRANCH  14  15
ATOM     15  C   UNL     1       1.079  29.066 111.987  1.00  0.00    -0.000 C 
BRANCH  15  16
ATOM     16  C   UNL     1       1.627  29.254 113.409  1.00  0.00    -0.000 C 
BRANCH  16  17
ATOM     17  C   UNL     1       1.725  27.906 114.141  1.00  0.00    -0.000 C 
BRANCH  17  18
ATOM     18  C   UNL     1       0.954  26.786 113.424  1.00  0.00    -0.000 C 
BRANCH  18  19
ATOM     19  C   UNL     1       0.944  25.472 114.220  1.00  0.00    -0.003 C 
ATOM     20  C   UNL     1       0.731  24.274 113.299  1.00  0.00     0.004 C 
ENDBRANCH  18  19
ENDBRANCH  17  18
ENDBRANCH  16  17
ENDBRANCH  15  16
ENDBRANCH  14  15
ENDBRANCH  13  14
ENDBRANCH  12  13
ENDBRANCH   1  12
TORSDOF 16
ENDMDL
MODEL 4
REMARK VINA RESULT:    -4.049      1.918      5.413
REMARK INTER + INTRA:          -9.872
REMARK INTER:                  -8.124
REMARK INTRA:                  -1.747
REMARK UNBOUND:                -2.036
REMARK SMILES CCCCCCCCCCCCCCCCCC(=O)[O-]
REMARK SMILES IDX 10 1 11 2 12 3 13 4 14 5 15 6 16 7 17 8 18 9 19 10 20 11
REMARK SMILES IDX 9 12 8 13 7 14 6 15 5 16 4 17 3 18 2 19 1 20
REMARK H PARENT
REMARK Flexibility Score: inf
ROOT
ATOM      1  C   UNL     1       3.541  22.457 114.372  1.00  0.00     0.000 C 
ENDROOT
BRANCH   1   2
ATOM      2  C   UNL     1       4.311  23.016 113.159  1.00  0.00     0.000 C 
BRANCH   2   3
ATOM      3  C   UNL     1       5.189  24.249 113.448  1.00  0.00     0.000 C 
BRANCH   3   4
ATOM      4  C   UNL     1       5.863  24.871 112.211  1.00  0.00     0.000 C 
BRANCH   4   5
ATOM      5  C   UNL     1       7.202  25.546 112.539  1.00  0.00     0.000 C 
BRANCH   5   6
ATOM      6  C   UNL     1       8.228  25.297 111.428  1.00  0.00     0.000 C 
BRANCH   6   7
ATOM      7  C   UNL     1       8.136  26.378 110.341  1.00  0.00     0.006 C 
BRANCH   7   8
ATOM      8  C   UNL     1       8.220  25.790 108.926  1.00  0.00     0.053 C 
BRANCH   8   9
ATOM      9  C   UNL     1       7.049  26.195 108.085  1.00  0.00     0.041 C 
ATOM     10  O   UNL     1       6.031  26.706 108.621  1.00  0.00    -0.550 OA
ATOM     11  O   UNL     1       7.069  25.979 106.712  1.00  0.00    -0.550 OA
ENDBRANCH   8   9
ENDBRANCH   7   8
ENDBRANCH   6   7
ENDBRANCH   5   6
ENDBRANCH   4   5
ENDBRANCH   3   4
ENDBRANCH   2   3
ENDBRANCH   1   2
BRANCH   1  12
ATOM     12  C   UNL     1       2.175  21.824 114.046  1.00  0.00     0.000 C 
BRANCH  12  13
ATOM     13  C   UNL     1       0.992  22.741 114.397  1.00  0.00    -0.000 C 
BRANCH  13  14
ATOM     14  C   UNL     1       0.749  23.836 113.341  1.00  0.00    -0.000 C 
BRANCH  14  15
ATOM     15  C   UNL     1       0.597  25.264 113.899  1.00  0.00    -0.000 C 
BRANCH  15  16
ATOM     16  C   UNL     1       1.544  26.273 113.233  1.00  0.00    -0.000 C 
BRANCH  16  17
ATOM     17  C   UNL     1       2.240  25.650 112.013  1.00  0.00    -0.000 C 
BRANCH  17  18
ATOM     18  C   UNL     1       2.693  26.701 110.988  1.00  0.00    -0.000 C 
BRANCH  18  19
ATOM     19  C   UNL     1       3.707  27.696 111.570  1.00  0.00    -0.003 C 
ATOM     20  C   UNL     1       3.168  29.123 111.519  1.00  0.00     0.004 C 
ENDBRANCH  18  19
ENDBRANCH  17  18
ENDBRANCH  16  17
ENDBRANCH  15  16
ENDBRANCH  14  15
ENDBRANCH  13  14
ENDBRANCH  12  13
ENDBRANCH   1  12
TORSDOF 16
ENDMDL
MODEL 5
REMARK VINA RESULT:    -4.002      2.481      3.989
REMARK INTER + INTRA:          -9.781
REMARK INTER:                  -7.328
REMARK INTRA:                  -2.453
REMARK UNBOUND:                -2.036
REMARK SMILES CCCCCCCCCCCCCCCCCC(=O)[O-]
REMARK SMILES IDX 10 1 11 2 12 3 13 4 14 5 15 6 16 7 17 8 18 9 19 10 20 11
REMARK SMILES IDX 9 12 8 13 7 14 6 15 5 16 4 17 3 18 2 19 1 20
REMARK H PARENT
REMARK Flexibility Score: inf
ROOT
ATOM      1  C   UNL     1       2.634  25.909 111.087  1.00  0.00     0.000 C 
ENDROOT
BRANCH   1   2
ATOM      2  C   UNL     1       2.251  27.311 111.601  1.00  0.00     0.000 C 
BRANCH   2   3
ATOM      3  C   UNL     1       1.399  27.331 112.885  1.00  0.00     0.000 C 
BRANCH   3   4
ATOM      4  C   UNL     1       2.172  27.679 114.171  1.00  0.00     0.000 C 
BRANCH   4   5
ATOM      5  C   UNL     1       3.174  26.588 114.576  1.00  0.00     0.000 C 
BRANCH   5   6
ATOM      6  C   UNL     1       2.460  25.412 115.252  1.00  0.00     0.000 C 
BRANCH   6   7
ATOM      7  C   UNL     1       3.087  24.073 114.834  1.00  0.00     0.006 C 
BRANCH   7   8
ATOM      8  C   UNL     1       2.259  23.355 113.760  1.00  0.00     0.053 C 
BRANCH   8   9
ATOM      9  C   UNL     1       0.803  23.321 114.111  1.00  0.00     0.041 C 
ATOM     10  O   UNL     1      -0.044  23.860 113.352  1.00  0.00    -0.550 OA
ATOM     11  O   UNL     1       0.386  22.721 115.293  1.00  0.00    -0.550 OA
ENDBRANCH   8   9
ENDBRANCH   7   8
ENDBRANCH   6   7
ENDBRANCH   5   6
ENDBRANCH   4   5
ENDBRANCH   3   4
ENDBRANCH   2   3
ENDBRANCH   1   2
BRANCH   1  12
ATOM     12  C   UNL     1       4.109  25.740 110.680  1.00  0.00     0.000 C 
BRANCH  12  13
ATOM     13  C   UNL     1       4.868  24.753 111.583  1.00  0.00    -0.000 C 
BRANCH  13  14
ATOM     14  C   UNL     1       6.148  25.357 112.189  1.00  0.00    -0.000 C 
BRANCH  14  15
ATOM     15  C   UNL     1       6.345  26.864 111.938  1.00  0.00    -0.000 C 
BRANCH  15  16
ATOM     16  C   UNL     1       7.471  27.165 110.938  1.00  0.00    -0.000 C 
BRANCH  16  17
ATOM     17  C   UNL     1       8.215  25.879 110.548  1.00  0.00    -0.000 C 
BRANCH  17  18
ATOM     18  C   UNL     1       8.195  25.619 109.033  1.00  0.00    -0.000 C 
BRANCH  18  19
ATOM     19  C   UNL     1       6.992  26.271 108.337  1.00  0.00    -0.003 C 
ATOM     20  C   UNL     1       7.145  26.225 106.819  1.00  0.00     0.004 C 
ENDBRANCH  18  19
ENDBRANCH  17  18
ENDBRANCH  16  17
ENDBRANCH  15  16
ENDBRANCH  14  15
ENDBRANCH  13  14
ENDBRANCH  12  13
ENDBRANCH   1  12
TORSDOF 16
ENDMDL
MODEL 6
REMARK VINA RESULT:    -3.961      2.897      4.943
REMARK INTER + INTRA:          -9.703
REMARK INTER:                  -7.838
REMARK INTRA:                  -1.865
REMARK UNBOUND:                -2.036
REMARK SMILES CCCCCCCCCCCCCCCCCC(=O)[O-]
REMARK SMILES IDX 10 1 11 2 12 3 13 4 14 5 15 6 16 7 17 8 18 9 19 10 20 11
REMARK SMILES IDX 9 12 8 13 7 14 6 15 5 16 4 17 3 18 2 19 1 20
REMARK H PARENT
REMARK Flexibility Score: inf
ROOT
ATOM      1  C   UNL     1       2.801  26.853 111.320  1.00  0.00     0.000 C 
ENDROOT
BRANCH   1   2
ATOM      2  C   UNL     1       3.209  27.889 110.254  1.00  0.00     0.000 C 
BRANCH   2   3
ATOM      3  C   UNL     1       2.192  29.022 110.014  1.00  0.00     0.000 C 
BRANCH   3   4
ATOM      4  C   UNL     1       2.586  30.385 110.613  1.00  0.00     0.000 C 
BRANCH   4   5
ATOM      5  C   UNL     1       2.621  30.373 112.148  1.00  0.00     0.000 C 
BRANCH   5   6
ATOM      6  C   UNL     1       3.957  30.914 112.670  1.00  0.00     0.000 C 
BRANCH   6   7
ATOM      7  C   UNL     1       4.774  29.802 113.345  1.00  0.00     0.006 C 
BRANCH   7   8
ATOM      8  C   UNL     1       5.470  30.287 114.624  1.00  0.00     0.053 C 
BRANCH   8   9
ATOM      9  C   UNL     1       6.401  31.428 114.352  1.00  0.00     0.041 C 
ATOM     10  O   UNL     1       6.288  32.505 114.993  1.00  0.00    -0.550 OA
ATOM     11  O   UNL     1       7.373  31.313 113.365  1.00  0.00    -0.550 OA
ENDBRANCH   8   9
ENDBRANCH   7   8
ENDBRANCH   6   7
ENDBRANCH   5   6
ENDBRANCH   4   5
ENDBRANCH   3   4
ENDBRANCH   2   3
ENDBRANCH   1   2
BRANCH   1  12
ATOM     12  C   UNL     1       3.376  25.439 111.115  1.00  0.00     0.000 C 
BRANCH  12  13
ATOM     13  C   UNL     1       4.310  25.004 112.256  1.00  0.00    -0.000 C 
BRANCH  13  14
ATOM     14  C   UNL     1       5.282  26.115 112.693  1.00  0.00    -0.000 C 
BRANCH  14  15
ATOM     15  C   UNL     1       6.544  26.263 111.823  1.00  0.00    -0.000 C 
BRANCH  15  16
ATOM     16  C   UNL     1       7.041  24.927 111.253  1.00  0.00    -0.000 C 
BRANCH  16  17
ATOM     17  C   UNL     1       7.474  25.084 109.787  1.00  0.00    -0.000 C 
BRANCH  17  18
ATOM     18  C   UNL     1       7.132  26.468 109.214  1.00  0.00    -0.000 C 
BRANCH  18  19
ATOM     19  C   UNL     1       6.438  26.387 107.846  1.00  0.00    -0.003 C 
ATOM     20  C   UNL     1       7.402  25.894 106.770  1.00  0.00     0.004 C 
ENDBRANCH  18  19
ENDBRANCH  17  18
ENDBRANCH  16  17
ENDBRANCH  15  16
ENDBRANCH  14  15
ENDBRANCH  13  14
ENDBRANCH  12  13
ENDBRANCH   1  12
TORSDOF 16
ENDMDL
MODEL 7
REMARK VINA RESULT:    -3.902      3.382      4.822
REMARK INTER + INTRA:          -9.588
REMARK INTER:                  -8.202
REMARK INTRA:                  -1.386
REMARK UNBOUND:                -2.036
REMARK SMILES CCCCCCCCCCCCCCCCCC(=O)[O-]
REMARK SMILES IDX 10 1 11 2 12 3 13 4 14 5 15 6 16 7 17 8 18 9 19 10 20 11
REMARK SMILES IDX 9 12 8 13 7 14 6 15 5 16 4 17 3 18 2 19 1 20
REMARK H PARENT
REMARK Flexibility Score: inf
ROOT
ATOM      1  C   UNL     1       2.403  27.266 110.754  1.00  0.00     0.000 C 
ENDROOT
BRANCH   1   2
ATOM      2  C   UNL     1       1.849  27.743 112.111  1.00  0.00     0.000 C 
BRANCH   2   3
ATOM      3  C   UNL     1       2.205  26.853 113.317  1.00  0.00     0.000 C 
BRANCH   3   4
ATOM      4  C   UNL     1       3.383  27.359 114.171  1.00  0.00     0.000 C 
BRANCH   4   5
ATOM      5  C   UNL     1       4.123  28.539 113.525  1.00  0.00     0.000 C 
BRANCH   5   6
ATOM      6  C   UNL     1       4.261  29.705 114.511  1.00  0.00     0.000 C 
BRANCH   6   7
ATOM      7  C   UNL     1       5.721  30.168 114.616  1.00  0.00     0.006 C 
BRANCH   7   8
ATOM      8  C   UNL     1       5.850  31.697 114.593  1.00  0.00     0.053 C 
BRANCH   8   9
ATOM      9  C   UNL     1       7.193  32.148 115.081  1.00  0.00     0.041 C 
ATOM     10  O   UNL     1       8.165  31.349 115.089  1.00  0.00    -0.550 OA
ATOM     11  O   UNL     1       7.361  33.443 115.558  1.00  0.00    -0.550 OA
ENDBRANCH   8   9
ENDBRANCH   7   8
ENDBRANCH   6   7
ENDBRANCH   5   6
ENDBRANCH   4   5
ENDBRANCH   3   4
ENDBRANCH   2   3
ENDBRANCH   1   2
BRANCH   1  12
ATOM     12  C   UNL     1       3.053  25.870 110.766  1.00  0.00     0.000 C 
BRANCH  12  13
ATOM     13  C   UNL     1       4.590  25.926 110.752  1.00  0.00    -0.000 C 
BRANCH  13  14
ATOM     14  C   UNL     1       5.237  24.866 111.661  1.00  0.00    -0.000 C 
BRANCH  14  15
ATOM     15  C   UNL     1       6.657  24.430 111.254  1.00  0.00    -0.000 C 
BRANCH  15  16
ATOM     16  C   UNL     1       7.728  25.474 111.599  1.00  0.00    -0.000 C 
BRANCH  16  17
ATOM     17  C   UNL     1       8.214  26.199 110.334  1.00  0.00    -0.000 C 
BRANCH  17  18
ATOM     18  C   UNL     1       7.838  25.454 109.044  1.00  0.00    -0.000 C 
BRANCH  18  19
ATOM     19  C   UNL     1       6.972  26.303 108.101  1.00  0.00    -0.003 C 
ATOM     20  C   UNL     1       7.390  26.107 106.646  1.00  0.00     0.004 C 
ENDBRANCH  18  19
ENDBRANCH  17  18
ENDBRANCH  16  17
ENDBRANCH  15  16
ENDBRANCH  14  15
ENDBRANCH  13  14
ENDBRANCH  12  13
ENDBRANCH   1  12
TORSDOF 16
ENDMDL
MODEL 8
REMARK VINA RESULT:    -3.893      2.728      6.271
REMARK INTER + INTRA:          -9.571
REMARK INTER:                  -6.972
REMARK INTRA:                  -2.599
REMARK UNBOUND:                -2.036
REMARK SMILES CCCCCCCCCCCCCCCCCC(=O)[O-]
REMARK SMILES IDX 10 1 11 2 12 3 13 4 14 5 15 6 16 7 17 8 18 9 19 10 20 11
REMARK SMILES IDX 9 12 8 13 7 14 6 15 5 16 4 17 3 18 2 19 1 20
REMARK H PARENT
REMARK Flexibility Score: inf
ROOT
ATOM      1  C   UNL     1       3.329  27.950 110.886  1.00  0.00     0.000 C 
ENDROOT
BRANCH   1   2
ATOM      2  C   UNL     1       3.176  26.442 110.604  1.00  0.00     0.000 C 
BRANCH   2   3
ATOM      3  C   UNL     1       2.750  25.587 111.813  1.00  0.00     0.000 C 
BRANCH   3   4
ATOM      4  C   UNL     1       3.851  25.354 112.865  1.00  0.00     0.000 C 
BRANCH   4   5
ATOM      5  C   UNL     1       4.662  24.077 112.603  1.00  0.00     0.000 C 
BRANCH   5   6
ATOM      6  C   UNL     1       5.796  24.342 111.605  1.00  0.00     0.000 C 
BRANCH   6   7
ATOM      7  C   UNL     1       6.820  25.329 112.185  1.00  0.00     0.006 C 
BRANCH   7   8
ATOM      8  C   UNL     1       6.884  26.637 111.386  1.00  0.00     0.053 C 
BRANCH   8   9
ATOM      9  C   UNL     1       7.242  26.394 109.952  1.00  0.00     0.041 C 
ATOM     10  O   UNL     1       8.351  25.878 109.654  1.00  0.00    -0.550 OA
ATOM     11  O   UNL     1       6.363  26.768 108.942  1.00  0.00    -0.550 OA
ENDBRANCH   8   9
ENDBRANCH   7   8
ENDBRANCH   6   7
ENDBRANCH   5   6
ENDBRANCH   4   5
ENDBRANCH   3   4
ENDBRANCH   2   3
ENDBRANCH   1   2
BRANCH   1  12
ATOM     12  C   UNL     1       2.536  28.876 109.945  1.00  0.00     0.000 C 
BRANCH  12  13
ATOM     13  C   UNL     1       1.751  29.962 110.699  1.00  0.00    -0.000 C 
BRANCH  13  14
ATOM     14  C   UNL     1       0.403  29.458 111.246  1.00  0.00    -0.000 C 
BRANCH  14  15
ATOM     15  C   UNL     1       0.131  29.787 112.726  1.00  0.00    -0.000 C 
BRANCH  15  16
ATOM     16  C   UNL     1       0.270  28.568 113.649  1.00  0.00    -0.000 C 
BRANCH  16  17
ATOM     17  C   UNL     1       1.730  28.380 114.092  1.00  0.00    -0.000 C 
BRANCH  17  18
ATOM     18  C   UNL     1       2.410  29.705 114.468  1.00  0.00    -0.000 C 
BRANCH  18  19
ATOM     19  C   UNL     1       3.886  29.754 114.047  1.00  0.00    -0.003 C 
ATOM     20  C   UNL     1       4.177  31.000 113.213  1.00  0.00     0.004 C 
ENDBRANCH  18  19
ENDBRANCH  17  18
ENDBRANCH  16  17
ENDBRANCH  15  16
ENDBRANCH  14  15
ENDBRANCH  13  14
ENDBRANCH  12  13
ENDBRANCH   1  12
TORSDOF 16
ENDMDL
MODEL 9
REMARK VINA RESULT:    -3.853      2.506      5.742
REMARK INTER + INTRA:          -9.492
REMARK INTER:                  -6.399
REMARK INTRA:                  -3.093
REMARK UNBOUND:                -2.036
REMARK SMILES CCCCCCCCCCCCCCCCCC(=O)[O-]
REMARK SMILES IDX 10 1 11 2 12 3 13 4 14 5 15 6 16 7 17 8 18 9 19 10 20 11
REMARK SMILES IDX 9 12 8 13 7 14 6 15 5 16 4 17 3 18 2 19 1 20
REMARK H PARENT
REMARK Flexibility Score: inf
ROOT
ATOM      1  C   UNL     1       3.402  28.864 113.132  1.00  0.00     0.000 C 
ENDROOT
BRANCH   1   2
ATOM      2  C   UNL     1       2.322  27.781 112.938  1.00  0.00     0.000 C 
BRANCH   2   3
ATOM      3  C   UNL     1       1.930  27.499 111.475  1.00  0.00     0.000 C 
BRANCH   3   4
ATOM      4  C   UNL     1       3.071  26.969 110.587  1.00  0.00     0.000 C 
BRANCH   4   5
ATOM      5  C   UNL     1       3.466  25.524 110.924  1.00  0.00     0.000 C 
BRANCH   5   6
ATOM      6  C   UNL     1       4.986  25.392 111.075  1.00  0.00     0.000 C 
BRANCH   6   7
ATOM      7  C   UNL     1       5.705  26.624 110.506  1.00  0.00     0.006 C 
BRANCH   7   8
ATOM      8  C   UNL     1       7.090  26.830 111.134  1.00  0.00     0.053 C 
BRANCH   8   9
ATOM      9  C   UNL     1       8.129  25.973 110.478  1.00  0.00     0.041 C 
ATOM     10  O   UNL     1       8.014  25.652 109.267  1.00  0.00    -0.550 OA
ATOM     11  O   UNL     1       9.210  25.502 111.215  1.00  0.00    -0.550 OA
ENDBRANCH   8   9
ENDBRANCH   7   8
ENDBRANCH   6   7
ENDBRANCH   5   6
ENDBRANCH   4   5
ENDBRANCH   3   4
ENDBRANCH   2   3
ENDBRANCH   1   2
BRANCH   1  12
ATOM     12  C   UNL     1       4.749  28.356 113.681  1.00  0.00     0.000 C 
BRANCH  12  13
ATOM     13  C   UNL     1       4.627  27.005 114.405  1.00  0.00    -0.000 C 
BRANCH  13  14
ATOM     14  C   UNL     1       5.987  26.317 114.624  1.00  0.00    -0.000 C 
BRANCH  14  15
ATOM     15  C   UNL     1       5.957  24.778 114.595  1.00  0.00    -0.000 C 
BRANCH  15  16
ATOM     16  C   UNL     1       4.572  24.198 114.919  1.00  0.00    -0.000 C 
BRANCH  16  17
ATOM     17  C   UNL     1       4.106  23.240 113.812  1.00  0.00    -0.000 C 
BRANCH  17  18
ATOM     18  C   UNL     1       2.670  22.738 114.028  1.00  0.00    -0.000 C 
BRANCH  18  19
ATOM     19  C   UNL     1       1.699  23.867 114.405  1.00  0.00    -0.003 C 
ATOM     20  C   UNL     1       0.779  24.213 113.237  1.00  0.00     0.004 C 
ENDBRANCH  18  19
ENDBRANCH  17  18
ENDBRANCH  16  17
ENDBRANCH  15  16
ENDBRANCH  14  15
ENDBRANCH  13  14
ENDBRANCH  12  13
ENDBRANCH   1  12
TORSDOF 16
ENDMDL
