MODEL 1
REMARK VINA RESULT:    -6.468      0.000      0.000
REMARK INTER + INTRA:          -7.899
REMARK INTER:                  -7.791
REMARK INTRA:                  -0.108
REMARK UNBOUND:                -0.108
REMARK SMILES O=c1c(O)c(-c2ccc(O)c(O)c2)oc2cc(O)cc(O)c12
REMARK SMILES IDX 5 1 3 2 2 3 1 4 22 5 20 6 19 7 17 8 16 9 15 10 14 11 6 12
REMARK SMILES IDX 7 13 8 14 9 15 13 16 11 17 10 18 12 20 4 22 21 24 18 26
REMARK H PARENT 10 19 12 21 4 23 21 25 18 27
REMARK Flexibility Score: inf
ROOT
ATOM      1  C   UNL     1      42.621  -8.368  40.508  1.00  0.00     0.180 A 
ATOM      2  C   UNL     1      43.476  -7.254  40.441  1.00  0.00     0.208 A 
ATOM      3  C   UNL     1      44.837  -7.456  40.168  1.00  0.00     0.238 A 
ATOM      4  O   UNL     1      45.587  -6.452  40.055  1.00  0.00    -0.285 OA
ATOM      5  C   UNL     1      45.331  -8.770  39.983  1.00  0.00     0.111 A 
ATOM      6  C   UNL     1      46.700  -9.094  39.741  1.00  0.00     0.134 A 
ATOM      7  C   UNL     1      47.054 -10.416  39.443  1.00  0.00     0.093 A 
ATOM      8  C   UNL     1      46.098 -11.435  39.441  1.00  0.00     0.123 A 
ATOM      9  C   UNL     1      44.769 -11.137  39.734  1.00  0.00     0.094 A 
ATOM     10  C   UNL     1      44.380  -9.823  40.001  1.00  0.00     0.146 A 
ATOM     11  O   UNL     1      43.101  -9.581  40.264  1.00  0.00    -0.452 OA
ENDROOT
BRANCH   1  12
ATOM     12  C   UNL     1      41.179  -8.236  40.816  1.00  0.00     0.025 A 
ATOM     13  C   UNL     1      40.665  -8.823  41.984  1.00  0.00     0.016 A 
ATOM     14  C   UNL     1      39.313  -8.693  42.306  1.00  0.00     0.051 A 
ATOM     15  C   UNL     1      38.455  -7.964  41.476  1.00  0.00     0.157 A 
ATOM     16  C   UNL     1      40.319  -7.487  39.993  1.00  0.00     0.062 A 
ATOM     17  C   UNL     1      38.960  -7.353  40.316  1.00  0.00     0.158 A 
BRANCH  15  18
ATOM     18  O   UNL     1      37.108  -7.854  41.822  1.00  0.00    -0.504 OA
ATOM     19  H   UNL     1      36.802  -7.828  42.787  1.00  0.00     0.293 HD
ENDBRANCH  15  18
BRANCH  17  20
ATOM     20  O   UNL     1      38.114  -6.613  39.492  1.00  0.00    -0.504 OA
ATOM     21  H   UNL     1      38.476  -6.022  38.753  1.00  0.00     0.293 HD
ENDBRANCH  17  20
ENDBRANCH   1  12
BRANCH   2  22
ATOM     22  O   UNL     1      42.963  -5.964  40.606  1.00  0.00    -0.502 OA
ATOM     23  H   UNL     1      43.510  -5.207  40.999  1.00  0.00     0.293 HD
ENDBRANCH   2  22
BRANCH   6  24
ATOM     24  O   UNL     1      47.746  -8.169  39.809  1.00  0.00    -0.507 OA
ATOM     25  H   UNL     1      47.888  -7.415  39.155  1.00  0.00     0.293 HD
ENDBRANCH   6  24
BRANCH   8  26
ATOM     26  O   UNL     1      46.461 -12.750  39.159  1.00  0.00    -0.508 OA
ATOM     27  H   UNL     1      46.826 -13.016  38.251  1.00  0.00     0.293 HD
ENDBRANCH   8  26
TORSDOF 6
ENDMDL
MODEL 2
REMARK VINA RESULT:    -5.984      9.860     12.162
REMARK INTER + INTRA:          -7.316
REMARK INTER:                  -7.011
REMARK INTRA:                  -0.305
REMARK UNBOUND:                -0.108
REMARK SMILES O=c1c(O)c(-c2ccc(O)c(O)c2)oc2cc(O)cc(O)c12
REMARK SMILES IDX 5 1 3 2 2 3 1 4 22 5 20 6 19 7 17 8 16 9 15 10 14 11 6 12
REMARK SMILES IDX 7 13 8 14 9 15 13 16 11 17 10 18 12 20 4 22 21 24 18 26
REMARK H PARENT 10 19 12 21 4 23 21 25 18 27
REMARK Flexibility Score: inf
ROOT
ATOM      1  C   UNL     1      34.917 -11.744  34.356  1.00  0.00     0.180 A 
ATOM      2  C   UNL     1      34.868 -12.541  35.513  1.00  0.00     0.208 A 
ATOM      3  C   UNL     1      34.539 -11.941  36.739  1.00  0.00     0.238 A 
ATOM      4  O   UNL     1      34.445 -12.668  37.762  1.00  0.00    -0.285 OA
ATOM      5  C   UNL     1      34.280 -10.551  36.796  1.00  0.00     0.111 A 
ATOM      6  C   UNL     1      33.976  -9.831  37.990  1.00  0.00     0.134 A 
ATOM      7  C   UNL     1      33.608  -8.482  37.909  1.00  0.00     0.093 A 
ATOM      8  C   UNL     1      33.596  -7.811  36.684  1.00  0.00     0.123 A 
ATOM      9  C   UNL     1      33.948  -8.491  35.520  1.00  0.00     0.094 A 
ATOM     10  C   UNL     1      34.285  -9.845  35.565  1.00  0.00     0.146 A 
ATOM     11  O   UNL     1      34.604 -10.457  34.430  1.00  0.00    -0.452 OA
ENDROOT
BRANCH   1  12
ATOM     12  C   UNL     1      35.281 -12.301  33.033  1.00  0.00     0.025 A 
ATOM     13  C   UNL     1      34.275 -12.533  32.081  1.00  0.00     0.016 A 
ATOM     14  C   UNL     1      34.597 -13.037  30.819  1.00  0.00     0.051 A 
ATOM     15  C   UNL     1      35.928 -13.303  30.482  1.00  0.00     0.157 A 
ATOM     16  C   UNL     1      36.621 -12.549  32.685  1.00  0.00     0.062 A 
ATOM     17  C   UNL     1      36.946 -13.053  31.417  1.00  0.00     0.158 A 
BRANCH  15  18
ATOM     18  O   UNL     1      36.219 -13.808  29.215  1.00  0.00    -0.504 OA
ATOM     19  H   UNL     1      35.834 -14.685  28.885  1.00  0.00     0.293 HD
ENDBRANCH  15  18
BRANCH  17  20
ATOM     20  O   UNL     1      38.276 -13.302  31.083  1.00  0.00    -0.504 OA
ATOM     21  H   UNL     1      38.674 -14.233  31.142  1.00  0.00     0.293 HD
ENDBRANCH  17  20
ENDBRANCH   1  12
BRANCH   2  22
ATOM     22  O   UNL     1      35.107 -13.915  35.431  1.00  0.00    -0.502 OA
ATOM     23  H   UNL     1      34.513 -14.599  35.884  1.00  0.00     0.293 HD
ENDBRANCH   2  22
BRANCH   6  24
ATOM     24  O   UNL     1      34.047 -10.382  39.273  1.00  0.00    -0.507 OA
ATOM     25  H   UNL     1      33.408 -11.070  39.639  1.00  0.00     0.293 HD
ENDBRANCH   6  24
BRANCH   8  26
ATOM     26  O   UNL     1      33.243  -6.465  36.614  1.00  0.00    -0.508 OA
ATOM     27  H   UNL     1      32.489  -6.145  36.017  1.00  0.00     0.293 HD
ENDBRANCH   8  26
TORSDOF 6
ENDMDL
MODEL 3
REMARK VINA RESULT:    -5.640      1.568      7.059
REMARK INTER + INTRA:          -6.902
REMARK INTER:                  -6.567
REMARK INTRA:                  -0.335
REMARK UNBOUND:                -0.108
REMARK SMILES O=c1c(O)c(-c2ccc(O)c(O)c2)oc2cc(O)cc(O)c12
REMARK SMILES IDX 5 1 3 2 2 3 1 4 22 5 20 6 19 7 17 8 16 9 15 10 14 11 6 12
REMARK SMILES IDX 7 13 8 14 9 15 13 16 11 17 10 18 12 20 4 22 21 24 18 26
REMARK H PARENT 10 19 12 21 4 23 21 25 18 27
REMARK Flexibility Score: inf
ROOT
ATOM      1  C   UNL     1      43.330  -9.095  40.954  1.00  0.00     0.180 A 
ATOM      2  C   UNL     1      43.076  -9.445  42.292  1.00  0.00     0.208 A 
ATOM      3  C   UNL     1      41.832  -9.123  42.855  1.00  0.00     0.238 A 
ATOM      4  O   UNL     1      41.590  -9.486  44.035  1.00  0.00    -0.285 OA
ATOM      5  C   UNL     1      40.864  -8.440  42.080  1.00  0.00     0.111 A 
ATOM      6  C   UNL     1      39.584  -8.028  42.561  1.00  0.00     0.134 A 
ATOM      7  C   UNL     1      38.656  -7.477  41.669  1.00  0.00     0.093 A 
ATOM      8  C   UNL     1      38.984  -7.263  40.328  1.00  0.00     0.123 A 
ATOM      9  C   UNL     1      40.252  -7.608  39.863  1.00  0.00     0.094 A 
ATOM     10  C   UNL     1      41.186  -8.193  40.721  1.00  0.00     0.146 A 
ATOM     11  O   UNL     1      42.379  -8.515  40.233  1.00  0.00    -0.452 OA
ENDROOT
BRANCH   1  12
ATOM     12  C   UNL     1      44.628  -9.379  40.299  1.00  0.00     0.025 A 
ATOM     13  C   UNL     1      44.786 -10.567  39.566  1.00  0.00     0.016 A 
ATOM     14  C   UNL     1      45.994 -10.845  38.923  1.00  0.00     0.051 A 
ATOM     15  C   UNL     1      47.056  -9.938  38.987  1.00  0.00     0.157 A 
ATOM     16  C   UNL     1      45.690  -8.459  40.346  1.00  0.00     0.062 A 
ATOM     17  C   UNL     1      46.903  -8.736  39.698  1.00  0.00     0.158 A 
BRANCH  15  18
ATOM     18  O   UNL     1      48.251 -10.245  38.337  1.00  0.00    -0.504 OA
ATOM     19  H   UNL     1      48.271 -10.759  37.464  1.00  0.00     0.293 HD
ENDBRANCH  15  18
BRANCH  17  20
ATOM     20  O   UNL     1      47.953  -7.821  39.755  1.00  0.00    -0.504 OA
ATOM     21  H   UNL     1      47.913  -7.003  40.353  1.00  0.00     0.293 HD
ENDBRANCH  17  20
ENDBRANCH   1  12
BRANCH   2  22
ATOM     22  O   UNL     1      44.039 -10.137  43.032  1.00  0.00    -0.502 OA
ATOM     23  H   UNL     1      44.493 -10.975  42.686  1.00  0.00     0.293 HD
ENDBRANCH   2  22
BRANCH   6  24
ATOM     24  O   UNL     1      39.189  -8.113  43.899  1.00  0.00    -0.507 OA
ATOM     25  H   UNL     1      39.806  -8.322  44.668  1.00  0.00     0.293 HD
ENDBRANCH   6  24
BRANCH   8  26
ATOM     26  O   UNL     1      38.060  -6.700  39.451  1.00  0.00    -0.508 OA
ATOM     27  H   UNL     1      37.628  -5.803  39.640  1.00  0.00     0.293 HD
ENDBRANCH   8  26
TORSDOF 6
ENDMDL
MODEL 4
REMARK VINA RESULT:    -5.599     10.108     11.901
REMARK INTER + INTRA:          -6.853
REMARK INTER:                  -6.655
REMARK INTRA:                  -0.197
REMARK UNBOUND:                -0.108
REMARK SMILES O=c1c(O)c(-c2ccc(O)c(O)c2)oc2cc(O)cc(O)c12
REMARK SMILES IDX 5 1 3 2 2 3 1 4 22 5 20 6 19 7 17 8 16 9 15 10 14 11 6 12
REMARK SMILES IDX 7 13 8 14 9 15 13 16 11 17 10 18 12 20 4 22 21 24 18 26
REMARK H PARENT 10 19 12 21 4 23 21 25 18 27
REMARK Flexibility Score: inf
ROOT
ATOM      1  C   UNL     1      34.808 -11.978  33.577  1.00  0.00     0.180 A 
ATOM      2  C   UNL     1      35.173 -12.975  34.498  1.00  0.00     0.208 A 
ATOM      3  C   UNL     1      35.673 -14.196  34.018  1.00  0.00     0.238 A 
ATOM      4  O   UNL     1      36.047 -15.064  34.848  1.00  0.00    -0.285 OA
ATOM      5  C   UNL     1      35.786 -14.410  32.623  1.00  0.00     0.111 A 
ATOM      6  C   UNL     1      36.242 -15.623  32.025  1.00  0.00     0.134 A 
ATOM      7  C   UNL     1      36.438 -15.678  30.639  1.00  0.00     0.093 A 
ATOM      8  C   UNL     1      36.133 -14.585  29.824  1.00  0.00     0.123 A 
ATOM      9  C   UNL     1      35.632 -13.417  30.394  1.00  0.00     0.094 A 
ATOM     10  C   UNL     1      35.459 -13.320  31.777  1.00  0.00     0.146 A 
ATOM     11  O   UNL     1      34.989 -12.184  32.278  1.00  0.00    -0.452 OA
ENDROOT
BRANCH   1  12
ATOM     12  C   UNL     1      34.250 -10.675  34.007  1.00  0.00     0.025 A 
ATOM     13  C   UNL     1      32.894 -10.394  33.775  1.00  0.00     0.016 A 
ATOM     14  C   UNL     1      32.341  -9.182  34.192  1.00  0.00     0.051 A 
ATOM     15  C   UNL     1      33.128  -8.237  34.858  1.00  0.00     0.157 A 
ATOM     16  C   UNL     1      35.035  -9.733  34.696  1.00  0.00     0.062 A 
ATOM     17  C   UNL     1      34.481  -8.515  35.117  1.00  0.00     0.158 A 
BRANCH  15  18
ATOM     18  O   UNL     1      32.549  -7.033  35.260  1.00  0.00    -0.504 OA
ATOM     19  H   UNL     1      33.094  -6.188  35.379  1.00  0.00     0.293 HD
ENDBRANCH  15  18
BRANCH  17  20
ATOM     20  O   UNL     1      35.267  -7.584  35.793  1.00  0.00    -0.504 OA
ATOM     21  H   UNL     1      35.326  -7.574  36.806  1.00  0.00     0.293 HD
ENDBRANCH  17  20
ENDBRANCH   1  12
BRANCH   2  22
ATOM     22  O   UNL     1      35.072 -12.734  35.871  1.00  0.00    -0.502 OA
ATOM     23  H   UNL     1      34.962 -11.802  36.254  1.00  0.00     0.293 HD
ENDBRANCH   2  22
BRANCH   6  24
ATOM     24  O   UNL     1      36.488 -16.801  32.736  1.00  0.00    -0.507 OA
ATOM     25  H   UNL     1      36.054 -17.043  33.614  1.00  0.00     0.293 HD
ENDBRANCH   6  24
BRANCH   8  26
ATOM     26  O   UNL     1      36.316 -14.653  28.445  1.00  0.00    -0.508 OA
ATOM     27  H   UNL     1      36.865 -13.959  27.948  1.00  0.00     0.293 HD
ENDBRANCH   8  26
TORSDOF 6
ENDMDL
MODEL 5
REMARK VINA RESULT:    -5.539      9.527     11.400
REMARK INTER + INTRA:          -6.780
REMARK INTER:                  -6.451
REMARK INTRA:                  -0.330
REMARK UNBOUND:                -0.108
REMARK SMILES O=c1c(O)c(-c2ccc(O)c(O)c2)oc2cc(O)cc(O)c12
REMARK SMILES IDX 5 1 3 2 2 3 1 4 22 5 20 6 19 7 17 8 16 9 15 10 14 11 6 12
REMARK SMILES IDX 7 13 8 14 9 15 13 16 11 17 10 18 12 20 4 22 21 24 18 26
REMARK H PARENT 10 19 12 21 4 23 21 25 18 27
REMARK Flexibility Score: inf
ROOT
ATOM      1  C   UNL     1      34.025 -10.776  34.981  1.00  0.00     0.180 A 
ATOM      2  C   UNL     1      32.845 -11.179  34.331  1.00  0.00     0.208 A 
ATOM      3  C   UNL     1      32.942 -11.885  33.121  1.00  0.00     0.238 A 
ATOM      4  O   UNL     1      31.885 -12.290  32.571  1.00  0.00    -0.285 OA
ATOM      5  C   UNL     1      34.215 -12.164  32.569  1.00  0.00     0.111 A 
ATOM      6  C   UNL     1      34.430 -12.837  31.328  1.00  0.00     0.134 A 
ATOM      7  C   UNL     1      35.734 -13.175  30.943  1.00  0.00     0.093 A 
ATOM      8  C   UNL     1      36.834 -12.806  31.722  1.00  0.00     0.123 A 
ATOM      9  C   UNL     1      36.637 -12.097  32.905  1.00  0.00     0.094 A 
ATOM     10  C   UNL     1      35.346 -11.777  33.333  1.00  0.00     0.146 A 
ATOM     11  O   UNL     1      35.204 -11.110  34.472  1.00  0.00    -0.452 OA
ENDROOT
BRANCH   1  12
ATOM     12  C   UNL     1      34.002 -10.007  36.246  1.00  0.00     0.025 A 
ATOM     13  C   UNL     1      34.034 -10.692  37.472  1.00  0.00     0.016 A 
ATOM     14  C   UNL     1      34.035  -9.987  38.677  1.00  0.00     0.051 A 
ATOM     15  C   UNL     1      34.019  -8.589  38.679  1.00  0.00     0.157 A 
ATOM     16  C   UNL     1      34.006  -8.600  36.250  1.00  0.00     0.062 A 
ATOM     17  C   UNL     1      34.009  -7.891  37.460  1.00  0.00     0.158 A 
BRANCH  15  18
ATOM     18  O   UNL     1      34.017  -7.912  39.898  1.00  0.00    -0.504 OA
ATOM     19  H   UNL     1      34.227  -8.379  40.772  1.00  0.00     0.293 HD
ENDBRANCH  15  18
BRANCH  17  20
ATOM     20  O   UNL     1      34.007  -6.497  37.454  1.00  0.00    -0.504 OA
ATOM     21  H   UNL     1      34.853  -5.965  37.280  1.00  0.00     0.293 HD
ENDBRANCH  17  20
ENDBRANCH   1  12
BRANCH   2  22
ATOM     22  O   UNL     1      31.599 -10.912  34.905  1.00  0.00    -0.502 OA
ATOM     23  H   UNL     1      31.005 -11.642  35.279  1.00  0.00     0.293 HD
ENDBRANCH   2  22
BRANCH   6  24
ATOM     24  O   UNL     1      33.409 -13.169  30.433  1.00  0.00    -0.507 OA
ATOM     25  H   UNL     1      33.426 -12.970  29.444  1.00  0.00     0.293 HD
ENDBRANCH   6  24
BRANCH   8  26
ATOM     26  O   UNL     1      38.128 -13.133  31.323  1.00  0.00    -0.508 OA
ATOM     27  H   UNL     1      38.344 -14.032  30.908  1.00  0.00     0.293 HD
ENDBRANCH   8  26
TORSDOF 6
ENDMDL
MODEL 6
REMARK VINA RESULT:    -5.496      1.740      6.868
REMARK INTER + INTRA:          -6.729
REMARK INTER:                  -6.440
REMARK INTRA:                  -0.289
REMARK UNBOUND:                -0.108
REMARK SMILES O=c1c(O)c(-c2ccc(O)c(O)c2)oc2cc(O)cc(O)c12
REMARK SMILES IDX 5 1 3 2 2 3 1 4 22 5 20 6 19 7 17 8 16 9 15 10 14 11 6 12
REMARK SMILES IDX 7 13 8 14 9 15 13 16 11 17 10 18 12 20 4 22 21 24 18 26
REMARK H PARENT 10 19 12 21 4 23 21 25 18 27
REMARK Flexibility Score: inf
ROOT
ATOM      1  C   UNL     1      42.626  -8.698  40.780  1.00  0.00     0.180 A 
ATOM      2  C   UNL     1      41.611  -8.084  40.025  1.00  0.00     0.208 A 
ATOM      3  C   UNL     1      40.336  -7.935  40.592  1.00  0.00     0.238 A 
ATOM      4  O   UNL     1      39.447  -7.338  39.932  1.00  0.00    -0.285 OA
ATOM      5  C   UNL     1      40.086  -8.417  41.899  1.00  0.00     0.111 A 
ATOM      6  C   UNL     1      38.821  -8.355  42.557  1.00  0.00     0.134 A 
ATOM      7  C   UNL     1      38.721  -8.742  43.900  1.00  0.00     0.093 A 
ATOM      8  C   UNL     1      39.826  -9.250  44.587  1.00  0.00     0.123 A 
ATOM      9  C   UNL     1      41.052  -9.369  43.935  1.00  0.00     0.094 A 
ATOM     10  C   UNL     1      41.191  -8.957  42.607  1.00  0.00     0.146 A 
ATOM     11  O   UNL     1      42.379  -9.079  42.027  1.00  0.00    -0.452 OA
ENDROOT
BRANCH   1  12
ATOM     12  C   UNL     1      43.988  -8.912  40.241  1.00  0.00     0.025 A 
ATOM     13  C   UNL     1      44.334 -10.170  39.719  1.00  0.00     0.016 A 
ATOM     14  C   UNL     1      45.606 -10.389  39.185  1.00  0.00     0.051 A 
ATOM     15  C   UNL     1      46.546  -9.354  39.150  1.00  0.00     0.157 A 
ATOM     16  C   UNL     1      44.928  -7.868  40.186  1.00  0.00     0.062 A 
ATOM     17  C   UNL     1      46.205  -8.086  39.648  1.00  0.00     0.158 A 
BRANCH  15  18
ATOM     18  O   UNL     1      47.809  -9.604  38.613  1.00  0.00    -0.504 OA
ATOM     19  H   UNL     1      48.321 -10.454  38.816  1.00  0.00     0.293 HD
ENDBRANCH  15  18
BRANCH  17  20
ATOM     20  O   UNL     1      47.133  -7.046  39.603  1.00  0.00    -0.504 OA
ATOM     21  H   UNL     1      46.842  -6.075  39.567  1.00  0.00     0.293 HD
ENDBRANCH  17  20
ENDBRANCH   1  12
BRANCH   2  22
ATOM     22  O   UNL     1      41.886  -7.598  38.744  1.00  0.00    -0.502 OA
ATOM     23  H   UNL     1      41.522  -8.036  37.905  1.00  0.00     0.293 HD
ENDBRANCH   2  22
BRANCH   6  24
ATOM     24  O   UNL     1      37.636  -7.951  41.935  1.00  0.00    -0.507 OA
ATOM     25  H   UNL     1      37.098  -7.139  42.197  1.00  0.00     0.293 HD
ENDBRANCH   6  24
BRANCH   8  26
ATOM     26  O   UNL     1      39.715  -9.648  45.918  1.00  0.00    -0.508 OA
ATOM     27  H   UNL     1      39.219  -9.085  46.600  1.00  0.00     0.293 HD
ENDBRANCH   8  26
TORSDOF 6
ENDMDL
MODEL 7
REMARK VINA RESULT:    -5.443      1.385      2.188
REMARK INTER + INTRA:          -6.665
REMARK INTER:                  -6.449
REMARK INTRA:                  -0.216
REMARK UNBOUND:                -0.108
REMARK SMILES O=c1c(O)c(-c2ccc(O)c(O)c2)oc2cc(O)cc(O)c12
REMARK SMILES IDX 5 1 3 2 2 3 1 4 22 5 20 6 19 7 17 8 16 9 15 10 14 11 6 12
REMARK SMILES IDX 7 13 8 14 9 15 13 16 11 17 10 18 12 20 4 22 21 24 18 26
REMARK H PARENT 10 19 12 21 4 23 21 25 18 27
REMARK Flexibility Score: inf
ROOT
ATOM      1  C   UNL     1      41.246  -7.567  40.779  1.00  0.00     0.180 A 
ATOM      2  C   UNL     1      42.012  -6.416  41.033  1.00  0.00     0.208 A 
ATOM      3  C   UNL     1      43.404  -6.474  40.862  1.00  0.00     0.238 A 
ATOM      4  O   UNL     1      44.079  -5.426  41.039  1.00  0.00    -0.285 OA
ATOM      5  C   UNL     1      44.014  -7.685  40.456  1.00  0.00     0.111 A 
ATOM      6  C   UNL     1      45.420  -7.868  40.291  1.00  0.00     0.134 A 
ATOM      7  C   UNL     1      45.902  -9.070  39.759  1.00  0.00     0.093 A 
ATOM      8  C   UNL     1      45.034 -10.120  39.448  1.00  0.00     0.123 A 
ATOM      9  C   UNL     1      43.665  -9.971  39.661  1.00  0.00     0.094 A 
ATOM     10  C   UNL     1      43.151  -8.771  40.157  1.00  0.00     0.146 A 
ATOM     11  O   UNL     1      41.839  -8.668  40.336  1.00  0.00    -0.452 OA
ENDROOT
BRANCH   1  12
ATOM     12  C   UNL     1      39.776  -7.590  40.961  1.00  0.00     0.025 A 
ATOM     13  C   UNL     1      38.957  -6.903  40.051  1.00  0.00     0.016 A 
ATOM     14  C   UNL     1      37.568  -6.928  40.190  1.00  0.00     0.051 A 
ATOM     15  C   UNL     1      36.974  -7.652  41.230  1.00  0.00     0.157 A 
ATOM     16  C   UNL     1      39.177  -8.334  41.993  1.00  0.00     0.062 A 
ATOM     17  C   UNL     1      37.781  -8.362  42.134  1.00  0.00     0.158 A 
BRANCH  15  18
ATOM     18  O   UNL     1      35.584  -7.657  41.345  1.00  0.00    -0.504 OA
ATOM     19  H   UNL     1      34.978  -7.666  40.534  1.00  0.00     0.293 HD
ENDBRANCH  15  18
BRANCH  17  20
ATOM     20  O   UNL     1      37.196  -9.097  43.163  1.00  0.00    -0.504 OA
ATOM     21  H   UNL     1      36.228  -8.957  43.432  1.00  0.00     0.293 HD
ENDBRANCH  17  20
ENDBRANCH   1  12
BRANCH   2  22
ATOM     22  O   UNL     1      41.386  -5.225  41.413  1.00  0.00    -0.502 OA
ATOM     23  H   UNL     1      41.825  -4.319  41.298  1.00  0.00     0.293 HD
ENDBRANCH   2  22
BRANCH   6  24
ATOM     24  O   UNL     1      46.379  -6.919  40.657  1.00  0.00    -0.507 OA
ATOM     25  H   UNL     1      47.257  -6.776  40.181  1.00  0.00     0.293 HD
ENDBRANCH   6  24
BRANCH   8  26
ATOM     26  O   UNL     1      45.523 -11.319  38.934  1.00  0.00    -0.508 OA
ATOM     27  H   UNL     1      45.938 -11.369  38.010  1.00  0.00     0.293 HD
ENDBRANCH   8  26
TORSDOF 6
ENDMDL
MODEL 8
REMARK VINA RESULT:    -5.332      9.522     12.004
REMARK INTER + INTRA:          -6.531
REMARK INTER:                  -6.209
REMARK INTRA:                  -0.322
REMARK UNBOUND:                -0.108
REMARK SMILES O=c1c(O)c(-c2ccc(O)c(O)c2)oc2cc(O)cc(O)c12
REMARK SMILES IDX 5 1 3 2 2 3 1 4 22 5 20 6 19 7 17 8 16 9 15 10 14 11 6 12
REMARK SMILES IDX 7 13 8 14 9 15 13 16 11 17 10 18 12 20 4 22 21 24 18 26
REMARK H PARENT 10 19 12 21 4 23 21 25 18 27
REMARK Flexibility Score: inf
ROOT
ATOM      1  C   UNL     1      35.084 -13.500  35.316  1.00  0.00     0.180 A 
ATOM      2  C   UNL     1      33.691 -13.331  35.233  1.00  0.00     0.208 A 
ATOM      3  C   UNL     1      33.098 -13.186  33.969  1.00  0.00     0.238 A 
ATOM      4  O   UNL     1      31.845 -13.088  33.897  1.00  0.00    -0.285 OA
ATOM      5  C   UNL     1      33.905 -13.195  32.807  1.00  0.00     0.111 A 
ATOM      6  C   UNL     1      33.415 -13.015  31.478  1.00  0.00     0.134 A 
ATOM      7  C   UNL     1      34.287 -13.174  30.393  1.00  0.00     0.093 A 
ATOM      8  C   UNL     1      35.643 -13.440  30.592  1.00  0.00     0.123 A 
ATOM      9  C   UNL     1      36.142 -13.558  31.887  1.00  0.00     0.094 A 
ATOM     10  C   UNL     1      35.291 -13.441  32.988  1.00  0.00     0.146 A 
ATOM     11  O   UNL     1      35.807 -13.571  34.205  1.00  0.00    -0.452 OA
ENDROOT
BRANCH   1  12
ATOM     12  C   UNL     1      35.784 -13.634  36.614  1.00  0.00     0.025 A 
ATOM     13  C   UNL     1      36.150 -14.910  37.073  1.00  0.00     0.016 A 
ATOM     14  C   UNL     1      36.830 -15.059  38.284  1.00  0.00     0.051 A 
ATOM     15  C   UNL     1      37.168 -13.938  39.048  1.00  0.00     0.157 A 
ATOM     16  C   UNL     1      36.143 -12.506  37.374  1.00  0.00     0.062 A 
ATOM     17  C   UNL     1      36.827 -12.654  38.590  1.00  0.00     0.158 A 
BRANCH  15  18
ATOM     18  O   UNL     1      37.844 -14.118  40.255  1.00  0.00    -0.504 OA
ATOM     19  H   UNL     1      38.663 -13.573  40.498  1.00  0.00     0.293 HD
ENDBRANCH  15  18
BRANCH  17  20
ATOM     20  O   UNL     1      37.174 -11.531  39.339  1.00  0.00    -0.504 OA
ATOM     21  H   UNL     1      37.800 -11.595  40.134  1.00  0.00     0.293 HD
ENDBRANCH  17  20
ENDBRANCH   1  12
BRANCH   2  22
ATOM     22  O   UNL     1      32.911 -13.346  36.392  1.00  0.00    -0.502 OA
ATOM     23  H   UNL     1      33.096 -12.739  37.181  1.00  0.00     0.293 HD
ENDBRANCH   2  22
BRANCH   6  24
ATOM     24  O   UNL     1      32.099 -12.657  31.173  1.00  0.00    -0.507 OA
ATOM     25  H   UNL     1      31.391 -13.296  30.846  1.00  0.00     0.293 HD
ENDBRANCH   6  24
BRANCH   8  26
ATOM     26  O   UNL     1      36.507 -13.581  29.508  1.00  0.00    -0.508 OA
ATOM     27  H   UNL     1      37.017 -14.441  29.344  1.00  0.00     0.293 HD
ENDBRANCH   8  26
TORSDOF 6
ENDMDL
MODEL 9
REMARK VINA RESULT:    -5.276      2.066      2.242
REMARK INTER + INTRA:          -6.464
REMARK INTER:                  -6.188
REMARK INTRA:                  -0.276
REMARK UNBOUND:                -0.108
REMARK SMILES O=c1c(O)c(-c2ccc(O)c(O)c2)oc2cc(O)cc(O)c12
REMARK SMILES IDX 5 1 3 2 2 3 1 4 22 5 20 6 19 7 17 8 16 9 15 10 14 11 6 12
REMARK SMILES IDX 7 13 8 14 9 15 13 16 11 17 10 18 12 20 4 22 21 24 18 26
REMARK H PARENT 10 19 12 21 4 23 21 25 18 27
REMARK Flexibility Score: inf
ROOT
ATOM      1  C   UNL     1      43.713  -8.536  41.376  1.00  0.00     0.180 A 
ATOM      2  C   UNL     1      44.300  -8.111  42.581  1.00  0.00     0.208 A 
ATOM      3  C   UNL     1      45.675  -8.313  42.776  1.00  0.00     0.238 A 
ATOM      4  O   UNL     1      46.205  -7.883  43.834  1.00  0.00    -0.285 OA
ATOM      5  C   UNL     1      46.443  -8.952  41.773  1.00  0.00     0.111 A 
ATOM      6  C   UNL     1      47.836  -9.245  41.882  1.00  0.00     0.134 A 
ATOM      7  C   UNL     1      48.521  -9.761  40.776  1.00  0.00     0.093 A 
ATOM      8  C   UNL     1      47.851 -10.056  39.586  1.00  0.00     0.123 A 
ATOM      9  C   UNL     1      46.480  -9.829  39.491  1.00  0.00     0.094 A 
ATOM     10  C   UNL     1      45.775  -9.281  40.565  1.00  0.00     0.146 A 
ATOM     11  O   UNL     1      44.471  -9.071  40.427  1.00  0.00    -0.452 OA
ENDROOT
BRANCH   1  12
ATOM     12  C   UNL     1      42.265  -8.379  41.108  1.00  0.00     0.025 A 
ATOM     13  C   UNL     1      41.350  -9.242  41.733  1.00  0.00     0.016 A 
ATOM     14  C   UNL     1      39.978  -9.099  41.512  1.00  0.00     0.051 A 
ATOM     15  C   UNL     1      39.498  -8.086  40.677  1.00  0.00     0.157 A 
ATOM     16  C   UNL     1      41.779  -7.348  40.284  1.00  0.00     0.062 A 
ATOM     17  C   UNL     1      40.401  -7.202  40.063  1.00  0.00     0.158 A 
BRANCH  15  18
ATOM     18  O   UNL     1      38.123  -7.970  40.473  1.00  0.00    -0.504 OA
ATOM     19  H   UNL     1      37.684  -7.080  40.270  1.00  0.00     0.293 HD
ENDBRANCH  15  18
BRANCH  17  20
ATOM     20  O   UNL     1      39.929  -6.181  39.240  1.00  0.00    -0.504 OA
ATOM     21  H   UNL     1      39.663  -5.277  39.615  1.00  0.00     0.293 HD
ENDBRANCH  17  20
ENDBRANCH   1  12
BRANCH   2  22
ATOM     22  O   UNL     1      43.527  -7.463  43.549  1.00  0.00    -0.502 OA
ATOM     23  H   UNL     1      43.831  -6.613  44.008  1.00  0.00     0.293 HD
ENDBRANCH   2  22
BRANCH   6  24
ATOM     24  O   UNL     1      48.580  -9.074  43.053  1.00  0.00    -0.507 OA
ATOM     25  H   UNL     1      49.336  -9.673  43.346  1.00  0.00     0.293 HD
ENDBRANCH   6  24
BRANCH   8  26
ATOM     26  O   UNL     1      48.537 -10.584  38.495  1.00  0.00    -0.508 OA
ATOM     27  H   UNL     1      48.144 -10.563  37.561  1.00  0.00     0.293 HD
ENDBRANCH   8  26
TORSDOF 6
ENDMDL
