MODEL 1
REMARK VINA RESULT:    -4.852      0.000      0.000
REMARK INTER + INTRA:          -5.710
REMARK INTER:                  -5.561
REMARK INTRA:                  -0.150
REMARK UNBOUND:                -0.150
REMARK SMILES O=C([O-])C=Cc1ccc(O)cc1
REMARK SMILES IDX 6 1 7 2 12 3 8 4 11 5 9 6 5 7 4 8 2 9 1 10 3 11 10 12
REMARK H PARENT 10 13
REMARK Flexibility Score: inf
ROOT
ATOM      1  C   UNL     1      -9.326   3.390  -0.609  1.00  0.00    -0.025 A 
ATOM      2  C   UNL     1      -8.276   4.300  -0.821  1.00  0.00     0.012 A 
ATOM      3  C   UNL     1      -9.437   2.761   0.648  1.00  0.00     0.012 A 
ATOM      4  C   UNL     1      -7.343   4.558   0.187  1.00  0.00     0.047 A 
ATOM      5  C   UNL     1      -8.502   3.024   1.655  1.00  0.00     0.047 A 
ATOM      6  C   UNL     1      -7.452   3.919   1.428  1.00  0.00     0.115 A 
ENDROOT
BRANCH   1   7
ATOM      7  C   UNL     1     -10.296   3.156  -1.708  1.00  0.00     0.010 C 
ATOM      8  C   UNL     1     -10.054   3.459  -2.992  1.00  0.00     0.025 C 
BRANCH   8   9
ATOM      9  C   UNL     1     -11.047   3.224  -4.054  1.00  0.00     0.064 C 
ATOM     10  O   UNL     1     -11.438   2.061  -4.336  1.00  0.00    -0.545 OA
ATOM     11  O   UNL     1     -11.558   4.305  -4.760  1.00  0.00    -0.545 OA
ENDBRANCH   8   9
ENDBRANCH   1   7
BRANCH   6  12
ATOM     12  O   UNL     1      -6.529   4.168   2.440  1.00  0.00    -0.508 OA
ATOM     13  H   UNL     1      -6.690   4.886   3.137  1.00  0.00     0.293 HD
ENDBRANCH   6  12
TORSDOF 3
ENDMDL
MODEL 2
REMARK VINA RESULT:    -4.477     18.992     20.157
REMARK INTER + INTRA:          -5.281
REMARK INTER:                  -5.146
REMARK INTRA:                  -0.135
REMARK UNBOUND:                -0.150
REMARK SMILES O=C([O-])C=Cc1ccc(O)cc1
REMARK SMILES IDX 6 1 7 2 12 3 8 4 11 5 9 6 5 7 4 8 2 9 1 10 3 11 10 12
REMARK H PARENT 10 13
REMARK Flexibility Score: inf
ROOT
ATOM      1  C   UNL     1       3.487  -4.130 -13.685  1.00  0.00    -0.025 A 
ATOM      2  C   UNL     1       2.529  -4.711 -14.534  1.00  0.00     0.012 A 
ATOM      3  C   UNL     1       3.277  -2.814 -13.224  1.00  0.00     0.012 A 
ATOM      4  C   UNL     1       1.402  -3.988 -14.935  1.00  0.00     0.047 A 
ATOM      5  C   UNL     1       2.146  -2.095 -13.627  1.00  0.00     0.047 A 
ATOM      6  C   UNL     1       1.208  -2.677 -14.484  1.00  0.00     0.115 A 
ENDROOT
BRANCH   1   7
ATOM      7  C   UNL     1       4.661  -4.941 -13.280  1.00  0.00     0.010 C 
ATOM      8  C   UNL     1       4.659  -5.785 -12.237  1.00  0.00     0.025 C 
BRANCH   8   9
ATOM      9  C   UNL     1       5.849  -6.566 -11.858  1.00  0.00     0.064 C 
ATOM     10  O   UNL     1       6.514  -6.282 -10.827  1.00  0.00    -0.545 OA
ATOM     11  O   UNL     1       6.246  -7.633 -12.653  1.00  0.00    -0.545 OA
ENDBRANCH   8   9
ENDBRANCH   1   7
BRANCH   6  12
ATOM     12  O   UNL     1       0.089  -1.947 -14.877  1.00  0.00    -0.508 OA
ATOM     13  H   UNL     1      -0.644  -1.708 -14.220  1.00  0.00     0.293 HD
ENDBRANCH   6  12
TORSDOF 3
ENDMDL
MODEL 3
REMARK VINA RESULT:    -4.371      8.966     11.100
REMARK INTER + INTRA:          -5.160
REMARK INTER:                  -5.024
REMARK INTRA:                  -0.136
REMARK UNBOUND:                -0.150
REMARK SMILES O=C([O-])C=Cc1ccc(O)cc1
REMARK SMILES IDX 6 1 7 2 12 3 8 4 11 5 9 6 5 7 4 8 2 9 1 10 3 11 10 12
REMARK H PARENT 10 13
REMARK Flexibility Score: inf
ROOT
ATOM      1  C   UNL     1      -8.911   4.380 -11.095  1.00  0.00    -0.025 A 
ATOM      2  C   UNL     1      -8.540   5.059  -9.922  1.00  0.00     0.012 A 
ATOM      3  C   UNL     1     -10.252   4.451 -11.525  1.00  0.00     0.012 A 
ATOM      4  C   UNL     1      -9.488   5.771  -9.181  1.00  0.00     0.047 A 
ATOM      5  C   UNL     1     -11.197   5.166 -10.782  1.00  0.00     0.047 A 
ATOM      6  C   UNL     1     -10.820   5.824  -9.608  1.00  0.00     0.115 A 
ENDROOT
BRANCH   1   7
ATOM      7  C   UNL     1      -7.866   3.646 -11.851  1.00  0.00     0.010 C 
ATOM      8  C   UNL     1      -7.047   4.225 -12.741  1.00  0.00     0.025 C 
BRANCH   8   9
ATOM      9  C   UNL     1      -6.028   3.461 -13.482  1.00  0.00     0.064 C 
ATOM     10  O   UNL     1      -5.202   2.724 -12.883  1.00  0.00    -0.545 OA
ATOM     11  O   UNL     1      -5.976   3.560 -14.866  1.00  0.00    -0.545 OA
ENDBRANCH   8   9
ENDBRANCH   1   7
BRANCH   6  12
ATOM     12  O   UNL     1     -11.774   6.530  -8.879  1.00  0.00    -0.508 OA
ATOM     13  H   UNL     1     -11.514   7.303  -8.278  1.00  0.00     0.293 HD
ENDBRANCH   6  12
TORSDOF 3
ENDMDL
MODEL 4
REMARK VINA RESULT:    -4.277     16.351     17.363
REMARK INTER + INTRA:          -5.052
REMARK INTER:                  -4.912
REMARK INTRA:                  -0.140
REMARK UNBOUND:                -0.150
REMARK SMILES O=C([O-])C=Cc1ccc(O)cc1
REMARK SMILES IDX 6 1 7 2 12 3 8 4 11 5 9 6 5 7 4 8 2 9 1 10 3 11 10 12
REMARK H PARENT 10 13
REMARK Flexibility Score: inf
ROOT
ATOM      1  C   UNL     1       3.267  -7.549   0.925  1.00  0.00    -0.025 A 
ATOM      2  C   UNL     1       3.334  -6.787   2.104  1.00  0.00     0.012 A 
ATOM      3  C   UNL     1       2.217  -8.479   0.775  1.00  0.00     0.012 A 
ATOM      4  C   UNL     1       2.392  -6.966   3.121  1.00  0.00     0.047 A 
ATOM      5  C   UNL     1       1.276  -8.653   1.796  1.00  0.00     0.047 A 
ATOM      6  C   UNL     1       1.362  -7.901   2.971  1.00  0.00     0.115 A 
ENDROOT
BRANCH   1   7
ATOM      7  C   UNL     1       4.284  -7.316  -0.130  1.00  0.00     0.010 C 
ATOM      8  C   UNL     1       4.366  -8.036  -1.259  1.00  0.00     0.025 C 
BRANCH   8   9
ATOM      9  C   UNL     1       5.397  -7.782  -2.279  1.00  0.00     0.064 C 
ATOM     10  O   UNL     1       5.878  -6.631  -2.448  1.00  0.00    -0.545 OA
ATOM     11  O   UNL     1       5.845  -8.832  -3.071  1.00  0.00    -0.545 OA
ENDBRANCH   8   9
ENDBRANCH   1   7
BRANCH   6  12
ATOM     12  O   UNL     1       0.418  -8.088   3.978  1.00  0.00    -0.508 OA
ATOM     13  H   UNL     1       0.608  -7.823   4.937  1.00  0.00     0.293 HD
ENDBRANCH   6  12
TORSDOF 3
ENDMDL
MODEL 5
REMARK VINA RESULT:    -4.271     20.393     20.881
REMARK INTER + INTRA:          -5.045
REMARK INTER:                  -4.905
REMARK INTRA:                  -0.140
REMARK UNBOUND:                -0.150
REMARK SMILES O=C([O-])C=Cc1ccc(O)cc1
REMARK SMILES IDX 6 1 7 2 12 3 8 4 11 5 9 6 5 7 4 8 2 9 1 10 3 11 10 12
REMARK H PARENT 10 13
REMARK Flexibility Score: inf
ROOT
ATOM      1  C   UNL     1       5.167  -6.392 -12.250  1.00  0.00    -0.025 A 
ATOM      2  C   UNL     1       6.101  -6.277 -11.206  1.00  0.00     0.012 A 
ATOM      3  C   UNL     1       4.984  -7.649 -12.862  1.00  0.00     0.012 A 
ATOM      4  C   UNL     1       6.854  -7.383 -10.799  1.00  0.00     0.047 A 
ATOM      5  C   UNL     1       5.738  -8.753 -12.451  1.00  0.00     0.047 A 
ATOM      6  C   UNL     1       6.676  -8.623 -11.423  1.00  0.00     0.115 A 
ENDROOT
BRANCH   1   7
ATOM      7  C   UNL     1       4.386  -5.192 -12.638  1.00  0.00     0.010 C 
ATOM      8  C   UNL     1       3.439  -5.195 -13.588  1.00  0.00     0.025 C 
BRANCH   8   9
ATOM      9  C   UNL     1       2.691  -3.980 -13.955  1.00  0.00     0.064 C 
ATOM     10  O   UNL     1       1.975  -3.943 -14.990  1.00  0.00    -0.545 OA
ATOM     11  O   UNL     1       2.780  -2.855 -13.146  1.00  0.00    -0.545 OA
ENDBRANCH   8   9
ENDBRANCH   1   7
BRANCH   6  12
ATOM     12  O   UNL     1       7.420  -9.732 -11.026  1.00  0.00    -0.508 OA
ATOM     13  H   UNL     1       7.073 -10.676 -11.155  1.00  0.00     0.293 HD
ENDBRANCH   6  12
TORSDOF 3
ENDMDL
MODEL 6
REMARK VINA RESULT:    -4.244      1.374      5.886
REMARK INTER + INTRA:          -5.014
REMARK INTER:                  -4.860
REMARK INTRA:                  -0.154
REMARK UNBOUND:                -0.150
REMARK SMILES O=C([O-])C=Cc1ccc(O)cc1
REMARK SMILES IDX 6 1 7 2 12 3 8 4 11 5 9 6 5 7 4 8 2 9 1 10 3 11 10 12
REMARK H PARENT 10 13
REMARK Flexibility Score: inf
ROOT
ATOM      1  C   UNL     1      -9.328   3.535  -0.839  1.00  0.00    -0.025 A 
ATOM      2  C   UNL     1     -10.190   2.449  -1.067  1.00  0.00     0.012 A 
ATOM      3  C   UNL     1      -9.044   4.412  -1.906  1.00  0.00     0.012 A 
ATOM      4  C   UNL     1     -10.735   2.226  -2.335  1.00  0.00     0.047 A 
ATOM      5  C   UNL     1      -9.593   4.186  -3.173  1.00  0.00     0.047 A 
ATOM      6  C   UNL     1     -10.435   3.094  -3.392  1.00  0.00     0.115 A 
ENDROOT
BRANCH   1   7
ATOM      7  C   UNL     1      -8.783   3.735   0.527  1.00  0.00     0.010 C 
ATOM      8  C   UNL     1      -9.035   2.913   1.556  1.00  0.00     0.025 C 
BRANCH   8   9
ATOM      9  C   UNL     1      -8.485   3.149   2.902  1.00  0.00     0.064 C 
ATOM     10  O   UNL     1      -7.633   4.052   3.109  1.00  0.00    -0.545 OA
ATOM     11  O   UNL     1      -8.913   2.359   3.961  1.00  0.00    -0.545 OA
ENDBRANCH   8   9
ENDBRANCH   1   7
BRANCH   6  12
ATOM     12  O   UNL     1     -10.972   2.882  -4.660  1.00  0.00    -0.508 OA
ATOM     13  H   UNL     1     -10.794   3.524  -5.424  1.00  0.00     0.293 HD
ENDBRANCH   6  12
TORSDOF 3
ENDMDL
MODEL 7
REMARK VINA RESULT:    -4.192     11.778     14.178
REMARK INTER + INTRA:          -4.954
REMARK INTER:                  -4.802
REMARK INTRA:                  -0.152
REMARK UNBOUND:                -0.150
REMARK SMILES O=C([O-])C=Cc1ccc(O)cc1
REMARK SMILES IDX 6 1 7 2 12 3 8 4 11 5 9 6 5 7 4 8 2 9 1 10 3 11 10 12
REMARK H PARENT 10 13
REMARK Flexibility Score: inf
ROOT
ATOM      1  C   UNL     1      -9.652  -5.829 -11.052  1.00  0.00    -0.025 A 
ATOM      2  C   UNL     1      -9.286  -4.479 -10.914  1.00  0.00     0.012 A 
ATOM      3  C   UNL     1     -10.613  -6.366 -10.171  1.00  0.00     0.012 A 
ATOM      4  C   UNL     1      -9.845  -3.690  -9.905  1.00  0.00     0.047 A 
ATOM      5  C   UNL     1     -11.172  -5.571  -9.165  1.00  0.00     0.047 A 
ATOM      6  C   UNL     1     -10.788  -4.235  -9.026  1.00  0.00     0.115 A 
ENDROOT
BRANCH   1   7
ATOM      7  C   UNL     1      -9.037  -6.623 -12.144  1.00  0.00     0.010 C 
ATOM      8  C   UNL     1      -7.974  -6.215 -12.855  1.00  0.00     0.025 C 
BRANCH   8   9
ATOM      9  C   UNL     1      -7.398  -7.026 -13.941  1.00  0.00     0.064 C 
ATOM     10  O   UNL     1      -6.498  -6.565 -14.692  1.00  0.00    -0.545 OA
ATOM     11  O   UNL     1      -7.858  -8.321 -14.142  1.00  0.00    -0.545 OA
ENDBRANCH   8   9
ENDBRANCH   1   7
BRANCH   6  12
ATOM     12  O   UNL     1     -11.353  -3.458  -8.017  1.00  0.00    -0.508 OA
ATOM     13  H   UNL     1     -12.352  -3.456  -7.848  1.00  0.00     0.293 HD
ENDBRANCH   6  12
TORSDOF 3
ENDMDL
MODEL 8
REMARK VINA RESULT:    -4.130     16.806     18.170
REMARK INTER + INTRA:          -4.883
REMARK INTER:                  -4.732
REMARK INTRA:                  -0.151
REMARK UNBOUND:                -0.150
REMARK SMILES O=C([O-])C=Cc1ccc(O)cc1
REMARK SMILES IDX 6 1 7 2 12 3 8 4 11 5 9 6 5 7 4 8 2 9 1 10 3 11 10 12
REMARK H PARENT 10 13
REMARK Flexibility Score: inf
ROOT
ATOM      1  C   UNL     1       5.103  -6.931  -0.623  1.00  0.00    -0.025 A 
ATOM      2  C   UNL     1       5.097  -7.735  -1.776  1.00  0.00     0.012 A 
ATOM      3  C   UNL     1       5.958  -5.810  -0.581  1.00  0.00     0.012 A 
ATOM      4  C   UNL     1       5.941  -7.445  -2.851  1.00  0.00     0.047 A 
ATOM      5  C   UNL     1       6.800  -5.522  -1.661  1.00  0.00     0.047 A 
ATOM      6  C   UNL     1       6.797  -6.338  -2.795  1.00  0.00     0.115 A 
ENDROOT
BRANCH   1   7
ATOM      7  C   UNL     1       4.182  -7.275   0.488  1.00  0.00     0.010 C 
ATOM      8  C   UNL     1       3.058  -7.991   0.329  1.00  0.00     0.025 C 
BRANCH   8   9
ATOM      9  C   UNL     1       2.161  -8.304   1.455  1.00  0.00     0.064 C 
ATOM     10  O   UNL     1       2.022  -7.506   2.419  1.00  0.00    -0.545 OA
ATOM     11  O   UNL     1       1.458  -9.501   1.453  1.00  0.00    -0.545 OA
ENDBRANCH   8   9
ENDBRANCH   1   7
BRANCH   6  12
ATOM     12  O   UNL     1       7.643  -6.038  -3.861  1.00  0.00    -0.508 OA
ATOM     13  H   UNL     1       8.610  -6.339  -3.868  1.00  0.00     0.293 HD
ENDBRANCH   6  12
TORSDOF 3
ENDMDL
MODEL 9
REMARK VINA RESULT:    -4.094     18.814     19.473
REMARK INTER + INTRA:          -4.842
REMARK INTER:                  -4.689
REMARK INTRA:                  -0.153
REMARK UNBOUND:                -0.150
REMARK SMILES O=C([O-])C=Cc1ccc(O)cc1
REMARK SMILES IDX 6 1 7 2 12 3 8 4 11 5 9 6 5 7 4 8 2 9 1 10 3 11 10 12
REMARK H PARENT 10 13
REMARK Flexibility Score: inf
ROOT
ATOM      1  C   UNL     1       6.379  -7.371  -3.066  1.00  0.00    -0.025 A 
ATOM      2  C   UNL     1       7.113  -6.229  -3.430  1.00  0.00     0.012 A 
ATOM      3  C   UNL     1       5.726  -7.389  -1.816  1.00  0.00     0.012 A 
ATOM      4  C   UNL     1       7.215  -5.141  -2.559  1.00  0.00     0.047 A 
ATOM      5  C   UNL     1       5.830  -6.296  -0.948  1.00  0.00     0.047 A 
ATOM      6  C   UNL     1       6.576  -5.173  -1.314  1.00  0.00     0.115 A 
ENDROOT
BRANCH   1   7
ATOM      7  C   UNL     1       6.292  -8.497  -4.029  1.00  0.00     0.010 C 
ATOM      8  C   UNL     1       6.714  -8.424  -5.300  1.00  0.00     0.025 C 
BRANCH   8   9
ATOM      9  C   UNL     1       6.601  -9.559  -6.231  1.00  0.00     0.064 C 
ATOM     10  O   UNL     1       6.076 -10.646  -5.874  1.00  0.00    -0.545 OA
ATOM     11  O   UNL     1       7.086  -9.429  -7.526  1.00  0.00    -0.545 OA
ENDBRANCH   8   9
ENDBRANCH   1   7
BRANCH   6  12
ATOM     12  O   UNL     1       6.671  -4.094  -0.438  1.00  0.00    -0.508 OA
ATOM     13  H   UNL     1       5.858  -3.738   0.053  1.00  0.00     0.293 HD
ENDBRANCH   6  12
TORSDOF 3
ENDMDL
