MODEL 1
REMARK VINA RESULT:    -5.793      0.000      0.000
REMARK INTER + INTRA:          -7.268
REMARK INTER:                  -6.979
REMARK INTRA:                  -0.290
REMARK UNBOUND:                -0.290
REMARK SMILES O=c1c(O)c(-c2ccc(O)c(O)c2)oc2cc(O)cc(O)c12
REMARK SMILES IDX 5 1 3 2 2 3 1 4 22 5 20 6 19 7 17 8 16 9 15 10 14 11 6 12
REMARK SMILES IDX 7 13 8 14 9 15 13 16 11 17 10 18 12 20 4 22 21 24 18 26
REMARK H PARENT 10 19 12 21 4 23 21 25 18 27
REMARK Flexibility Score: inf
ROOT
ATOM      1  C   UNL     1      50.605  13.912  26.647  1.00  0.00     0.180 A 
ATOM      2  C   UNL     1      49.471  14.303  27.379  1.00  0.00     0.208 A 
ATOM      3  C   UNL     1      48.422  14.957  26.714  1.00  0.00     0.238 A 
ATOM      4  O   UNL     1      47.434  15.353  27.386  1.00  0.00    -0.285 OA
ATOM      5  C   UNL     1      48.513  15.199  25.322  1.00  0.00     0.111 A 
ATOM      6  C   UNL     1      47.493  15.818  24.539  1.00  0.00     0.134 A 
ATOM      7  C   UNL     1      47.744  16.125  23.196  1.00  0.00     0.093 A 
ATOM      8  C   UNL     1      48.954  15.775  22.591  1.00  0.00     0.123 A 
ATOM      9  C   UNL     1      49.933  15.117  23.333  1.00  0.00     0.094 A 
ATOM     10  C   UNL     1      49.726  14.830  24.683  1.00  0.00     0.146 A 
ATOM     11  O   UNL     1      50.689  14.211  25.356  1.00  0.00    -0.452 OA
ENDROOT
BRANCH   1  12
ATOM     12  C   UNL     1      51.740  13.197  27.273  1.00  0.00     0.025 A 
ATOM     13  C   UNL     1      52.906  13.876  27.665  1.00  0.00     0.016 A 
ATOM     14  C   UNL     1      53.955  13.184  28.276  1.00  0.00     0.051 A 
ATOM     15  C   UNL     1      53.849  11.807  28.518  1.00  0.00     0.157 A 
ATOM     16  C   UNL     1      51.630  11.821  27.536  1.00  0.00     0.062 A 
ATOM     17  C   UNL     1      52.679  11.125  28.148  1.00  0.00     0.158 A 
BRANCH  15  18
ATOM     18  O   UNL     1      54.898  11.120  29.125  1.00  0.00    -0.504 OA
ATOM     19  H   UNL     1      55.625  10.671  28.580  1.00  0.00     0.293 HD
ENDBRANCH  15  18
BRANCH  17  20
ATOM     20  O   UNL     1      52.539   9.757  28.379  1.00  0.00    -0.504 OA
ATOM     21  H   UNL     1      52.426   9.377  29.312  1.00  0.00     0.293 HD
ENDBRANCH  17  20
ENDBRANCH   1  12
BRANCH   2  22
ATOM     22  O   UNL     1      49.411  14.075  28.757  1.00  0.00    -0.502 OA
ATOM     23  H   UNL     1      50.162  14.335  29.385  1.00  0.00     0.293 HD
ENDBRANCH   2  22
BRANCH   6  24
ATOM     24  O   UNL     1      46.217  16.125  25.021  1.00  0.00    -0.507 OA
ATOM     25  H   UNL     1      45.665  16.915  24.723  1.00  0.00     0.293 HD
ENDBRANCH   6  24
BRANCH   8  26
ATOM     26  O   UNL     1      49.191  16.070  21.250  1.00  0.00    -0.508 OA
ATOM     27  H   UNL     1      48.440  16.348  20.628  1.00  0.00     0.293 HD
ENDBRANCH   8  26
TORSDOF 6
ENDMDL
MODEL 2
REMARK VINA RESULT:    -5.785      2.231      2.906
REMARK INTER + INTRA:          -7.258
REMARK INTER:                  -7.735
REMARK INTRA:                   0.477
REMARK UNBOUND:                -0.290
REMARK SMILES O=c1c(O)c(-c2ccc(O)c(O)c2)oc2cc(O)cc(O)c12
REMARK SMILES IDX 5 1 3 2 2 3 1 4 22 5 20 6 19 7 17 8 16 9 15 10 14 11 6 12
REMARK SMILES IDX 7 13 8 14 9 15 13 16 11 17 10 18 12 20 4 22 21 24 18 26
REMARK H PARENT 10 19 12 21 4 23 21 25 18 27
REMARK Flexibility Score: inf
ROOT
ATOM      1  C   UNL     1      52.356  14.480  26.029  1.00  0.00     0.180 A 
ATOM      2  C   UNL     1      51.352  13.838  26.774  1.00  0.00     0.208 A 
ATOM      3  C   UNL     1      50.070  13.704  26.217  1.00  0.00     0.238 A 
ATOM      4  O   UNL     1      49.162  13.176  26.911  1.00  0.00    -0.285 OA
ATOM      5  C   UNL     1      49.812  14.199  24.916  1.00  0.00     0.111 A 
ATOM      6  C   UNL     1      48.562  14.082  24.238  1.00  0.00     0.134 A 
ATOM      7  C   UNL     1      48.381  14.725  23.007  1.00  0.00     0.093 A 
ATOM      8  C   UNL     1      49.427  15.423  22.398  1.00  0.00     0.123 A 
ATOM      9  C   UNL     1      50.669  15.493  23.026  1.00  0.00     0.094 A 
ATOM     10  C   UNL     1      50.868  14.893  24.271  1.00  0.00     0.146 A 
ATOM     11  O   UNL     1      52.065  14.992  24.838  1.00  0.00    -0.452 OA
ENDROOT
BRANCH   1  12
ATOM     12  C   UNL     1      53.737  14.638  26.538  1.00  0.00     0.025 A 
ATOM     13  C   UNL     1      54.794  15.002  25.686  1.00  0.00     0.016 A 
ATOM     14  C   UNL     1      56.085  15.168  26.192  1.00  0.00     0.051 A 
ATOM     15  C   UNL     1      56.337  14.987  27.559  1.00  0.00     0.157 A 
ATOM     16  C   UNL     1      53.991  14.478  27.910  1.00  0.00     0.062 A 
ATOM     17  C   UNL     1      55.283  14.644  28.422  1.00  0.00     0.158 A 
BRANCH  15  18
ATOM     18  O   UNL     1      57.627  15.152  28.061  1.00  0.00    -0.504 OA
ATOM     19  H   UNL     1      58.418  14.656  27.666  1.00  0.00     0.293 HD
ENDBRANCH  15  18
BRANCH  17  20
ATOM     20  O   UNL     1      55.500  14.463  29.787  1.00  0.00    -0.504 OA
ATOM     21  H   UNL     1      54.838  14.784  30.484  1.00  0.00     0.293 HD
ENDBRANCH  17  20
ENDBRANCH   1  12
BRANCH   2  22
ATOM     22  O   UNL     1      51.622  13.375  28.065  1.00  0.00    -0.502 OA
ATOM     23  H   UNL     1      52.162  13.913  28.734  1.00  0.00     0.293 HD
ENDBRANCH   2  22
BRANCH   6  24
ATOM     24  O   UNL     1      47.483  13.331  24.714  1.00  0.00    -0.507 OA
ATOM     25  H   UNL     1      46.681  13.063  24.164  1.00  0.00     0.293 HD
ENDBRANCH   6  24
BRANCH   8  26
ATOM     26  O   UNL     1      49.244  16.046  21.166  1.00  0.00    -0.508 OA
ATOM     27  H   UNL     1      48.559  16.782  21.040  1.00  0.00     0.293 HD
ENDBRANCH   8  26
TORSDOF 6
ENDMDL
MODEL 3
REMARK VINA RESULT:    -5.709      2.670      4.245
REMARK INTER + INTRA:          -7.167
REMARK INTER:                  -7.362
REMARK INTRA:                   0.195
REMARK UNBOUND:                -0.290
REMARK SMILES O=c1c(O)c(-c2ccc(O)c(O)c2)oc2cc(O)cc(O)c12
REMARK SMILES IDX 5 1 3 2 2 3 1 4 22 5 20 6 19 7 17 8 16 9 15 10 14 11 6 12
REMARK SMILES IDX 7 13 8 14 9 15 13 16 11 17 10 18 12 20 4 22 21 24 18 26
REMARK H PARENT 10 19 12 21 4 23 21 25 18 27
REMARK Flexibility Score: inf
ROOT
ATOM      1  C   UNL     1      52.221  14.031  26.574  1.00  0.00     0.180 A 
ATOM      2  C   UNL     1      51.873  13.553  25.298  1.00  0.00     0.208 A 
ATOM      3  C   UNL     1      50.521  13.322  25.003  1.00  0.00     0.238 A 
ATOM      4  O   UNL     1      50.221  12.842  23.878  1.00  0.00    -0.285 OA
ATOM      5  C   UNL     1      49.531  13.587  25.979  1.00  0.00     0.111 A 
ATOM      6  C   UNL     1      48.127  13.427  25.775  1.00  0.00     0.134 A 
ATOM      7  C   UNL     1      47.249  13.593  26.853  1.00  0.00     0.093 A 
ATOM      8  C   UNL     1      47.718  13.978  28.112  1.00  0.00     0.123 A 
ATOM      9  C   UNL     1      49.080  14.193  28.306  1.00  0.00     0.094 A 
ATOM     10  C   UNL     1      49.984  14.001  27.259  1.00  0.00     0.146 A 
ATOM     11  O   UNL     1      51.275  14.207  27.490  1.00  0.00    -0.452 OA
ENDROOT
BRANCH   1  12
ATOM     12  C   UNL     1      53.622  14.322  26.952  1.00  0.00     0.025 A 
ATOM     13  C   UNL     1      54.546  14.815  26.013  1.00  0.00     0.016 A 
ATOM     14  C   UNL     1      55.857  15.106  26.398  1.00  0.00     0.051 A 
ATOM     15  C   UNL     1      56.262  14.922  27.727  1.00  0.00     0.157 A 
ATOM     16  C   UNL     1      54.027  14.159  28.287  1.00  0.00     0.062 A 
ATOM     17  C   UNL     1      55.340  14.449  28.675  1.00  0.00     0.158 A 
BRANCH  15  18
ATOM     18  O   UNL     1      57.571  15.210  28.107  1.00  0.00    -0.504 OA
ATOM     19  H   UNL     1      58.366  14.824  27.610  1.00  0.00     0.293 HD
ENDBRANCH  15  18
BRANCH  17  20
ATOM     20  O   UNL     1      55.709  14.261  30.007  1.00  0.00    -0.504 OA
ATOM     21  H   UNL     1      56.493  13.674  30.271  1.00  0.00     0.293 HD
ENDBRANCH  17  20
ENDBRANCH   1  12
BRANCH   2  22
ATOM     22  O   UNL     1      52.868  13.277  24.356  1.00  0.00    -0.502 OA
ATOM     23  H   UNL     1      53.744  12.832  24.604  1.00  0.00     0.293 HD
ENDBRANCH   2  22
BRANCH   6  24
ATOM     24  O   UNL     1      47.547  13.134  24.537  1.00  0.00    -0.507 OA
ATOM     25  H   UNL     1      48.037  12.730  23.754  1.00  0.00     0.293 HD
ENDBRANCH   6  24
BRANCH   8  26
ATOM     26  O   UNL     1      46.835  14.156  29.175  1.00  0.00    -0.508 OA
ATOM     27  H   UNL     1      45.911  14.547  29.037  1.00  0.00     0.293 HD
ENDBRANCH   8  26
TORSDOF 6
ENDMDL
MODEL 4
REMARK VINA RESULT:    -5.667      2.750      4.535
REMARK INTER + INTRA:          -7.116
REMARK INTER:                  -7.310
REMARK INTRA:                   0.194
REMARK UNBOUND:                -0.290
REMARK SMILES O=c1c(O)c(-c2ccc(O)c(O)c2)oc2cc(O)cc(O)c12
REMARK SMILES IDX 5 1 3 2 2 3 1 4 22 5 20 6 19 7 17 8 16 9 15 10 14 11 6 12
REMARK SMILES IDX 7 13 8 14 9 15 13 16 11 17 10 18 12 20 4 22 21 24 18 26
REMARK H PARENT 10 19 12 21 4 23 21 25 18 27
REMARK Flexibility Score: inf
ROOT
ATOM      1  C   UNL     1      52.234  14.160  26.672  1.00  0.00     0.180 A 
ATOM      2  C   UNL     1      51.842  13.798  25.371  1.00  0.00     0.208 A 
ATOM      3  C   UNL     1      50.484  13.550  25.113  1.00  0.00     0.238 A 
ATOM      4  O   UNL     1      50.147  13.173  23.961  1.00  0.00    -0.285 OA
ATOM      5  C   UNL     1      49.534  13.683  26.154  1.00  0.00     0.111 A 
ATOM      6  C   UNL     1      48.128  13.497  25.996  1.00  0.00     0.134 A 
ATOM      7  C   UNL     1      47.296  13.525  27.122  1.00  0.00     0.093 A 
ATOM      8  C   UNL     1      47.811  13.801  28.392  1.00  0.00     0.123 A 
ATOM      9  C   UNL     1      49.174  14.043  28.546  1.00  0.00     0.094 A 
ATOM     10  C   UNL     1      50.034  13.985  27.447  1.00  0.00     0.146 A 
ATOM     11  O   UNL     1      51.327  14.213  27.641  1.00  0.00    -0.452 OA
ENDROOT
BRANCH   1  12
ATOM     12  C   UNL     1      53.642  14.460  27.015  1.00  0.00     0.025 A 
ATOM     13  C   UNL     1      54.211  14.019  28.223  1.00  0.00     0.016 A 
ATOM     14  C   UNL     1      55.549  14.293  28.516  1.00  0.00     0.051 A 
ATOM     15  C   UNL     1      56.343  14.999  27.602  1.00  0.00     0.157 A 
ATOM     16  C   UNL     1      54.447  15.149  26.093  1.00  0.00     0.062 A 
ATOM     17  C   UNL     1      55.789  15.426  26.384  1.00  0.00     0.158 A 
BRANCH  15  18
ATOM     18  O   UNL     1      57.677  15.273  27.898  1.00  0.00    -0.504 OA
ATOM     19  H   UNL     1      57.959  15.617  28.808  1.00  0.00     0.293 HD
ENDBRANCH  15  18
BRANCH  17  20
ATOM     20  O   UNL     1      56.553  16.125  25.450  1.00  0.00    -0.504 OA
ATOM     21  H   UNL     1      56.255  17.015  25.068  1.00  0.00     0.293 HD
ENDBRANCH  17  20
ENDBRANCH   1  12
BRANCH   2  22
ATOM     22  O   UNL     1      52.799  13.650  24.364  1.00  0.00    -0.502 OA
ATOM     23  H   UNL     1      53.788  13.802  24.526  1.00  0.00     0.293 HD
ENDBRANCH   2  22
BRANCH   6  24
ATOM     24  O   UNL     1      47.499  13.307  24.761  1.00  0.00    -0.507 OA
ATOM     25  H   UNL     1      46.505  13.373  24.606  1.00  0.00     0.293 HD
ENDBRANCH   6  24
BRANCH   8  26
ATOM     26  O   UNL     1      46.975  13.843  29.505  1.00  0.00    -0.508 OA
ATOM     27  H   UNL     1      47.337  14.023  30.434  1.00  0.00     0.293 HD
ENDBRANCH   8  26
TORSDOF 6
ENDMDL
MODEL 5
REMARK VINA RESULT:    -5.435      2.211      7.073
REMARK INTER + INTRA:          -6.837
REMARK INTER:                  -6.997
REMARK INTRA:                   0.160
REMARK UNBOUND:                -0.290
REMARK SMILES O=c1c(O)c(-c2ccc(O)c(O)c2)oc2cc(O)cc(O)c12
REMARK SMILES IDX 5 1 3 2 2 3 1 4 22 5 20 6 19 7 17 8 16 9 15 10 14 11 6 12
REMARK SMILES IDX 7 13 8 14 9 15 13 16 11 17 10 18 12 20 4 22 21 24 18 26
REMARK H PARENT 10 19 12 21 4 23 21 25 18 27
REMARK Flexibility Score: inf
ROOT
ATOM      1  C   UNL     1      51.765  13.560  25.454  1.00  0.00     0.180 A 
ATOM      2  C   UNL     1      51.634  12.178  25.678  1.00  0.00     0.208 A 
ATOM      3  C   UNL     1      52.325  11.594  26.751  1.00  0.00     0.238 A 
ATOM      4  O   UNL     1      52.247  10.348  26.914  1.00  0.00    -0.285 OA
ATOM      5  C   UNL     1      53.125  12.399  27.597  1.00  0.00     0.111 A 
ATOM      6  C   UNL     1      53.837  11.920  28.737  1.00  0.00     0.134 A 
ATOM      7  C   UNL     1      54.702  12.780  29.424  1.00  0.00     0.093 A 
ATOM      8  C   UNL     1      54.829  14.121  29.052  1.00  0.00     0.123 A 
ATOM      9  C   UNL     1      54.093  14.613  27.976  1.00  0.00     0.094 A 
ATOM     10  C   UNL     1      53.250  13.770  27.249  1.00  0.00     0.146 A 
ATOM     11  O   UNL     1      52.575  14.277  26.225  1.00  0.00    -0.452 OA
ENDROOT
BRANCH   1  12
ATOM     12  C   UNL     1      51.049  14.252  24.359  1.00  0.00     0.025 A 
ATOM     13  C   UNL     1      51.691  15.214  23.559  1.00  0.00     0.016 A 
ATOM     14  C   UNL     1      51.002  15.838  22.516  1.00  0.00     0.051 A 
ATOM     15  C   UNL     1      49.669  15.500  22.245  1.00  0.00     0.157 A 
ATOM     16  C   UNL     1      49.720  13.902  24.071  1.00  0.00     0.062 A 
ATOM     17  C   UNL     1      49.027  14.524  23.026  1.00  0.00     0.158 A 
BRANCH  15  18
ATOM     18  O   UNL     1      48.985  16.125  21.205  1.00  0.00    -0.504 OA
ATOM     19  H   UNL     1      48.010  15.924  21.014  1.00  0.00     0.293 HD
ENDBRANCH  15  18
BRANCH  17  20
ATOM     20  O   UNL     1      47.704  14.161  22.779  1.00  0.00    -0.504 OA
ATOM     21  H   UNL     1      47.204  14.474  21.955  1.00  0.00     0.293 HD
ENDBRANCH  17  20
ENDBRANCH   1  12
BRANCH   2  22
ATOM     22  O   UNL     1      50.856  11.397  24.818  1.00  0.00    -0.502 OA
ATOM     23  H   UNL     1      50.019  11.750  24.370  1.00  0.00     0.293 HD
ENDBRANCH   2  22
BRANCH   6  24
ATOM     24  O   UNL     1      53.710  10.624  29.248  1.00  0.00    -0.507 OA
ATOM     25  H   UNL     1      53.609  10.400  30.226  1.00  0.00     0.293 HD
ENDBRANCH   6  24
BRANCH   8  26
ATOM     26  O   UNL     1      55.680  14.975  29.750  1.00  0.00    -0.508 OA
ATOM     27  H   UNL     1      55.786  14.913  30.756  1.00  0.00     0.293 HD
ENDBRANCH   8  26
TORSDOF 6
ENDMDL
MODEL 6
REMARK VINA RESULT:    -5.332      2.878      7.609
REMARK INTER + INTRA:          -6.712
REMARK INTER:                  -7.190
REMARK INTRA:                   0.478
REMARK UNBOUND:                -0.290
REMARK SMILES O=c1c(O)c(-c2ccc(O)c(O)c2)oc2cc(O)cc(O)c12
REMARK SMILES IDX 5 1 3 2 2 3 1 4 22 5 20 6 19 7 17 8 16 9 15 10 14 11 6 12
REMARK SMILES IDX 7 13 8 14 9 15 13 16 11 17 10 18 12 20 4 22 21 24 18 26
REMARK H PARENT 10 19 12 21 4 23 21 25 18 27
REMARK Flexibility Score: inf
ROOT
ATOM      1  C   UNL     1      52.522  14.904  24.780  1.00  0.00     0.180 A 
ATOM      2  C   UNL     1      53.606  15.468  24.085  1.00  0.00     0.208 A 
ATOM      3  C   UNL     1      54.850  15.569  24.728  1.00  0.00     0.238 A 
ATOM      4  O   UNL     1      55.802  16.125  24.120  1.00  0.00    -0.285 OA
ATOM      5  C   UNL     1      54.999  15.090  26.052  1.00  0.00     0.111 A 
ATOM      6  C   UNL     1      56.223  15.104  26.786  1.00  0.00     0.134 A 
ATOM      7  C   UNL     1      56.226  14.726  28.134  1.00  0.00     0.093 A 
ATOM      8  C   UNL     1      55.060  14.270  28.756  1.00  0.00     0.123 A 
ATOM      9  C   UNL     1      53.873  14.196  28.030  1.00  0.00     0.094 A 
ATOM     10  C   UNL     1      53.832  14.601  26.695  1.00  0.00     0.146 A 
ATOM     11  O   UNL     1      52.678  14.524  26.043  1.00  0.00    -0.452 OA
ENDROOT
BRANCH   1  12
ATOM     12  C   UNL     1      51.187  14.742  24.161  1.00  0.00     0.025 A 
ATOM     13  C   UNL     1      50.213  13.905  24.733  1.00  0.00     0.016 A 
ATOM     14  C   UNL     1      48.952  13.785  24.145  1.00  0.00     0.051 A 
ATOM     15  C   UNL     1      48.639  14.510  22.986  1.00  0.00     0.157 A 
ATOM     16  C   UNL     1      50.863  15.481  23.012  1.00  0.00     0.062 A 
ATOM     17  C   UNL     1      49.600  15.364  22.420  1.00  0.00     0.158 A 
BRANCH  15  18
ATOM     18  O   UNL     1      47.381  14.386  22.401  1.00  0.00    -0.504 OA
ATOM     19  H   UNL     1      46.534  14.384  22.958  1.00  0.00     0.293 HD
ENDBRANCH  15  18
BRANCH  17  20
ATOM     20  O   UNL     1      49.319  16.103  21.272  1.00  0.00    -0.504 OA
ATOM     21  H   UNL     1      48.428  16.037  20.793  1.00  0.00     0.293 HD
ENDBRANCH  17  20
ENDBRANCH   1  12
BRANCH   2  22
ATOM     22  O   UNL     1      53.431  15.955  22.786  1.00  0.00    -0.502 OA
ATOM     23  H   UNL     1      53.342  15.344  21.983  1.00  0.00     0.293 HD
ENDBRANCH   2  22
BRANCH   6  24
ATOM     24  O   UNL     1      57.460  15.454  26.234  1.00  0.00    -0.507 OA
ATOM     25  H   UNL     1      57.880  16.369  26.298  1.00  0.00     0.293 HD
ENDBRANCH   6  24
BRANCH   8  26
ATOM     26  O   UNL     1      55.074  13.879  30.093  1.00  0.00    -0.508 OA
ATOM     27  H   UNL     1      55.168  14.556  30.842  1.00  0.00     0.293 HD
ENDBRANCH   8  26
TORSDOF 6
ENDMDL
MODEL 7
REMARK VINA RESULT:    -5.189      2.782      6.070
REMARK INTER + INTRA:          -6.541
REMARK INTER:                  -6.839
REMARK INTRA:                   0.299
REMARK UNBOUND:                -0.290
REMARK SMILES O=c1c(O)c(-c2ccc(O)c(O)c2)oc2cc(O)cc(O)c12
REMARK SMILES IDX 5 1 3 2 2 3 1 4 22 5 20 6 19 7 17 8 16 9 15 10 14 11 6 12
REMARK SMILES IDX 7 13 8 14 9 15 13 16 11 17 10 18 12 20 4 22 21 24 18 26
REMARK H PARENT 10 19 12 21 4 23 21 25 18 27
REMARK Flexibility Score: inf
ROOT
ATOM      1  C   UNL     1      50.883  14.563  26.416  1.00  0.00     0.180 A 
ATOM      2  C   UNL     1      50.921  15.065  25.103  1.00  0.00     0.208 A 
ATOM      3  C   UNL     1      52.163  15.380  24.530  1.00  0.00     0.238 A 
ATOM      4  O   UNL     1      52.187  15.880  23.375  1.00  0.00    -0.285 OA
ATOM      5  C   UNL     1      53.352  15.174  25.269  1.00  0.00     0.111 A 
ATOM      6  C   UNL     1      54.668  15.420  24.774  1.00  0.00     0.134 A 
ATOM      7  C   UNL     1      55.765  15.306  25.637  1.00  0.00     0.093 A 
ATOM      8  C   UNL     1      55.599  14.890  26.961  1.00  0.00     0.123 A 
ATOM      9  C   UNL     1      54.325  14.591  27.437  1.00  0.00     0.094 A 
ATOM     10  C   UNL     1      53.208  14.730  26.610  1.00  0.00     0.146 A 
ATOM     11  O   UNL     1      52.011  14.443  27.107  1.00  0.00    -0.452 OA
ENDROOT
BRANCH   1  12
ATOM     12  C   UNL     1      49.614  14.186  27.079  1.00  0.00     0.025 A 
ATOM     13  C   UNL     1      48.486  13.798  26.334  1.00  0.00     0.016 A 
ATOM     14  C   UNL     1      47.307  13.423  26.982  1.00  0.00     0.051 A 
ATOM     15  C   UNL     1      47.240  13.415  28.382  1.00  0.00     0.157 A 
ATOM     16  C   UNL     1      49.548  14.156  28.481  1.00  0.00     0.062 A 
ATOM     17  C   UNL     1      48.368  13.781  29.134  1.00  0.00     0.158 A 
BRANCH  15  18
ATOM     18  O   UNL     1      46.061  13.042  29.024  1.00  0.00    -0.504 OA
ATOM     19  H   UNL     1      45.790  12.069  29.115  1.00  0.00     0.293 HD
ENDBRANCH  15  18
BRANCH  17  20
ATOM     20  O   UNL     1      48.336  13.778  30.528  1.00  0.00    -0.504 OA
ATOM     21  H   UNL     1      48.977  14.334  31.082  1.00  0.00     0.293 HD
ENDBRANCH  17  20
ENDBRANCH   1  12
BRANCH   2  22
ATOM     22  O   UNL     1      49.733  15.281  24.399  1.00  0.00    -0.502 OA
ATOM     23  H   UNL     1      49.684  15.235  23.388  1.00  0.00     0.293 HD
ENDBRANCH   2  22
BRANCH   6  24
ATOM     24  O   UNL     1      54.952  15.751  23.445  1.00  0.00    -0.507 OA
ATOM     25  H   UNL     1      55.345  16.629  23.142  1.00  0.00     0.293 HD
ENDBRANCH   6  24
BRANCH   8  26
ATOM     26  O   UNL     1      56.697  14.764  27.809  1.00  0.00    -0.508 OA
ATOM     27  H   UNL     1      56.643  15.021  28.788  1.00  0.00     0.293 HD
ENDBRANCH   8  26
TORSDOF 6
ENDMDL
MODEL 8
REMARK VINA RESULT:    -4.459      3.261      4.349
REMARK INTER + INTRA:          -5.662
REMARK INTER:                  -6.124
REMARK INTRA:                   0.462
REMARK UNBOUND:                -0.290
REMARK SMILES O=c1c(O)c(-c2ccc(O)c(O)c2)oc2cc(O)cc(O)c12
REMARK SMILES IDX 5 1 3 2 2 3 1 4 22 5 20 6 19 7 17 8 16 9 15 10 14 11 6 12
REMARK SMILES IDX 7 13 8 14 9 15 13 16 11 17 10 18 12 20 4 22 21 24 18 26
REMARK H PARENT 10 19 12 21 4 23 21 25 18 27
REMARK Flexibility Score: inf
ROOT
ATOM      1  C   UNL     1      53.898  14.851  26.437  1.00  0.00     0.180 A 
ATOM      2  C   UNL     1      53.016  14.224  27.333  1.00  0.00     0.208 A 
ATOM      3  C   UNL     1      51.678  14.035  26.953  1.00  0.00     0.238 A 
ATOM      4  O   UNL     1      50.881  13.522  27.781  1.00  0.00    -0.285 OA
ATOM      5  C   UNL     1      51.243  14.459  25.675  1.00  0.00     0.111 A 
ATOM      6  C   UNL     1      49.920  14.281  25.169  1.00  0.00     0.134 A 
ATOM      7  C   UNL     1      49.566  14.857  23.942  1.00  0.00     0.093 A 
ATOM      8  C   UNL     1      50.506  15.548  23.173  1.00  0.00     0.123 A 
ATOM      9  C   UNL     1      51.815  15.676  23.632  1.00  0.00     0.094 A 
ATOM     10  C   UNL     1      52.188  15.143  24.867  1.00  0.00     0.146 A 
ATOM     11  O   UNL     1      53.444  15.297  25.271  1.00  0.00    -0.452 OA
ENDROOT
BRANCH   1  12
ATOM     12  C   UNL     1      55.328  15.064  26.756  1.00  0.00     0.025 A 
ATOM     13  C   UNL     1      55.839  14.793  28.038  1.00  0.00     0.016 A 
ATOM     14  C   UNL     1      57.197  14.979  28.310  1.00  0.00     0.051 A 
ATOM     15  C   UNL     1      58.066  15.423  27.305  1.00  0.00     0.157 A 
ATOM     16  C   UNL     1      56.207  15.489  25.747  1.00  0.00     0.062 A 
ATOM     17  C   UNL     1      57.568  15.676  26.016  1.00  0.00     0.158 A 
BRANCH  15  18
ATOM     18  O   UNL     1      59.419  15.609  27.581  1.00  0.00    -0.504 OA
ATOM     19  H   UNL     1      60.085  15.832  26.849  1.00  0.00     0.293 HD
ENDBRANCH  15  18
BRANCH  17  20
ATOM     20  O   UNL     1      58.407  16.113  24.992  1.00  0.00    -0.504 OA
ATOM     21  H   UNL     1      58.199  16.938  24.441  1.00  0.00     0.293 HD
ENDBRANCH  17  20
ENDBRANCH   1  12
BRANCH   2  22
ATOM     22  O   UNL     1      53.461  13.833  28.600  1.00  0.00    -0.502 OA
ATOM     23  H   UNL     1      54.184  14.335  29.102  1.00  0.00     0.293 HD
ENDBRANCH   2  22
BRANCH   6  24
ATOM     24  O   UNL     1      48.932  13.531  25.814  1.00  0.00    -0.507 OA
ATOM     25  H   UNL     1      49.094  12.660  26.296  1.00  0.00     0.293 HD
ENDBRANCH   6  24
BRANCH   8  26
ATOM     26  O   UNL     1      50.150  16.105  21.946  1.00  0.00    -0.508 OA
ATOM     27  H   UNL     1      50.187  17.105  21.787  1.00  0.00     0.293 HD
ENDBRANCH   8  26
TORSDOF 6
ENDMDL
