MODEL 1
REMARK VINA RESULT:    -3.715      0.000      0.000
REMARK INTER + INTRA:         -10.514
REMARK INTER:                  -8.058
REMARK INTRA:                  -2.456
REMARK UNBOUND:                -2.456
REMARK SMILES CCCCCCCCCCCCCCCCCCCCCC(=O)[O-]
REMARK SMILES IDX 12 1 11 2 10 3 9 4 8 5 7 6 6 7 5 8 4 9 3 10 2 11 1 12 13 13
REMARK SMILES IDX 14 14 15 15 16 16 17 17 18 18 19 19 20 20 21 21 22 22 23 23
REMARK SMILES IDX 24 24
REMARK H PARENT
REMARK Flexibility Score: inf
ROOT
ATOM      1  C   UNL     1      46.972  29.551   1.527  1.00  0.00     0.000 C 
ENDROOT
BRANCH   1   2
ATOM      2  C   UNL     1      47.078  29.119   0.052  1.00  0.00     0.000 C 
BRANCH   2   3
ATOM      3  C   UNL     1      46.047  28.067  -0.388  1.00  0.00     0.000 C 
BRANCH   3   4
ATOM      4  C   UNL     1      45.713  28.147  -1.885  1.00  0.00    -0.000 C 
BRANCH   4   5
ATOM      5  C   UNL     1      46.555  29.229  -2.577  1.00  0.00    -0.000 C 
BRANCH   5   6
ATOM      6  C   UNL     1      46.856  28.902  -4.048  1.00  0.00    -0.000 C 
BRANCH   6   7
ATOM      7  C   UNL     1      46.383  27.512  -4.520  1.00  0.00    -0.000 C 
BRANCH   7   8
ATOM      8  C   UNL     1      45.597  27.531  -5.848  1.00  0.00    -0.000 C 
BRANCH   8   9
ATOM      9  C   UNL     1      44.462  28.567  -5.845  1.00  0.00    -0.000 C 
BRANCH   9  10
ATOM     10  C   UNL     1      43.108  27.906  -5.560  1.00  0.00    -0.000 C 
BRANCH  10  11
ATOM     11  C   UNL     1      42.619  28.248  -4.150  1.00  0.00    -0.003 C 
ATOM     12  C   UNL     1      42.971  29.686  -3.776  1.00  0.00     0.004 C 
ENDBRANCH  10  11
ENDBRANCH   9  10
ENDBRANCH   8   9
ENDBRANCH   7   8
ENDBRANCH   6   7
ENDBRANCH   5   6
ENDBRANCH   4   5
ENDBRANCH   3   4
ENDBRANCH   2   3
ENDBRANCH   1   2
BRANCH   1  13
ATOM     13  C   UNL     1      45.585  30.102   1.919  1.00  0.00     0.000 C 
BRANCH  13  14
ATOM     14  C   UNL     1      45.060  29.498   3.233  1.00  0.00     0.000 C 
BRANCH  14  15
ATOM     15  C   UNL     1      43.793  28.641   3.018  1.00  0.00     0.000 C 
BRANCH  15  16
ATOM     16  C   UNL     1      44.082  27.141   2.841  1.00  0.00     0.000 C 
BRANCH  16  17
ATOM     17  C   UNL     1      45.523  26.758   3.205  1.00  0.00     0.000 C 
BRANCH  17  18
ATOM     18  C   UNL     1      45.611  26.006   4.544  1.00  0.00     0.000 C 
BRANCH  18  19
ATOM     19  C   UNL     1      46.688  26.585   5.479  1.00  0.00     0.000 C 
BRANCH  19  20
ATOM     20  C   UNL     1      46.137  27.678   6.408  1.00  0.00     0.006 C 
BRANCH  20  21
ATOM     21  C   UNL     1      45.694  27.125   7.768  1.00  0.00     0.053 C 
BRANCH  21  22
ATOM     22  C   UNL     1      45.246  28.236   8.666  1.00  0.00     0.041 C 
ATOM     23  O   UNL     1      45.180  29.416   8.231  1.00  0.00    -0.550 OA
ATOM     24  O   UNL     1      44.952  27.978   9.999  1.00  0.00    -0.550 OA
ENDBRANCH  21  22
ENDBRANCH  20  21
ENDBRANCH  19  20
ENDBRANCH  18  19
ENDBRANCH  17  18
ENDBRANCH  16  17
ENDBRANCH  15  16
ENDBRANCH  14  15
ENDBRANCH  13  14
ENDBRANCH   1  13
TORSDOF 20
ENDMDL
MODEL 2
REMARK VINA RESULT:    -3.703      4.055     10.349
REMARK INTER + INTRA:         -10.488
REMARK INTER:                  -8.820
REMARK INTRA:                  -1.669
REMARK UNBOUND:                -2.456
REMARK SMILES CCCCCCCCCCCCCCCCCCCCCC(=O)[O-]
REMARK SMILES IDX 12 1 11 2 10 3 9 4 8 5 7 6 6 7 5 8 4 9 3 10 2 11 1 12 13 13
REMARK SMILES IDX 14 14 15 15 16 16 17 17 18 18 19 19 20 20 21 21 22 22 23 23
REMARK SMILES IDX 24 24
REMARK H PARENT
REMARK Flexibility Score: inf
ROOT
ATOM      1  C   UNL     1      45.079  29.616   1.752  1.00  0.00     0.000 C 
ENDROOT
BRANCH   1   2
ATOM      2  C   UNL     1      44.978  28.806   3.058  1.00  0.00     0.000 C 
BRANCH   2   3
ATOM      3  C   UNL     1      44.053  27.580   2.987  1.00  0.00     0.000 C 
BRANCH   3   4
ATOM      4  C   UNL     1      44.739  26.285   3.446  1.00  0.00    -0.000 C 
BRANCH   4   5
ATOM      5  C   UNL     1      46.266  26.450   3.460  1.00  0.00    -0.000 C 
BRANCH   5   6
ATOM      6  C   UNL     1      46.910  25.937   4.758  1.00  0.00    -0.000 C 
BRANCH   6   7
ATOM      7  C   UNL     1      47.125  27.005   5.849  1.00  0.00    -0.000 C 
BRANCH   7   8
ATOM      8  C   UNL     1      46.125  26.918   7.022  1.00  0.00    -0.000 C 
BRANCH   8   9
ATOM      9  C   UNL     1      45.621  28.300   7.468  1.00  0.00    -0.000 C 
BRANCH   9  10
ATOM     10  C   UNL     1      45.696  28.452   8.992  1.00  0.00    -0.000 C 
BRANCH  10  11
ATOM     11  C   UNL     1      45.238  27.169   9.692  1.00  0.00    -0.003 C 
ATOM     12  C   UNL     1      46.379  26.533  10.483  1.00  0.00     0.004 C 
ENDBRANCH  10  11
ENDBRANCH   9  10
ENDBRANCH   8   9
ENDBRANCH   7   8
ENDBRANCH   6   7
ENDBRANCH   5   6
ENDBRANCH   4   5
ENDBRANCH   3   4
ENDBRANCH   2   3
ENDBRANCH   1   2
BRANCH   1  13
ATOM     13  C   UNL     1      46.101  29.051   0.743  1.00  0.00     0.000 C 
BRANCH  13  14
ATOM     14  C   UNL     1      45.472  28.041  -0.232  1.00  0.00     0.000 C 
BRANCH  14  15
ATOM     15  C   UNL     1      46.305  27.878  -1.522  1.00  0.00     0.000 C 
BRANCH  15  16
ATOM     16  C   UNL     1      46.710  29.212  -2.173  1.00  0.00     0.000 C 
BRANCH  16  17
ATOM     17  C   UNL     1      46.283  29.320  -3.643  1.00  0.00     0.000 C 
BRANCH  17  18
ATOM     18  C   UNL     1      46.911  28.223  -4.519  1.00  0.00     0.000 C 
BRANCH  18  19
ATOM     19  C   UNL     1      45.869  27.480  -5.376  1.00  0.00     0.000 C 
BRANCH  19  20
ATOM     20  C   UNL     1      44.445  27.601  -4.810  1.00  0.00     0.006 C 
BRANCH  20  21
ATOM     21  C   UNL     1      43.439  28.103  -5.853  1.00  0.00     0.053 C 
BRANCH  21  22
ATOM     22  C   UNL     1      42.175  28.553  -5.189  1.00  0.00     0.041 C 
ATOM     23  O   UNL     1      41.445  29.420  -5.737  1.00  0.00    -0.550 OA
ATOM     24  O   UNL     1      41.830  28.055  -3.939  1.00  0.00    -0.550 OA
ENDBRANCH  21  22
ENDBRANCH  20  21
ENDBRANCH  19  20
ENDBRANCH  18  19
ENDBRANCH  17  18
ENDBRANCH  16  17
ENDBRANCH  15  16
ENDBRANCH  14  15
ENDBRANCH  13  14
ENDBRANCH   1  13
TORSDOF 20
ENDMDL
MODEL 3
REMARK VINA RESULT:    -3.641      1.517      3.159
REMARK INTER + INTRA:         -10.354
REMARK INTER:                  -8.600
REMARK INTRA:                  -1.754
REMARK UNBOUND:                -2.456
REMARK SMILES CCCCCCCCCCCCCCCCCCCCCC(=O)[O-]
REMARK SMILES IDX 12 1 11 2 10 3 9 4 8 5 7 6 6 7 5 8 4 9 3 10 2 11 1 12 13 13
REMARK SMILES IDX 14 14 15 15 16 16 17 17 18 18 19 19 20 20 21 21 22 22 23 23
REMARK SMILES IDX 24 24
REMARK H PARENT
REMARK Flexibility Score: inf
ROOT
ATOM      1  C   UNL     1      44.440  27.492   2.600  1.00  0.00     0.000 C 
ENDROOT
BRANCH   1   2
ATOM      2  C   UNL     1      44.733  28.974   2.301  1.00  0.00     0.000 C 
BRANCH   2   3
ATOM      3  C   UNL     1      46.209  29.295   2.017  1.00  0.00     0.000 C 
BRANCH   3   4
ATOM      4  C   UNL     1      46.432  29.909   0.627  1.00  0.00    -0.000 C 
BRANCH   4   5
ATOM      5  C   UNL     1      45.892  28.983  -0.473  1.00  0.00    -0.000 C 
BRANCH   5   6
ATOM      6  C   UNL     1      45.592  29.725  -1.785  1.00  0.00    -0.000 C 
BRANCH   6   7
ATOM      7  C   UNL     1      44.469  29.110  -2.643  1.00  0.00    -0.000 C 
BRANCH   7   8
ATOM      8  C   UNL     1      44.698  27.629  -3.014  1.00  0.00    -0.000 C 
BRANCH   8   9
ATOM      9  C   UNL     1      43.580  27.066  -3.906  1.00  0.00    -0.000 C 
BRANCH   9  10
ATOM     10  C   UNL     1      42.490  28.115  -4.157  1.00  0.00    -0.000 C 
BRANCH  10  11
ATOM     11  C   UNL     1      42.431  28.499  -5.638  1.00  0.00    -0.003 C 
ATOM     12  C   UNL     1      43.706  28.084  -6.368  1.00  0.00     0.004 C 
ENDBRANCH  10  11
ENDBRANCH   9  10
ENDBRANCH   8   9
ENDBRANCH   7   8
ENDBRANCH   6   7
ENDBRANCH   5   6
ENDBRANCH   4   5
ENDBRANCH   3   4
ENDBRANCH   2   3
ENDBRANCH   1   2
BRANCH   1  13
ATOM     13  C   UNL     1      45.632  26.732   3.219  1.00  0.00     0.000 C 
BRANCH  13  14
ATOM     14  C   UNL     1      45.273  26.056   4.554  1.00  0.00     0.000 C 
BRANCH  14  15
ATOM     15  C   UNL     1      46.146  26.566   5.721  1.00  0.00     0.000 C 
BRANCH  15  16
ATOM     16  C   UNL     1      46.625  28.018   5.550  1.00  0.00     0.000 C 
BRANCH  16  17
ATOM     17  C   UNL     1      45.523  29.051   5.818  1.00  0.00     0.000 C 
BRANCH  17  18
ATOM     18  C   UNL     1      45.853  29.968   7.006  1.00  0.00     0.000 C 
BRANCH  18  19
ATOM     19  C   UNL     1      46.339  29.187   8.241  1.00  0.00     0.000 C 
BRANCH  19  20
ATOM     20  C   UNL     1      45.178  28.643   9.089  1.00  0.00     0.006 C 
BRANCH  20  21
ATOM     21  C   UNL     1      45.250  27.122   9.275  1.00  0.00     0.053 C 
BRANCH  21  22
ATOM     22  C   UNL     1      46.111  26.777  10.451  1.00  0.00     0.041 C 
ATOM     23  O   UNL     1      46.447  27.668  11.274  1.00  0.00    -0.550 OA
ATOM     24  O   UNL     1      46.588  25.482  10.607  1.00  0.00    -0.550 OA
ENDBRANCH  21  22
ENDBRANCH  20  21
ENDBRANCH  19  20
ENDBRANCH  18  19
ENDBRANCH  17  18
ENDBRANCH  16  17
ENDBRANCH  15  16
ENDBRANCH  14  15
ENDBRANCH  13  14
ENDBRANCH   1  13
TORSDOF 20
ENDMDL
MODEL 4
REMARK VINA RESULT:    -3.536      3.900     10.775
REMARK INTER + INTRA:         -10.127
REMARK INTER:                  -8.770
REMARK INTRA:                  -1.356
REMARK UNBOUND:                -2.456
REMARK SMILES CCCCCCCCCCCCCCCCCCCCCC(=O)[O-]
REMARK SMILES IDX 12 1 11 2 10 3 9 4 8 5 7 6 6 7 5 8 4 9 3 10 2 11 1 12 13 13
REMARK SMILES IDX 14 14 15 15 16 16 17 17 18 18 19 19 20 20 21 21 22 22 23 23
REMARK SMILES IDX 24 24
REMARK H PARENT
REMARK Flexibility Score: inf
ROOT
ATOM      1  C   UNL     1      45.317  27.871  -0.273  1.00  0.00     0.000 C 
ENDROOT
BRANCH   1   2
ATOM      2  C   UNL     1      45.253  28.473   1.143  1.00  0.00     0.000 C 
BRANCH   2   3
ATOM      3  C   UNL     1      44.783  27.501   2.237  1.00  0.00     0.000 C 
BRANCH   3   4
ATOM      4  C   UNL     1      45.935  26.984   3.112  1.00  0.00    -0.000 C 
BRANCH   4   5
ATOM      5  C   UNL     1      45.398  26.347   4.403  1.00  0.00    -0.000 C 
BRANCH   5   6
ATOM      6  C   UNL     1      46.189  26.769   5.651  1.00  0.00    -0.000 C 
BRANCH   6   7
ATOM      7  C   UNL     1      45.956  28.221   6.114  1.00  0.00    -0.000 C 
BRANCH   7   8
ATOM      8  C   UNL     1      45.813  28.380   7.643  1.00  0.00    -0.000 C 
BRANCH   8   9
ATOM      9  C   UNL     1      45.581  27.038   8.355  1.00  0.00    -0.000 C 
BRANCH   9  10
ATOM     10  C   UNL     1      44.937  27.245   9.731  1.00  0.00    -0.000 C 
BRANCH  10  11
ATOM     11  C   UNL     1      44.786  28.736  10.045  1.00  0.00    -0.003 C 
ATOM     12  C   UNL     1      45.816  29.193  11.075  1.00  0.00     0.004 C 
ENDBRANCH  10  11
ENDBRANCH   9  10
ENDBRANCH   8   9
ENDBRANCH   7   8
ENDBRANCH   6   7
ENDBRANCH   5   6
ENDBRANCH   4   5
ENDBRANCH   3   4
ENDBRANCH   2   3
ENDBRANCH   1   2
BRANCH   1  13
ATOM     13  C   UNL     1      45.482  28.921  -1.392  1.00  0.00     0.000 C 
BRANCH  13  14
ATOM     14  C   UNL     1      46.909  28.954  -1.965  1.00  0.00     0.000 C 
BRANCH  14  15
ATOM     15  C   UNL     1      46.924  28.843  -3.505  1.00  0.00     0.000 C 
BRANCH  15  16
ATOM     16  C   UNL     1      46.522  27.454  -4.030  1.00  0.00     0.000 C 
BRANCH  16  17
ATOM     17  C   UNL     1      46.147  27.458  -5.518  1.00  0.00     0.000 C 
BRANCH  17  18
ATOM     18  C   UNL     1      45.968  28.880  -6.075  1.00  0.00     0.000 C 
BRANCH  18  19
ATOM     19  C   UNL     1      44.757  29.000  -7.019  1.00  0.00     0.000 C 
BRANCH  19  20
ATOM     20  C   UNL     1      43.579  28.117  -6.581  1.00  0.00     0.006 C 
BRANCH  20  21
ATOM     21  C   UNL     1      42.537  28.891  -5.762  1.00  0.00     0.053 C 
BRANCH  21  22
ATOM     22  C   UNL     1      42.560  28.449  -4.331  1.00  0.00     0.041 C 
ATOM     23  O   UNL     1      42.216  29.244  -3.417  1.00  0.00    -0.550 OA
ATOM     24  O   UNL     1      43.011  27.177  -4.003  1.00  0.00    -0.550 OA
ENDBRANCH  21  22
ENDBRANCH  20  21
ENDBRANCH  19  20
ENDBRANCH  18  19
ENDBRANCH  17  18
ENDBRANCH  16  17
ENDBRANCH  15  16
ENDBRANCH  14  15
ENDBRANCH  13  14
ENDBRANCH   1  13
TORSDOF 20
ENDMDL
MODEL 5
REMARK VINA RESULT:    -3.496      1.274      2.485
REMARK INTER + INTRA:         -10.040
REMARK INTER:                  -8.004
REMARK INTRA:                  -2.036
REMARK UNBOUND:                -2.456
REMARK SMILES CCCCCCCCCCCCCCCCCCCCCC(=O)[O-]
REMARK SMILES IDX 12 1 11 2 10 3 9 4 8 5 7 6 6 7 5 8 4 9 3 10 2 11 1 12 13 13
REMARK SMILES IDX 14 14 15 15 16 16 17 17 18 18 19 19 20 20 21 21 22 22 23 23
REMARK SMILES IDX 24 24
REMARK H PARENT
REMARK Flexibility Score: inf
ROOT
ATOM      1  C   UNL     1      45.440  28.267  -0.937  1.00  0.00     0.000 C 
ENDROOT
BRANCH   1   2
ATOM      2  C   UNL     1      45.518  29.221  -2.144  1.00  0.00     0.000 C 
BRANCH   2   3
ATOM      3  C   UNL     1      46.829  29.144  -2.943  1.00  0.00     0.000 C 
BRANCH   3   4
ATOM      4  C   UNL     1      46.617  29.305  -4.456  1.00  0.00    -0.000 C 
BRANCH   4   5
ATOM      5  C   UNL     1      46.809  27.965  -5.181  1.00  0.00    -0.000 C 
BRANCH   5   6
ATOM      6  C   UNL     1      45.927  27.831  -6.433  1.00  0.00    -0.000 C 
BRANCH   6   7
ATOM      7  C   UNL     1      45.030  29.048  -6.734  1.00  0.00    -0.000 C 
BRANCH   7   8
ATOM      8  C   UNL     1      43.522  28.721  -6.787  1.00  0.00    -0.000 C 
BRANCH   8   9
ATOM      9  C   UNL     1      42.689  29.638  -5.877  1.00  0.00    -0.000 C 
BRANCH   9  10
ATOM     10  C   UNL     1      42.816  29.224  -4.406  1.00  0.00    -0.000 C 
BRANCH  10  11
ATOM     11  C   UNL     1      42.292  27.800  -4.193  1.00  0.00    -0.003 C 
ATOM     12  C   UNL     1      43.427  26.838  -3.850  1.00  0.00     0.004 C 
ENDBRANCH  10  11
ENDBRANCH   9  10
ENDBRANCH   8   9
ENDBRANCH   7   8
ENDBRANCH   6   7
ENDBRANCH   5   6
ENDBRANCH   4   5
ENDBRANCH   3   4
ENDBRANCH   2   3
ENDBRANCH   1   2
BRANCH   1  13
ATOM     13  C   UNL     1      46.742  28.194  -0.113  1.00  0.00     0.000 C 
BRANCH  13  14
ATOM     14  C   UNL     1      46.495  28.365   1.396  1.00  0.00     0.000 C 
BRANCH  14  15
ATOM     15  C   UNL     1      45.100  27.859   1.822  1.00  0.00     0.000 C 
BRANCH  15  16
ATOM     16  C   UNL     1      44.698  28.271   3.248  1.00  0.00     0.000 C 
BRANCH  16  17
ATOM     17  C   UNL     1      45.495  29.473   3.775  1.00  0.00     0.000 C 
BRANCH  17  18
ATOM     18  C   UNL     1      45.602  29.480   5.308  1.00  0.00     0.000 C 
BRANCH  18  19
ATOM     19  C   UNL     1      45.959  28.098   5.884  1.00  0.00     0.000 C 
BRANCH  19  20
ATOM     20  C   UNL     1      46.036  28.100   7.419  1.00  0.00     0.006 C 
BRANCH  20  21
ATOM     21  C   UNL     1      45.776  26.714   8.022  1.00  0.00     0.053 C 
BRANCH  21  22
ATOM     22  C   UNL     1      45.524  26.821   9.495  1.00  0.00     0.041 C 
ATOM     23  O   UNL     1      45.982  25.951  10.281  1.00  0.00    -0.550 OA
ATOM     24  O   UNL     1      44.737  27.851   9.992  1.00  0.00    -0.550 OA
ENDBRANCH  21  22
ENDBRANCH  20  21
ENDBRANCH  19  20
ENDBRANCH  18  19
ENDBRANCH  17  18
ENDBRANCH  16  17
ENDBRANCH  15  16
ENDBRANCH  14  15
ENDBRANCH  13  14
ENDBRANCH   1  13
TORSDOF 20
ENDMDL
MODEL 6
REMARK VINA RESULT:    -3.441      4.080     10.299
REMARK INTER + INTRA:          -9.920
REMARK INTER:                  -8.037
REMARK INTRA:                  -1.883
REMARK UNBOUND:                -2.456
REMARK SMILES CCCCCCCCCCCCCCCCCCCCCC(=O)[O-]
REMARK SMILES IDX 12 1 11 2 10 3 9 4 8 5 7 6 6 7 5 8 4 9 3 10 2 11 1 12 13 13
REMARK SMILES IDX 14 14 15 15 16 16 17 17 18 18 19 19 20 20 21 21 22 22 23 23
REMARK SMILES IDX 24 24
REMARK H PARENT
REMARK Flexibility Score: inf
ROOT
ATOM      1  C   UNL     1      45.597  28.044  -0.289  1.00  0.00     0.000 C 
ENDROOT
BRANCH   1   2
ATOM      2  C   UNL     1      46.529  29.176   0.183  1.00  0.00     0.000 C 
BRANCH   2   3
ATOM      3  C   UNL     1      46.154  29.797   1.538  1.00  0.00     0.000 C 
BRANCH   3   4
ATOM      4  C   UNL     1      44.792  29.317   2.060  1.00  0.00    -0.000 C 
BRANCH   4   5
ATOM      5  C   UNL     1      44.950  28.561   3.388  1.00  0.00    -0.000 C 
BRANCH   5   6
ATOM      6  C   UNL     1      44.519  27.088   3.292  1.00  0.00    -0.000 C 
BRANCH   6   7
ATOM      7  C   UNL     1      45.350  26.106   4.141  1.00  0.00    -0.000 C 
BRANCH   7   8
ATOM      8  C   UNL     1      46.710  26.670   4.605  1.00  0.00    -0.000 C 
BRANCH   8   9
ATOM      9  C   UNL     1      46.952  26.461   6.109  1.00  0.00    -0.000 C 
BRANCH   9  10
ATOM     10  C   UNL     1      45.729  26.885   6.931  1.00  0.00    -0.000 C 
BRANCH  10  11
ATOM     11  C   UNL     1      46.140  27.797   8.091  1.00  0.00    -0.003 C 
ATOM     12  C   UNL     1      45.215  27.616   9.291  1.00  0.00     0.004 C 
ENDBRANCH  10  11
ENDBRANCH   9  10
ENDBRANCH   8   9
ENDBRANCH   7   8
ENDBRANCH   6   7
ENDBRANCH   5   6
ENDBRANCH   4   5
ENDBRANCH   3   4
ENDBRANCH   2   3
ENDBRANCH   1   2
BRANCH   1  13
ATOM     13  C   UNL     1      45.594  27.834  -1.818  1.00  0.00     0.000 C 
BRANCH  13  14
ATOM     14  C   UNL     1      45.251  29.119  -2.590  1.00  0.00     0.000 C 
BRANCH  14  15
ATOM     15  C   UNL     1      46.387  29.551  -3.542  1.00  0.00     0.000 C 
BRANCH  15  16
ATOM     16  C   UNL     1      46.836  28.446  -4.514  1.00  0.00     0.000 C 
BRANCH  16  17
ATOM     17  C   UNL     1      47.099  28.963  -5.935  1.00  0.00     0.000 C 
BRANCH  17  18
ATOM     18  C   UNL     1      46.329  28.167  -7.001  1.00  0.00     0.000 C 
BRANCH  18  19
ATOM     19  C   UNL     1      44.954  27.684  -6.503  1.00  0.00     0.000 C 
BRANCH  19  20
ATOM     20  C   UNL     1      43.804  28.581  -6.985  1.00  0.00     0.006 C 
BRANCH  20  21
ATOM     21  C   UNL     1      43.558  29.773  -6.050  1.00  0.00     0.053 C 
BRANCH  21  22
ATOM     22  C   UNL     1      42.255  29.614  -5.328  1.00  0.00     0.041 C 
ATOM     23  O   UNL     1      41.225  29.248  -5.952  1.00  0.00    -0.550 OA
ATOM     24  O   UNL     1      42.167  29.921  -3.977  1.00  0.00    -0.550 OA
ENDBRANCH  21  22
ENDBRANCH  20  21
ENDBRANCH  19  20
ENDBRANCH  18  19
ENDBRANCH  17  18
ENDBRANCH  16  17
ENDBRANCH  15  16
ENDBRANCH  14  15
ENDBRANCH  13  14
ENDBRANCH   1  13
TORSDOF 20
ENDMDL
MODEL 7
REMARK VINA RESULT:    -3.263      1.817      3.833
REMARK INTER + INTRA:          -9.535
REMARK INTER:                  -8.339
REMARK INTRA:                  -1.195
REMARK UNBOUND:                -2.456
REMARK SMILES CCCCCCCCCCCCCCCCCCCCCC(=O)[O-]
REMARK SMILES IDX 12 1 11 2 10 3 9 4 8 5 7 6 6 7 5 8 4 9 3 10 2 11 1 12 13 13
REMARK SMILES IDX 14 14 15 15 16 16 17 17 18 18 19 19 20 20 21 21 22 22 23 23
REMARK SMILES IDX 24 24
REMARK H PARENT
REMARK Flexibility Score: inf
ROOT
ATOM      1  C   UNL     1      45.273  26.674   4.348  1.00  0.00     0.000 C 
ENDROOT
BRANCH   1   2
ATOM      2  C   UNL     1      45.808  27.061   2.957  1.00  0.00     0.000 C 
BRANCH   2   3
ATOM      3  C   UNL     1      44.853  27.922   2.115  1.00  0.00     0.000 C 
BRANCH   3   4
ATOM      4  C   UNL     1      45.583  28.992   1.288  1.00  0.00    -0.000 C 
BRANCH   4   5
ATOM      5  C   UNL     1      46.664  28.355   0.402  1.00  0.00    -0.000 C 
BRANCH   5   6
ATOM      6  C   UNL     1      46.809  29.054  -0.959  1.00  0.00    -0.000 C 
BRANCH   6   7
ATOM      7  C   UNL     1      46.578  28.152  -2.187  1.00  0.00    -0.000 C 
BRANCH   7   8
ATOM      8  C   UNL     1      45.149  27.575  -2.285  1.00  0.00    -0.000 C 
BRANCH   8   9
ATOM      9  C   UNL     1      44.691  27.383  -3.740  1.00  0.00    -0.000 C 
BRANCH   9  10
ATOM     10  C   UNL     1      43.235  26.908  -3.805  1.00  0.00    -0.000 C 
BRANCH  10  11
ATOM     11  C   UNL     1      42.322  28.016  -4.338  1.00  0.00    -0.003 C 
ATOM     12  C   UNL     1      43.131  29.226  -4.798  1.00  0.00     0.004 C 
ENDBRANCH  10  11
ENDBRANCH   9  10
ENDBRANCH   8   9
ENDBRANCH   7   8
ENDBRANCH   6   7
ENDBRANCH   5   6
ENDBRANCH   4   5
ENDBRANCH   3   4
ENDBRANCH   2   3
ENDBRANCH   1   2
BRANCH   1  13
ATOM     13  C   UNL     1      46.377  26.469   5.407  1.00  0.00     0.000 C 
BRANCH  13  14
ATOM     14  C   UNL     1      46.593  27.715   6.283  1.00  0.00     0.000 C 
BRANCH  14  15
ATOM     15  C   UNL     1      45.933  28.975   5.681  1.00  0.00     0.000 C 
BRANCH  15  16
ATOM     16  C   UNL     1      45.314  29.914   6.731  1.00  0.00     0.000 C 
BRANCH  16  17
ATOM     17  C   UNL     1      45.893  29.709   8.137  1.00  0.00     0.000 C 
BRANCH  17  18
ATOM     18  C   UNL     1      44.800  29.575   9.209  1.00  0.00     0.000 C 
BRANCH  18  19
ATOM     19  C   UNL     1      45.372  29.265  10.605  1.00  0.00     0.000 C 
BRANCH  19  20
ATOM     20  C   UNL     1      46.731  28.551  10.539  1.00  0.00     0.006 C 
BRANCH  20  21
ATOM     21  C   UNL     1      46.785  27.310  11.440  1.00  0.00     0.053 C 
BRANCH  21  22
ATOM     22  C   UNL     1      46.466  26.076  10.653  1.00  0.00     0.041 C 
ATOM     23  O   UNL     1      45.776  26.155   9.603  1.00  0.00    -0.550 OA
ATOM     24  O   UNL     1      46.884  24.833  11.109  1.00  0.00    -0.550 OA
ENDBRANCH  21  22
ENDBRANCH  20  21
ENDBRANCH  19  20
ENDBRANCH  18  19
ENDBRANCH  17  18
ENDBRANCH  16  17
ENDBRANCH  15  16
ENDBRANCH  14  15
ENDBRANCH  13  14
ENDBRANCH   1  13
TORSDOF 20
ENDMDL
MODEL 8
REMARK VINA RESULT:    -3.203      1.517      2.714
REMARK INTER + INTRA:          -9.405
REMARK INTER:                  -7.807
REMARK INTRA:                  -1.598
REMARK UNBOUND:                -2.456
REMARK SMILES CCCCCCCCCCCCCCCCCCCCCC(=O)[O-]
REMARK SMILES IDX 12 1 11 2 10 3 9 4 8 5 7 6 6 7 5 8 4 9 3 10 2 11 1 12 13 13
REMARK SMILES IDX 14 14 15 15 16 16 17 17 18 18 19 19 20 20 21 21 22 22 23 23
REMARK SMILES IDX 24 24
REMARK H PARENT
REMARK Flexibility Score: inf
ROOT
ATOM      1  C   UNL     1      45.584  28.003   0.451  1.00  0.00     0.000 C 
ENDROOT
BRANCH   1   2
ATOM      2  C   UNL     1      46.650  28.249  -0.632  1.00  0.00     0.000 C 
BRANCH   2   3
ATOM      3  C   UNL     1      46.091  28.545  -2.033  1.00  0.00     0.000 C 
BRANCH   3   4
ATOM      4  C   UNL     1      45.659  30.008  -2.208  1.00  0.00    -0.000 C 
BRANCH   4   5
ATOM      5  C   UNL     1      44.130  30.119  -2.308  1.00  0.00    -0.000 C 
BRANCH   5   6
ATOM      6  C   UNL     1      43.531  29.175  -3.363  1.00  0.00    -0.000 C 
BRANCH   6   7
ATOM      7  C   UNL     1      42.653  29.859  -4.430  1.00  0.00    -0.000 C 
BRANCH   7   8
ATOM      8  C   UNL     1      43.368  30.095  -5.778  1.00  0.00    -0.000 C 
BRANCH   8   9
ATOM      9  C   UNL     1      43.052  29.002  -6.811  1.00  0.00    -0.000 C 
BRANCH   9  10
ATOM     10  C   UNL     1      44.149  27.932  -6.840  1.00  0.00    -0.000 C 
BRANCH  10  11
ATOM     11  C   UNL     1      45.536  28.569  -6.717  1.00  0.00    -0.003 C 
ATOM     12  C   UNL     1      46.362  27.890  -5.627  1.00  0.00     0.004 C 
ENDBRANCH  10  11
ENDBRANCH   9  10
ENDBRANCH   8   9
ENDBRANCH   7   8
ENDBRANCH   6   7
ENDBRANCH   5   6
ENDBRANCH   4   5
ENDBRANCH   3   4
ENDBRANCH   2   3
ENDBRANCH   1   2
BRANCH   1  13
ATOM     13  C   UNL     1      46.161  27.522   1.800  1.00  0.00     0.000 C 
BRANCH  13  14
ATOM     14  C   UNL     1      45.151  27.649   2.953  1.00  0.00     0.000 C 
BRANCH  14  15
ATOM     15  C   UNL     1      45.010  26.335   3.753  1.00  0.00     0.000 C 
BRANCH  15  16
ATOM     16  C   UNL     1      45.607  26.405   5.170  1.00  0.00     0.000 C 
BRANCH  16  17
ATOM     17  C   UNL     1      46.983  27.083   5.211  1.00  0.00     0.000 C 
BRANCH  17  18
ATOM     18  C   UNL     1      46.980  28.368   6.055  1.00  0.00     0.000 C 
BRANCH  18  19
ATOM     19  C   UNL     1      45.636  28.605   6.767  1.00  0.00     0.000 C 
BRANCH  19  20
ATOM     20  C   UNL     1      45.805  29.289   8.133  1.00  0.00     0.006 C 
BRANCH  20  21
ATOM     21  C   UNL     1      44.880  28.698   9.204  1.00  0.00     0.053 C 
BRANCH  21  22
ATOM     22  C   UNL     1      45.452  27.426   9.750  1.00  0.00     0.041 C 
ATOM     23  O   UNL     1      45.201  26.326   9.191  1.00  0.00    -0.550 OA
ATOM     24  O   UNL     1      46.220  27.449  10.907  1.00  0.00    -0.550 OA
ENDBRANCH  21  22
ENDBRANCH  20  21
ENDBRANCH  19  20
ENDBRANCH  18  19
ENDBRANCH  17  18
ENDBRANCH  16  17
ENDBRANCH  15  16
ENDBRANCH  14  15
ENDBRANCH  13  14
ENDBRANCH   1  13
TORSDOF 20
ENDMDL
MODEL 9
REMARK VINA RESULT:    -3.200      4.288     10.691
REMARK INTER + INTRA:          -9.397
REMARK INTER:                  -7.613
REMARK INTRA:                  -1.784
REMARK UNBOUND:                -2.456
REMARK SMILES CCCCCCCCCCCCCCCCCCCCCC(=O)[O-]
REMARK SMILES IDX 12 1 11 2 10 3 9 4 8 5 7 6 6 7 5 8 4 9 3 10 2 11 1 12 13 13
REMARK SMILES IDX 14 14 15 15 16 16 17 17 18 18 19 19 20 20 21 21 22 22 23 23
REMARK SMILES IDX 24 24
REMARK H PARENT
REMARK Flexibility Score: inf
ROOT
ATOM      1  C   UNL     1      45.252  27.656   1.512  1.00  0.00     0.000 C 
ENDROOT
BRANCH   1   2
ATOM      2  C   UNL     1      44.833  27.412   2.974  1.00  0.00     0.000 C 
BRANCH   2   3
ATOM      3  C   UNL     1      45.642  28.199   4.017  1.00  0.00     0.000 C 
BRANCH   3   4
ATOM      4  C   UNL     1      45.993  27.363   5.257  1.00  0.00    -0.000 C 
BRANCH   4   5
ATOM      5  C   UNL     1      46.457  28.264   6.411  1.00  0.00    -0.000 C 
BRANCH   5   6
ATOM      6  C   UNL     1      45.599  29.531   6.563  1.00  0.00    -0.000 C 
BRANCH   6   7
ATOM      7  C   UNL     1      45.311  29.955   8.016  1.00  0.00    -0.000 C 
BRANCH   7   8
ATOM      8  C   UNL     1      46.511  29.786   8.972  1.00  0.00    -0.000 C 
BRANCH   8   9
ATOM      9  C   UNL     1      46.167  28.930  10.202  1.00  0.00    -0.000 C 
BRANCH   9  10
ATOM     10  C   UNL     1      47.095  27.714  10.308  1.00  0.00    -0.000 C 
BRANCH  10  11
ATOM     11  C   UNL     1      46.464  26.486   9.646  1.00  0.00    -0.003 C 
ATOM     12  C   UNL     1      44.975  26.702   9.383  1.00  0.00     0.004 C 
ENDBRANCH  10  11
ENDBRANCH   9  10
ENDBRANCH   8   9
ENDBRANCH   7   8
ENDBRANCH   6   7
ENDBRANCH   5   6
ENDBRANCH   4   5
ENDBRANCH   3   4
ENDBRANCH   2   3
ENDBRANCH   1   2
BRANCH   1  13
ATOM     13  C   UNL     1      46.679  28.222   1.358  1.00  0.00     0.000 C 
BRANCH  13  14
ATOM     14  C   UNL     1      46.718  29.501   0.503  1.00  0.00     0.000 C 
BRANCH  14  15
ATOM     15  C   UNL     1      45.402  29.725  -0.274  1.00  0.00     0.000 C 
BRANCH  15  16
ATOM     16  C   UNL     1      45.591  29.828  -1.798  1.00  0.00     0.000 C 
BRANCH  16  17
ATOM     17  C   UNL     1      46.107  28.528  -2.430  1.00  0.00     0.000 C 
BRANCH  17  18
ATOM     18  C   UNL     1      45.192  27.328  -2.136  1.00  0.00     0.000 C 
BRANCH  18  19
ATOM     19  C   UNL     1      44.201  27.044  -3.280  1.00  0.00     0.000 C 
BRANCH  19  20
ATOM     20  C   UNL     1      44.715  27.536  -4.641  1.00  0.00     0.006 C 
BRANCH  20  21
ATOM     21  C   UNL     1      43.577  27.826  -5.629  1.00  0.00     0.053 C 
BRANCH  21  22
ATOM     22  C   UNL     1      42.547  28.710  -4.998  1.00  0.00     0.041 C 
ATOM     23  O   UNL     1      41.489  28.215  -4.528  1.00  0.00    -0.550 OA
ATOM     24  O   UNL     1      42.730  30.086  -4.977  1.00  0.00    -0.550 OA
ENDBRANCH  21  22
ENDBRANCH  20  21
ENDBRANCH  19  20
ENDBRANCH  18  19
ENDBRANCH  17  18
ENDBRANCH  16  17
ENDBRANCH  15  16
ENDBRANCH  14  15
ENDBRANCH  13  14
ENDBRANCH   1  13
TORSDOF 20
ENDMDL
