MODEL 1
REMARK VINA RESULT:    -7.442      0.000      0.000
REMARK INTER + INTRA:          -9.258
REMARK INTER:                  -8.965
REMARK INTRA:                  -0.293
REMARK UNBOUND:                -0.293
REMARK SMILES O=c1c(O)c(-c2ccc(O)c(O)c2)oc2cc(O)cc(O)c12
REMARK SMILES IDX 5 1 3 2 2 3 1 4 22 5 20 6 19 7 17 8 16 9 15 10 14 11 6 12
REMARK SMILES IDX 7 13 8 14 9 15 13 16 11 17 10 18 12 20 4 22 21 24 18 26
REMARK H PARENT 10 19 12 21 4 23 21 25 18 27
REMARK Flexibility Score: inf
ROOT
ATOM      1  C   UNL     1      -0.046  -7.665  14.950  1.00  0.00     0.180 A 
ATOM      2  C   UNL     1       0.905  -6.700  14.566  1.00  0.00     0.208 A 
ATOM      3  C   UNL     1       2.133  -6.651  15.245  1.00  0.00     0.238 A 
ATOM      4  O   UNL     1       2.988  -5.783  14.916  1.00  0.00    -0.285 OA
ATOM      5  C   UNL     1       2.397  -7.574  16.277  1.00  0.00     0.111 A 
ATOM      6  C   UNL     1       3.609  -7.593  17.007  1.00  0.00     0.134 A 
ATOM      7  C   UNL     1       3.799  -8.550  18.015  1.00  0.00     0.093 A 
ATOM      8  C   UNL     1       2.804  -9.486  18.305  1.00  0.00     0.123 A 
ATOM      9  C   UNL     1       1.603  -9.471  17.588  1.00  0.00     0.094 A 
ATOM     10  C   UNL     1       1.394  -8.525  16.582  1.00  0.00     0.146 A 
ATOM     11  O   UNL     1       0.243  -8.529  15.918  1.00  0.00    -0.452 OA
ENDROOT
BRANCH   1  12
ATOM     12  C   UNL     1      -1.370  -7.769  14.295  1.00  0.00     0.025 A 
ATOM     13  C   UNL     1      -2.385  -6.863  14.640  1.00  0.00     0.016 A 
ATOM     14  C   UNL     1      -3.635  -6.929  14.020  1.00  0.00     0.051 A 
ATOM     15  C   UNL     1      -3.883  -7.892  13.033  1.00  0.00     0.157 A 
ATOM     16  C   UNL     1      -1.616  -8.720  13.289  1.00  0.00     0.062 A 
ATOM     17  C   UNL     1      -2.870  -8.787  12.664  1.00  0.00     0.158 A 
BRANCH  15  18
ATOM     18  O   UNL     1      -5.128  -7.964  12.412  1.00  0.00    -0.504 OA
ATOM     19  H   UNL     1      -5.963  -8.222  12.926  1.00  0.00     0.293 HD
ENDBRANCH  15  18
BRANCH  17  20
ATOM     20  O   UNL     1      -3.115  -9.734  11.670  1.00  0.00    -0.504 OA
ATOM     21  H   UNL     1      -2.430 -10.442  11.433  1.00  0.00     0.293 HD
ENDBRANCH  17  20
ENDBRANCH   1  12
BRANCH   2  22
ATOM     22  O   UNL     1       0.639  -5.829  13.506  1.00  0.00    -0.502 OA
ATOM     23  H   UNL     1       0.931  -6.025  12.556  1.00  0.00     0.293 HD
ENDBRANCH   2  22
BRANCH   6  24
ATOM     24  O   UNL     1       4.623  -6.672  16.740  1.00  0.00    -0.507 OA
ATOM     25  H   UNL     1       4.418  -5.728  16.430  1.00  0.00     0.293 HD
ENDBRANCH   6  24
BRANCH   8  26
ATOM     26  O   UNL     1       3.019 -10.427  19.310  1.00  0.00    -0.508 OA
ATOM     27  H   UNL     1       2.974 -10.174  20.291  1.00  0.00     0.293 HD
ENDBRANCH   8  26
TORSDOF 6
ENDMDL
MODEL 2
REMARK VINA RESULT:    -7.261      1.730      2.430
REMARK INTER + INTRA:          -9.040
REMARK INTER:                  -8.738
REMARK INTRA:                  -0.302
REMARK UNBOUND:                -0.293
REMARK SMILES O=c1c(O)c(-c2ccc(O)c(O)c2)oc2cc(O)cc(O)c12
REMARK SMILES IDX 5 1 3 2 2 3 1 4 22 5 20 6 19 7 17 8 16 9 15 10 14 11 6 12
REMARK SMILES IDX 7 13 8 14 9 15 13 16 11 17 10 18 12 20 4 22 21 24 18 26
REMARK H PARENT 10 19 12 21 4 23 21 25 18 27
REMARK Flexibility Score: inf
ROOT
ATOM      1  C   UNL     1      -0.864  -7.911  13.711  1.00  0.00     0.180 A 
ATOM      2  C   UNL     1       0.048  -7.520  12.710  1.00  0.00     0.208 A 
ATOM      3  C   UNL     1       1.347  -7.145  13.087  1.00  0.00     0.238 A 
ATOM      4  O   UNL     1       2.169  -6.783  12.200  1.00  0.00    -0.285 OA
ATOM      5  C   UNL     1       1.719  -7.186  14.446  1.00  0.00     0.111 A 
ATOM      6  C   UNL     1       3.009  -6.828  14.907  1.00  0.00     0.134 A 
ATOM      7  C   UNL     1       3.304  -6.905  16.276  1.00  0.00     0.093 A 
ATOM      8  C   UNL     1       2.338  -7.332  17.190  1.00  0.00     0.123 A 
ATOM      9  C   UNL     1       1.062  -7.686  16.742  1.00  0.00     0.094 A 
ATOM     10  C   UNL     1       0.748  -7.615  15.381  1.00  0.00     0.146 A 
ATOM     11  O   UNL     1      -0.473  -7.952  14.981  1.00  0.00    -0.452 OA
ENDROOT
BRANCH   1  12
ATOM     12  C   UNL     1      -2.256  -8.303  13.396  1.00  0.00     0.025 A 
ATOM     13  C   UNL     1      -2.613  -9.660  13.414  1.00  0.00     0.016 A 
ATOM     14  C   UNL     1      -3.927 -10.051  13.141  1.00  0.00     0.051 A 
ATOM     15  C   UNL     1      -4.906  -9.089  12.862  1.00  0.00     0.157 A 
ATOM     16  C   UNL     1      -3.247  -7.338  13.137  1.00  0.00     0.062 A 
ATOM     17  C   UNL     1      -4.567  -7.730  12.864  1.00  0.00     0.158 A 
BRANCH  15  18
ATOM     18  O   UNL     1      -6.217  -9.473  12.588  1.00  0.00    -0.504 OA
ATOM     19  H   UNL     1      -6.431 -10.383  12.196  1.00  0.00     0.293 HD
ENDBRANCH  15  18
BRANCH  17  20
ATOM     20  O   UNL     1      -5.547  -6.774  12.602  1.00  0.00    -0.504 OA
ATOM     21  H   UNL     1      -6.495  -7.040  12.358  1.00  0.00     0.293 HD
ENDBRANCH  17  20
ENDBRANCH   1  12
BRANCH   2  22
ATOM     22  O   UNL     1      -0.330  -7.536  11.366  1.00  0.00    -0.502 OA
ATOM     23  H   UNL     1      -0.404  -6.691  10.812  1.00  0.00     0.293 HD
ENDBRANCH   2  22
BRANCH   6  24
ATOM     24  O   UNL     1       3.995  -6.399  14.018  1.00  0.00    -0.507 OA
ATOM     25  H   UNL     1       4.982  -6.522  14.218  1.00  0.00     0.293 HD
ENDBRANCH   6  24
BRANCH   8  26
ATOM     26  O   UNL     1       2.658  -7.400  18.545  1.00  0.00    -0.508 OA
ATOM     27  H   UNL     1       2.412  -6.653  19.185  1.00  0.00     0.293 HD
ENDBRANCH   8  26
TORSDOF 6
ENDMDL
MODEL 3
REMARK VINA RESULT:    -7.213      4.655      9.620
REMARK INTER + INTRA:          -8.981
REMARK INTER:                  -8.659
REMARK INTRA:                  -0.322
REMARK UNBOUND:                -0.293
REMARK SMILES O=c1c(O)c(-c2ccc(O)c(O)c2)oc2cc(O)cc(O)c12
REMARK SMILES IDX 5 1 3 2 2 3 1 4 22 5 20 6 19 7 17 8 16 9 15 10 14 11 6 12
REMARK SMILES IDX 7 13 8 14 9 15 13 16 11 17 10 18 12 20 4 22 21 24 18 26
REMARK H PARENT 10 19 12 21 4 23 21 25 18 27
REMARK Flexibility Score: inf
ROOT
ATOM      1  C   UNL     1      -6.496  -7.795  13.597  1.00  0.00     0.180 A 
ATOM      2  C   UNL     1      -7.334  -7.267  12.596  1.00  0.00     0.208 A 
ATOM      3  C   UNL     1      -8.723  -7.285  12.797  1.00  0.00     0.238 A 
ATOM      4  O   UNL     1      -9.485  -6.824  11.903  1.00  0.00    -0.285 OA
ATOM      5  C   UNL     1      -9.248  -7.809  13.996  1.00  0.00     0.111 A 
ATOM      6  C   UNL     1     -10.635  -7.862  14.277  1.00  0.00     0.134 A 
ATOM      7  C   UNL     1     -11.077  -8.391  15.498  1.00  0.00     0.093 A 
ATOM      8  C   UNL     1     -10.164  -8.867  16.441  1.00  0.00     0.123 A 
ATOM      9  C   UNL     1      -8.793  -8.820  16.169  1.00  0.00     0.094 A 
ATOM     10  C   UNL     1      -8.332  -8.298  14.957  1.00  0.00     0.146 A 
ATOM     11  O   UNL     1      -7.025  -8.268  14.721  1.00  0.00    -0.452 OA
ENDROOT
BRANCH   1  12
ATOM     12  C   UNL     1      -5.023  -7.828  13.451  1.00  0.00     0.025 A 
ATOM     13  C   UNL     1      -4.410  -8.950  12.870  1.00  0.00     0.016 A 
ATOM     14  C   UNL     1      -3.023  -8.993  12.704  1.00  0.00     0.051 A 
ATOM     15  C   UNL     1      -2.231  -7.909  13.102  1.00  0.00     0.157 A 
ATOM     16  C   UNL     1      -4.225  -6.733  13.829  1.00  0.00     0.062 A 
ATOM     17  C   UNL     1      -2.832  -6.775  13.662  1.00  0.00     0.158 A 
BRANCH  15  18
ATOM     18  O   UNL     1      -0.848  -7.948  12.940  1.00  0.00    -0.504 OA
ATOM     19  H   UNL     1      -0.232  -8.217  13.699  1.00  0.00     0.293 HD
ENDBRANCH  15  18
BRANCH  17  20
ATOM     20  O   UNL     1      -2.042  -5.691  14.042  1.00  0.00    -0.504 OA
ATOM     21  H   UNL     1      -1.942  -4.875  13.450  1.00  0.00     0.293 HD
ENDBRANCH  17  20
ENDBRANCH   1  12
BRANCH   2  22
ATOM     22  O   UNL     1      -6.787  -6.707  11.439  1.00  0.00    -0.502 OA
ATOM     23  H   UNL     1      -6.770  -5.707  11.275  1.00  0.00     0.293 HD
ENDBRANCH   2  22
BRANCH   6  24
ATOM     24  O   UNL     1     -11.572  -7.392  13.356  1.00  0.00    -0.507 OA
ATOM     25  H   UNL     1     -12.547  -7.668  13.400  1.00  0.00     0.293 HD
ENDBRANCH   6  24
BRANCH   8  26
ATOM     26  O   UNL     1     -10.630  -9.387  17.647  1.00  0.00    -0.508 OA
ATOM     27  H   UNL     1     -11.026 -10.318  17.704  1.00  0.00     0.293 HD
ENDBRANCH   8  26
TORSDOF 6
ENDMDL
MODEL 4
REMARK VINA RESULT:    -7.130      1.785      6.796
REMARK INTER + INTRA:          -8.882
REMARK INTER:                  -8.597
REMARK INTRA:                  -0.285
REMARK UNBOUND:                -0.293
REMARK SMILES O=c1c(O)c(-c2ccc(O)c(O)c2)oc2cc(O)cc(O)c12
REMARK SMILES IDX 5 1 3 2 2 3 1 4 22 5 20 6 19 7 17 8 16 9 15 10 14 11 6 12
REMARK SMILES IDX 7 13 8 14 9 15 13 16 11 17 10 18 12 20 4 22 21 24 18 26
REMARK H PARENT 10 19 12 21 4 23 21 25 18 27
REMARK Flexibility Score: inf
ROOT
ATOM      1  C   UNL     1      -0.443  -8.016  14.645  1.00  0.00     0.180 A 
ATOM      2  C   UNL     1      -1.189  -7.007  14.005  1.00  0.00     0.208 A 
ATOM      3  C   UNL     1      -2.419  -7.343  13.417  1.00  0.00     0.238 A 
ATOM      4  O   UNL     1      -3.091  -6.450  12.832  1.00  0.00    -0.285 OA
ATOM      5  C   UNL     1      -2.890  -8.669  13.495  1.00  0.00     0.111 A 
ATOM      6  C   UNL     1      -4.119  -9.089  12.932  1.00  0.00     0.134 A 
ATOM      7  C   UNL     1      -4.523 -10.426  13.060  1.00  0.00     0.093 A 
ATOM      8  C   UNL     1      -3.724 -11.349  13.739  1.00  0.00     0.123 A 
ATOM      9  C   UNL     1      -2.508 -10.942  14.296  1.00  0.00     0.094 A 
ATOM     10  C   UNL     1      -2.088  -9.614  14.178  1.00  0.00     0.146 A 
ATOM     11  O   UNL     1      -0.926  -9.253  14.712  1.00  0.00    -0.452 OA
ENDROOT
BRANCH   1  12
ATOM     12  C   UNL     1       0.870  -7.745  15.273  1.00  0.00     0.025 A 
ATOM     13  C   UNL     1       2.009  -7.612  14.464  1.00  0.00     0.016 A 
ATOM     14  C   UNL     1       3.254  -7.335  15.033  1.00  0.00     0.051 A 
ATOM     15  C   UNL     1       3.376  -7.171  16.419  1.00  0.00     0.157 A 
ATOM     16  C   UNL     1       0.992  -7.557  16.662  1.00  0.00     0.062 A 
ATOM     17  C   UNL     1       2.242  -7.278  17.235  1.00  0.00     0.158 A 
BRANCH  15  18
ATOM     18  O   UNL     1       4.616  -6.896  16.992  1.00  0.00    -0.504 OA
ATOM     19  H   UNL     1       5.083  -7.567  17.591  1.00  0.00     0.293 HD
ENDBRANCH  15  18
BRANCH  17  20
ATOM     20  O   UNL     1       2.364  -7.098  18.612  1.00  0.00    -0.504 OA
ATOM     21  H   UNL     1       1.905  -6.330  19.088  1.00  0.00     0.293 HD
ENDBRANCH  17  20
ENDBRANCH   1  12
BRANCH   2  22
ATOM     22  O   UNL     1      -0.724  -5.690  13.986  1.00  0.00    -0.502 OA
ATOM     23  H   UNL     1      -1.172  -4.964  13.439  1.00  0.00     0.293 HD
ENDBRANCH   2  22
BRANCH   6  24
ATOM     24  O   UNL     1      -4.940  -8.190  12.249  1.00  0.00    -0.507 OA
ATOM     25  H   UNL     1      -5.073  -8.246  11.245  1.00  0.00     0.293 HD
ENDBRANCH   6  24
BRANCH   8  26
ATOM     26  O   UNL     1      -4.149 -12.672  13.853  1.00  0.00    -0.508 OA
ATOM     27  H   UNL     1      -4.153 -13.151  14.746  1.00  0.00     0.293 HD
ENDBRANCH   8  26
TORSDOF 6
ENDMDL
MODEL 5
REMARK VINA RESULT:    -7.116      4.440      8.119
REMARK INTER + INTRA:          -8.864
REMARK INTER:                  -8.739
REMARK INTRA:                  -0.125
REMARK UNBOUND:                -0.293
REMARK SMILES O=c1c(O)c(-c2ccc(O)c(O)c2)oc2cc(O)cc(O)c12
REMARK SMILES IDX 5 1 3 2 2 3 1 4 22 5 20 6 19 7 17 8 16 9 15 10 14 11 6 12
REMARK SMILES IDX 7 13 8 14 9 15 13 16 11 17 10 18 12 20 4 22 21 24 18 26
REMARK H PARENT 10 19 12 21 4 23 21 25 18 27
REMARK Flexibility Score: inf
ROOT
ATOM      1  C   UNL     1      -3.976 -10.351  13.690  1.00  0.00     0.180 A 
ATOM      2  C   UNL     1      -4.733  -9.453  12.913  1.00  0.00     0.208 A 
ATOM      3  C   UNL     1      -6.081  -9.242  13.241  1.00  0.00     0.238 A 
ATOM      4  O   UNL     1      -6.772  -8.447  12.546  1.00  0.00    -0.285 OA
ATOM      5  C   UNL     1      -6.643  -9.912  14.347  1.00  0.00     0.111 A 
ATOM      6  C   UNL     1      -7.992  -9.752  14.746  1.00  0.00     0.134 A 
ATOM      7  C   UNL     1      -8.473 -10.449  15.864  1.00  0.00     0.093 A 
ATOM      8  C   UNL     1      -7.636 -11.299  16.589  1.00  0.00     0.123 A 
ATOM      9  C   UNL     1      -6.303 -11.462  16.199  1.00  0.00     0.094 A 
ATOM     10  C   UNL     1      -5.804 -10.778  15.087  1.00  0.00     0.146 A 
ATOM     11  O   UNL     1      -4.535 -10.954  14.734  1.00  0.00    -0.452 OA
ENDROOT
BRANCH   1  12
ATOM     12  C   UNL     1      -2.554 -10.640  13.396  1.00  0.00     0.025 A 
ATOM     13  C   UNL     1      -1.607  -9.608  13.483  1.00  0.00     0.016 A 
ATOM     14  C   UNL     1      -0.256  -9.863  13.231  1.00  0.00     0.051 A 
ATOM     15  C   UNL     1       0.168 -11.157  12.905  1.00  0.00     0.157 A 
ATOM     16  C   UNL     1      -2.120 -11.943  13.090  1.00  0.00     0.062 A 
ATOM     17  C   UNL     1      -0.764 -12.200  12.838  1.00  0.00     0.158 A 
BRANCH  15  18
ATOM     18  O   UNL     1       1.514 -11.417  12.651  1.00  0.00    -0.504 OA
ATOM     19  H   UNL     1       2.151 -10.681  12.369  1.00  0.00     0.293 HD
ENDBRANCH  15  18
BRANCH  17  20
ATOM     20  O   UNL     1      -0.336 -13.490  12.528  1.00  0.00    -0.504 OA
ATOM     21  H   UNL     1       0.478 -13.653  11.946  1.00  0.00     0.293 HD
ENDBRANCH  17  20
ENDBRANCH   1  12
BRANCH   2  22
ATOM     22  O   UNL     1      -4.139  -8.762  11.853  1.00  0.00    -0.502 OA
ATOM     23  H   UNL     1      -3.462  -8.023  11.998  1.00  0.00     0.293 HD
ENDBRANCH   2  22
BRANCH   6  24
ATOM     24  O   UNL     1      -8.854  -8.909  14.043  1.00  0.00    -0.507 OA
ATOM     25  H   UNL     1      -9.818  -8.776  14.326  1.00  0.00     0.293 HD
ENDBRANCH   6  24
BRANCH   8  26
ATOM     26  O   UNL     1      -8.139 -11.978  17.697  1.00  0.00    -0.508 OA
ATOM     27  H   UNL     1      -8.653 -12.846  17.597  1.00  0.00     0.293 HD
ENDBRANCH   8  26
TORSDOF 6
ENDMDL
MODEL 6
REMARK VINA RESULT:    -7.109      3.685      7.021
REMARK INTER + INTRA:          -8.856
REMARK INTER:                  -8.611
REMARK INTRA:                  -0.245
REMARK UNBOUND:                -0.293
REMARK SMILES O=c1c(O)c(-c2ccc(O)c(O)c2)oc2cc(O)cc(O)c12
REMARK SMILES IDX 5 1 3 2 2 3 1 4 22 5 20 6 19 7 17 8 16 9 15 10 14 11 6 12
REMARK SMILES IDX 7 13 8 14 9 15 13 16 11 17 10 18 12 20 4 22 21 24 18 26
REMARK H PARENT 10 19 12 21 4 23 21 25 18 27
REMARK Flexibility Score: inf
ROOT
ATOM      1  C   UNL     1      -1.264  -9.447  12.693  1.00  0.00     0.180 A 
ATOM      2  C   UNL     1      -2.209  -8.433  12.445  1.00  0.00     0.208 A 
ATOM      3  C   UNL     1      -3.559  -8.678  12.744  1.00  0.00     0.238 A 
ATOM      4  O   UNL     1      -4.417  -7.780  12.516  1.00  0.00    -0.285 OA
ATOM      5  C   UNL     1      -3.937  -9.916  13.301  1.00  0.00     0.111 A 
ATOM      6  C   UNL     1      -5.275 -10.240  13.633  1.00  0.00     0.134 A 
ATOM      7  C   UNL     1      -5.568 -11.492  14.193  1.00  0.00     0.093 A 
ATOM      8  C   UNL     1      -4.554 -12.423  14.427  1.00  0.00     0.123 A 
ATOM      9  C   UNL     1      -3.231 -12.110  14.099  1.00  0.00     0.094 A 
ATOM     10  C   UNL     1      -2.918 -10.869  13.539  1.00  0.00     0.146 A 
ATOM     11  O   UNL     1      -1.655 -10.597  13.232  1.00  0.00    -0.452 OA
ENDROOT
BRANCH   1  12
ATOM     12  C   UNL     1       0.174  -9.273  12.388  1.00  0.00     0.025 A 
ATOM     13  C   UNL     1       0.965  -8.466  13.222  1.00  0.00     0.016 A 
ATOM     14  C   UNL     1       2.329  -8.305  12.966  1.00  0.00     0.051 A 
ATOM     15  C   UNL     1       2.925  -8.960  11.881  1.00  0.00     0.157 A 
ATOM     16  C   UNL     1       0.782  -9.946  11.313  1.00  0.00     0.062 A 
ATOM     17  C   UNL     1       2.152  -9.785  11.055  1.00  0.00     0.158 A 
BRANCH  15  18
ATOM     18  O   UNL     1       4.285  -8.801  11.620  1.00  0.00    -0.504 OA
ATOM     19  H   UNL     1       4.648  -8.811  10.674  1.00  0.00     0.293 HD
ENDBRANCH  15  18
BRANCH  17  20
ATOM     20  O   UNL     1       2.752 -10.448   9.986  1.00  0.00    -0.504 OA
ATOM     21  H   UNL     1       2.311 -10.492   9.074  1.00  0.00     0.293 HD
ENDBRANCH  17  20
ENDBRANCH   1  12
BRANCH   2  22
ATOM     22  O   UNL     1      -1.802  -7.196  11.939  1.00  0.00    -0.502 OA
ATOM     23  H   UNL     1      -1.716  -7.017  10.946  1.00  0.00     0.293 HD
ENDBRANCH   2  22
BRANCH   6  24
ATOM     24  O   UNL     1      -6.310  -9.330  13.413  1.00  0.00    -0.507 OA
ATOM     25  H   UNL     1      -6.453  -8.529  14.019  1.00  0.00     0.293 HD
ENDBRANCH   6  24
BRANCH   8  26
ATOM     26  O   UNL     1      -4.873 -13.660  14.985  1.00  0.00    -0.508 OA
ATOM     27  H   UNL     1      -5.720 -13.795  15.524  1.00  0.00     0.293 HD
ENDBRANCH   8  26
TORSDOF 6
ENDMDL
MODEL 7
REMARK VINA RESULT:    -7.089      2.900      4.386
REMARK INTER + INTRA:          -8.832
REMARK INTER:                  -8.513
REMARK INTRA:                  -0.319
REMARK UNBOUND:                -0.293
REMARK SMILES O=c1c(O)c(-c2ccc(O)c(O)c2)oc2cc(O)cc(O)c12
REMARK SMILES IDX 5 1 3 2 2 3 1 4 22 5 20 6 19 7 17 8 16 9 15 10 14 11 6 12
REMARK SMILES IDX 7 13 8 14 9 15 13 16 11 17 10 18 12 20 4 22 21 24 18 26
REMARK H PARENT 10 19 12 21 4 23 21 25 18 27
REMARK Flexibility Score: inf
ROOT
ATOM      1  C   UNL     1      -2.803  -9.210  14.330  1.00  0.00     0.180 A 
ATOM      2  C   UNL     1      -2.611  -8.726  13.021  1.00  0.00     0.208 A 
ATOM      3  C   UNL     1      -1.487  -7.928  12.752  1.00  0.00     0.238 A 
ATOM      4  O   UNL     1      -1.310  -7.480  11.586  1.00  0.00    -0.285 OA
ATOM      5  C   UNL     1      -0.570  -7.645  13.784  1.00  0.00     0.111 A 
ATOM      6  C   UNL     1       0.588  -6.852  13.595  1.00  0.00     0.134 A 
ATOM      7  C   UNL     1       1.458  -6.624  14.672  1.00  0.00     0.093 A 
ATOM      8  C   UNL     1       1.194  -7.171  15.929  1.00  0.00     0.123 A 
ATOM      9  C   UNL     1       0.052  -7.954  16.123  1.00  0.00     0.094 A 
ATOM     10  C   UNL     1      -0.828  -8.192  15.063  1.00  0.00     0.146 A 
ATOM     11  O   UNL     1      -1.909  -8.935  15.274  1.00  0.00    -0.452 OA
ENDROOT
BRANCH   1  12
ATOM     12  C   UNL     1      -3.971 -10.042  14.697  1.00  0.00     0.025 A 
ATOM     13  C   UNL     1      -5.135  -9.425  15.182  1.00  0.00     0.016 A 
ATOM     14  C   UNL     1      -6.257 -10.189  15.514  1.00  0.00     0.051 A 
ATOM     15  C   UNL     1      -6.236 -11.580  15.350  1.00  0.00     0.157 A 
ATOM     16  C   UNL     1      -3.963 -11.437  14.513  1.00  0.00     0.062 A 
ATOM     17  C   UNL     1      -5.089 -12.205  14.845  1.00  0.00     0.158 A 
BRANCH  15  18
ATOM     18  O   UNL     1      -7.352 -12.347  15.681  1.00  0.00    -0.504 OA
ATOM     19  H   UNL     1      -7.559 -13.215  15.201  1.00  0.00     0.293 HD
ENDBRANCH  15  18
BRANCH  17  20
ATOM     20  O   UNL     1      -5.078 -13.588  14.668  1.00  0.00    -0.504 OA
ATOM     21  H   UNL     1      -5.499 -14.022  13.854  1.00  0.00     0.293 HD
ENDBRANCH  17  20
ENDBRANCH   1  12
BRANCH   2  22
ATOM     22  O   UNL     1      -3.508  -9.063  12.004  1.00  0.00    -0.502 OA
ATOM     23  H   UNL     1      -4.480  -8.782  12.024  1.00  0.00     0.293 HD
ENDBRANCH   2  22
BRANCH   6  24
ATOM     24  O   UNL     1       0.880  -6.293  12.350  1.00  0.00    -0.507 OA
ATOM     25  H   UNL     1       0.651  -5.329  12.133  1.00  0.00     0.293 HD
ENDBRANCH   6  24
BRANCH   8  26
ATOM     26  O   UNL     1       2.075  -6.930  16.981  1.00  0.00    -0.508 OA
ATOM     27  H   UNL     1       2.293  -5.987  17.285  1.00  0.00     0.293 HD
ENDBRANCH   8  26
TORSDOF 6
ENDMDL
MODEL 8
REMARK VINA RESULT:    -6.897      2.842      4.179
REMARK INTER + INTRA:          -8.601
REMARK INTER:                  -8.284
REMARK INTRA:                  -0.317
REMARK UNBOUND:                -0.293
REMARK SMILES O=c1c(O)c(-c2ccc(O)c(O)c2)oc2cc(O)cc(O)c12
REMARK SMILES IDX 5 1 3 2 2 3 1 4 22 5 20 6 19 7 17 8 16 9 15 10 14 11 6 12
REMARK SMILES IDX 7 13 8 14 9 15 13 16 11 17 10 18 12 20 4 22 21 24 18 26
REMARK H PARENT 10 19 12 21 4 23 21 25 18 27
REMARK Flexibility Score: inf
ROOT
ATOM      1  C   UNL     1       0.845  -8.369  13.323  1.00  0.00     0.180 A 
ATOM      2  C   UNL     1       1.130  -7.404  14.309  1.00  0.00     0.208 A 
ATOM      3  C   UNL     1       2.377  -6.760  14.287  1.00  0.00     0.238 A 
ATOM      4  O   UNL     1       2.647  -5.902  15.171  1.00  0.00    -0.285 OA
ATOM      5  C   UNL     1       3.306  -7.074  13.274  1.00  0.00     0.111 A 
ATOM      6  C   UNL     1       4.582  -6.468  13.179  1.00  0.00     0.134 A 
ATOM      7  C   UNL     1       5.447  -6.828  12.135  1.00  0.00     0.093 A 
ATOM      8  C   UNL     1       5.062  -7.779  11.187  1.00  0.00     0.123 A 
ATOM      9  C   UNL     1       3.804  -8.382  11.276  1.00  0.00     0.094 A 
ATOM     10  C   UNL     1       2.928  -8.038  12.310  1.00  0.00     0.146 A 
ATOM     11  O   UNL     1       1.740  -8.628  12.375  1.00  0.00    -0.452 OA
ENDROOT
BRANCH   1  12
ATOM     12  C   UNL     1      -0.439  -9.104  13.290  1.00  0.00     0.025 A 
ATOM     13  C   UNL     1      -0.604 -10.245  14.091  1.00  0.00     0.016 A 
ATOM     14  C   UNL     1      -1.816 -10.941  14.092  1.00  0.00     0.051 A 
ATOM     15  C   UNL     1      -2.885 -10.498  13.303  1.00  0.00     0.157 A 
ATOM     16  C   UNL     1      -1.523  -8.649  12.516  1.00  0.00     0.062 A 
ATOM     17  C   UNL     1      -2.740  -9.347  12.517  1.00  0.00     0.158 A 
BRANCH  15  18
ATOM     18  O   UNL     1      -4.094 -11.189  13.298  1.00  0.00    -0.504 OA
ATOM     19  H   UNL     1      -4.466 -11.602  12.450  1.00  0.00     0.293 HD
ENDBRANCH  15  18
BRANCH  17  20
ATOM     20  O   UNL     1      -3.811  -8.900  11.745  1.00  0.00    -0.504 OA
ATOM     21  H   UNL     1      -4.088  -7.925  11.738  1.00  0.00     0.293 HD
ENDBRANCH  17  20
ENDBRANCH   1  12
BRANCH   2  22
ATOM     22  O   UNL     1       0.173  -7.075  15.272  1.00  0.00    -0.502 OA
ATOM     23  H   UNL     1       0.379  -6.470  16.058  1.00  0.00     0.293 HD
ENDBRANCH   2  22
BRANCH   6  24
ATOM     24  O   UNL     1       4.995  -5.514  14.111  1.00  0.00    -0.507 OA
ATOM     25  H   UNL     1       4.410  -4.724  14.359  1.00  0.00     0.293 HD
ENDBRANCH   6  24
BRANCH   8  26
ATOM     26  O   UNL     1       5.940  -8.118  10.159  1.00  0.00    -0.508 OA
ATOM     27  H   UNL     1       6.461  -7.411   9.653  1.00  0.00     0.293 HD
ENDBRANCH   8  26
TORSDOF 6
ENDMDL
MODEL 9
REMARK VINA RESULT:    -6.875      8.677     10.571
REMARK INTER + INTRA:          -8.574
REMARK INTER:                  -8.247
REMARK INTRA:                  -0.328
REMARK UNBOUND:                -0.293
REMARK SMILES O=c1c(O)c(-c2ccc(O)c(O)c2)oc2cc(O)cc(O)c12
REMARK SMILES IDX 5 1 3 2 2 3 1 4 22 5 20 6 19 7 17 8 16 9 15 10 14 11 6 12
REMARK SMILES IDX 7 13 8 14 9 15 13 16 11 17 10 18 12 20 4 22 21 24 18 26
REMARK H PARENT 10 19 12 21 4 23 21 25 18 27
REMARK Flexibility Score: inf
ROOT
ATOM      1  C   UNL     1      -9.002  -6.259  13.058  1.00  0.00     0.180 A 
ATOM      2  C   UNL     1      -7.892  -7.080  12.777  1.00  0.00     0.208 A 
ATOM      3  C   UNL     1      -7.696  -8.239  13.543  1.00  0.00     0.238 A 
ATOM      4  O   UNL     1      -6.699  -8.976  13.308  1.00  0.00    -0.285 OA
ATOM      5  C   UNL     1      -8.617  -8.569  14.558  1.00  0.00     0.111 A 
ATOM      6  C   UNL     1      -8.492  -9.721  15.373  1.00  0.00     0.134 A 
ATOM      7  C   UNL     1      -9.456  -9.984  16.356  1.00  0.00     0.093 A 
ATOM      8  C   UNL     1     -10.540  -9.122  16.541  1.00  0.00     0.123 A 
ATOM      9  C   UNL     1     -10.668  -7.982  15.741  1.00  0.00     0.094 A 
ATOM     10  C   UNL     1      -9.716  -7.701  14.756  1.00  0.00     0.146 A 
ATOM     11  O   UNL     1      -9.858  -6.610  14.013  1.00  0.00    -0.452 OA
ENDROOT
BRANCH   1  12
ATOM     12  C   UNL     1      -9.268  -5.012  12.306  1.00  0.00     0.025 A 
ATOM     13  C   UNL     1     -10.055  -5.059  11.145  1.00  0.00     0.016 A 
ATOM     14  C   UNL     1     -10.336  -3.890  10.432  1.00  0.00     0.051 A 
ATOM     15  C   UNL     1      -9.848  -2.656  10.879  1.00  0.00     0.157 A 
ATOM     16  C   UNL     1      -8.798  -3.767  12.764  1.00  0.00     0.062 A 
ATOM     17  C   UNL     1      -9.081  -2.593  12.050  1.00  0.00     0.158 A 
BRANCH  15  18
ATOM     18  O   UNL     1     -10.125  -1.488  10.171  1.00  0.00    -0.504 OA
ATOM     19  H   UNL     1     -10.787  -1.478   9.404  1.00  0.00     0.293 HD
ENDBRANCH  15  18
BRANCH  17  20
ATOM     20  O   UNL     1      -8.610  -1.361  12.501  1.00  0.00    -0.504 OA
ATOM     21  H   UNL     1      -9.007  -0.489  12.169  1.00  0.00     0.293 HD
ENDBRANCH  17  20
ENDBRANCH   1  12
BRANCH   2  22
ATOM     22  O   UNL     1      -7.022  -6.758  11.732  1.00  0.00    -0.502 OA
ATOM     23  H   UNL     1      -7.328  -6.262  10.904  1.00  0.00     0.293 HD
ENDBRANCH   2  22
BRANCH   6  24
ATOM     24  O   UNL     1      -7.422 -10.602  15.211  1.00  0.00    -0.507 OA
ATOM     25  H   UNL     1      -7.279 -11.113  14.348  1.00  0.00     0.293 HD
ENDBRANCH   6  24
BRANCH   8  26
ATOM     26  O   UNL     1     -11.484  -9.408  17.525  1.00  0.00    -0.508 OA
ATOM     27  H   UNL     1     -11.275 -10.034  18.294  1.00  0.00     0.293 HD
ENDBRANCH   8  26
TORSDOF 6
ENDMDL
