MODEL 1
REMARK VINA RESULT:    -4.232      0.000      0.000
REMARK INTER + INTRA:         -11.234
REMARK INTER:                  -9.180
REMARK INTRA:                  -2.054
REMARK UNBOUND:                -2.054
REMARK SMILES CCCCCCCCCCCCCCCCCCCCCC(=O)[O-]
REMARK SMILES IDX 12 1 11 2 10 3 9 4 8 5 7 6 6 7 5 8 4 9 3 10 2 11 1 12 13 13
REMARK SMILES IDX 14 14 15 15 16 16 17 17 18 18 19 19 20 20 21 21 22 22 23 23
REMARK SMILES IDX 24 24
REMARK H PARENT
REMARK Flexibility Score: inf
ROOT
ATOM      1  C   UNL     1     -42.331  29.608   0.529  1.00  0.00     0.000 C 
ENDROOT
BRANCH   1   2
ATOM      2  C   UNL     1     -42.454  28.289  -0.247  1.00  0.00     0.000 C 
BRANCH   2   3
ATOM      3  C   UNL     1     -43.529  27.354   0.329  1.00  0.00     0.000 C 
BRANCH   3   4
ATOM      4  C   UNL     1     -44.428  26.741  -0.759  1.00  0.00    -0.000 C 
BRANCH   4   5
ATOM      5  C   UNL     1     -45.869  27.282  -0.724  1.00  0.00    -0.000 C 
BRANCH   5   6
ATOM      6  C   UNL     1     -46.035  28.730  -1.223  1.00  0.00    -0.000 C 
BRANCH   6   7
ATOM      7  C   UNL     1     -46.164  28.825  -2.753  1.00  0.00    -0.000 C 
BRANCH   7   8
ATOM      8  C   UNL     1     -46.852  27.595  -3.367  1.00  0.00    -0.000 C 
BRANCH   8   9
ATOM      9  C   UNL     1     -46.300  27.241  -4.758  1.00  0.00    -0.000 C 
BRANCH   9  10
ATOM     10  C   UNL     1     -45.932  28.498  -5.574  1.00  0.00    -0.000 C 
BRANCH  10  11
ATOM     11  C   UNL     1     -45.446  28.185  -7.000  1.00  0.00    -0.003 C 
ATOM     12  C   UNL     1     -45.533  26.701  -7.348  1.00  0.00     0.004 C 
ENDBRANCH  10  11
ENDBRANCH   9  10
ENDBRANCH   8   9
ENDBRANCH   7   8
ENDBRANCH   6   7
ENDBRANCH   5   6
ENDBRANCH   4   5
ENDBRANCH   3   4
ENDBRANCH   2   3
ENDBRANCH   1   2
BRANCH   1  13
ATOM     13  C   UNL     1     -43.458  29.741   1.565  1.00  0.00     0.000 C 
BRANCH  13  14
ATOM     14  C   UNL     1     -42.934  29.993   2.988  1.00  0.00     0.000 C 
BRANCH  14  15
ATOM     15  C   UNL     1     -43.794  29.305   4.063  1.00  0.00     0.000 C 
BRANCH  15  16
ATOM     16  C   UNL     1     -44.752  28.250   3.481  1.00  0.00     0.000 C 
BRANCH  16  17
ATOM     17  C   UNL     1     -45.583  27.474   4.520  1.00  0.00     0.000 C 
BRANCH  17  18
ATOM     18  C   UNL     1     -45.694  28.204   5.867  1.00  0.00     0.000 C 
BRANCH  18  19
ATOM     19  C   UNL     1     -45.626  27.214   7.036  1.00  0.00     0.000 C 
BRANCH  19  20
ATOM     20  C   UNL     1     -44.775  27.774   8.185  1.00  0.00     0.006 C 
BRANCH  20  21
ATOM     21  C   UNL     1     -44.036  29.058   7.788  1.00  0.00     0.053 C 
BRANCH  21  22
ATOM     22  C   UNL     1     -42.566  28.826   7.620  1.00  0.00     0.041 C 
ATOM     23  O   UNL     1     -42.152  27.917   6.855  1.00  0.00    -0.550 OA
ATOM     24  O   UNL     1     -41.654  29.593   8.334  1.00  0.00    -0.550 OA
ENDBRANCH  21  22
ENDBRANCH  20  21
ENDBRANCH  19  20
ENDBRANCH  18  19
ENDBRANCH  17  18
ENDBRANCH  16  17
ENDBRANCH  15  16
ENDBRANCH  14  15
ENDBRANCH  13  14
ENDBRANCH   1  13
TORSDOF 20
ENDMDL
MODEL 2
REMARK VINA RESULT:    -4.199      1.321      1.825
REMARK INTER + INTRA:         -11.163
REMARK INTER:                  -9.280
REMARK INTRA:                  -1.883
REMARK UNBOUND:                -2.054
REMARK SMILES CCCCCCCCCCCCCCCCCCCCCC(=O)[O-]
REMARK SMILES IDX 12 1 11 2 10 3 9 4 8 5 7 6 6 7 5 8 4 9 3 10 2 11 1 12 13 13
REMARK SMILES IDX 14 14 15 15 16 16 17 17 18 18 19 19 20 20 21 21 22 22 23 23
REMARK SMILES IDX 24 24
REMARK H PARENT
REMARK Flexibility Score: inf
ROOT
ATOM      1  C   UNL     1     -43.279  26.821   1.695  1.00  0.00     0.000 C 
ENDROOT
BRANCH   1   2
ATOM      2  C   UNL     1     -42.930  27.996   0.768  1.00  0.00     0.000 C 
BRANCH   2   3
ATOM      3  C   UNL     1     -44.102  28.413  -0.135  1.00  0.00     0.000 C 
BRANCH   3   4
ATOM      4  C   UNL     1     -45.143  27.294  -0.311  1.00  0.00    -0.000 C 
BRANCH   4   5
ATOM      5  C   UNL     1     -44.837  26.372  -1.506  1.00  0.00    -0.000 C 
BRANCH   5   6
ATOM      6  C   UNL     1     -46.016  25.500  -1.976  1.00  0.00    -0.000 C 
BRANCH   6   7
ATOM      7  C   UNL     1     -46.934  26.223  -2.977  1.00  0.00    -0.000 C 
BRANCH   7   8
ATOM      8  C   UNL     1     -46.291  26.381  -4.363  1.00  0.00    -0.000 C 
BRANCH   8   9
ATOM      9  C   UNL     1     -46.532  27.773  -4.972  1.00  0.00    -0.000 C 
BRANCH   9  10
ATOM     10  C   UNL     1     -45.719  27.988  -6.266  1.00  0.00    -0.000 C 
BRANCH  10  11
ATOM     11  C   UNL     1     -45.532  26.705  -7.095  1.00  0.00    -0.003 C 
ATOM     12  C   UNL     1     -46.638  26.493  -8.126  1.00  0.00     0.004 C 
ENDBRANCH  10  11
ENDBRANCH   9  10
ENDBRANCH   8   9
ENDBRANCH   7   8
ENDBRANCH   6   7
ENDBRANCH   5   6
ENDBRANCH   4   5
ENDBRANCH   3   4
ENDBRANCH   2   3
ENDBRANCH   1   2
BRANCH   1  13
ATOM     13  C   UNL     1     -44.075  27.307   2.917  1.00  0.00     0.000 C 
BRANCH  13  14
ATOM     14  C   UNL     1     -43.475  28.569   3.556  1.00  0.00     0.000 C 
BRANCH  14  15
ATOM     15  C   UNL     1     -44.545  29.618   3.907  1.00  0.00     0.000 C 
BRANCH  15  16
ATOM     16  C   UNL     1     -45.975  29.150   3.577  1.00  0.00     0.000 C 
BRANCH  16  17
ATOM     17  C   UNL     1     -46.870  28.865   4.797  1.00  0.00     0.000 C 
BRANCH  17  18
ATOM     18  C   UNL     1     -46.660  27.461   5.383  1.00  0.00     0.000 C 
BRANCH  18  19
ATOM     19  C   UNL     1     -46.975  27.437   6.882  1.00  0.00     0.000 C 
BRANCH  19  20
ATOM     20  C   UNL     1     -45.724  27.758   7.714  1.00  0.00     0.006 C 
BRANCH  20  21
ATOM     21  C   UNL     1     -44.435  27.290   7.028  1.00  0.00     0.053 C 
BRANCH  21  22
ATOM     22  C   UNL     1     -43.232  28.014   7.550  1.00  0.00     0.041 C 
ATOM     23  O   UNL     1     -43.266  28.565   8.681  1.00  0.00    -0.550 OA
ATOM     24  O   UNL     1     -42.085  28.109   6.773  1.00  0.00    -0.550 OA
ENDBRANCH  21  22
ENDBRANCH  20  21
ENDBRANCH  19  20
ENDBRANCH  18  19
ENDBRANCH  17  18
ENDBRANCH  16  17
ENDBRANCH  15  16
ENDBRANCH  14  15
ENDBRANCH  13  14
ENDBRANCH   1  13
TORSDOF 20
ENDMDL
MODEL 3
REMARK VINA RESULT:    -3.900      1.143      1.940
REMARK INTER + INTRA:         -10.513
REMARK INTER:                  -8.130
REMARK INTRA:                  -2.383
REMARK UNBOUND:                -2.054
REMARK SMILES CCCCCCCCCCCCCCCCCCCCCC(=O)[O-]
REMARK SMILES IDX 12 1 11 2 10 3 9 4 8 5 7 6 6 7 5 8 4 9 3 10 2 11 1 12 13 13
REMARK SMILES IDX 14 14 15 15 16 16 17 17 18 18 19 19 20 20 21 21 22 22 23 23
REMARK SMILES IDX 24 24
REMARK H PARENT
REMARK Flexibility Score: inf
ROOT
ATOM      1  C   UNL     1     -43.580  28.410   3.419  1.00  0.00     0.000 C 
ENDROOT
BRANCH   1   2
ATOM      2  C   UNL     1     -43.665  27.430   2.239  1.00  0.00     0.000 C 
BRANCH   2   3
ATOM      3  C   UNL     1     -42.674  27.762   1.113  1.00  0.00     0.000 C 
BRANCH   3   4
ATOM      4  C   UNL     1     -43.363  27.936  -0.252  1.00  0.00    -0.000 C 
BRANCH   4   5
ATOM      5  C   UNL     1     -44.329  26.785  -0.589  1.00  0.00    -0.000 C 
BRANCH   5   6
ATOM      6  C   UNL     1     -45.739  27.224  -1.028  1.00  0.00    -0.000 C 
BRANCH   6   7
ATOM      7  C   UNL     1     -45.745  28.581  -1.753  1.00  0.00    -0.000 C 
BRANCH   7   8
ATOM      8  C   UNL     1     -46.326  28.491  -3.173  1.00  0.00    -0.000 C 
BRANCH   8   9
ATOM      9  C   UNL     1     -46.852  27.086  -3.510  1.00  0.00    -0.000 C 
BRANCH   9  10
ATOM     10  C   UNL     1     -45.997  26.389  -4.589  1.00  0.00    -0.000 C 
BRANCH  10  11
ATOM     11  C   UNL     1     -46.599  26.478  -6.002  1.00  0.00    -0.003 C 
ATOM     12  C   UNL     1     -45.621  27.035  -7.034  1.00  0.00     0.004 C 
ENDBRANCH  10  11
ENDBRANCH   9  10
ENDBRANCH   8   9
ENDBRANCH   7   8
ENDBRANCH   6   7
ENDBRANCH   5   6
ENDBRANCH   4   5
ENDBRANCH   3   4
ENDBRANCH   2   3
ENDBRANCH   1   2
BRANCH   1  13
ATOM     13  C   UNL     1     -44.802  29.342   3.446  1.00  0.00     0.000 C 
BRANCH  13  14
ATOM     14  C   UNL     1     -45.903  28.908   2.465  1.00  0.00     0.000 C 
BRANCH  14  15
ATOM     15  C   UNL     1     -47.125  28.304   3.181  1.00  0.00     0.000 C 
BRANCH  15  16
ATOM     16  C   UNL     1     -47.037  28.414   4.715  1.00  0.00     0.000 C 
BRANCH  16  17
ATOM     17  C   UNL     1     -46.530  27.151   5.434  1.00  0.00     0.000 C 
BRANCH  17  18
ATOM     18  C   UNL     1     -46.034  27.429   6.861  1.00  0.00     0.000 C 
BRANCH  18  19
ATOM     19  C   UNL     1     -46.160  28.917   7.207  1.00  0.00     0.000 C 
BRANCH  19  20
ATOM     20  C   UNL     1     -44.933  29.407   7.991  1.00  0.00     0.006 C 
BRANCH  20  21
ATOM     21  C   UNL     1     -43.760  29.764   7.070  1.00  0.00     0.053 C 
BRANCH  21  22
ATOM     22  C   UNL     1     -42.530  28.979   7.404  1.00  0.00     0.041 C 
ATOM     23  O   UNL     1     -42.259  27.926   6.770  1.00  0.00    -0.550 OA
ATOM     24  O   UNL     1     -41.699  29.392   8.438  1.00  0.00    -0.550 OA
ENDBRANCH  21  22
ENDBRANCH  20  21
ENDBRANCH  19  20
ENDBRANCH  18  19
ENDBRANCH  17  18
ENDBRANCH  16  17
ENDBRANCH  15  16
ENDBRANCH  14  15
ENDBRANCH  13  14
ENDBRANCH   1  13
TORSDOF 20
ENDMDL
MODEL 4
REMARK VINA RESULT:    -3.854      4.705     10.039
REMARK INTER + INTRA:         -10.414
REMARK INTER:                  -8.018
REMARK INTRA:                  -2.396
REMARK UNBOUND:                -2.054
REMARK SMILES CCCCCCCCCCCCCCCCCCCCCC(=O)[O-]
REMARK SMILES IDX 12 1 11 2 10 3 9 4 8 5 7 6 6 7 5 8 4 9 3 10 2 11 1 12 13 13
REMARK SMILES IDX 14 14 15 15 16 16 17 17 18 18 19 19 20 20 21 21 22 22 23 23
REMARK SMILES IDX 24 24
REMARK H PARENT
REMARK Flexibility Score: inf
ROOT
ATOM      1  C   UNL     1     -43.032  29.034   0.093  1.00  0.00     0.000 C 
ENDROOT
BRANCH   1   2
ATOM      2  C   UNL     1     -42.619  29.923   1.276  1.00  0.00     0.000 C 
BRANCH   2   3
ATOM      3  C   UNL     1     -43.620  29.870   2.442  1.00  0.00     0.000 C 
BRANCH   3   4
ATOM      4  C   UNL     1     -43.340  28.710   3.412  1.00  0.00    -0.000 C 
BRANCH   4   5
ATOM      5  C   UNL     1     -44.407  27.601   3.346  1.00  0.00    -0.000 C 
BRANCH   5   6
ATOM      6  C   UNL     1     -45.837  28.088   3.044  1.00  0.00    -0.000 C 
BRANCH   6   7
ATOM      7  C   UNL     1     -46.632  28.437   4.313  1.00  0.00    -0.000 C 
BRANCH   7   8
ATOM      8  C   UNL     1     -46.282  27.528   5.501  1.00  0.00    -0.000 C 
BRANCH   8   9
ATOM      9  C   UNL     1     -45.939  28.320   6.774  1.00  0.00    -0.000 C 
BRANCH   9  10
ATOM     10  C   UNL     1     -44.957  27.556   7.687  1.00  0.00    -0.000 C 
BRANCH  10  11
ATOM     11  C   UNL     1     -43.651  27.152   6.982  1.00  0.00    -0.003 C 
ATOM     12  C   UNL     1     -42.564  28.220   7.081  1.00  0.00     0.004 C 
ENDBRANCH  10  11
ENDBRANCH   9  10
ENDBRANCH   8   9
ENDBRANCH   7   8
ENDBRANCH   6   7
ENDBRANCH   5   6
ENDBRANCH   4   5
ENDBRANCH   3   4
ENDBRANCH   2   3
ENDBRANCH   1   2
BRANCH   1  13
ATOM     13  C   UNL     1     -44.324  29.554  -0.557  1.00  0.00     0.000 C 
BRANCH  13  14
ATOM     14  C   UNL     1     -45.450  28.509  -0.563  1.00  0.00     0.000 C 
BRANCH  14  15
ATOM     15  C   UNL     1     -44.934  27.085  -0.289  1.00  0.00     0.000 C 
BRANCH  15  16
ATOM     16  C   UNL     1     -45.127  26.135  -1.487  1.00  0.00     0.000 C 
BRANCH  16  17
ATOM     17  C   UNL     1     -46.586  25.748  -1.787  1.00  0.00     0.000 C 
BRANCH  17  18
ATOM     18  C   UNL     1     -46.983  25.985  -3.252  1.00  0.00     0.000 C 
BRANCH  18  19
ATOM     19  C   UNL     1     -46.703  27.432  -3.672  1.00  0.00     0.000 C 
BRANCH  19  20
ATOM     20  C   UNL     1     -47.102  27.670  -5.136  1.00  0.00     0.006 C 
BRANCH  20  21
ATOM     21  C   UNL     1     -45.885  27.916  -6.036  1.00  0.00     0.053 C 
BRANCH  21  22
ATOM     22  C   UNL     1     -46.055  27.289  -7.386  1.00  0.00     0.041 C 
ATOM     23  O   UNL     1     -45.333  26.316  -7.727  1.00  0.00    -0.550 OA
ATOM     24  O   UNL     1     -46.987  27.800  -8.279  1.00  0.00    -0.550 OA
ENDBRANCH  21  22
ENDBRANCH  20  21
ENDBRANCH  19  20
ENDBRANCH  18  19
ENDBRANCH  17  18
ENDBRANCH  16  17
ENDBRANCH  15  16
ENDBRANCH  14  15
ENDBRANCH  13  14
ENDBRANCH   1  13
TORSDOF 20
ENDMDL
MODEL 5
REMARK VINA RESULT:    -3.745      1.491      2.431
REMARK INTER + INTRA:         -10.177
REMARK INTER:                  -7.974
REMARK INTRA:                  -2.203
REMARK UNBOUND:                -2.054
REMARK SMILES CCCCCCCCCCCCCCCCCCCCCC(=O)[O-]
REMARK SMILES IDX 12 1 11 2 10 3 9 4 8 5 7 6 6 7 5 8 4 9 3 10 2 11 1 12 13 13
REMARK SMILES IDX 14 14 15 15 16 16 17 17 18 18 19 19 20 20 21 21 22 22 23 23
REMARK SMILES IDX 24 24
REMARK H PARENT
REMARK Flexibility Score: inf
ROOT
ATOM      1  C   UNL     1     -44.183  29.011  -0.600  1.00  0.00     0.000 C 
ENDROOT
BRANCH   1   2
ATOM      2  C   UNL     1     -44.139  27.652   0.114  1.00  0.00     0.000 C 
BRANCH   2   3
ATOM      3  C   UNL     1     -44.406  26.470  -0.831  1.00  0.00     0.000 C 
BRANCH   3   4
ATOM      4  C   UNL     1     -45.858  26.432  -1.338  1.00  0.00    -0.000 C 
BRANCH   4   5
ATOM      5  C   UNL     1     -45.991  25.796  -2.734  1.00  0.00    -0.000 C 
BRANCH   5   6
ATOM      6  C   UNL     1     -46.807  26.618  -3.750  1.00  0.00    -0.000 C 
BRANCH   6   7
ATOM      7  C   UNL     1     -46.377  28.093  -3.811  1.00  0.00    -0.000 C 
BRANCH   7   8
ATOM      8  C   UNL     1     -46.737  28.761  -5.148  1.00  0.00    -0.000 C 
BRANCH   8   9
ATOM      9  C   UNL     1     -45.499  29.095  -5.996  1.00  0.00    -0.000 C 
BRANCH   9  10
ATOM     10  C   UNL     1     -45.480  28.317  -7.328  1.00  0.00    -0.000 C 
BRANCH  10  11
ATOM     11  C   UNL     1     -45.583  26.792  -7.150  1.00  0.00    -0.003 C 
ATOM     12  C   UNL     1     -46.595  26.147  -8.093  1.00  0.00     0.004 C 
ENDBRANCH  10  11
ENDBRANCH   9  10
ENDBRANCH   8   9
ENDBRANCH   7   8
ENDBRANCH   6   7
ENDBRANCH   5   6
ENDBRANCH   4   5
ENDBRANCH   3   4
ENDBRANCH   2   3
ENDBRANCH   1   2
BRANCH   1  13
ATOM     13  C   UNL     1     -45.072  30.003   0.167  1.00  0.00     0.000 C 
BRANCH  13  14
ATOM     14  C   UNL     1     -46.456  29.425   0.503  1.00  0.00     0.000 C 
BRANCH  14  15
ATOM     15  C   UNL     1     -47.016  29.971   1.828  1.00  0.00     0.000 C 
BRANCH  15  16
ATOM     16  C   UNL     1     -46.113  29.657   3.036  1.00  0.00     0.000 C 
BRANCH  16  17
ATOM     17  C   UNL     1     -46.080  28.178   3.462  1.00  0.00     0.000 C 
BRANCH  17  18
ATOM     18  C   UNL     1     -44.662  27.587   3.473  1.00  0.00     0.000 C 
BRANCH  18  19
ATOM     19  C   UNL     1     -43.622  28.658   3.820  1.00  0.00     0.000 C 
BRANCH  19  20
ATOM     20  C   UNL     1     -42.965  28.370   5.179  1.00  0.00     0.006 C 
BRANCH  20  21
ATOM     21  C   UNL     1     -43.809  28.882   6.352  1.00  0.00     0.053 C 
BRANCH  21  22
ATOM     22  C   UNL     1     -43.188  28.548   7.673  1.00  0.00     0.041 C 
ATOM     23  O   UNL     1     -43.894  28.081   8.604  1.00  0.00    -0.550 OA
ATOM     24  O   UNL     1     -41.836  28.783   7.887  1.00  0.00    -0.550 OA
ENDBRANCH  21  22
ENDBRANCH  20  21
ENDBRANCH  19  20
ENDBRANCH  18  19
ENDBRANCH  17  18
ENDBRANCH  16  17
ENDBRANCH  15  16
ENDBRANCH  14  15
ENDBRANCH  13  14
ENDBRANCH   1  13
TORSDOF 20
ENDMDL
MODEL 6
REMARK VINA RESULT:    -3.733      4.713     10.477
REMARK INTER + INTRA:         -10.151
REMARK INTER:                  -8.423
REMARK INTRA:                  -1.729
REMARK UNBOUND:                -2.054
REMARK SMILES CCCCCCCCCCCCCCCCCCCCCC(=O)[O-]
REMARK SMILES IDX 12 1 11 2 10 3 9 4 8 5 7 6 6 7 5 8 4 9 3 10 2 11 1 12 13 13
REMARK SMILES IDX 14 14 15 15 16 16 17 17 18 18 19 19 20 20 21 21 22 22 23 23
REMARK SMILES IDX 24 24
REMARK H PARENT
REMARK Flexibility Score: inf
ROOT
ATOM      1  C   UNL     1     -42.322  28.152   0.108  1.00  0.00     0.000 C 
ENDROOT
BRANCH   1   2
ATOM      2  C   UNL     1     -42.801  29.594   0.337  1.00  0.00     0.000 C 
BRANCH   2   3
ATOM      3  C   UNL     1     -42.578  30.076   1.779  1.00  0.00     0.000 C 
BRANCH   3   4
ATOM      4  C   UNL     1     -43.779  29.785   2.694  1.00  0.00    -0.000 C 
BRANCH   4   5
ATOM      5  C   UNL     1     -43.427  28.856   3.871  1.00  0.00    -0.000 C 
BRANCH   5   6
ATOM      6  C   UNL     1     -44.295  27.589   3.986  1.00  0.00    -0.000 C 
BRANCH   6   7
ATOM      7  C   UNL     1     -44.719  27.282   5.432  1.00  0.00    -0.000 C 
BRANCH   7   8
ATOM      8  C   UNL     1     -43.529  26.918   6.334  1.00  0.00    -0.000 C 
BRANCH   8   9
ATOM      9  C   UNL     1     -43.690  27.447   7.769  1.00  0.00    -0.000 C 
BRANCH   9  10
ATOM     10  C   UNL     1     -43.978  28.963   7.800  1.00  0.00    -0.000 C 
BRANCH  10  11
ATOM     11  C   UNL     1     -42.724  29.830   7.597  1.00  0.00    -0.003 C 
ATOM     12  C   UNL     1     -41.802  29.841   8.813  1.00  0.00     0.004 C 
ENDBRANCH  10  11
ENDBRANCH   9  10
ENDBRANCH   8   9
ENDBRANCH   7   8
ENDBRANCH   6   7
ENDBRANCH   5   6
ENDBRANCH   4   5
ENDBRANCH   3   4
ENDBRANCH   2   3
ENDBRANCH   1   2
BRANCH   1  13
ATOM     13  C   UNL     1     -43.416  27.144   0.494  1.00  0.00     0.000 C 
BRANCH  13  14
ATOM     14  C   UNL     1     -44.368  26.824  -0.669  1.00  0.00     0.000 C 
BRANCH  14  15
ATOM     15  C   UNL     1     -45.830  27.182  -0.349  1.00  0.00     0.000 C 
BRANCH  15  16
ATOM     16  C   UNL     1     -46.214  28.603  -0.805  1.00  0.00     0.000 C 
BRANCH  16  17
ATOM     17  C   UNL     1     -47.085  28.672  -2.072  1.00  0.00     0.000 C 
BRANCH  17  18
ATOM     18  C   UNL     1     -46.338  28.238  -3.342  1.00  0.00     0.000 C 
BRANCH  18  19
ATOM     19  C   UNL     1     -46.221  29.399  -4.336  1.00  0.00     0.000 C 
BRANCH  19  20
ATOM     20  C   UNL     1     -45.929  28.884  -5.753  1.00  0.00     0.006 C 
BRANCH  20  21
ATOM     21  C   UNL     1     -45.986  27.355  -5.839  1.00  0.00     0.053 C 
BRANCH  21  22
ATOM     22  C   UNL     1     -46.202  26.883  -7.244  1.00  0.00     0.041 C 
ATOM     23  O   UNL     1     -46.087  25.661  -7.526  1.00  0.00    -0.550 OA
ATOM     24  O   UNL     1     -46.499  27.795  -8.248  1.00  0.00    -0.550 OA
ENDBRANCH  21  22
ENDBRANCH  20  21
ENDBRANCH  19  20
ENDBRANCH  18  19
ENDBRANCH  17  18
ENDBRANCH  16  17
ENDBRANCH  15  16
ENDBRANCH  14  15
ENDBRANCH  13  14
ENDBRANCH   1  13
TORSDOF 20
ENDMDL
MODEL 7
REMARK VINA RESULT:    -3.711      4.668     10.282
REMARK INTER + INTRA:         -10.104
REMARK INTER:                  -8.022
REMARK INTRA:                  -2.082
REMARK UNBOUND:                -2.054
REMARK SMILES CCCCCCCCCCCCCCCCCCCCCC(=O)[O-]
REMARK SMILES IDX 12 1 11 2 10 3 9 4 8 5 7 6 6 7 5 8 4 9 3 10 2 11 1 12 13 13
REMARK SMILES IDX 14 14 15 15 16 16 17 17 18 18 19 19 20 20 21 21 22 22 23 23
REMARK SMILES IDX 24 24
REMARK H PARENT
REMARK Flexibility Score: inf
ROOT
ATOM      1  C   UNL     1     -46.363  29.387   2.376  1.00  0.00     0.000 C 
ENDROOT
BRANCH   1   2
ATOM      2  C   UNL     1     -47.050  28.314   3.234  1.00  0.00     0.000 C 
BRANCH   2   3
ATOM      3  C   UNL     1     -46.765  28.476   4.736  1.00  0.00     0.000 C 
BRANCH   3   4
ATOM      4  C   UNL     1     -47.033  27.188   5.533  1.00  0.00    -0.000 C 
BRANCH   4   5
ATOM      5  C   UNL     1     -46.452  27.232   6.958  1.00  0.00    -0.000 C 
BRANCH   5   6
ATOM      6  C   UNL     1     -46.392  28.632   7.596  1.00  0.00    -0.000 C 
BRANCH   6   7
ATOM      7  C   UNL     1     -45.358  28.730   8.732  1.00  0.00    -0.000 C 
BRANCH   7   8
ATOM      8  C   UNL     1     -44.226  27.701   8.592  1.00  0.00    -0.000 C 
BRANCH   8   9
ATOM      9  C   UNL     1     -42.937  28.312   8.017  1.00  0.00    -0.000 C 
BRANCH   9  10
ATOM     10  C   UNL     1     -42.836  28.122   6.489  1.00  0.00    -0.000 C 
BRANCH  10  11
ATOM     11  C   UNL     1     -43.226  29.376   5.687  1.00  0.00    -0.003 C 
ATOM     12  C   UNL     1     -42.835  29.288   4.214  1.00  0.00     0.004 C 
ENDBRANCH  10  11
ENDBRANCH   9  10
ENDBRANCH   8   9
ENDBRANCH   7   8
ENDBRANCH   6   7
ENDBRANCH   5   6
ENDBRANCH   4   5
ENDBRANCH   3   4
ENDBRANCH   2   3
ENDBRANCH   1   2
BRANCH   1  13
ATOM     13  C   UNL     1     -45.645  28.750   1.175  1.00  0.00     0.000 C 
BRANCH  13  14
ATOM     14  C   UNL     1     -44.596  27.707   1.593  1.00  0.00     0.000 C 
BRANCH  14  15
ATOM     15  C   UNL     1     -43.960  26.996   0.386  1.00  0.00     0.000 C 
BRANCH  15  16
ATOM     16  C   UNL     1     -44.735  27.227  -0.925  1.00  0.00     0.000 C 
BRANCH  16  17
ATOM     17  C   UNL     1     -45.343  25.962  -1.558  1.00  0.00     0.000 C 
BRANCH  17  18
ATOM     18  C   UNL     1     -46.496  26.269  -2.526  1.00  0.00     0.000 C 
BRANCH  18  19
ATOM     19  C   UNL     1     -46.252  27.585  -3.273  1.00  0.00     0.000 C 
BRANCH  19  20
ATOM     20  C   UNL     1     -47.002  27.606  -4.613  1.00  0.00     0.006 C 
BRANCH  20  21
ATOM     21  C   UNL     1     -46.050  27.733  -5.809  1.00  0.00     0.053 C 
BRANCH  21  22
ATOM     22  C   UNL     1     -46.047  26.497  -6.653  1.00  0.00     0.041 C 
ATOM     23  O   UNL     1     -45.125  26.302  -7.488  1.00  0.00    -0.550 OA
ATOM     24  O   UNL     1     -47.079  25.574  -6.542  1.00  0.00    -0.550 OA
ENDBRANCH  21  22
ENDBRANCH  20  21
ENDBRANCH  19  20
ENDBRANCH  18  19
ENDBRANCH  17  18
ENDBRANCH  16  17
ENDBRANCH  15  16
ENDBRANCH  14  15
ENDBRANCH  13  14
ENDBRANCH   1  13
TORSDOF 20
ENDMDL
MODEL 8
REMARK VINA RESULT:    -3.701      1.862      2.407
REMARK INTER + INTRA:         -10.081
REMARK INTER:                  -7.718
REMARK INTRA:                  -2.363
REMARK UNBOUND:                -2.054
REMARK SMILES CCCCCCCCCCCCCCCCCCCCCC(=O)[O-]
REMARK SMILES IDX 12 1 11 2 10 3 9 4 8 5 7 6 6 7 5 8 4 9 3 10 2 11 1 12 13 13
REMARK SMILES IDX 14 14 15 15 16 16 17 17 18 18 19 19 20 20 21 21 22 22 23 23
REMARK SMILES IDX 24 24
REMARK H PARENT
REMARK Flexibility Score: inf
ROOT
ATOM      1  C   UNL     1     -45.004  29.569  -0.359  1.00  0.00     0.000 C 
ENDROOT
BRANCH   1   2
ATOM      2  C   UNL     1     -43.666  28.874  -0.062  1.00  0.00     0.000 C 
BRANCH   2   3
ATOM      3  C   UNL     1     -43.727  27.351  -0.256  1.00  0.00     0.000 C 
BRANCH   3   4
ATOM      4  C   UNL     1     -45.144  26.851  -0.586  1.00  0.00    -0.000 C 
BRANCH   4   5
ATOM      5  C   UNL     1     -45.168  25.834  -1.742  1.00  0.00    -0.000 C 
BRANCH   5   6
ATOM      6  C   UNL     1     -46.304  26.032  -2.763  1.00  0.00    -0.000 C 
BRANCH   6   7
ATOM      7  C   UNL     1     -46.998  27.399  -2.629  1.00  0.00    -0.000 C 
BRANCH   7   8
ATOM      8  C   UNL     1     -46.483  28.427  -3.648  1.00  0.00    -0.000 C 
BRANCH   8   9
ATOM      9  C   UNL     1     -46.327  27.837  -5.059  1.00  0.00    -0.000 C 
BRANCH   9  10
ATOM     10  C   UNL     1     -45.616  28.812  -6.021  1.00  0.00    -0.000 C 
BRANCH  10  11
ATOM     11  C   UNL     1     -45.224  28.173  -7.364  1.00  0.00    -0.003 C 
ATOM     12  C   UNL     1     -45.545  26.682  -7.433  1.00  0.00     0.004 C 
ENDBRANCH  10  11
ENDBRANCH   9  10
ENDBRANCH   8   9
ENDBRANCH   7   8
ENDBRANCH   6   7
ENDBRANCH   5   6
ENDBRANCH   4   5
ENDBRANCH   3   4
ENDBRANCH   2   3
ENDBRANCH   1   2
BRANCH   1  13
ATOM     13  C   UNL     1     -45.630  30.124   0.930  1.00  0.00     0.000 C 
BRANCH  13  14
ATOM     14  C   UNL     1     -46.698  29.192   1.523  1.00  0.00     0.000 C 
BRANCH  14  15
ATOM     15  C   UNL     1     -47.023  29.526   2.990  1.00  0.00     0.000 C 
BRANCH  15  16
ATOM     16  C   UNL     1     -46.008  28.925   3.981  1.00  0.00     0.000 C 
BRANCH  16  17
ATOM     17  C   UNL     1     -45.371  27.595   3.541  1.00  0.00     0.000 C 
BRANCH  17  18
ATOM     18  C   UNL     1     -43.942  27.407   4.073  1.00  0.00     0.000 C 
BRANCH  18  19
ATOM     19  C   UNL     1     -43.630  28.418   5.181  1.00  0.00     0.000 C 
BRANCH  19  20
ATOM     20  C   UNL     1     -43.357  27.708   6.516  1.00  0.00     0.006 C 
BRANCH  20  21
ATOM     21  C   UNL     1     -44.209  28.272   7.659  1.00  0.00     0.053 C 
BRANCH  21  22
ATOM     22  C   UNL     1     -45.668  28.005   7.450  1.00  0.00     0.041 C 
ATOM     23  O   UNL     1     -46.055  26.873   7.059  1.00  0.00    -0.550 OA
ATOM     24  O   UNL     1     -46.598  29.016   7.656  1.00  0.00    -0.550 OA
ENDBRANCH  21  22
ENDBRANCH  20  21
ENDBRANCH  19  20
ENDBRANCH  18  19
ENDBRANCH  17  18
ENDBRANCH  16  17
ENDBRANCH  15  16
ENDBRANCH  14  15
ENDBRANCH  13  14
ENDBRANCH   1  13
TORSDOF 20
ENDMDL
MODEL 9
REMARK VINA RESULT:    -3.186      4.194     10.159
REMARK INTER + INTRA:          -8.966
REMARK INTER:                  -6.601
REMARK INTRA:                  -2.365
REMARK UNBOUND:                -2.054
REMARK SMILES CCCCCCCCCCCCCCCCCCCCCC(=O)[O-]
REMARK SMILES IDX 12 1 11 2 10 3 9 4 8 5 7 6 6 7 5 8 4 9 3 10 2 11 1 12 13 13
REMARK SMILES IDX 14 14 15 15 16 16 17 17 18 18 19 19 20 20 21 21 22 22 23 23
REMARK SMILES IDX 24 24
REMARK H PARENT
REMARK Flexibility Score: inf
ROOT
ATOM      1  C   UNL     1     -43.177  27.499   0.551  1.00  0.00     0.000 C 
ENDROOT
BRANCH   1   2
ATOM      2  C   UNL     1     -42.375  28.760   0.198  1.00  0.00     0.000 C 
BRANCH   2   3
ATOM      3  C   UNL     1     -43.128  30.060   0.524  1.00  0.00     0.000 C 
BRANCH   3   4
ATOM      4  C   UNL     1     -43.592  30.125   1.989  1.00  0.00    -0.000 C 
BRANCH   4   5
ATOM      5  C   UNL     1     -45.125  30.096   2.136  1.00  0.00    -0.000 C 
BRANCH   5   6
ATOM      6  C   UNL     1     -45.672  28.987   3.054  1.00  0.00    -0.000 C 
BRANCH   6   7
ATOM      7  C   UNL     1     -44.893  28.864   4.375  1.00  0.00    -0.000 C 
BRANCH   7   8
ATOM      8  C   UNL     1     -44.158  27.521   4.507  1.00  0.00    -0.000 C 
BRANCH   8   9
ATOM      9  C   UNL     1     -44.541  26.759   5.786  1.00  0.00    -0.000 C 
BRANCH   9  10
ATOM     10  C   UNL     1     -44.923  27.713   6.938  1.00  0.00    -0.000 C 
BRANCH  10  11
ATOM     11  C   UNL     1     -43.869  27.778   8.056  1.00  0.00    -0.003 C 
ATOM     12  C   UNL     1     -42.543  28.378   7.594  1.00  0.00     0.004 C 
ENDBRANCH  10  11
ENDBRANCH   9  10
ENDBRANCH   8   9
ENDBRANCH   7   8
ENDBRANCH   6   7
ENDBRANCH   5   6
ENDBRANCH   4   5
ENDBRANCH   3   4
ENDBRANCH   2   3
ENDBRANCH   1   2
BRANCH   1  13
ATOM     13  C   UNL     1     -44.128  27.117  -0.594  1.00  0.00     0.000 C 
BRANCH  13  14
ATOM     14  C   UNL     1     -45.607  27.148  -0.175  1.00  0.00     0.000 C 
BRANCH  14  15
ATOM     15  C   UNL     1     -46.402  28.248  -0.901  1.00  0.00     0.000 C 
BRANCH  15  16
ATOM     16  C   UNL     1     -45.995  28.409  -2.377  1.00  0.00     0.000 C 
BRANCH  16  17
ATOM     17  C   UNL     1     -46.954  27.767  -3.396  1.00  0.00     0.000 C 
BRANCH  17  18
ATOM     18  C   UNL     1     -46.357  26.532  -4.089  1.00  0.00     0.000 C 
BRANCH  18  19
ATOM     19  C   UNL     1     -46.788  26.464  -5.558  1.00  0.00     0.000 C 
BRANCH  19  20
ATOM     20  C   UNL     1     -45.644  26.893  -6.489  1.00  0.00     0.006 C 
BRANCH  20  21
ATOM     21  C   UNL     1     -46.027  28.092  -7.365  1.00  0.00     0.053 C 
BRANCH  21  22
ATOM     22  C   UNL     1     -45.298  29.335  -6.958  1.00  0.00     0.041 C 
ATOM     23  O   UNL     1     -45.387  29.763  -5.778  1.00  0.00    -0.550 OA
ATOM     24  O   UNL     1     -44.549  30.041  -7.890  1.00  0.00    -0.550 OA
ENDBRANCH  21  22
ENDBRANCH  20  21
ENDBRANCH  19  20
ENDBRANCH  18  19
ENDBRANCH  17  18
ENDBRANCH  16  17
ENDBRANCH  15  16
ENDBRANCH  14  15
ENDBRANCH  13  14
ENDBRANCH   1  13
TORSDOF 20
ENDMDL
