MODEL 1
REMARK VINA RESULT:    -5.674      0.000      0.000
REMARK INTER + INTRA:         -10.206
REMARK INTER:                  -9.654
REMARK INTRA:                  -0.552
REMARK UNBOUND:                -0.552
REMARK SMILES CCCCCCCCCCCCCC(=O)[O-]
REMARK SMILES IDX 8 1 9 2 10 3 11 4 12 5 13 6 14 7 15 8 16 9 7 10 6 11 5 12
REMARK SMILES IDX 4 13 3 14 2 15 1 16
REMARK H PARENT
REMARK Flexibility Score: inf
ROOT
ATOM      1  C   UNL     1      24.532 -11.183  15.583  1.00  0.00     0.000 C 
ENDROOT
BRANCH   1   2
ATOM      2  C   UNL     1      26.074 -11.169  15.627  1.00  0.00     0.000 C 
BRANCH   2   3
ATOM      3  C   UNL     1      26.690 -11.212  17.037  1.00  0.00     0.000 C 
BRANCH   3   4
ATOM      4  C   UNL     1      26.204 -10.067  17.938  1.00  0.00     0.000 C 
BRANCH   4   5
ATOM      5  C   UNL     1      27.349  -9.527  18.803  1.00  0.00     0.006 C 
BRANCH   5   6
ATOM      6  C   UNL     1      27.789  -8.139  18.327  1.00  0.00     0.053 C 
BRANCH   6   7
ATOM      7  C   UNL     1      28.864  -8.257  17.292  1.00  0.00     0.041 C 
ATOM      8  O   UNL     1      28.906  -7.448  16.328  1.00  0.00    -0.550 OA
ATOM      9  O   UNL     1      29.847  -9.229  17.419  1.00  0.00    -0.550 OA
ENDBRANCH   6   7
ENDBRANCH   5   6
ENDBRANCH   4   5
ENDBRANCH   3   4
ENDBRANCH   2   3
ENDBRANCH   1   2
BRANCH   1  10
ATOM     10  C   UNL     1      23.879 -12.521  15.973  1.00  0.00     0.000 C 
BRANCH  10  11
ATOM     11  C   UNL     1      24.102 -12.946  17.437  1.00  0.00    -0.000 C 
BRANCH  11  12
ATOM     12  C   UNL     1      22.974 -12.493  18.391  1.00  0.00    -0.000 C 
BRANCH  12  13
ATOM     13  C   UNL     1      22.869 -13.386  19.640  1.00  0.00    -0.000 C 
BRANCH  13  14
ATOM     14  C   UNL     1      22.589 -12.583  20.921  1.00  0.00    -0.000 C 
BRANCH  14  15
ATOM     15  C   UNL     1      22.985 -11.105  20.792  1.00  0.00    -0.003 C 
ATOM     16  C   UNL     1      23.144 -10.457  22.164  1.00  0.00     0.004 C 
ENDBRANCH  14  15
ENDBRANCH  13  14
ENDBRANCH  12  13
ENDBRANCH  11  12
ENDBRANCH  10  11
ENDBRANCH   1  10
TORSDOF 12
ENDMDL
MODEL 2
REMARK VINA RESULT:    -5.636      2.902      6.180
REMARK INTER + INTRA:         -10.141
REMARK INTER:                  -9.303
REMARK INTRA:                  -0.839
REMARK UNBOUND:                -0.552
REMARK SMILES CCCCCCCCCCCCCC(=O)[O-]
REMARK SMILES IDX 8 1 9 2 10 3 11 4 12 5 13 6 14 7 15 8 16 9 7 10 6 11 5 12
REMARK SMILES IDX 4 13 3 14 2 15 1 16
REMARK H PARENT
REMARK Flexibility Score: inf
ROOT
ATOM      1  C   UNL     1      24.527 -11.581  15.598  1.00  0.00     0.000 C 
ENDROOT
BRANCH   1   2
ATOM      2  C   UNL     1      23.628 -12.457  16.494  1.00  0.00     0.000 C 
BRANCH   2   3
ATOM      3  C   UNL     1      24.284 -12.955  17.794  1.00  0.00     0.000 C 
BRANCH   3   4
ATOM      4  C   UNL     1      23.259 -13.339  18.872  1.00  0.00     0.000 C 
BRANCH   4   5
ATOM      5  C   UNL     1      22.546 -12.096  19.417  1.00  0.00     0.006 C 
BRANCH   5   6
ATOM      6  C   UNL     1      22.663 -12.020  20.943  1.00  0.00     0.053 C 
BRANCH   6   7
ATOM      7  C   UNL     1      23.259 -10.712  21.358  1.00  0.00     0.041 C 
ATOM      8  O   UNL     1      23.168 -10.325  22.553  1.00  0.00    -0.550 OA
ATOM      9  O   UNL     1      23.960  -9.944  20.437  1.00  0.00    -0.550 OA
ENDBRANCH   6   7
ENDBRANCH   5   6
ENDBRANCH   4   5
ENDBRANCH   3   4
ENDBRANCH   2   3
ENDBRANCH   1   2
BRANCH   1  10
ATOM     10  C   UNL     1      25.842 -11.114  16.248  1.00  0.00     0.000 C 
BRANCH  10  11
ATOM     11  C   UNL     1      26.763 -10.292  15.327  1.00  0.00    -0.000 C 
BRANCH  11  12
ATOM     12  C   UNL     1      28.153 -10.931  15.112  1.00  0.00    -0.000 C 
BRANCH  12  13
ATOM     13  C   UNL     1      29.280 -10.118  15.774  1.00  0.00    -0.000 C 
BRANCH  13  14
ATOM     14  C   UNL     1      28.946  -8.621  15.882  1.00  0.00    -0.000 C 
BRANCH  14  15
ATOM     15  C   UNL     1      29.170  -8.064  17.295  1.00  0.00    -0.003 C 
ATOM     16  C   UNL     1      27.899  -8.169  18.134  1.00  0.00     0.004 C 
ENDBRANCH  14  15
ENDBRANCH  13  14
ENDBRANCH  12  13
ENDBRANCH  11  12
ENDBRANCH  10  11
ENDBRANCH   1  10
TORSDOF 12
ENDMDL
MODEL 3
REMARK VINA RESULT:    -5.633      1.379      1.956
REMARK INTER + INTRA:         -10.137
REMARK INTER:                  -9.372
REMARK INTRA:                  -0.765
REMARK UNBOUND:                -0.552
REMARK SMILES CCCCCCCCCCCCCC(=O)[O-]
REMARK SMILES IDX 8 1 9 2 10 3 11 4 12 5 13 6 14 7 15 8 16 9 7 10 6 11 5 12
REMARK SMILES IDX 4 13 3 14 2 15 1 16
REMARK H PARENT
REMARK Flexibility Score: inf
ROOT
ATOM      1  C   UNL     1      25.367 -10.798  16.659  1.00  0.00     0.000 C 
ENDROOT
BRANCH   1   2
ATOM      2  C   UNL     1      26.881 -11.080  16.749  1.00  0.00     0.000 C 
BRANCH   2   3
ATOM      3  C   UNL     1      27.647 -10.983  15.417  1.00  0.00     0.000 C 
BRANCH   3   4
ATOM      4  C   UNL     1      29.145 -10.707  15.608  1.00  0.00     0.000 C 
BRANCH   4   5
ATOM      5  C   UNL     1      29.402  -9.212  15.837  1.00  0.00     0.006 C 
BRANCH   5   6
ATOM      6  C   UNL     1      29.915  -8.955  17.257  1.00  0.00     0.053 C 
BRANCH   6   7
ATOM      7  C   UNL     1      29.221  -7.773  17.858  1.00  0.00     0.041 C 
ATOM      8  O   UNL     1      29.776  -6.642  17.854  1.00  0.00    -0.550 OA
ATOM      9  O   UNL     1      27.941  -7.909  18.378  1.00  0.00    -0.550 OA
ENDBRANCH   6   7
ENDBRANCH   5   6
ENDBRANCH   4   5
ENDBRANCH   3   4
ENDBRANCH   2   3
ENDBRANCH   1   2
BRANCH   1  10
ATOM     10  C   UNL     1      24.583 -11.731  15.718  1.00  0.00     0.000 C 
BRANCH  10  11
ATOM     11  C   UNL     1      23.480 -12.560  16.403  1.00  0.00    -0.000 C 
BRANCH  11  12
ATOM     12  C   UNL     1      23.782 -12.891  17.882  1.00  0.00    -0.000 C 
BRANCH  12  13
ATOM     13  C   UNL     1      22.624 -12.502  18.817  1.00  0.00    -0.000 C 
BRANCH  13  14
ATOM     14  C   UNL     1      23.026 -11.431  19.845  1.00  0.00    -0.000 C 
BRANCH  14  15
ATOM     15  C   UNL     1      22.765 -11.871  21.293  1.00  0.00    -0.003 C 
ATOM     16  C   UNL     1      23.061 -10.740  22.272  1.00  0.00     0.004 C 
ENDBRANCH  14  15
ENDBRANCH  13  14
ENDBRANCH  12  13
ENDBRANCH  11  12
ENDBRANCH  10  11
ENDBRANCH   1  10
TORSDOF 12
ENDMDL
MODEL 4
REMARK VINA RESULT:    -5.512      1.486      1.934
REMARK INTER + INTRA:          -9.931
REMARK INTER:                  -9.094
REMARK INTRA:                  -0.837
REMARK UNBOUND:                -0.552
REMARK SMILES CCCCCCCCCCCCCC(=O)[O-]
REMARK SMILES IDX 8 1 9 2 10 3 11 4 12 5 13 6 14 7 15 8 16 9 7 10 6 11 5 12
REMARK SMILES IDX 4 13 3 14 2 15 1 16
REMARK H PARENT
REMARK Flexibility Score: inf
ROOT
ATOM      1  C   UNL     1      25.527 -10.827  16.081  1.00  0.00     0.000 C 
ENDROOT
BRANCH   1   2
ATOM      2  C   UNL     1      25.822 -10.500  17.560  1.00  0.00     0.000 C 
BRANCH   2   3
ATOM      3  C   UNL     1      27.299 -10.617  17.976  1.00  0.00     0.000 C 
BRANCH   3   4
ATOM      4  C   UNL     1      27.931  -9.261  18.325  1.00  0.00     0.000 C 
BRANCH   4   5
ATOM      5  C   UNL     1      29.281  -9.089  17.619  1.00  0.00     0.006 C 
BRANCH   5   6
ATOM      6  C   UNL     1      29.116  -9.137  16.097  1.00  0.00     0.053 C 
BRANCH   6   7
ATOM      7  C   UNL     1      30.021 -10.172  15.505  1.00  0.00     0.041 C 
ATOM      8  O   UNL     1      29.548 -11.085  14.779  1.00  0.00    -0.550 OA
ATOM      9  O   UNL     1      31.392 -10.098  15.713  1.00  0.00    -0.550 OA
ENDBRANCH   6   7
ENDBRANCH   5   6
ENDBRANCH   4   5
ENDBRANCH   3   4
ENDBRANCH   2   3
ENDBRANCH   1   2
BRANCH   1  10
ATOM     10  C   UNL     1      24.445 -11.897  15.851  1.00  0.00     0.000 C 
BRANCH  10  11
ATOM     11  C   UNL     1      24.079 -12.725  17.098  1.00  0.00    -0.000 C 
BRANCH  11  12
ATOM     12  C   UNL     1      22.656 -12.446  17.630  1.00  0.00    -0.000 C 
BRANCH  12  13
ATOM     13  C   UNL     1      22.528 -12.733  19.137  1.00  0.00    -0.000 C 
BRANCH  13  14
ATOM     14  C   UNL     1      23.001 -11.557  20.007  1.00  0.00    -0.000 C 
BRANCH  14  15
ATOM     15  C   UNL     1      22.703 -11.766  21.499  1.00  0.00    -0.003 C 
ATOM     16  C   UNL     1      23.102 -10.541  22.316  1.00  0.00     0.004 C 
ENDBRANCH  14  15
ENDBRANCH  13  14
ENDBRANCH  12  13
ENDBRANCH  11  12
ENDBRANCH  10  11
ENDBRANCH   1  10
TORSDOF 12
ENDMDL
MODEL 5
REMARK VINA RESULT:    -5.419      3.126      6.538
REMARK INTER + INTRA:          -9.772
REMARK INTER:                  -8.953
REMARK INTRA:                  -0.820
REMARK UNBOUND:                -0.552
REMARK SMILES CCCCCCCCCCCCCC(=O)[O-]
REMARK SMILES IDX 8 1 9 2 10 3 11 4 12 5 13 6 14 7 15 8 16 9 7 10 6 11 5 12
REMARK SMILES IDX 4 13 3 14 2 15 1 16
REMARK H PARENT
REMARK Flexibility Score: inf
ROOT
ATOM      1  C   UNL     1      25.615 -11.304  14.690  1.00  0.00     0.000 C 
ENDROOT
BRANCH   1   2
ATOM      2  C   UNL     1      24.540 -11.252  15.795  1.00  0.00     0.000 C 
BRANCH   2   3
ATOM      3  C   UNL     1      23.973 -12.617  16.223  1.00  0.00     0.000 C 
BRANCH   3   4
ATOM      4  C   UNL     1      24.069 -12.857  17.737  1.00  0.00     0.000 C 
BRANCH   4   5
ATOM      5  C   UNL     1      22.771 -12.440  18.440  1.00  0.00     0.006 C 
BRANCH   5   6
ATOM      6  C   UNL     1      22.815 -12.795  19.929  1.00  0.00     0.053 C 
BRANCH   6   7
ATOM      7  C   UNL     1      22.975 -11.560  20.758  1.00  0.00     0.041 C 
ATOM      8  O   UNL     1      23.289 -10.468  20.214  1.00  0.00    -0.550 OA
ATOM      9  O   UNL     1      22.728 -11.602  22.124  1.00  0.00    -0.550 OA
ENDBRANCH   6   7
ENDBRANCH   5   6
ENDBRANCH   4   5
ENDBRANCH   3   4
ENDBRANCH   2   3
ENDBRANCH   1   2
BRANCH   1  10
ATOM     10  C   UNL     1      27.053 -11.019  15.163  1.00  0.00     0.000 C 
BRANCH  10  11
ATOM     11  C   UNL     1      27.191 -10.724  16.668  1.00  0.00    -0.000 C 
BRANCH  11  12
ATOM     12  C   UNL     1      27.538  -9.251  16.980  1.00  0.00    -0.000 C 
BRANCH  12  13
ATOM     13  C   UNL     1      28.673  -9.122  18.012  1.00  0.00    -0.000 C 
BRANCH  13  14
ATOM     14  C   UNL     1      29.895  -8.371  17.458  1.00  0.00    -0.000 C 
BRANCH  14  15
ATOM     15  C   UNL     1      31.140  -9.264  17.351  1.00  0.00    -0.003 C 
ATOM     16  C   UNL     1      31.310  -9.800  15.933  1.00  0.00     0.004 C 
ENDBRANCH  14  15
ENDBRANCH  13  14
ENDBRANCH  12  13
ENDBRANCH  11  12
ENDBRANCH  10  11
ENDBRANCH   1  10
TORSDOF 12
ENDMDL
MODEL 6
REMARK VINA RESULT:    -5.378      1.334      1.578
REMARK INTER + INTRA:          -9.703
REMARK INTER:                  -8.867
REMARK INTRA:                  -0.836
REMARK UNBOUND:                -0.552
REMARK SMILES CCCCCCCCCCCCCC(=O)[O-]
REMARK SMILES IDX 8 1 9 2 10 3 11 4 12 5 13 6 14 7 15 8 16 9 7 10 6 11 5 12
REMARK SMILES IDX 4 13 3 14 2 15 1 16
REMARK H PARENT
REMARK Flexibility Score: inf
ROOT
ATOM      1  C   UNL     1      24.858 -11.305  16.738  1.00  0.00     0.000 C 
ENDROOT
BRANCH   1   2
ATOM      2  C   UNL     1      25.432 -11.512  15.321  1.00  0.00     0.000 C 
BRANCH   2   3
ATOM      3  C   UNL     1      26.749 -10.768  15.032  1.00  0.00     0.000 C 
BRANCH   3   4
ATOM      4  C   UNL     1      27.854 -11.092  16.049  1.00  0.00     0.000 C 
BRANCH   4   5
ATOM      5  C   UNL     1      28.033  -9.942  17.047  1.00  0.00     0.006 C 
BRANCH   5   6
ATOM      6  C   UNL     1      28.319  -8.624  16.322  1.00  0.00     0.053 C 
BRANCH   6   7
ATOM      7  C   UNL     1      29.774  -8.512  15.990  1.00  0.00     0.041 C 
ATOM      8  O   UNL     1      30.142  -7.904  14.951  1.00  0.00    -0.550 OA
ATOM      9  O   UNL     1      30.725  -9.036  16.855  1.00  0.00    -0.550 OA
ENDBRANCH   6   7
ENDBRANCH   5   6
ENDBRANCH   4   5
ENDBRANCH   3   4
ENDBRANCH   2   3
ENDBRANCH   1   2
BRANCH   1  10
ATOM     10  C   UNL     1      23.680 -12.226  17.106  1.00  0.00     0.000 C 
BRANCH  10  11
ATOM     11  C   UNL     1      24.064 -13.466  17.936  1.00  0.00    -0.000 C 
BRANCH  11  12
ATOM     12  C   UNL     1      23.420 -13.493  19.341  1.00  0.00    -0.000 C 
BRANCH  12  13
ATOM     13  C   UNL     1      22.710 -12.172  19.685  1.00  0.00    -0.000 C 
BRANCH  13  14
ATOM     14  C   UNL     1      22.587 -11.943  21.200  1.00  0.00    -0.000 C 
BRANCH  14  15
ATOM     15  C   UNL     1      23.121 -10.570  21.636  1.00  0.00    -0.003 C 
ATOM     16  C   UNL     1      24.047  -9.980  20.577  1.00  0.00     0.004 C 
ENDBRANCH  14  15
ENDBRANCH  13  14
ENDBRANCH  12  13
ENDBRANCH  11  12
ENDBRANCH  10  11
ENDBRANCH   1  10
TORSDOF 12
ENDMDL
MODEL 7
REMARK VINA RESULT:    -5.363      1.737      3.036
REMARK INTER + INTRA:          -9.677
REMARK INTER:                  -8.734
REMARK INTRA:                  -0.943
REMARK UNBOUND:                -0.552
REMARK SMILES CCCCCCCCCCCCCC(=O)[O-]
REMARK SMILES IDX 8 1 9 2 10 3 11 4 12 5 13 6 14 7 15 8 16 9 7 10 6 11 5 12
REMARK SMILES IDX 4 13 3 14 2 15 1 16
REMARK H PARENT
REMARK Flexibility Score: inf
ROOT
ATOM      1  C   UNL     1      26.100 -10.113  17.918  1.00  0.00     0.000 C 
ENDROOT
BRANCH   1   2
ATOM      2  C   UNL     1      27.512  -9.591  18.256  1.00  0.00     0.000 C 
BRANCH   2   3
ATOM      3  C   UNL     1      27.980  -8.382  17.427  1.00  0.00     0.000 C 
BRANCH   3   4
ATOM      4  C   UNL     1      28.292  -8.743  15.967  1.00  0.00     0.000 C 
BRANCH   4   5
ATOM      5  C   UNL     1      29.766  -8.476  15.641  1.00  0.00     0.006 C 
BRANCH   5   6
ATOM      6  C   UNL     1      30.657  -9.613  16.151  1.00  0.00     0.053 C 
BRANCH   6   7
ATOM      7  C   UNL     1      30.119 -10.938  15.712  1.00  0.00     0.041 C 
ATOM      8  O   UNL     1      29.790 -11.803  16.566  1.00  0.00    -0.550 OA
ATOM      9  O   UNL     1      29.932 -11.199  14.361  1.00  0.00    -0.550 OA
ENDBRANCH   6   7
ENDBRANCH   5   6
ENDBRANCH   4   5
ENDBRANCH   3   4
ENDBRANCH   2   3
ENDBRANCH   1   2
BRANCH   1  10
ATOM     10  C   UNL     1      26.063 -11.423  17.109  1.00  0.00     0.000 C 
BRANCH  10  11
ATOM     11  C   UNL     1      24.960 -11.488  16.036  1.00  0.00    -0.000 C 
BRANCH  11  12
ATOM     12  C   UNL     1      23.764 -12.382  16.432  1.00  0.00    -0.000 C 
BRANCH  12  13
ATOM     13  C   UNL     1      23.829 -12.828  17.904  1.00  0.00    -0.000 C 
BRANCH  13  14
ATOM     14  C   UNL     1      22.579 -12.423  18.702  1.00  0.00    -0.000 C 
BRANCH  14  15
ATOM     15  C   UNL     1      22.900 -11.464  19.858  1.00  0.00    -0.003 C 
ATOM     16  C   UNL     1      22.686 -12.141  21.208  1.00  0.00     0.004 C 
ENDBRANCH  14  15
ENDBRANCH  13  14
ENDBRANCH  12  13
ENDBRANCH  11  12
ENDBRANCH  10  11
ENDBRANCH   1  10
TORSDOF 12
ENDMDL
MODEL 8
REMARK VINA RESULT:    -5.279      3.368      6.743
REMARK INTER + INTRA:          -9.534
REMARK INTER:                  -8.367
REMARK INTRA:                  -1.168
REMARK UNBOUND:                -0.552
REMARK SMILES CCCCCCCCCCCCCC(=O)[O-]
REMARK SMILES IDX 8 1 9 2 10 3 11 4 12 5 13 6 14 7 15 8 16 9 7 10 6 11 5 12
REMARK SMILES IDX 4 13 3 14 2 15 1 16
REMARK H PARENT
REMARK Flexibility Score: inf
ROOT
ATOM      1  C   UNL     1      27.205 -11.335  16.479  1.00  0.00     0.000 C 
ENDROOT
BRANCH   1   2
ATOM      2  C   UNL     1      25.749 -10.944  16.806  1.00  0.00     0.000 C 
BRANCH   2   3
ATOM      3  C   UNL     1      24.704 -11.379  15.763  1.00  0.00     0.000 C 
BRANCH   3   4
ATOM      4  C   UNL     1      23.802 -12.518  16.260  1.00  0.00     0.000 C 
BRANCH   4   5
ATOM      5  C   UNL     1      23.944 -12.708  17.775  1.00  0.00     0.006 C 
BRANCH   5   6
ATOM      6  C   UNL     1      22.618 -12.429  18.490  1.00  0.00     0.053 C 
BRANCH   6   7
ATOM      7  C   UNL     1      22.683 -12.891  19.912  1.00  0.00     0.041 C 
ATOM      8  O   UNL     1      22.511 -14.106  20.192  1.00  0.00    -0.550 OA
ATOM      9  O   UNL     1      22.985 -11.987  20.922  1.00  0.00    -0.550 OA
ENDBRANCH   6   7
ENDBRANCH   5   6
ENDBRANCH   4   5
ENDBRANCH   3   4
ENDBRANCH   2   3
ENDBRANCH   1   2
BRANCH   1  10
ATOM     10  C   UNL     1      27.695 -10.921  15.079  1.00  0.00     0.000 C 
BRANCH  10  11
ATOM     11  C   UNL     1      29.222 -10.977  14.885  1.00  0.00    -0.000 C 
BRANCH  11  12
ATOM     12  C   UNL     1      29.992  -9.943  15.737  1.00  0.00    -0.000 C 
BRANCH  12  13
ATOM     13  C   UNL     1      29.732  -8.498  15.279  1.00  0.00    -0.000 C 
BRANCH  13  14
ATOM     14  C   UNL     1      29.387  -7.558  16.446  1.00  0.00    -0.000 C 
BRANCH  14  15
ATOM     15  C   UNL     1      29.201  -8.307  17.774  1.00  0.00    -0.003 C 
ATOM     16  C   UNL     1      27.781  -8.139  18.305  1.00  0.00     0.004 C 
ENDBRANCH  14  15
ENDBRANCH  13  14
ENDBRANCH  12  13
ENDBRANCH  11  12
ENDBRANCH  10  11
ENDBRANCH   1  10
TORSDOF 12
ENDMDL
MODEL 9
REMARK VINA RESULT:    -5.235      3.160      6.750
REMARK INTER + INTRA:          -9.459
REMARK INTER:                  -8.467
REMARK INTRA:                  -0.992
REMARK UNBOUND:                -0.552
REMARK SMILES CCCCCCCCCCCCCC(=O)[O-]
REMARK SMILES IDX 8 1 9 2 10 3 11 4 12 5 13 6 14 7 15 8 16 9 7 10 6 11 5 12
REMARK SMILES IDX 4 13 3 14 2 15 1 16
REMARK H PARENT
REMARK Flexibility Score: inf
ROOT
ATOM      1  C   UNL     1      26.319 -11.082  17.460  1.00  0.00     0.000 C 
ENDROOT
BRANCH   1   2
ATOM      2  C   UNL     1      24.817 -11.376  17.651  1.00  0.00     0.000 C 
BRANCH   2   3
ATOM      3  C   UNL     1      24.430 -12.866  17.612  1.00  0.00     0.000 C 
BRANCH   3   4
ATOM      4  C   UNL     1      23.545 -13.285  18.794  1.00  0.00     0.000 C 
BRANCH   4   5
ATOM      5  C   UNL     1      22.710 -12.102  19.300  1.00  0.00     0.006 C 
BRANCH   5   6
ATOM      6  C   UNL     1      22.705 -12.048  20.831  1.00  0.00     0.053 C 
BRANCH   6   7
ATOM      7  C   UNL     1      23.288 -10.757  21.312  1.00  0.00     0.041 C 
ATOM      8  O   UNL     1      23.857  -9.978  20.502  1.00  0.00    -0.550 OA
ATOM      9  O   UNL     1      23.158 -10.390  22.645  1.00  0.00    -0.550 OA
ENDBRANCH   6   7
ENDBRANCH   5   6
ENDBRANCH   4   5
ENDBRANCH   3   4
ENDBRANCH   2   3
ENDBRANCH   1   2
BRANCH   1  10
ATOM     10  C   UNL     1      26.766  -9.668  17.873  1.00  0.00     0.000 C 
BRANCH  10  11
ATOM     11  C   UNL     1      28.237  -9.559  18.317  1.00  0.00    -0.000 C 
BRANCH  11  12
ATOM     12  C   UNL     1      29.072  -8.586  17.456  1.00  0.00    -0.000 C 
BRANCH  12  13
ATOM     13  C   UNL     1      30.402  -9.207  16.992  1.00  0.00    -0.000 C 
BRANCH  13  14
ATOM     14  C   UNL     1      30.237 -10.651  16.489  1.00  0.00    -0.000 C 
BRANCH  14  15
ATOM     15  C   UNL     1      30.075 -10.731  14.963  1.00  0.00    -0.003 C 
ATOM     16  C   UNL     1      28.630 -11.034  14.580  1.00  0.00     0.004 C 
ENDBRANCH  14  15
ENDBRANCH  13  14
ENDBRANCH  12  13
ENDBRANCH  11  12
ENDBRANCH  10  11
ENDBRANCH   1  10
TORSDOF 12
ENDMDL
