MODEL 1
REMARK VINA RESULT:    -6.746      0.000      0.000
REMARK INTER + INTRA:          -8.365
REMARK INTER:                  -8.126
REMARK INTRA:                  -0.239
REMARK UNBOUND:                -0.239
REMARK SMILES O=c1c(O)c(-c2ccc(O)c(O)c2)oc2cc(O)cc(O)c12
REMARK SMILES IDX 5 1 3 2 2 3 1 4 22 5 20 6 19 7 17 8 16 9 15 10 14 11 6 12
REMARK SMILES IDX 7 13 8 14 9 15 13 16 11 17 10 18 12 20 4 22 21 24 18 26
REMARK H PARENT 10 19 12 21 4 23 21 25 18 27
REMARK Flexibility Score: inf
ROOT
ATOM      1  C   UNL     1       9.300  52.754  20.253  1.00  0.00     0.180 A 
ATOM      2  C   UNL     1      10.165  53.349  19.314  1.00  0.00     0.208 A 
ATOM      3  C   UNL     1      11.551  53.254  19.511  1.00  0.00     0.238 A 
ATOM      4  O   UNL     1      12.334  53.792  18.682  1.00  0.00    -0.285 OA
ATOM      5  C   UNL     1      12.049  52.553  20.628  1.00  0.00     0.111 A 
ATOM      6  C   UNL     1      13.432  52.407  20.898  1.00  0.00     0.134 A 
ATOM      7  C   UNL     1      13.848  51.685  22.025  1.00  0.00     0.093 A 
ATOM      8  C   UNL     1      12.910  51.107  22.888  1.00  0.00     0.123 A 
ATOM      9  C   UNL     1      11.547  51.249  22.627  1.00  0.00     0.094 A 
ATOM     10  C   UNL     1      11.111  51.965  21.509  1.00  0.00     0.146 A 
ATOM     11  O   UNL     1       9.807  52.088  21.287  1.00  0.00    -0.452 OA
ENDROOT
BRANCH   1  12
ATOM     12  C   UNL     1       7.827  52.828  20.124  1.00  0.00     0.025 A 
ATOM     13  C   UNL     1       7.055  53.619  20.992  1.00  0.00     0.016 A 
ATOM     14  C   UNL     1       5.664  53.654  20.867  1.00  0.00     0.051 A 
ATOM     15  C   UNL     1       5.023  52.891  19.886  1.00  0.00     0.157 A 
ATOM     16  C   UNL     1       7.179  52.046  19.154  1.00  0.00     0.062 A 
ATOM     17  C   UNL     1       5.783  52.079  19.027  1.00  0.00     0.158 A 
BRANCH  15  18
ATOM     18  O   UNL     1       3.634  52.947  19.784  1.00  0.00    -0.504 OA
ATOM     19  H   UNL     1       3.083  53.625  20.297  1.00  0.00     0.293 HD
ENDBRANCH  15  18
BRANCH  17  20
ATOM     20  O   UNL     1       5.150  51.311  18.051  1.00  0.00    -0.504 OA
ATOM     21  H   UNL     1       4.898  51.700  17.150  1.00  0.00     0.293 HD
ENDBRANCH  17  20
ENDBRANCH   1  12
BRANCH   2  22
ATOM     22  O   UNL     1       9.646  53.996  18.189  1.00  0.00    -0.502 OA
ATOM     23  H   UNL     1       9.649  55.005  18.094  1.00  0.00     0.293 HD
ENDBRANCH   2  22
BRANCH   6  24
ATOM     24  O   UNL     1      14.391  52.971  20.056  1.00  0.00    -0.507 OA
ATOM     25  H   UNL     1      15.040  52.400  19.528  1.00  0.00     0.293 HD
ENDBRANCH   6  24
BRANCH   8  26
ATOM     26  O   UNL     1      13.323  50.390  24.009  1.00  0.00    -0.508 OA
ATOM     27  H   UNL     1      14.015  49.653  23.941  1.00  0.00     0.293 HD
ENDBRANCH   8  26
TORSDOF 6
ENDMDL
MODEL 2
REMARK VINA RESULT:    -6.602      1.657      3.162
REMARK INTER + INTRA:          -8.192
REMARK INTER:                  -8.055
REMARK INTRA:                  -0.136
REMARK UNBOUND:                -0.239
REMARK SMILES O=c1c(O)c(-c2ccc(O)c(O)c2)oc2cc(O)cc(O)c12
REMARK SMILES IDX 5 1 3 2 2 3 1 4 22 5 20 6 19 7 17 8 16 9 15 10 14 11 6 12
REMARK SMILES IDX 7 13 8 14 9 15 13 16 11 17 10 18 12 20 4 22 21 24 18 26
REMARK H PARENT 10 19 12 21 4 23 21 25 18 27
REMARK Flexibility Score: inf
ROOT
ATOM      1  C   UNL     1       8.353  52.370  21.629  1.00  0.00     0.180 A 
ATOM      2  C   UNL     1       8.245  52.126  23.012  1.00  0.00     0.208 A 
ATOM      3  C   UNL     1       9.408  51.847  23.745  1.00  0.00     0.238 A 
ATOM      4  O   UNL     1       9.322  51.616  24.982  1.00  0.00    -0.285 OA
ATOM      5  C   UNL     1      10.658  51.836  23.092  1.00  0.00     0.111 A 
ATOM      6  C   UNL     1      11.878  51.568  23.758  1.00  0.00     0.134 A 
ATOM      7  C   UNL     1      13.081  51.585  23.040  1.00  0.00     0.093 A 
ATOM      8  C   UNL     1      13.090  51.866  21.669  1.00  0.00     0.123 A 
ATOM      9  C   UNL     1      11.889  52.130  21.007  1.00  0.00     0.094 A 
ATOM     10  C   UNL     1      10.678  52.116  21.705  1.00  0.00     0.146 A 
ATOM     11  O   UNL     1       9.551  52.367  21.050  1.00  0.00    -0.452 OA
ENDROOT
BRANCH   1  12
ATOM     12  C   UNL     1       7.170  52.653  20.784  1.00  0.00     0.025 A 
ATOM     13  C   UNL     1       6.361  53.780  21.012  1.00  0.00     0.016 A 
ATOM     14  C   UNL     1       5.236  54.014  20.217  1.00  0.00     0.051 A 
ATOM     15  C   UNL     1       4.894  53.122  19.196  1.00  0.00     0.157 A 
ATOM     16  C   UNL     1       6.812  51.748  19.772  1.00  0.00     0.062 A 
ATOM     17  C   UNL     1       5.683  51.981  18.973  1.00  0.00     0.158 A 
BRANCH  15  18
ATOM     18  O   UNL     1       3.766  53.382  18.418  1.00  0.00    -0.504 OA
ATOM     19  H   UNL     1       3.615  52.934  17.523  1.00  0.00     0.293 HD
ENDBRANCH  15  18
BRANCH  17  20
ATOM     20  O   UNL     1       5.344  51.084  17.961  1.00  0.00    -0.504 OA
ATOM     21  H   UNL     1       4.478  50.558  17.986  1.00  0.00     0.293 HD
ENDBRANCH  17  20
ENDBRANCH   1  12
BRANCH   2  22
ATOM     22  O   UNL     1       7.000  52.191  23.644  1.00  0.00    -0.502 OA
ATOM     23  H   UNL     1       6.725  52.975  24.222  1.00  0.00     0.293 HD
ENDBRANCH   2  22
BRANCH   6  24
ATOM     24  O   UNL     1      11.903  51.285  25.125  1.00  0.00    -0.507 OA
ATOM     25  H   UNL     1      11.448  51.886  25.802  1.00  0.00     0.293 HD
ENDBRANCH   6  24
BRANCH   8  26
ATOM     26  O   UNL     1      14.285  51.884  20.954  1.00  0.00    -0.508 OA
ATOM     27  H   UNL     1      14.574  52.697  20.423  1.00  0.00     0.293 HD
ENDBRANCH   8  26
TORSDOF 6
ENDMDL
MODEL 3
REMARK VINA RESULT:    -6.183      1.246      3.048
REMARK INTER + INTRA:          -7.686
REMARK INTER:                  -7.425
REMARK INTRA:                  -0.261
REMARK UNBOUND:                -0.239
REMARK SMILES O=c1c(O)c(-c2ccc(O)c(O)c2)oc2cc(O)cc(O)c12
REMARK SMILES IDX 5 1 3 2 2 3 1 4 22 5 20 6 19 7 17 8 16 9 15 10 14 11 6 12
REMARK SMILES IDX 7 13 8 14 9 15 13 16 11 17 10 18 12 20 4 22 21 24 18 26
REMARK H PARENT 10 19 12 21 4 23 21 25 18 27
REMARK Flexibility Score: inf
ROOT
ATOM      1  C   UNL     1       9.382  52.837  20.219  1.00  0.00     0.180 A 
ATOM      2  C   UNL     1      10.031  52.162  21.271  1.00  0.00     0.208 A 
ATOM      3  C   UNL     1      11.434  52.153  21.309  1.00  0.00     0.238 A 
ATOM      4  O   UNL     1      12.025  51.543  22.240  1.00  0.00    -0.285 OA
ATOM      5  C   UNL     1      12.162  52.833  20.311  1.00  0.00     0.111 A 
ATOM      6  C   UNL     1      13.577  52.876  20.278  1.00  0.00     0.134 A 
ATOM      7  C   UNL     1      14.228  53.582  19.257  1.00  0.00     0.093 A 
ATOM      8  C   UNL     1      13.492  54.246  18.268  1.00  0.00     0.123 A 
ATOM      9  C   UNL     1      12.098  54.205  18.295  1.00  0.00     0.094 A 
ATOM     10  C   UNL     1      11.430  53.506  19.305  1.00  0.00     0.146 A 
ATOM     11  O   UNL     1      10.102  53.480  19.304  1.00  0.00    -0.452 OA
ENDROOT
BRANCH   1  12
ATOM     12  C   UNL     1       7.906  52.876  20.100  1.00  0.00     0.025 A 
ATOM     13  C   UNL     1       7.125  53.684  20.944  1.00  0.00     0.016 A 
ATOM     14  C   UNL     1       5.732  53.686  20.829  1.00  0.00     0.051 A 
ATOM     15  C   UNL     1       5.100  52.872  19.884  1.00  0.00     0.157 A 
ATOM     16  C   UNL     1       7.267  52.045  19.166  1.00  0.00     0.062 A 
ATOM     17  C   UNL     1       5.869  52.044  19.050  1.00  0.00     0.158 A 
BRANCH  15  18
ATOM     18  O   UNL     1       3.709  52.897  19.792  1.00  0.00    -0.504 OA
ATOM     19  H   UNL     1       3.168  53.719  20.029  1.00  0.00     0.293 HD
ENDBRANCH  15  18
BRANCH  17  20
ATOM     20  O   UNL     1       5.245  51.226  18.109  1.00  0.00    -0.504 OA
ATOM     21  H   UNL     1       4.695  51.613  17.352  1.00  0.00     0.293 HD
ENDBRANCH  17  20
ENDBRANCH   1  12
BRANCH   2  22
ATOM     22  O   UNL     1       9.285  51.538  22.275  1.00  0.00    -0.502 OA
ATOM     23  H   UNL     1       9.672  51.327  23.187  1.00  0.00     0.293 HD
ENDBRANCH   2  22
BRANCH   6  24
ATOM     24  O   UNL     1      14.338  52.225  21.250  1.00  0.00    -0.507 OA
ATOM     25  H   UNL     1      13.908  51.757  22.039  1.00  0.00     0.293 HD
ENDBRANCH   6  24
BRANCH   8  26
ATOM     26  O   UNL     1      14.139  54.947  17.253  1.00  0.00    -0.508 OA
ATOM     27  H   UNL     1      15.036  55.393  17.405  1.00  0.00     0.293 HD
ENDBRANCH   8  26
TORSDOF 6
ENDMDL
MODEL 4
REMARK VINA RESULT:    -6.172      2.139      7.486
REMARK INTER + INTRA:          -7.673
REMARK INTER:                  -7.426
REMARK INTRA:                  -0.248
REMARK UNBOUND:                -0.239
REMARK SMILES O=c1c(O)c(-c2ccc(O)c(O)c2)oc2cc(O)cc(O)c12
REMARK SMILES IDX 5 1 3 2 2 3 1 4 22 5 20 6 19 7 17 8 16 9 15 10 14 11 6 12
REMARK SMILES IDX 7 13 8 14 9 15 13 16 11 17 10 18 12 20 4 22 21 24 18 26
REMARK H PARENT 10 19 12 21 4 23 21 25 18 27
REMARK Flexibility Score: inf
ROOT
ATOM      1  C   UNL     1       8.739  52.680  19.484  1.00  0.00     0.180 A 
ATOM      2  C   UNL     1       8.041  52.677  20.707  1.00  0.00     0.208 A 
ATOM      3  C   UNL     1       6.653  52.890  20.697  1.00  0.00     0.238 A 
ATOM      4  O   UNL     1       6.020  52.900  21.787  1.00  0.00    -0.285 OA
ATOM      5  C   UNL     1       5.987  53.084  19.470  1.00  0.00     0.111 A 
ATOM      6  C   UNL     1       4.591  53.302  19.373  1.00  0.00     0.134 A 
ATOM      7  C   UNL     1       4.001  53.476  18.113  1.00  0.00     0.093 A 
ATOM      8  C   UNL     1       4.777  53.435  16.949  1.00  0.00     0.123 A 
ATOM      9  C   UNL     1       6.153  53.222  17.040  1.00  0.00     0.094 A 
ATOM     10  C   UNL     1       6.762  53.047  18.287  1.00  0.00     0.146 A 
ATOM     11  O   UNL     1       8.073  52.850  18.345  1.00  0.00    -0.452 OA
ENDROOT
BRANCH   1  12
ATOM     12  C   UNL     1      10.204  52.480  19.413  1.00  0.00     0.025 A 
ATOM     13  C   UNL     1      10.757  51.262  18.980  1.00  0.00     0.016 A 
ATOM     14  C   UNL     1      12.143  51.088  18.945  1.00  0.00     0.051 A 
ATOM     15  C   UNL     1      12.995  52.119  19.354  1.00  0.00     0.157 A 
ATOM     16  C   UNL     1      11.063  53.505  19.844  1.00  0.00     0.062 A 
ATOM     17  C   UNL     1      12.454  53.332  19.810  1.00  0.00     0.158 A 
BRANCH  15  18
ATOM     18  O   UNL     1      14.374  51.916  19.306  1.00  0.00    -0.504 OA
ATOM     19  H   UNL     1      14.893  51.949  18.437  1.00  0.00     0.293 HD
ENDBRANCH  15  18
BRANCH  17  20
ATOM     20  O   UNL     1      13.298  54.361  20.225  1.00  0.00    -0.504 OA
ATOM     21  H   UNL     1      14.261  54.414  19.917  1.00  0.00     0.293 HD
ENDBRANCH  17  20
ENDBRANCH   1  12
BRANCH   2  22
ATOM     22  O   UNL     1       8.718  52.434  21.905  1.00  0.00    -0.502 OA
ATOM     23  H   UNL     1       8.233  52.238  22.772  1.00  0.00     0.293 HD
ENDBRANCH   2  22
BRANCH   6  24
ATOM     24  O   UNL     1       3.790  53.346  20.515  1.00  0.00    -0.507 OA
ATOM     25  H   UNL     1       4.073  53.852  21.346  1.00  0.00     0.293 HD
ENDBRANCH   6  24
BRANCH   8  26
ATOM     26  O   UNL     1       4.191  53.608  15.698  1.00  0.00    -0.508 OA
ATOM     27  H   UNL     1       3.187  53.551  15.570  1.00  0.00     0.293 HD
ENDBRANCH   8  26
TORSDOF 6
ENDMDL
MODEL 5
REMARK VINA RESULT:    -6.078      1.703      6.622
REMARK INTER + INTRA:          -7.561
REMARK INTER:                  -7.932
REMARK INTRA:                   0.371
REMARK UNBOUND:                -0.239
REMARK SMILES O=c1c(O)c(-c2ccc(O)c(O)c2)oc2cc(O)cc(O)c12
REMARK SMILES IDX 5 1 3 2 2 3 1 4 22 5 20 6 19 7 17 8 16 9 15 10 14 11 6 12
REMARK SMILES IDX 7 13 8 14 9 15 13 16 11 17 10 18 12 20 4 22 21 24 18 26
REMARK H PARENT 10 19 12 21 4 23 21 25 18 27
REMARK Flexibility Score: inf
ROOT
ATOM      1  C   UNL     1       9.041  52.432  20.677  1.00  0.00     0.180 A 
ATOM      2  C   UNL     1       9.565  52.607  19.381  1.00  0.00     0.208 A 
ATOM      3  C   UNL     1       8.681  52.862  18.320  1.00  0.00     0.238 A 
ATOM      4  O   UNL     1       9.138  53.010  17.155  1.00  0.00    -0.285 OA
ATOM      5  C   UNL     1       7.298  52.956  18.573  1.00  0.00     0.111 A 
ATOM      6  C   UNL     1       6.341  53.212  17.562  1.00  0.00     0.134 A 
ATOM      7  C   UNL     1       4.982  53.301  17.896  1.00  0.00     0.093 A 
ATOM      8  C   UNL     1       4.561  53.138  19.221  1.00  0.00     0.123 A 
ATOM      9  C   UNL     1       5.500  52.883  20.221  1.00  0.00     0.094 A 
ATOM     10  C   UNL     1       6.860  52.790  19.909  1.00  0.00     0.146 A 
ATOM     11  O   UNL     1       7.731  52.543  20.880  1.00  0.00    -0.452 OA
ENDROOT
BRANCH   1  12
ATOM     12  C   UNL     1       9.906  52.143  21.843  1.00  0.00     0.025 A 
ATOM     13  C   UNL     1       9.534  52.524  23.143  1.00  0.00     0.016 A 
ATOM     14  C   UNL     1      10.378  52.262  24.225  1.00  0.00     0.051 A 
ATOM     15  C   UNL     1      11.609  51.630  24.025  1.00  0.00     0.157 A 
ATOM     16  C   UNL     1      11.153  51.527  21.642  1.00  0.00     0.062 A 
ATOM     17  C   UNL     1      12.002  51.264  22.727  1.00  0.00     0.158 A 
BRANCH  15  18
ATOM     18  O   UNL     1      12.429  51.380  25.124  1.00  0.00    -0.504 OA
ATOM     19  H   UNL     1      13.228  50.759  25.070  1.00  0.00     0.293 HD
ENDBRANCH  15  18
BRANCH  17  20
ATOM     20  O   UNL     1      13.231  50.639  22.519  1.00  0.00    -0.504 OA
ATOM     21  H   UNL     1      13.771  50.798  21.677  1.00  0.00     0.293 HD
ENDBRANCH  17  20
ENDBRANCH   1  12
BRANCH   2  22
ATOM     22  O   UNL     1      10.944  52.558  19.165  1.00  0.00    -0.502 OA
ATOM     23  H   UNL     1      11.506  51.756  19.425  1.00  0.00     0.293 HD
ENDBRANCH   2  22
BRANCH   6  24
ATOM     24  O   UNL     1       6.729  53.381  16.232  1.00  0.00    -0.507 OA
ATOM     25  H   UNL     1       6.511  54.225  15.716  1.00  0.00     0.293 HD
ENDBRANCH   6  24
BRANCH   8  26
ATOM     26  O   UNL     1       3.211  53.226  19.554  1.00  0.00    -0.508 OA
ATOM     27  H   UNL     1       2.781  54.111  19.795  1.00  0.00     0.293 HD
ENDBRANCH   8  26
TORSDOF 6
ENDMDL
MODEL 6
REMARK VINA RESULT:    -5.872      2.903      5.591
REMARK INTER + INTRA:          -7.312
REMARK INTER:                  -6.984
REMARK INTRA:                  -0.328
REMARK UNBOUND:                -0.239
REMARK SMILES O=c1c(O)c(-c2ccc(O)c(O)c2)oc2cc(O)cc(O)c12
REMARK SMILES IDX 5 1 3 2 2 3 1 4 22 5 20 6 19 7 17 8 16 9 15 10 14 11 6 12
REMARK SMILES IDX 7 13 8 14 9 15 13 16 11 17 10 18 12 20 4 22 21 24 18 26
REMARK H PARENT 10 19 12 21 4 23 21 25 18 27
REMARK Flexibility Score: inf
ROOT
ATOM      1  C   UNL     1      11.077  52.507  20.481  1.00  0.00     0.180 A 
ATOM      2  C   UNL     1       9.818  52.999  20.874  1.00  0.00     0.208 A 
ATOM      3  C   UNL     1       9.250  52.533  22.070  1.00  0.00     0.238 A 
ATOM      4  O   UNL     1       8.118  52.959  22.426  1.00  0.00    -0.285 OA
ATOM      5  C   UNL     1       9.954  51.602  22.859  1.00  0.00     0.111 A 
ATOM      6  C   UNL     1       9.455  51.085  24.079  1.00  0.00     0.134 A 
ATOM      7  C   UNL     1      10.222  50.169  24.812  1.00  0.00     0.093 A 
ATOM      8  C   UNL     1      11.478  49.759  24.351  1.00  0.00     0.123 A 
ATOM      9  C   UNL     1      11.974  50.264  23.148  1.00  0.00     0.094 A 
ATOM     10  C   UNL     1      11.225  51.179  22.402  1.00  0.00     0.146 A 
ATOM     11  O   UNL     1      11.719  51.640  21.259  1.00  0.00    -0.452 OA
ENDROOT
BRANCH   1  12
ATOM     12  C   UNL     1      11.733  52.936  19.224  1.00  0.00     0.025 A 
ATOM     13  C   UNL     1      11.575  52.210  18.031  1.00  0.00     0.016 A 
ATOM     14  C   UNL     1      12.223  52.620  16.864  1.00  0.00     0.051 A 
ATOM     15  C   UNL     1      13.047  53.750  16.872  1.00  0.00     0.157 A 
ATOM     16  C   UNL     1      12.577  54.058  19.234  1.00  0.00     0.062 A 
ATOM     17  C   UNL     1      13.229  54.472  18.063  1.00  0.00     0.158 A 
BRANCH  15  18
ATOM     18  O   UNL     1      13.679  54.136  15.691  1.00  0.00    -0.504 OA
ATOM     19  H   UNL     1      13.409  53.763  14.788  1.00  0.00     0.293 HD
ENDBRANCH  15  18
BRANCH  17  20
ATOM     20  O   UNL     1      14.054  55.595  18.080  1.00  0.00    -0.504 OA
ATOM     21  H   UNL     1      14.101  56.231  17.292  1.00  0.00     0.293 HD
ENDBRANCH  17  20
ENDBRANCH   1  12
BRANCH   2  22
ATOM     22  O   UNL     1       9.162  53.959  20.098  1.00  0.00    -0.502 OA
ATOM     23  H   UNL     1       9.639  54.765  19.714  1.00  0.00     0.293 HD
ENDBRANCH   2  22
BRANCH   6  24
ATOM     24  O   UNL     1       8.207  51.475  24.567  1.00  0.00    -0.507 OA
ATOM     25  H   UNL     1       7.539  51.971  23.988  1.00  0.00     0.293 HD
ENDBRANCH   6  24
BRANCH   8  26
ATOM     26  O   UNL     1      12.240  48.849  25.079  1.00  0.00    -0.508 OA
ATOM     27  H   UNL     1      12.618  49.082  25.989  1.00  0.00     0.293 HD
ENDBRANCH   8  26
TORSDOF 6
ENDMDL
MODEL 7
REMARK VINA RESULT:    -5.847      2.483      7.895
REMARK INTER + INTRA:          -7.282
REMARK INTER:                  -6.957
REMARK INTRA:                  -0.325
REMARK UNBOUND:                -0.239
REMARK SMILES O=c1c(O)c(-c2ccc(O)c(O)c2)oc2cc(O)cc(O)c12
REMARK SMILES IDX 5 1 3 2 2 3 1 4 22 5 20 6 19 7 17 8 16 9 15 10 14 11 6 12
REMARK SMILES IDX 7 13 8 14 9 15 13 16 11 17 10 18 12 20 4 22 21 24 18 26
REMARK H PARENT 10 19 12 21 4 23 21 25 18 27
REMARK Flexibility Score: inf
ROOT
ATOM      1  C   UNL     1      12.254  51.642  22.649  1.00  0.00     0.180 A 
ATOM      2  C   UNL     1      11.714  50.722  23.569  1.00  0.00     0.208 A 
ATOM      3  C   UNL     1      10.320  50.661  23.728  1.00  0.00     0.238 A 
ATOM      4  O   UNL     1       9.826  49.849  24.556  1.00  0.00    -0.285 OA
ATOM      5  C   UNL     1       9.493  51.502  22.957  1.00  0.00     0.111 A 
ATOM      6  C   UNL     1       8.080  51.501  23.054  1.00  0.00     0.134 A 
ATOM      7  C   UNL     1       7.327  52.362  22.244  1.00  0.00     0.093 A 
ATOM      8  C   UNL     1       7.956  53.223  21.338  1.00  0.00     0.123 A 
ATOM      9  C   UNL     1       9.348  53.230  21.240  1.00  0.00     0.094 A 
ATOM     10  C   UNL     1      10.118  52.380  22.039  1.00  0.00     0.146 A 
ATOM     11  O   UNL     1      11.441  52.409  21.928  1.00  0.00    -0.452 OA
ENDROOT
BRANCH   1  12
ATOM     12  C   UNL     1      13.713  51.779  22.438  1.00  0.00     0.025 A 
ATOM     13  C   UNL     1      14.390  51.005  21.479  1.00  0.00     0.016 A 
ATOM     14  C   UNL     1      15.771  51.134  21.314  1.00  0.00     0.051 A 
ATOM     15  C   UNL     1      16.498  52.023  22.111  1.00  0.00     0.157 A 
ATOM     16  C   UNL     1      14.450  52.655  23.251  1.00  0.00     0.062 A 
ATOM     17  C   UNL     1      15.836  52.786  23.088  1.00  0.00     0.158 A 
BRANCH  15  18
ATOM     18  O   UNL     1      17.876  52.131  21.922  1.00  0.00    -0.504 OA
ATOM     19  H   UNL     1      18.443  51.343  21.636  1.00  0.00     0.293 HD
ENDBRANCH  15  18
BRANCH  17  20
ATOM     20  O   UNL     1      16.556  53.670  23.890  1.00  0.00    -0.504 OA
ATOM     21  H   UNL     1      16.644  53.528  24.890  1.00  0.00     0.293 HD
ENDBRANCH  17  20
ENDBRANCH   1  12
BRANCH   2  22
ATOM     22  O   UNL     1      12.553  49.866  24.285  1.00  0.00    -0.502 OA
ATOM     23  H   UNL     1      12.199  49.086  24.827  1.00  0.00     0.293 HD
ENDBRANCH   2  22
BRANCH   6  24
ATOM     24  O   UNL     1       7.423  50.653  23.947  1.00  0.00    -0.507 OA
ATOM     25  H   UNL     1       6.690  50.989  24.560  1.00  0.00     0.293 HD
ENDBRANCH   6  24
BRANCH   8  26
ATOM     26  O   UNL     1       7.207  54.079  20.534  1.00  0.00    -0.508 OA
ATOM     27  H   UNL     1       6.506  54.696  20.925  1.00  0.00     0.293 HD
ENDBRANCH   8  26
TORSDOF 6
ENDMDL
MODEL 8
REMARK VINA RESULT:    -5.697      3.102      4.294
REMARK INTER + INTRA:          -7.101
REMARK INTER:                  -7.150
REMARK INTRA:                   0.049
REMARK UNBOUND:                -0.239
REMARK SMILES O=c1c(O)c(-c2ccc(O)c(O)c2)oc2cc(O)cc(O)c12
REMARK SMILES IDX 5 1 3 2 2 3 1 4 22 5 20 6 19 7 17 8 16 9 15 10 14 11 6 12
REMARK SMILES IDX 7 13 8 14 9 15 13 16 11 17 10 18 12 20 4 22 21 24 18 26
REMARK H PARENT 10 19 12 21 4 23 21 25 18 27
REMARK Flexibility Score: inf
ROOT
ATOM      1  C   UNL     1      11.904  51.717  22.932  1.00  0.00     0.180 A 
ATOM      2  C   UNL     1      12.256  51.276  21.642  1.00  0.00     0.208 A 
ATOM      3  C   UNL     1      13.593  51.389  21.227  1.00  0.00     0.238 A 
ATOM      4  O   UNL     1      13.918  51.007  20.070  1.00  0.00    -0.285 OA
ATOM      5  C   UNL     1      14.553  51.923  22.110  1.00  0.00     0.111 A 
ATOM      6  C   UNL     1      15.920  52.069  21.771  1.00  0.00     0.134 A 
ATOM      7  C   UNL     1      16.817  52.599  22.710  1.00  0.00     0.093 A 
ATOM      8  C   UNL     1      16.374  52.986  23.980  1.00  0.00     0.123 A 
ATOM      9  C   UNL     1      15.027  52.846  24.318  1.00  0.00     0.094 A 
ATOM     10  C   UNL     1      14.117  52.320  23.396  1.00  0.00     0.146 A 
ATOM     11  O   UNL     1      12.841  52.201  23.743  1.00  0.00    -0.452 OA
ENDROOT
BRANCH   1  12
ATOM     12  C   UNL     1      10.513  51.647  23.434  1.00  0.00     0.025 A 
ATOM     13  C   UNL     1      10.214  51.071  24.681  1.00  0.00     0.016 A 
ATOM     14  C   UNL     1       8.891  50.994  25.124  1.00  0.00     0.051 A 
ATOM     15  C   UNL     1       7.849  51.476  24.326  1.00  0.00     0.157 A 
ATOM     16  C   UNL     1       9.462  52.112  22.627  1.00  0.00     0.062 A 
ATOM     17  C   UNL     1       8.134  52.035  23.069  1.00  0.00     0.158 A 
BRANCH  15  18
ATOM     18  O   UNL     1       6.539  51.388  24.796  1.00  0.00    -0.504 OA
ATOM     19  H   UNL     1       6.202  51.957  25.563  1.00  0.00     0.293 HD
ENDBRANCH  15  18
BRANCH  17  20
ATOM     20  O   UNL     1       7.099  52.512  22.266  1.00  0.00    -0.504 OA
ATOM     21  H   UNL     1       6.173  52.102  22.295  1.00  0.00     0.293 HD
ENDBRANCH  17  20
ENDBRANCH   1  12
BRANCH   2  22
ATOM     22  O   UNL     1      11.294  50.706  20.804  1.00  0.00    -0.502 OA
ATOM     23  H   UNL     1      10.333  51.024  20.786  1.00  0.00     0.293 HD
ENDBRANCH   2  22
BRANCH   6  24
ATOM     24  O   UNL     1      16.393  51.691  20.514  1.00  0.00    -0.507 OA
ATOM     25  H   UNL     1      17.221  52.110  20.108  1.00  0.00     0.293 HD
ENDBRANCH   6  24
BRANCH   8  26
ATOM     26  O   UNL     1      17.264  53.513  24.913  1.00  0.00    -0.508 OA
ATOM     27  H   UNL     1      18.219  53.740  24.665  1.00  0.00     0.293 HD
ENDBRANCH   8  26
TORSDOF 6
ENDMDL
MODEL 9
REMARK VINA RESULT:    -5.533      2.267      7.223
REMARK INTER + INTRA:          -6.904
REMARK INTER:                  -6.639
REMARK INTRA:                  -0.265
REMARK UNBOUND:                -0.239
REMARK SMILES O=c1c(O)c(-c2ccc(O)c(O)c2)oc2cc(O)cc(O)c12
REMARK SMILES IDX 5 1 3 2 2 3 1 4 22 5 20 6 19 7 17 8 16 9 15 10 14 11 6 12
REMARK SMILES IDX 7 13 8 14 9 15 13 16 11 17 10 18 12 20 4 22 21 24 18 26
REMARK H PARENT 10 19 12 21 4 23 21 25 18 27
REMARK Flexibility Score: inf
ROOT
ATOM      1  C   UNL     1      12.355  52.279  21.490  1.00  0.00     0.180 A 
ATOM      2  C   UNL     1      11.932  52.812  20.257  1.00  0.00     0.208 A 
ATOM      3  C   UNL     1      10.558  52.981  20.025  1.00  0.00     0.238 A 
ATOM      4  O   UNL     1      10.167  53.447  18.921  1.00  0.00    -0.285 OA
ATOM      5  C   UNL     1       9.634  52.633  21.032  1.00  0.00     0.111 A 
ATOM      6  C   UNL     1       8.233  52.774  20.880  1.00  0.00     0.134 A 
ATOM      7  C   UNL     1       7.380  52.415  21.933  1.00  0.00     0.093 A 
ATOM      8  C   UNL     1       7.899  51.917  23.134  1.00  0.00     0.123 A 
ATOM      9  C   UNL     1       9.278  51.774  23.287  1.00  0.00     0.094 A 
ATOM     10  C   UNL     1      10.147  52.126  22.250  1.00  0.00     0.146 A 
ATOM     11  O   UNL     1      11.455  51.976  22.421  1.00  0.00    -0.452 OA
ENDROOT
BRANCH   1  12
ATOM     12  C   UNL     1      13.785  52.055  21.801  1.00  0.00     0.025 A 
ATOM     13  C   UNL     1      14.507  51.004  21.210  1.00  0.00     0.016 A 
ATOM     14  C   UNL     1      15.849  50.796  21.538  1.00  0.00     0.051 A 
ATOM     15  C   UNL     1      16.485  51.623  22.469  1.00  0.00     0.157 A 
ATOM     16  C   UNL     1      14.421  52.870  22.752  1.00  0.00     0.062 A 
ATOM     17  C   UNL     1      15.768  52.664  23.082  1.00  0.00     0.158 A 
BRANCH  15  18
ATOM     18  O   UNL     1      17.826  51.393  22.774  1.00  0.00    -0.504 OA
ATOM     19  H   UNL     1      18.133  50.556  23.254  1.00  0.00     0.293 HD
ENDBRANCH  15  18
BRANCH  17  20
ATOM     20  O   UNL     1      16.394  53.488  24.016  1.00  0.00    -0.504 OA
ATOM     21  H   UNL     1      16.944  54.290  23.731  1.00  0.00     0.293 HD
ENDBRANCH  17  20
ENDBRANCH   1  12
BRANCH   2  22
ATOM     22  O   UNL     1      12.870  53.195  19.295  1.00  0.00    -0.502 OA
ATOM     23  H   UNL     1      12.866  54.113  18.866  1.00  0.00     0.293 HD
ENDBRANCH   2  22
BRANCH   6  24
ATOM     24  O   UNL     1       7.685  53.268  19.695  1.00  0.00    -0.507 OA
ATOM     25  H   UNL     1       8.119  53.097  18.796  1.00  0.00     0.293 HD
ENDBRANCH   6  24
BRANCH   8  26
ATOM     26  O   UNL     1       7.051  51.560  24.180  1.00  0.00    -0.508 OA
ATOM     27  H   UNL     1       6.044  51.560  24.070  1.00  0.00     0.293 HD
ENDBRANCH   8  26
TORSDOF 6
ENDMDL
