MODEL 1
REMARK VINA RESULT:    -2.896      0.000      0.000
REMARK INTER + INTRA:          -3.678
REMARK INTER:                  -3.489
REMARK INTRA:                  -0.190
REMARK UNBOUND:                -0.190
REMARK SMILES O=c1c(O)c(-c2ccc(O)cc2O)oc2cc(O)cc(O)c12
REMARK SMILES IDX 5 1 3 2 2 3 1 4 22 5 20 6 19 7 17 8 16 9 15 10 14 11 6 12
REMARK SMILES IDX 8 13 7 14 9 15 11 16 12 17 10 18 13 20 4 22 21 24 18 26
REMARK H PARENT 10 19 13 21 4 23 21 25 18 27
REMARK Flexibility Score: inf
ROOT
ATOM      1  C   UNL     1      45.165  73.338 156.029  1.00  0.00     0.184 A 
ATOM      2  C   UNL     1      44.797  74.099 157.153  1.00  0.00     0.208 A 
ATOM      3  C   UNL     1      43.573  73.827 157.785  1.00  0.00     0.238 A 
ATOM      4  O   UNL     1      43.237  74.496 158.800  1.00  0.00    -0.285 OA
ATOM      5  C   UNL     1      42.735  72.817 157.271  1.00  0.00     0.111 A 
ATOM      6  C   UNL     1      41.485  72.482 157.845  1.00  0.00     0.134 A 
ATOM      7  C   UNL     1      40.703  71.469 157.271  1.00  0.00     0.093 A 
ATOM      8  C   UNL     1      41.148  70.785 156.133  1.00  0.00     0.123 A 
ATOM      9  C   UNL     1      42.380  71.111 155.563  1.00  0.00     0.094 A 
ATOM     10  C   UNL     1      43.174  72.117 156.123  1.00  0.00     0.146 A 
ATOM     11  O   UNL     1      44.344  72.403 155.563  1.00  0.00    -0.451 OA
ENDROOT
BRANCH   1  12
ATOM     12  C   UNL     1      46.444  73.565 155.325  1.00  0.00     0.063 A 
ATOM     13  C   UNL     1      47.979  75.118 154.257  1.00  0.00     0.047 A 
ATOM     14  C   UNL     1      46.780  74.870 154.930  1.00  0.00     0.020 A 
ATOM     15  C   UNL     1      48.849  74.067 153.957  1.00  0.00     0.119 A 
ATOM     16  C   UNL     1      48.511  72.759 154.325  1.00  0.00     0.093 A 
ATOM     17  C   UNL     1      47.307  72.499 154.997  1.00  0.00     0.130 A 
BRANCH  15  18
ATOM     18  O   UNL     1      50.042  74.332 153.290  1.00  0.00    -0.508 OA
ATOM     19  H   UNL     1      50.193  74.029 152.334  1.00  0.00     0.293 HD
ENDBRANCH  15  18
BRANCH  17  20
ATOM     20  O   UNL     1      46.960  71.186 155.315  1.00  0.00    -0.507 OA
ATOM     21  H   UNL     1      47.661  70.487 155.529  1.00  0.00     0.293 HD
ENDBRANCH  17  20
ENDBRANCH   1  12
BRANCH   2  22
ATOM     22  O   UNL     1      45.629  75.125 157.610  1.00  0.00    -0.502 OA
ATOM     23  H   UNL     1      45.627  75.435 158.574  1.00  0.00     0.293 HD
ENDBRANCH   2  22
BRANCH   6  24
ATOM     24  O   UNL     1      41.015  73.145 158.979  1.00  0.00    -0.507 OA
ATOM     25  H   UNL     1      40.390  73.940 158.912  1.00  0.00     0.293 HD
ENDBRANCH   6  24
BRANCH   8  26
ATOM     26  O   UNL     1      40.371  69.779 155.560  1.00  0.00    -0.508 OA
ATOM     27  H   UNL     1      40.152  68.928 156.064  1.00  0.00     0.293 HD
ENDBRANCH   8  26
TORSDOF 6
ENDMDL
MODEL 2
REMARK VINA RESULT:    -2.467      2.238      7.286
REMARK INTER + INTRA:          -3.162
REMARK INTER:                  -3.226
REMARK INTRA:                   0.064
REMARK UNBOUND:                -0.190
REMARK SMILES O=c1c(O)c(-c2ccc(O)cc2O)oc2cc(O)cc(O)c12
REMARK SMILES IDX 5 1 3 2 2 3 1 4 22 5 20 6 19 7 17 8 16 9 15 10 14 11 6 12
REMARK SMILES IDX 8 13 7 14 9 15 11 16 12 17 10 18 13 20 4 22 21 24 18 26
REMARK H PARENT 10 19 13 21 4 23 21 25 18 27
REMARK Flexibility Score: inf
ROOT
ATOM      1  C   UNL     1      40.725  72.538 157.478  1.00  0.00     0.184 A 
ATOM      2  C   UNL     1      41.060  73.639 158.286  1.00  0.00     0.208 A 
ATOM      3  C   UNL     1      42.374  74.130 158.253  1.00  0.00     0.238 A 
ATOM      4  O   UNL     1      42.682  75.124 158.964  1.00  0.00    -0.285 OA
ATOM      5  C   UNL     1      43.331  73.502 157.430  1.00  0.00     0.111 A 
ATOM      6  C   UNL     1      44.677  73.932 157.340  1.00  0.00     0.134 A 
ATOM      7  C   UNL     1      45.572  73.248 156.505  1.00  0.00     0.093 A 
ATOM      8  C   UNL     1      45.147  72.142 155.758  1.00  0.00     0.123 A 
ATOM      9  C   UNL     1      43.821  71.715 155.842  1.00  0.00     0.094 A 
ATOM     10  C   UNL     1      42.913  72.385 156.668  1.00  0.00     0.146 A 
ATOM     11  O   UNL     1      41.656  71.959 156.726  1.00  0.00    -0.451 OA
ENDROOT
BRANCH   1  12
ATOM     12  C   UNL     1      39.358  71.978 157.457  1.00  0.00     0.063 A 
ATOM     13  C   UNL     1      37.324  71.422 158.666  1.00  0.00     0.047 A 
ATOM     14  C   UNL     1      38.617  71.949 158.650  1.00  0.00     0.020 A 
ATOM     15  C   UNL     1      36.759  70.904 157.498  1.00  0.00     0.119 A 
ATOM     16  C   UNL     1      37.499  70.906 156.308  1.00  0.00     0.093 A 
ATOM     17  C   UNL     1      38.801  71.429 156.283  1.00  0.00     0.130 A 
BRANCH  15  18
ATOM     18  O   UNL     1      35.467  70.386 157.530  1.00  0.00    -0.508 OA
ATOM     19  H   UNL     1      34.655  70.981 157.418  1.00  0.00     0.293 HD
ENDBRANCH  15  18
BRANCH  17  20
ATOM     20  O   UNL     1      39.545  71.382 155.105  1.00  0.00    -0.507 OA
ATOM     21  H   UNL     1      40.086  70.564 154.850  1.00  0.00     0.293 HD
ENDBRANCH  17  20
ENDBRANCH   1  12
BRANCH   2  22
ATOM     22  O   UNL     1      40.100  74.212 159.125  1.00  0.00    -0.502 OA
ATOM     23  H   UNL     1      40.192  75.151 159.492  1.00  0.00     0.293 HD
ENDBRANCH   2  22
BRANCH   6  24
ATOM     24  O   UNL     1      45.130  75.029 158.072  1.00  0.00    -0.507 OA
ATOM     25  H   UNL     1      45.715  74.920 158.893  1.00  0.00     0.293 HD
ENDBRANCH   6  24
BRANCH   8  26
ATOM     26  O   UNL     1      46.036  71.462 154.929  1.00  0.00    -0.508 OA
ATOM     27  H   UNL     1      45.961  70.463 154.777  1.00  0.00     0.293 HD
ENDBRANCH   8  26
TORSDOF 6
ENDMDL
MODEL 3
REMARK VINA RESULT:    -2.252      1.991      2.543
REMARK INTER + INTRA:          -2.903
REMARK INTER:                  -2.903
REMARK INTRA:                   0.001
REMARK UNBOUND:                -0.190
REMARK SMILES O=c1c(O)c(-c2ccc(O)cc2O)oc2cc(O)cc(O)c12
REMARK SMILES IDX 5 1 3 2 2 3 1 4 22 5 20 6 19 7 17 8 16 9 15 10 14 11 6 12
REMARK SMILES IDX 8 13 7 14 9 15 11 16 12 17 10 18 13 20 4 22 21 24 18 26
REMARK H PARENT 10 19 13 21 4 23 21 25 18 27
REMARK Flexibility Score: inf
ROOT
ATOM      1  C   UNL     1      46.073  72.695 154.531  1.00  0.00     0.184 A 
ATOM      2  C   UNL     1      46.329  73.827 155.325  1.00  0.00     0.208 A 
ATOM      3  C   UNL     1      45.464  74.118 156.391  1.00  0.00     0.238 A 
ATOM      4  O   UNL     1      45.690  75.124 157.116  1.00  0.00    -0.285 OA
ATOM      5  C   UNL     1      44.351  73.286 156.631  1.00  0.00     0.111 A 
ATOM      6  C   UNL     1      43.429  73.510 157.682  1.00  0.00     0.134 A 
ATOM      7  C   UNL     1      42.341  72.641 157.851  1.00  0.00     0.093 A 
ATOM      8  C   UNL     1      42.158  71.553 156.988  1.00  0.00     0.123 A 
ATOM      9  C   UNL     1      43.065  71.328 155.951  1.00  0.00     0.094 A 
ATOM     10  C   UNL     1      44.156  72.182 155.768  1.00  0.00     0.146 A 
ATOM     11  O   UNL     1      45.006  71.941 154.776  1.00  0.00    -0.451 OA
ENDROOT
BRANCH   1  12
ATOM     12  C   UNL     1      46.950  72.325 153.401  1.00  0.00     0.063 A 
ATOM     13  C   UNL     1      48.288  73.026 151.496  1.00  0.00     0.047 A 
ATOM     14  C   UNL     1      47.460  73.341 152.576  1.00  0.00     0.020 A 
ATOM     15  C   UNL     1      48.604  71.695 151.216  1.00  0.00     0.119 A 
ATOM     16  C   UNL     1      48.080  70.672 152.018  1.00  0.00     0.093 A 
ATOM     17  C   UNL     1      47.244  70.979 153.102  1.00  0.00     0.130 A 
BRANCH  15  18
ATOM     18  O   UNL     1      49.434  71.397 150.138  1.00  0.00    -0.508 OA
ATOM     19  H   UNL     1      49.069  71.320 149.195  1.00  0.00     0.293 HD
ENDBRANCH  15  18
BRANCH  17  20
ATOM     20  O   UNL     1      46.690  69.950 153.864  1.00  0.00    -0.507 OA
ATOM     21  H   UNL     1      47.181  69.077 154.014  1.00  0.00     0.293 HD
ENDBRANCH  17  20
ENDBRANCH   1  12
BRANCH   2  22
ATOM     22  O   UNL     1      47.414  74.658 155.033  1.00  0.00    -0.502 OA
ATOM     23  H   UNL     1      47.376  75.366 154.311  1.00  0.00     0.293 HD
ENDBRANCH   2  22
BRANCH   6  24
ATOM     24  O   UNL     1      43.585  74.585 158.557  1.00  0.00    -0.507 OA
ATOM     25  H   UNL     1      44.060  74.486 159.446  1.00  0.00     0.293 HD
ENDBRANCH   6  24
BRANCH   8  26
ATOM     26  O   UNL     1      41.076  70.690 157.155  1.00  0.00    -0.508 OA
ATOM     27  H   UNL     1      41.203  69.687 157.210  1.00  0.00     0.293 HD
ENDBRANCH   8  26
TORSDOF 6
ENDMDL
MODEL 4
REMARK VINA RESULT:    -2.206      1.631      6.375
REMARK INTER + INTRA:          -2.847
REMARK INTER:                  -2.662
REMARK INTRA:                  -0.186
REMARK UNBOUND:                -0.190
REMARK SMILES O=c1c(O)c(-c2ccc(O)cc2O)oc2cc(O)cc(O)c12
REMARK SMILES IDX 5 1 3 2 2 3 1 4 22 5 20 6 19 7 17 8 16 9 15 10 14 11 6 12
REMARK SMILES IDX 8 13 7 14 9 15 11 16 12 17 10 18 13 20 4 22 21 24 18 26
REMARK H PARENT 10 19 13 21 4 23 21 25 18 27
REMARK Flexibility Score: inf
ROOT
ATOM      1  C   UNL     1      44.547  72.711 156.119  1.00  0.00     0.184 A 
ATOM      2  C   UNL     1      45.285  73.906 156.202  1.00  0.00     0.208 A 
ATOM      3  C   UNL     1      46.426  74.054 155.399  1.00  0.00     0.238 A 
ATOM      4  O   UNL     1      47.090  75.125 155.456  1.00  0.00    -0.285 OA
ATOM      5  C   UNL     1      46.818  73.003 154.545  1.00  0.00     0.111 A 
ATOM      6  C   UNL     1      47.956  73.070 153.705  1.00  0.00     0.134 A 
ATOM      7  C   UNL     1      48.285  71.977 152.890  1.00  0.00     0.093 A 
ATOM      8  C   UNL     1      47.499  70.819 152.899  1.00  0.00     0.123 A 
ATOM      9  C   UNL     1      46.375  70.748 153.724  1.00  0.00     0.094 A 
ATOM     10  C   UNL     1      46.030  71.827 154.543  1.00  0.00     0.146 A 
ATOM     11  O   UNL     1      44.953  71.734 155.315  1.00  0.00    -0.451 OA
ENDROOT
BRANCH   1  12
ATOM     12  C   UNL     1      43.330  72.495 156.929  1.00  0.00     0.063 A 
ATOM     13  C   UNL     1      40.928  72.126 157.010  1.00  0.00     0.047 A 
ATOM     14  C   UNL     1      42.099  72.327 156.274  1.00  0.00     0.020 A 
ATOM     15  C   UNL     1      40.969  72.104 158.406  1.00  0.00     0.119 A 
ATOM     16  C   UNL     1      42.189  72.295 159.069  1.00  0.00     0.093 A 
ATOM     17  C   UNL     1      43.368  72.503 158.338  1.00  0.00     0.130 A 
BRANCH  15  18
ATOM     18  O   UNL     1      39.794  71.899 159.125  1.00  0.00    -0.508 OA
ATOM     19  H   UNL     1      39.043  72.579 159.117  1.00  0.00     0.293 HD
ENDBRANCH  15  18
BRANCH  17  20
ATOM     20  O   UNL     1      44.568  72.739 159.010  1.00  0.00    -0.507 OA
ATOM     21  H   UNL     1      45.147  71.980 159.347  1.00  0.00     0.293 HD
ENDBRANCH  17  20
ENDBRANCH   1  12
BRANCH   2  22
ATOM     22  O   UNL     1      44.897  74.911 157.091  1.00  0.00    -0.502 OA
ATOM     23  H   UNL     1      44.373  75.725 156.794  1.00  0.00     0.293 HD
ENDBRANCH   2  22
BRANCH   6  24
ATOM     24  O   UNL     1      48.759  74.210 153.675  1.00  0.00    -0.507 OA
ATOM     25  H   UNL     1      49.602  74.255 153.113  1.00  0.00     0.293 HD
ENDBRANCH   6  24
BRANCH   8  26
ATOM     26  O   UNL     1      47.826  69.732 152.090  1.00  0.00    -0.508 OA
ATOM     27  H   UNL     1      47.383  68.830 152.211  1.00  0.00     0.293 HD
ENDBRANCH   8  26
TORSDOF 6
ENDMDL
MODEL 5
REMARK VINA RESULT:    -1.580      2.216      3.556
REMARK INTER + INTRA:          -2.092
REMARK INTER:                  -2.492
REMARK INTRA:                   0.399
REMARK UNBOUND:                -0.190
REMARK SMILES O=c1c(O)c(-c2ccc(O)cc2O)oc2cc(O)cc(O)c12
REMARK SMILES IDX 5 1 3 2 2 3 1 4 22 5 20 6 19 7 17 8 16 9 15 10 14 11 6 12
REMARK SMILES IDX 8 13 7 14 9 15 11 16 12 17 10 18 13 20 4 22 21 24 18 26
REMARK H PARENT 10 19 13 21 4 23 21 25 18 27
REMARK Flexibility Score: inf
ROOT
ATOM      1  C   UNL     1      42.092  72.774 157.064  1.00  0.00     0.184 A 
ATOM      2  C   UNL     1      41.800  73.913 157.835  1.00  0.00     0.208 A 
ATOM      3  C   UNL     1      40.484  74.113 158.280  1.00  0.00     0.238 A 
ATOM      4  O   UNL     1      40.213  75.125 158.981  1.00  0.00    -0.285 OA
ATOM      5  C   UNL     1      39.484  73.183 157.930  1.00  0.00     0.111 A 
ATOM      6  C   UNL     1      38.133  73.311 158.334  1.00  0.00     0.134 A 
ATOM      7  C   UNL     1      37.193  72.348 157.938  1.00  0.00     0.093 A 
ATOM      8  C   UNL     1      37.579  71.260 157.145  1.00  0.00     0.123 A 
ATOM      9  C   UNL     1      38.910  71.129 156.745  1.00  0.00     0.094 A 
ATOM     10  C   UNL     1      39.861  72.078 157.131  1.00  0.00     0.146 A 
ATOM     11  O   UNL     1      41.121  71.926 156.739  1.00  0.00    -0.451 OA
ENDROOT
BRANCH   1  12
ATOM     12  C   UNL     1      43.458  72.498 156.574  1.00  0.00     0.063 A 
ATOM     13  C   UNL     1      45.671  73.335 156.014  1.00  0.00     0.047 A 
ATOM     14  C   UNL     1      44.373  73.559 156.478  1.00  0.00     0.020 A 
ATOM     15  C   UNL     1      46.068  72.053 155.625  1.00  0.00     0.119 A 
ATOM     16  C   UNL     1      45.155  70.992 155.693  1.00  0.00     0.093 A 
ATOM     17  C   UNL     1      43.848  71.210 156.154  1.00  0.00     0.130 A 
BRANCH  15  18
ATOM     18  O   UNL     1      47.366  71.844 155.167  1.00  0.00    -0.508 OA
ATOM     19  H   UNL     1      47.614  71.985 154.195  1.00  0.00     0.293 HD
ENDBRANCH  15  18
BRANCH  17  20
ATOM     20  O   UNL     1      42.934  70.156 156.172  1.00  0.00    -0.507 OA
ATOM     21  H   UNL     1      43.182  69.244 156.535  1.00  0.00     0.293 HD
ENDBRANCH  17  20
ENDBRANCH   1  12
BRANCH   2  22
ATOM     22  O   UNL     1      42.805  74.840 158.127  1.00  0.00    -0.502 OA
ATOM     23  H   UNL     1      42.705  75.537 158.854  1.00  0.00     0.293 HD
ENDBRANCH   2  22
BRANCH   6  24
ATOM     24  O   UNL     1      37.718  74.384 159.124  1.00  0.00    -0.507 OA
ATOM     25  H   UNL     1      37.701  74.327 160.135  1.00  0.00     0.293 HD
ENDBRANCH   6  24
BRANCH   8  26
ATOM     26  O   UNL     1      36.645  70.304 156.750  1.00  0.00    -0.508 OA
ATOM     27  H   UNL     1      36.057  70.442 155.936  1.00  0.00     0.293 HD
ENDBRANCH   8  26
TORSDOF 6
ENDMDL
MODEL 6
REMARK VINA RESULT:    -0.477      1.657      3.672
REMARK INTER + INTRA:          -0.764
REMARK INTER:                  -1.225
REMARK INTRA:                   0.461
REMARK UNBOUND:                -0.190
REMARK SMILES O=c1c(O)c(-c2ccc(O)cc2O)oc2cc(O)cc(O)c12
REMARK SMILES IDX 5 1 3 2 2 3 1 4 22 5 20 6 19 7 17 8 16 9 15 10 14 11 6 12
REMARK SMILES IDX 8 13 7 14 9 15 11 16 12 17 10 18 13 20 4 22 21 24 18 26
REMARK H PARENT 10 19 13 21 4 23 21 25 18 27
REMARK Flexibility Score: inf
ROOT
ATOM      1  C   UNL     1      43.357  72.439 156.166  1.00  0.00     0.184 A 
ATOM      2  C   UNL     1      42.749  71.205 155.872  1.00  0.00     0.208 A 
ATOM      3  C   UNL     1      41.424  70.988 156.283  1.00  0.00     0.238 A 
ATOM      4  O   UNL     1      40.865  69.890 156.016  1.00  0.00    -0.285 OA
ATOM      5  C   UNL     1      40.742  71.996 156.993  1.00  0.00     0.111 A 
ATOM      6  C   UNL     1      39.407  71.857 157.445  1.00  0.00     0.134 A 
ATOM      7  C   UNL     1      38.799  72.903 158.154  1.00  0.00     0.093 A 
ATOM      8  C   UNL     1      39.500  74.086 158.420  1.00  0.00     0.123 A 
ATOM      9  C   UNL     1      40.816  74.228 157.975  1.00  0.00     0.094 A 
ATOM     10  C   UNL     1      41.438  73.197 157.266  1.00  0.00     0.146 A 
ATOM     11  O   UNL     1      42.690  73.362 156.851  1.00  0.00    -0.451 OA
ENDROOT
BRANCH   1  12
ATOM     12  C   UNL     1      44.744  72.737 155.753  1.00  0.00     0.063 A 
ATOM     13  C   UNL     1      46.908  71.921 155.003  1.00  0.00     0.047 A 
ATOM     14  C   UNL     1      45.589  71.675 155.393  1.00  0.00     0.020 A 
ATOM     15  C   UNL     1      47.404  73.227 154.982  1.00  0.00     0.119 A 
ATOM     16  C   UNL     1      46.576  74.291 155.363  1.00  0.00     0.093 A 
ATOM     17  C   UNL     1      45.252  74.053 155.760  1.00  0.00     0.130 A 
BRANCH  15  18
ATOM     18  O   UNL     1      48.719  73.457 154.587  1.00  0.00    -0.508 OA
ATOM     19  H   UNL     1      48.978  73.506 153.609  1.00  0.00     0.293 HD
ENDBRANCH  15  18
BRANCH  17  20
ATOM     20  O   UNL     1      44.452  75.115 156.183  1.00  0.00    -0.507 OA
ATOM     21  H   UNL     1      43.850  75.616 155.541  1.00  0.00     0.293 HD
ENDBRANCH  17  20
ENDBRANCH   1  12
BRANCH   2  22
ATOM     22  O   UNL     1      43.467  70.209 155.207  1.00  0.00    -0.502 OA
ATOM     23  H   UNL     1      44.308  70.408 154.678  1.00  0.00     0.293 HD
ENDBRANCH   2  22
BRANCH   6  24
ATOM     24  O   UNL     1      38.683  70.690 157.197  1.00  0.00    -0.507 OA
ATOM     25  H   UNL     1      39.139  69.822 156.941  1.00  0.00     0.293 HD
ENDBRANCH   6  24
BRANCH   8  26
ATOM     26  O   UNL     1      38.897  75.125 159.125  1.00  0.00    -0.508 OA
ATOM     27  H   UNL     1      37.978  75.471 158.875  1.00  0.00     0.293 HD
ENDBRANCH   8  26
TORSDOF 6
ENDMDL
MODEL 7
REMARK VINA RESULT:    -0.035      2.890      7.067
REMARK INTER + INTRA:          -0.232
REMARK INTER:                   0.194
REMARK INTRA:                  -0.425
REMARK UNBOUND:                -0.190
REMARK SMILES O=c1c(O)c(-c2ccc(O)cc2O)oc2cc(O)cc(O)c12
REMARK SMILES IDX 5 1 3 2 2 3 1 4 22 5 20 6 19 7 17 8 16 9 15 10 14 11 6 12
REMARK SMILES IDX 8 13 7 14 9 15 11 16 12 17 10 18 13 20 4 22 21 24 18 26
REMARK H PARENT 10 19 13 21 4 23 21 25 18 27
REMARK Flexibility Score: inf
ROOT
ATOM      1  C   UNL     1      46.354  72.906 154.140  1.00  0.00     0.184 A 
ATOM      2  C   UNL     1      47.665  72.404 154.043  1.00  0.00     0.208 A 
ATOM      3  C   UNL     1      48.364  72.561 152.837  1.00  0.00     0.238 A 
ATOM      4  O   UNL     1      49.543  72.125 152.742  1.00  0.00    -0.285 OA
ATOM      5  C   UNL     1      47.736  73.198 151.747  1.00  0.00     0.111 A 
ATOM      6  C   UNL     1      48.368  73.395 150.495  1.00  0.00     0.134 A 
ATOM      7  C   UNL     1      47.673  74.030 149.456  1.00  0.00     0.093 A 
ATOM      8  C   UNL     1      46.358  74.472 149.644  1.00  0.00     0.123 A 
ATOM      9  C   UNL     1      45.730  74.281 150.876  1.00  0.00     0.094 A 
ATOM     10  C   UNL     1      46.407  73.652 151.924  1.00  0.00     0.146 A 
ATOM     11  O   UNL     1      45.787  73.487 153.088  1.00  0.00    -0.451 OA
ENDROOT
BRANCH   1  12
ATOM     12  C   UNL     1      45.567  72.784 155.384  1.00  0.00     0.063 A 
ATOM     13  C   UNL     1      44.193  71.410 156.845  1.00  0.00     0.047 A 
ATOM     14  C   UNL     1      44.949  71.558 155.680  1.00  0.00     0.020 A 
ATOM     15  C   UNL     1      44.032  72.486 157.722  1.00  0.00     0.119 A 
ATOM     16  C   UNL     1      44.625  73.719 157.424  1.00  0.00     0.093 A 
ATOM     17  C   UNL     1      45.382  73.879 156.254  1.00  0.00     0.130 A 
BRANCH  15  18
ATOM     18  O   UNL     1      43.279  72.321 158.881  1.00  0.00    -0.508 OA
ATOM     19  H   UNL     1      42.414  72.828 159.027  1.00  0.00     0.293 HD
ENDBRANCH  15  18
BRANCH  17  20
ATOM     20  O   UNL     1      45.927  75.125 155.944  1.00  0.00    -0.507 OA
ATOM     21  H   UNL     1      45.537  75.983 156.315  1.00  0.00     0.293 HD
ENDBRANCH  17  20
ENDBRANCH   1  12
BRANCH   2  22
ATOM     22  O   UNL     1      48.243  71.737 155.127  1.00  0.00    -0.502 OA
ATOM     23  H   UNL     1      47.885  71.823 156.070  1.00  0.00     0.293 HD
ENDBRANCH   2  22
BRANCH   6  24
ATOM     24  O   UNL     1      49.678  72.965 150.277  1.00  0.00    -0.507 OA
ATOM     25  H   UNL     1      50.054  72.144 150.737  1.00  0.00     0.293 HD
ENDBRANCH   6  24
BRANCH   8  26
ATOM     26  O   UNL     1      45.666  75.102 148.611  1.00  0.00    -0.508 OA
ATOM     27  H   UNL     1      45.342  74.588 147.800  1.00  0.00     0.293 HD
ENDBRANCH   8  26
TORSDOF 6
ENDMDL
