MODEL 1
REMARK VINA RESULT:    -3.149      0.000      0.000
REMARK INTER + INTRA:          -3.149
REMARK INTER:                  -3.149
REMARK INTRA:                   0.000
REMARK UNBOUND:                 0.000
REMARK SMILES CC1(C)O[C@]2(C)CC[C@H]1CC2
REMARK SMILES IDX 1 1 2 2 9 3 10 4 11 5 5 6 4 7 7 8 8 9 6 10 3 11
REMARK H PARENT
REMARK Flexibility Score: inf
ROOT
ATOM      1  C   UNL     1       7.020   6.381  -8.034  1.00  0.00     0.042 C 
ATOM      2  C   UNL     1       7.564   4.988  -7.647  1.00  0.00     0.066 C 
ATOM      3  C   UNL     1       9.138   5.010  -7.556  1.00  0.00     0.021 C 
ATOM      4  C   UNL     1       9.629   3.582  -7.218  1.00  0.00     0.009 C 
ATOM      5  C   UNL     1       9.000   2.580  -8.216  1.00  0.00     0.035 C 
ATOM      6  C   UNL     1       8.161   3.347  -9.278  1.00  0.00     0.066 C 
ATOM      7  O   UNL     1       7.100   4.042  -8.623  1.00  0.00    -0.369 OA
ATOM      8  C   UNL     1       9.078   4.378  -9.997  1.00  0.00     0.035 C 
ATOM      9  C   UNL     1       9.706   5.339  -8.958  1.00  0.00     0.009 C 
ATOM     10  C   UNL     1       7.561   2.369 -10.292  1.00  0.00     0.042 C 
ATOM     11  C   UNL     1       6.942   4.615  -6.284  1.00  0.00     0.042 C 
ENDROOT
TORSDOF 0
ENDMDL
MODEL 2
REMARK VINA RESULT:    -3.100      9.701     11.245
REMARK INTER + INTRA:          -3.100
REMARK INTER:                  -3.100
REMARK INTRA:                   0.000
REMARK UNBOUND:                 0.000
REMARK SMILES CC1(C)O[C@]2(C)CC[C@H]1CC2
REMARK SMILES IDX 1 1 2 2 9 3 10 4 11 5 5 6 4 7 7 8 8 9 6 10 3 11
REMARK H PARENT
REMARK Flexibility Score: inf
ROOT
ATOM      1  C   UNL     1      12.834  -3.947  -3.313  1.00  0.00     0.042 C 
ATOM      2  C   UNL     1      11.805  -4.329  -2.226  1.00  0.00     0.066 C 
ATOM      3  C   UNL     1      11.313  -5.814  -2.423  1.00  0.00     0.021 C 
ATOM      4  C   UNL     1      10.249  -6.125  -1.343  1.00  0.00     0.009 C 
ATOM      5  C   UNL     1       9.165  -5.020  -1.366  1.00  0.00     0.035 C 
ATOM      6  C   UNL     1       9.454  -4.020  -2.523  1.00  0.00     0.066 C 
ATOM      7  O   UNL     1      10.717  -3.394  -2.295  1.00  0.00    -0.369 OA
ATOM      8  C   UNL     1       9.507  -4.803  -3.866  1.00  0.00     0.035 C 
ATOM      9  C   UNL     1      10.584  -5.914  -3.784  1.00  0.00     0.009 C 
ATOM     10  C   UNL     1       8.369  -2.940  -2.578  1.00  0.00     0.042 C 
ATOM     11  C   UNL     1      12.498  -4.159  -0.857  1.00  0.00     0.042 C 
ENDROOT
TORSDOF 0
ENDMDL
MODEL 3
REMARK VINA RESULT:    -3.043      1.593      3.443
REMARK INTER + INTRA:          -3.043
REMARK INTER:                  -3.043
REMARK INTRA:                   0.000
REMARK UNBOUND:                 0.000
REMARK SMILES CC1(C)O[C@]2(C)CC[C@H]1CC2
REMARK SMILES IDX 1 1 2 2 9 3 10 4 11 5 5 6 4 7 7 8 8 9 6 10 3 11
REMARK H PARENT
REMARK Flexibility Score: inf
ROOT
ATOM      1  C   UNL     1       9.788   3.351  -7.406  1.00  0.00     0.042 C 
ATOM      2  C   UNL     1       8.776   4.497  -7.625  1.00  0.00     0.066 C 
ATOM      3  C   UNL     1       8.230   4.483  -9.105  1.00  0.00     0.021 C 
ATOM      4  C   UNL     1       7.263   5.678  -9.282  1.00  0.00     0.009 C 
ATOM      5  C   UNL     1       7.967   6.974  -8.808  1.00  0.00     0.035 C 
ATOM      6  C   UNL     1       9.435   6.659  -8.400  1.00  0.00     0.066 C 
ATOM      7  O   UNL     1       9.430   5.736  -7.311  1.00  0.00    -0.369 OA
ATOM      8  C   UNL     1      10.169   6.015  -9.612  1.00  0.00     0.035 C 
ATOM      9  C   UNL     1       9.414   4.742 -10.067  1.00  0.00     0.009 C 
ATOM     10  C   UNL     1      10.153   7.939  -7.961  1.00  0.00     0.042 C 
ATOM     11  C   UNL     1       7.626   4.293  -6.616  1.00  0.00     0.042 C 
ENDROOT
TORSDOF 0
ENDMDL
MODEL 4
REMARK VINA RESULT:    -3.015     17.439     18.569
REMARK INTER + INTRA:          -3.015
REMARK INTER:                  -3.015
REMARK INTRA:                   0.000
REMARK UNBOUND:                 0.000
REMARK SMILES CC1(C)O[C@]2(C)CC[C@H]1CC2
REMARK SMILES IDX 1 1 2 2 9 3 10 4 11 5 5 6 4 7 7 8 8 9 6 10 3 11
REMARK H PARENT
REMARK Flexibility Score: inf
ROOT
ATOM      1  C   UNL     1      17.325  -1.648   5.518  1.00  0.00     0.042 C 
ATOM      2  C   UNL     1      16.188  -1.586   6.562  1.00  0.00     0.066 C 
ATOM      3  C   UNL     1      16.671  -2.167   7.946  1.00  0.00     0.021 C 
ATOM      4  C   UNL     1      15.481  -2.128   8.935  1.00  0.00     0.009 C 
ATOM      5  C   UNL     1      14.254  -2.808   8.280  1.00  0.00     0.035 C 
ATOM      6  C   UNL     1      14.649  -3.384   6.889  1.00  0.00     0.066 C 
ATOM      7  O   UNL     1      15.065  -2.313   6.041  1.00  0.00    -0.369 OA
ATOM      8  C   UNL     1      15.830  -4.379   7.071  1.00  0.00     0.035 C 
ATOM      9  C   UNL     1      17.021  -3.663   7.755  1.00  0.00     0.009 C 
ATOM     10  C   UNL     1      13.452  -4.089   6.244  1.00  0.00     0.042 C 
ATOM     11  C   UNL     1      15.777  -0.105   6.704  1.00  0.00     0.042 C 
ENDROOT
TORSDOF 0
ENDMDL
MODEL 5
REMARK VINA RESULT:    -3.000      1.233      2.986
REMARK INTER + INTRA:          -3.000
REMARK INTER:                  -3.000
REMARK INTRA:                   0.000
REMARK UNBOUND:                 0.000
REMARK SMILES CC1(C)O[C@]2(C)CC[C@H]1CC2
REMARK SMILES IDX 1 1 2 2 9 3 10 4 11 5 5 6 4 7 7 8 8 9 6 10 3 11
REMARK H PARENT
REMARK Flexibility Score: inf
ROOT
ATOM      1  C   UNL     1       8.890   3.828 -10.848  1.00  0.00     0.042 C 
ATOM      2  C   UNL     1       8.889   4.373  -9.402  1.00  0.00     0.066 C 
ATOM      3  C   UNL     1       9.333   3.253  -8.385  1.00  0.00     0.021 C 
ATOM      4  C   UNL     1       9.264   3.837  -6.953  1.00  0.00     0.009 C 
ATOM      5  C   UNL     1       7.870   4.471  -6.731  1.00  0.00     0.035 C 
ATOM      6  C   UNL     1       6.974   4.231  -7.981  1.00  0.00     0.066 C 
ATOM      7  O   UNL     1       7.572   4.864  -9.112  1.00  0.00    -0.369 OA
ATOM      8  C   UNL     1       6.875   2.701  -8.245  1.00  0.00     0.035 C 
ATOM      9  C   UNL     1       8.293   2.107  -8.432  1.00  0.00     0.009 C 
ATOM     10  C   UNL     1       5.580   4.826  -7.760  1.00  0.00     0.042 C 
ATOM     11  C   UNL     1       9.867   5.567  -9.361  1.00  0.00     0.042 C 
ENDROOT
TORSDOF 0
ENDMDL
MODEL 6
REMARK VINA RESULT:    -2.986      1.176      3.206
REMARK INTER + INTRA:          -2.986
REMARK INTER:                  -2.986
REMARK INTRA:                   0.000
REMARK UNBOUND:                 0.000
REMARK SMILES CC1(C)O[C@]2(C)CC[C@H]1CC2
REMARK SMILES IDX 1 1 2 2 9 3 10 4 11 5 5 6 4 7 7 8 8 9 6 10 3 11
REMARK H PARENT
REMARK Flexibility Score: inf
ROOT
ATOM      1  C   UNL     1      10.080   2.969  -7.375  1.00  0.00     0.042 C 
ATOM      2  C   UNL     1       8.793   3.364  -8.132  1.00  0.00     0.066 C 
ATOM      3  C   UNL     1       9.140   4.201  -9.422  1.00  0.00     0.021 C 
ATOM      4  C   UNL     1       7.815   4.612 -10.110  1.00  0.00     0.009 C 
ATOM      5  C   UNL     1       6.889   5.284  -9.067  1.00  0.00     0.035 C 
ATOM      6  C   UNL     1       7.629   5.406  -7.704  1.00  0.00     0.066 C 
ATOM      7  O   UNL     1       7.953   4.099  -7.229  1.00  0.00    -0.369 OA
ATOM      8  C   UNL     1       8.943   6.213  -7.912  1.00  0.00     0.035 C 
ATOM      9  C   UNL     1       9.822   5.519  -8.983  1.00  0.00     0.009 C 
ATOM     10  C   UNL     1       6.736   6.101  -6.671  1.00  0.00     0.042 C 
ATOM     11  C   UNL     1       8.063   2.056  -8.508  1.00  0.00     0.042 C 
ENDROOT
TORSDOF 0
ENDMDL
MODEL 7
REMARK VINA RESULT:    -2.963      1.270      3.044
REMARK INTER + INTRA:          -2.963
REMARK INTER:                  -2.963
REMARK INTRA:                   0.000
REMARK UNBOUND:                 0.000
REMARK SMILES CC1(C)O[C@]2(C)CC[C@H]1CC2
REMARK SMILES IDX 1 1 2 2 9 3 10 4 11 5 5 6 4 7 7 8 8 9 6 10 3 11
REMARK H PARENT
REMARK Flexibility Score: inf
ROOT
ATOM      1  C   UNL     1       6.308   3.229  -7.337  1.00  0.00     0.042 C 
ATOM      2  C   UNL     1       7.058   3.913  -8.502  1.00  0.00     0.066 C 
ATOM      3  C   UNL     1       8.183   2.967  -9.072  1.00  0.00     0.021 C 
ATOM      4  C   UNL     1       8.933   3.719 -10.197  1.00  0.00     0.009 C 
ATOM      5  C   UNL     1       9.383   5.103  -9.670  1.00  0.00     0.035 C 
ATOM      6  C   UNL     1       9.016   5.240  -8.164  1.00  0.00     0.066 C 
ATOM      7  O   UNL     1       7.598   5.152  -8.019  1.00  0.00    -0.369 OA
ATOM      8  C   UNL     1       9.682   4.077  -7.374  1.00  0.00     0.035 C 
ATOM      9  C   UNL     1       9.226   2.716  -7.955  1.00  0.00     0.009 C 
ATOM     10  C   UNL     1       9.486   6.593  -7.620  1.00  0.00     0.042 C 
ATOM     11  C   UNL     1       6.014   4.238  -9.592  1.00  0.00     0.042 C 
ENDROOT
TORSDOF 0
ENDMDL
MODEL 8
REMARK VINA RESULT:    -2.905      0.968      2.181
REMARK INTER + INTRA:          -2.905
REMARK INTER:                  -2.905
REMARK INTRA:                   0.000
REMARK UNBOUND:                 0.000
REMARK SMILES CC1(C)O[C@]2(C)CC[C@H]1CC2
REMARK SMILES IDX 1 1 2 2 9 3 10 4 11 5 5 6 4 7 7 8 8 9 6 10 3 11
REMARK H PARENT
REMARK Flexibility Score: inf
ROOT
ATOM      1  C   UNL     1       9.865   5.513  -9.520  1.00  0.00     0.042 C 
ATOM      2  C   UNL     1       8.553   5.138  -8.796  1.00  0.00     0.066 C 
ATOM      3  C   UNL     1       8.831   4.793  -7.283  1.00  0.00     0.021 C 
ATOM      4  C   UNL     1       7.495   4.376  -6.622  1.00  0.00     0.009 C 
ATOM      5  C   UNL     1       6.827   3.274  -7.480  1.00  0.00     0.035 C 
ATOM      6  C   UNL     1       7.760   2.888  -8.665  1.00  0.00     0.066 C 
ATOM      7  O   UNL     1       7.959   4.033  -9.494  1.00  0.00    -0.369 OA
ATOM      8  C   UNL     1       9.132   2.424  -8.097  1.00  0.00     0.035 C 
ATOM      9  C   UNL     1       9.747   3.546  -7.224  1.00  0.00     0.009 C 
ATOM     10  C   UNL     1       7.125   1.774  -9.503  1.00  0.00     0.042 C 
ATOM     11  C   UNL     1       7.602   6.348  -8.915  1.00  0.00     0.042 C 
ENDROOT
TORSDOF 0
ENDMDL
MODEL 9
REMARK VINA RESULT:    -2.773      1.361      2.860
REMARK INTER + INTRA:          -2.773
REMARK INTER:                  -2.773
REMARK INTRA:                   0.000
REMARK UNBOUND:                 0.000
REMARK SMILES CC1(C)O[C@]2(C)CC[C@H]1CC2
REMARK SMILES IDX 1 1 2 2 9 3 10 4 11 5 5 6 4 7 7 8 8 9 6 10 3 11
REMARK H PARENT
REMARK Flexibility Score: inf
ROOT
ATOM      1  C   UNL     1       5.369   3.391  -6.374  1.00  0.00     0.042 C 
ATOM      2  C   UNL     1       6.425   4.472  -6.693  1.00  0.00     0.066 C 
ATOM      3  C   UNL     1       6.311   4.936  -8.196  1.00  0.00     0.021 C 
ATOM      4  C   UNL     1       7.422   5.977  -8.473  1.00  0.00     0.009 C 
ATOM      5  C   UNL     1       8.785   5.397  -8.020  1.00  0.00     0.035 C 
ATOM      6  C   UNL     1       8.599   3.934  -7.526  1.00  0.00     0.066 C 
ATOM      7  O   UNL     1       7.721   3.929  -6.400  1.00  0.00    -0.369 OA
ATOM      8  C   UNL     1       7.966   3.091  -8.670  1.00  0.00     0.035 C 
ATOM      9  C   UNL     1       6.622   3.724  -9.108  1.00  0.00     0.009 C 
ATOM     10  C   UNL     1       9.946   3.337  -7.107  1.00  0.00     0.042 C 
ATOM     11  C   UNL     1       6.173   5.656  -5.735  1.00  0.00     0.042 C 
ENDROOT
TORSDOF 0
ENDMDL
