MODEL 1
REMARK VINA RESULT:    -4.547      0.000      0.000
REMARK INTER + INTRA:         -10.239
REMARK INTER:                  -8.268
REMARK INTRA:                  -1.971
REMARK UNBOUND:                -1.971
REMARK SMILES CCCCCCCCCCCCCCCC(=O)[O-]
REMARK SMILES IDX 9 1 10 2 11 3 12 4 13 5 14 6 15 7 16 8 17 9 18 10 8 11 7 12
REMARK SMILES IDX 6 13 5 14 4 15 3 16 2 17 1 18
REMARK H PARENT
REMARK Flexibility Score: inf
ROOT
ATOM      1  C   UNL     1     115.135 119.805 126.380  1.00  0.00     0.000 C 
ENDROOT
BRANCH   1   2
ATOM      2  C   UNL     1     113.746 120.464 126.253  1.00  0.00     0.000 C 
BRANCH   2   3
ATOM      3  C   UNL     1     113.754 121.935 125.797  1.00  0.00     0.000 C 
BRANCH   3   4
ATOM      4  C   UNL     1     112.999 122.862 126.764  1.00  0.00     0.000 C 
BRANCH   4   5
ATOM      5  C   UNL     1     113.865 123.303 127.955  1.00  0.00     0.000 C 
BRANCH   5   6
ATOM      6  C   UNL     1     115.343 123.496 127.575  1.00  0.00     0.006 C 
BRANCH   6   7
ATOM      7  C   UNL     1     116.285 123.216 128.755  1.00  0.00     0.053 C 
BRANCH   7   8
ATOM      8  C   UNL     1     116.101 124.207 129.862  1.00  0.00     0.041 C 
ATOM      9  O   UNL     1     115.819 123.814 131.025  1.00  0.00    -0.550 OA
ATOM     10  O   UNL     1     116.213 125.568 129.605  1.00  0.00    -0.550 OA
ENDBRANCH   7   8
ENDBRANCH   6   7
ENDBRANCH   5   6
ENDBRANCH   4   5
ENDBRANCH   3   4
ENDBRANCH   2   3
ENDBRANCH   1   2
BRANCH   1  11
ATOM     11  C   UNL     1     115.593 119.507 127.819  1.00  0.00     0.000 C 
BRANCH  11  12
ATOM     12  C   UNL     1     114.470 119.692 128.853  1.00  0.00    -0.000 C 
BRANCH  12  13
ATOM     13  C   UNL     1     114.992 120.146 130.229  1.00  0.00    -0.000 C 
BRANCH  13  14
ATOM     14  C   UNL     1     113.978 120.916 131.099  1.00  0.00    -0.000 C 
BRANCH  14  15
ATOM     15  C   UNL     1     113.758 120.345 132.512  1.00  0.00    -0.000 C 
BRANCH  15  16
ATOM     16  C   UNL     1     114.678 120.988 133.564  1.00  0.00    -0.000 C 
BRANCH  16  17
ATOM     17  C   UNL     1     115.674 119.984 134.166  1.00  0.00    -0.003 C 
ATOM     18  C   UNL     1     117.131 120.413 133.988  1.00  0.00     0.004 C 
ENDBRANCH  16  17
ENDBRANCH  15  16
ENDBRANCH  14  15
ENDBRANCH  13  14
ENDBRANCH  12  13
ENDBRANCH  11  12
ENDBRANCH   1  11
TORSDOF 14
ENDMDL
MODEL 2
REMARK VINA RESULT:    -4.541      1.839      2.321
REMARK INTER + INTRA:         -10.229
REMARK INTER:                  -8.147
REMARK INTRA:                  -2.082
REMARK UNBOUND:                -1.971
REMARK SMILES CCCCCCCCCCCCCCCC(=O)[O-]
REMARK SMILES IDX 9 1 10 2 11 3 12 4 13 5 14 6 15 7 16 8 17 9 18 10 8 11 7 12
REMARK SMILES IDX 6 13 5 14 4 15 3 16 2 17 1 18
REMARK H PARENT
REMARK Flexibility Score: inf
ROOT
ATOM      1  C   UNL     1     114.001 120.206 128.116  1.00  0.00     0.000 C 
ENDROOT
BRANCH   1   2
ATOM      2  C   UNL     1     114.294 120.608 126.655  1.00  0.00     0.000 C 
BRANCH   2   3
ATOM      3  C   UNL     1     114.277 122.122 126.373  1.00  0.00     0.000 C 
BRANCH   3   4
ATOM      4  C   UNL     1     114.030 122.961 127.639  1.00  0.00     0.000 C 
BRANCH   4   5
ATOM      5  C   UNL     1     115.264 123.778 128.055  1.00  0.00     0.000 C 
BRANCH   5   6
ATOM      6  C   UNL     1     116.499 123.468 127.192  1.00  0.00     0.006 C 
BRANCH   6   7
ATOM      7  C   UNL     1     117.766 124.149 127.729  1.00  0.00     0.053 C 
BRANCH   7   8
ATOM      8  C   UNL     1     118.065 125.423 127.001  1.00  0.00     0.041 C 
ATOM      9  O   UNL     1     117.214 126.352 126.972  1.00  0.00    -0.550 OA
ATOM     10  O   UNL     1     119.271 125.575 126.329  1.00  0.00    -0.550 OA
ENDBRANCH   7   8
ENDBRANCH   6   7
ENDBRANCH   5   6
ENDBRANCH   4   5
ENDBRANCH   3   4
ENDBRANCH   2   3
ENDBRANCH   1   2
BRANCH   1  11
ATOM     11  C   UNL     1     115.124 119.425 128.821  1.00  0.00     0.000 C 
BRANCH  11  12
ATOM     12  C   UNL     1     116.375 120.281 129.080  1.00  0.00    -0.000 C 
BRANCH  12  13
ATOM     13  C   UNL     1     116.615 120.551 130.578  1.00  0.00    -0.000 C 
BRANCH  13  14
ATOM     14  C   UNL     1     116.035 121.877 131.111  1.00  0.00    -0.000 C 
BRANCH  14  15
ATOM     15  C   UNL     1     114.538 121.842 131.470  1.00  0.00    -0.000 C 
BRANCH  15  16
ATOM     16  C   UNL     1     114.161 120.627 132.335  1.00  0.00    -0.000 C 
BRANCH  16  17
ATOM     17  C   UNL     1     114.570 120.803 133.806  1.00  0.00    -0.003 C 
ATOM     18  C   UNL     1     115.768 119.937 134.197  1.00  0.00     0.004 C 
ENDBRANCH  16  17
ENDBRANCH  15  16
ENDBRANCH  14  15
ENDBRANCH  13  14
ENDBRANCH  12  13
ENDBRANCH  11  12
ENDBRANCH   1  11
TORSDOF 14
ENDMDL
MODEL 3
REMARK VINA RESULT:    -4.496      2.213      5.455
REMARK INTER + INTRA:         -10.147
REMARK INTER:                  -7.943
REMARK INTRA:                  -2.204
REMARK UNBOUND:                -1.971
REMARK SMILES CCCCCCCCCCCCCCCC(=O)[O-]
REMARK SMILES IDX 9 1 10 2 11 3 12 4 13 5 14 6 15 7 16 8 17 9 18 10 8 11 7 12
REMARK SMILES IDX 6 13 5 14 4 15 3 16 2 17 1 18
REMARK H PARENT
REMARK Flexibility Score: inf
ROOT
ATOM      1  C   UNL     1     113.406 123.111 128.765  1.00  0.00     0.000 C 
ENDROOT
BRANCH   1   2
ATOM      2  C   UNL     1     113.805 122.734 130.206  1.00  0.00     0.000 C 
BRANCH   2   3
ATOM      3  C   UNL     1     115.196 123.221 130.653  1.00  0.00     0.000 C 
BRANCH   3   4
ATOM      4  C   UNL     1     115.788 122.370 131.789  1.00  0.00     0.000 C 
BRANCH   4   5
ATOM      5  C   UNL     1     114.801 121.312 132.311  1.00  0.00     0.000 C 
BRANCH   5   6
ATOM      6  C   UNL     1     114.911 121.097 133.830  1.00  0.00     0.006 C 
BRANCH   6   7
ATOM      7  C   UNL     1     115.697 119.824 134.178  1.00  0.00     0.053 C 
BRANCH   7   8
ATOM      8  C   UNL     1     117.126 120.126 134.511  1.00  0.00     0.041 C 
ATOM      9  O   UNL     1     117.477 121.302 134.793  1.00  0.00    -0.550 OA
ATOM     10  O   UNL     1     118.077 119.114 134.482  1.00  0.00    -0.550 OA
ENDBRANCH   7   8
ENDBRANCH   6   7
ENDBRANCH   5   6
ENDBRANCH   4   5
ENDBRANCH   3   4
ENDBRANCH   2   3
ENDBRANCH   1   2
BRANCH   1  11
ATOM     11  C   UNL     1     114.550 123.643 127.883  1.00  0.00     0.000 C 
BRANCH  11  12
ATOM     12  C   UNL     1     114.837 122.742 126.670  1.00  0.00    -0.000 C 
BRANCH  12  13
ATOM     13  C   UNL     1     113.587 121.994 126.172  1.00  0.00    -0.000 C 
BRANCH  13  14
ATOM     14  C   UNL     1     113.721 120.459 126.099  1.00  0.00    -0.000 C 
BRANCH  14  15
ATOM     15  C   UNL     1     114.899 119.864 126.891  1.00  0.00    -0.000 C 
BRANCH  15  16
ATOM     16  C   UNL     1     114.562 119.628 128.373  1.00  0.00    -0.000 C 
BRANCH  16  17
ATOM     17  C   UNL     1     115.817 119.563 129.259  1.00  0.00    -0.003 C 
ATOM     18  C   UNL     1     116.937 120.480 128.768  1.00  0.00     0.004 C 
ENDBRANCH  16  17
ENDBRANCH  15  16
ENDBRANCH  14  15
ENDBRANCH  13  14
ENDBRANCH  12  13
ENDBRANCH  11  12
ENDBRANCH   1  11
TORSDOF 14
ENDMDL
MODEL 4
REMARK VINA RESULT:    -4.423      1.606      4.982
REMARK INTER + INTRA:         -10.013
REMARK INTER:                  -8.249
REMARK INTRA:                  -1.765
REMARK UNBOUND:                -1.971
REMARK SMILES CCCCCCCCCCCCCCCC(=O)[O-]
REMARK SMILES IDX 9 1 10 2 11 3 12 4 13 5 14 6 15 7 16 8 17 9 18 10 8 11 7 12
REMARK SMILES IDX 6 13 5 14 4 15 3 16 2 17 1 18
REMARK H PARENT
REMARK Flexibility Score: inf
ROOT
ATOM      1  C   UNL     1     115.438 119.924 127.304  1.00  0.00     0.000 C 
ENDROOT
BRANCH   1   2
ATOM      2  C   UNL     1     115.782 119.943 128.808  1.00  0.00     0.000 C 
BRANCH   2   3
ATOM      3  C   UNL     1     114.608 119.637 129.757  1.00  0.00     0.000 C 
BRANCH   3   4
ATOM      4  C   UNL     1     114.383 120.744 130.801  1.00  0.00     0.000 C 
BRANCH   4   5
ATOM      5  C   UNL     1     113.820 120.201 132.124  1.00  0.00     0.000 C 
BRANCH   5   6
ATOM      6  C   UNL     1     114.416 120.905 133.355  1.00  0.00     0.006 C 
BRANCH   6   7
ATOM      7  C   UNL     1     115.491 120.052 134.046  1.00  0.00     0.053 C 
BRANCH   7   8
ATOM      8  C   UNL     1     116.851 120.670 133.932  1.00  0.00     0.041 C 
ATOM      9  O   UNL     1     117.699 120.510 134.849  1.00  0.00    -0.550 OA
ATOM     10  O   UNL     1     117.172 121.447 132.826  1.00  0.00    -0.550 OA
ENDBRANCH   7   8
ENDBRANCH   6   7
ENDBRANCH   5   6
ENDBRANCH   4   5
ENDBRANCH   3   4
ENDBRANCH   2   3
ENDBRANCH   1   2
BRANCH   1  11
ATOM     11  C   UNL     1     113.989 120.309 126.956  1.00  0.00     0.000 C 
BRANCH  11  12
ATOM     12  C   UNL     1     113.905 121.466 125.946  1.00  0.00    -0.000 C 
BRANCH  12  13
ATOM     13  C   UNL     1     113.379 122.770 126.573  1.00  0.00    -0.000 C 
BRANCH  13  14
ATOM     14  C   UNL     1     114.152 123.265 127.812  1.00  0.00    -0.000 C 
BRANCH  14  15
ATOM     15  C   UNL     1     115.624 123.641 127.563  1.00  0.00    -0.000 C 
BRANCH  15  16
ATOM     16  C   UNL     1     116.484 123.556 128.835  1.00  0.00    -0.000 C 
BRANCH  16  17
ATOM     17  C   UNL     1     115.746 124.074 130.079  1.00  0.00    -0.003 C 
ATOM     18  C   UNL     1     116.293 125.412 130.579  1.00  0.00     0.004 C 
ENDBRANCH  16  17
ENDBRANCH  15  16
ENDBRANCH  14  15
ENDBRANCH  13  14
ENDBRANCH  12  13
ENDBRANCH  11  12
ENDBRANCH   1  11
TORSDOF 14
ENDMDL
MODEL 5
REMARK VINA RESULT:    -4.415      1.827      2.666
REMARK INTER + INTRA:         -10.000
REMARK INTER:                  -8.296
REMARK INTRA:                  -1.704
REMARK UNBOUND:                -1.971
REMARK SMILES CCCCCCCCCCCCCCCC(=O)[O-]
REMARK SMILES IDX 9 1 10 2 11 3 12 4 13 5 14 6 15 7 16 8 17 9 18 10 8 11 7 12
REMARK SMILES IDX 6 13 5 14 4 15 3 16 2 17 1 18
REMARK H PARENT
REMARK Flexibility Score: inf
ROOT
ATOM      1  C   UNL     1     114.391 119.665 128.734  1.00  0.00     0.000 C 
ENDROOT
BRANCH   1   2
ATOM      2  C   UNL     1     114.829 120.291 127.393  1.00  0.00     0.000 C 
BRANCH   2   3
ATOM      3  C   UNL     1     113.975 121.479 126.912  1.00  0.00     0.000 C 
BRANCH   3   4
ATOM      4  C   UNL     1     114.776 122.790 126.824  1.00  0.00     0.000 C 
BRANCH   4   5
ATOM      5  C   UNL     1     114.980 123.450 128.197  1.00  0.00     0.000 C 
BRANCH   5   6
ATOM      6  C   UNL     1     116.411 123.981 128.393  1.00  0.00     0.006 C 
BRANCH   6   7
ATOM      7  C   UNL     1     117.270 123.805 127.132  1.00  0.00     0.053 C 
BRANCH   7   8
ATOM      8  C   UNL     1     118.014 125.058 126.785  1.00  0.00     0.041 C 
ATOM      9  O   UNL     1     117.469 126.183 126.944  1.00  0.00    -0.550 OA
ATOM     10  O   UNL     1     119.297 124.984 126.260  1.00  0.00    -0.550 OA
ENDBRANCH   7   8
ENDBRANCH   6   7
ENDBRANCH   5   6
ENDBRANCH   4   5
ENDBRANCH   3   4
ENDBRANCH   2   3
ENDBRANCH   1   2
BRANCH   1  11
ATOM     11  C   UNL     1     115.168 120.150 129.971  1.00  0.00     0.000 C 
BRANCH  11  12
ATOM     12  C   UNL     1     114.314 121.021 130.908  1.00  0.00    -0.000 C 
BRANCH  12  13
ATOM     13  C   UNL     1     113.843 120.264 132.164  1.00  0.00    -0.000 C 
BRANCH  13  14
ATOM     14  C   UNL     1     114.395 120.799 133.502  1.00  0.00    -0.000 C 
BRANCH  14  15
ATOM     15  C   UNL     1     115.617 120.044 134.057  1.00  0.00    -0.000 C 
BRANCH  15  16
ATOM     16  C   UNL     1     116.917 120.860 133.956  1.00  0.00    -0.000 C 
BRANCH  16  17
ATOM     17  C   UNL     1     117.676 120.597 132.646  1.00  0.00    -0.003 C 
ATOM     18  C   UNL     1     117.854 121.859 131.800  1.00  0.00     0.004 C 
ENDBRANCH  16  17
ENDBRANCH  15  16
ENDBRANCH  14  15
ENDBRANCH  13  14
ENDBRANCH  12  13
ENDBRANCH  11  12
ENDBRANCH   1  11
TORSDOF 14
ENDMDL
MODEL 6
REMARK VINA RESULT:    -4.412      1.934      5.276
REMARK INTER + INTRA:          -9.994
REMARK INTER:                  -8.206
REMARK INTRA:                  -1.788
REMARK UNBOUND:                -1.971
REMARK SMILES CCCCCCCCCCCCCCCC(=O)[O-]
REMARK SMILES IDX 9 1 10 2 11 3 12 4 13 5 14 6 15 7 16 8 17 9 18 10 8 11 7 12
REMARK SMILES IDX 6 13 5 14 4 15 3 16 2 17 1 18
REMARK H PARENT
REMARK Flexibility Score: inf
ROOT
ATOM      1  C   UNL     1     114.037 120.432 126.979  1.00  0.00     0.000 C 
ENDROOT
BRANCH   1   2
ATOM      2  C   UNL     1     115.479 120.040 127.362  1.00  0.00     0.000 C 
BRANCH   2   3
ATOM      3  C   UNL     1     115.711 119.763 128.859  1.00  0.00     0.000 C 
BRANCH   3   4
ATOM      4  C   UNL     1     114.417 119.846 129.687  1.00  0.00     0.000 C 
BRANCH   4   5
ATOM      5  C   UNL     1     114.555 120.772 130.906  1.00  0.00     0.000 C 
BRANCH   5   6
ATOM      6  C   UNL     1     113.878 120.201 132.164  1.00  0.00     0.006 C 
BRANCH   6   7
ATOM      7  C   UNL     1     114.357 120.899 133.446  1.00  0.00     0.053 C 
BRANCH   7   8
ATOM      8  C   UNL     1     115.768 120.532 133.787  1.00  0.00     0.041 C 
ATOM      9  O   UNL     1     116.015 119.450 134.384  1.00  0.00    -0.550 OA
ATOM     10  O   UNL     1     116.809 121.396 133.472  1.00  0.00    -0.550 OA
ENDBRANCH   7   8
ENDBRANCH   6   7
ENDBRANCH   5   6
ENDBRANCH   4   5
ENDBRANCH   3   4
ENDBRANCH   2   3
ENDBRANCH   1   2
BRANCH   1  11
ATOM     11  C   UNL     1     113.915 121.474 125.852  1.00  0.00     0.000 C 
BRANCH  11  12
ATOM     12  C   UNL     1     113.089 122.705 126.264  1.00  0.00    -0.000 C 
BRANCH  12  13
ATOM     13  C   UNL     1     113.404 123.185 127.692  1.00  0.00    -0.000 C 
BRANCH  13  14
ATOM     14  C   UNL     1     114.683 124.036 127.836  1.00  0.00    -0.000 C 
BRANCH  14  15
ATOM     15  C   UNL     1     115.738 123.479 128.808  1.00  0.00    -0.000 C 
BRANCH  15  16
ATOM     16  C   UNL     1     117.129 123.348 128.166  1.00  0.00    -0.000 C 
BRANCH  16  17
ATOM     17  C   UNL     1     117.582 124.644 127.474  1.00  0.00    -0.003 C 
ATOM     18  C   UNL     1     118.307 124.389 126.152  1.00  0.00     0.004 C 
ENDBRANCH  16  17
ENDBRANCH  15  16
ENDBRANCH  14  15
ENDBRANCH  13  14
ENDBRANCH  12  13
ENDBRANCH  11  12
ENDBRANCH   1  11
TORSDOF 14
ENDMDL
MODEL 7
REMARK VINA RESULT:    -4.387      1.534      3.583
REMARK INTER + INTRA:          -9.949
REMARK INTER:                  -7.912
REMARK INTRA:                  -2.037
REMARK UNBOUND:                -1.971
REMARK SMILES CCCCCCCCCCCCCCCC(=O)[O-]
REMARK SMILES IDX 9 1 10 2 11 3 12 4 13 5 14 6 15 7 16 8 17 9 18 10 8 11 7 12
REMARK SMILES IDX 6 13 5 14 4 15 3 16 2 17 1 18
REMARK H PARENT
REMARK Flexibility Score: inf
ROOT
ATOM      1  C   UNL     1     114.165 120.793 130.876  1.00  0.00     0.000 C 
ENDROOT
BRANCH   1   2
ATOM      2  C   UNL     1     114.659 119.777 129.826  1.00  0.00     0.000 C 
BRANCH   2   3
ATOM      3  C   UNL     1     114.241 120.074 128.374  1.00  0.00     0.000 C 
BRANCH   3   4
ATOM      4  C   UNL     1     115.170 121.087 127.682  1.00  0.00     0.000 C 
BRANCH   4   5
ATOM      5  C   UNL     1     114.455 122.403 127.336  1.00  0.00     0.000 C 
BRANCH   5   6
ATOM      6  C   UNL     1     114.991 123.598 128.143  1.00  0.00     0.006 C 
BRANCH   6   7
ATOM      7  C   UNL     1     116.334 124.108 127.599  1.00  0.00     0.053 C 
BRANCH   7   8
ATOM      8  C   UNL     1     116.607 125.519 128.021  1.00  0.00     0.041 C 
ATOM      9  O   UNL     1     117.072 126.349 127.197  1.00  0.00    -0.550 OA
ATOM     10  O   UNL     1     116.374 125.910 129.334  1.00  0.00    -0.550 OA
ENDBRANCH   7   8
ENDBRANCH   6   7
ENDBRANCH   5   6
ENDBRANCH   4   5
ENDBRANCH   3   4
ENDBRANCH   2   3
ENDBRANCH   1   2
BRANCH   1  11
ATOM     11  C   UNL     1     113.735 120.189 132.225  1.00  0.00     0.000 C 
BRANCH  11  12
ATOM     12  C   UNL     1     114.464 120.823 133.422  1.00  0.00    -0.000 C 
BRANCH  12  13
ATOM     13  C   UNL     1     115.744 120.062 133.813  1.00  0.00    -0.000 C 
BRANCH  13  14
ATOM     14  C   UNL     1     116.941 120.948 134.216  1.00  0.00    -0.000 C 
BRANCH  14  15
ATOM     15  C   UNL     1     118.124 120.942 133.230  1.00  0.00    -0.000 C 
BRANCH  15  16
ATOM     16  C   UNL     1     117.762 120.324 131.869  1.00  0.00    -0.000 C 
BRANCH  16  17
ATOM     17  C   UNL     1     117.958 121.309 130.706  1.00  0.00    -0.003 C 
ATOM     18  C   UNL     1     117.261 122.650 130.940  1.00  0.00     0.004 C 
ENDBRANCH  16  17
ENDBRANCH  15  16
ENDBRANCH  14  15
ENDBRANCH  13  14
ENDBRANCH  12  13
ENDBRANCH  11  12
ENDBRANCH   1  11
TORSDOF 14
ENDMDL
MODEL 8
REMARK VINA RESULT:    -4.356      2.079      3.371
REMARK INTER + INTRA:          -9.893
REMARK INTER:                  -7.403
REMARK INTRA:                  -2.489
REMARK UNBOUND:                -1.971
REMARK SMILES CCCCCCCCCCCCCCCC(=O)[O-]
REMARK SMILES IDX 9 1 10 2 11 3 12 4 13 5 14 6 15 7 16 8 17 9 18 10 8 11 7 12
REMARK SMILES IDX 6 13 5 14 4 15 3 16 2 17 1 18
REMARK H PARENT
REMARK Flexibility Score: inf
ROOT
ATOM      1  C   UNL     1     114.131 122.141 128.526  1.00  0.00     0.000 C 
ENDROOT
BRANCH   1   2
ATOM      2  C   UNL     1     113.837 122.671 129.945  1.00  0.00     0.000 C 
BRANCH   2   3
ATOM      3  C   UNL     1     114.882 123.650 130.512  1.00  0.00     0.000 C 
BRANCH   3   4
ATOM      4  C   UNL     1     115.776 124.264 129.421  1.00  0.00     0.000 C 
BRANCH   4   5
ATOM      5  C   UNL     1     117.255 123.875 129.581  1.00  0.00     0.000 C 
BRANCH   5   6
ATOM      6  C   UNL     1     117.801 123.107 128.365  1.00  0.00     0.006 C 
BRANCH   6   7
ATOM      7  C   UNL     1     117.282 123.680 127.038  1.00  0.00     0.053 C 
BRANCH   7   8
ATOM      8  C   UNL     1     118.135 124.809 126.548  1.00  0.00     0.041 C 
ATOM      9  O   UNL     1     119.114 124.581 125.790  1.00  0.00    -0.550 OA
ATOM     10  O   UNL     1     117.866 126.112 126.950  1.00  0.00    -0.550 OA
ENDBRANCH   7   8
ENDBRANCH   6   7
ENDBRANCH   5   6
ENDBRANCH   4   5
ENDBRANCH   3   4
ENDBRANCH   2   3
ENDBRANCH   1   2
BRANCH   1  11
ATOM     11  C   UNL     1     114.370 120.624 128.426  1.00  0.00     0.000 C 
BRANCH  11  12
ATOM     12  C   UNL     1     114.977 120.030 129.709  1.00  0.00    -0.000 C 
BRANCH  12  13
ATOM     13  C   UNL     1     116.480 119.723 129.572  1.00  0.00    -0.000 C 
BRANCH  13  14
ATOM     14  C   UNL     1     117.377 120.310 130.681  1.00  0.00    -0.000 C 
BRANCH  14  15
ATOM     15  C   UNL     1     116.627 120.941 131.868  1.00  0.00    -0.000 C 
BRANCH  15  16
ATOM     16  C   UNL     1     116.786 120.135 133.169  1.00  0.00    -0.000 C 
BRANCH  16  17
ATOM     17  C   UNL     1     115.503 120.126 134.015  1.00  0.00    -0.003 C 
ATOM     18  C   UNL     1     114.345 120.867 133.345  1.00  0.00     0.004 C 
ENDBRANCH  16  17
ENDBRANCH  15  16
ENDBRANCH  14  15
ENDBRANCH  13  14
ENDBRANCH  12  13
ENDBRANCH  11  12
ENDBRANCH   1  11
TORSDOF 14
ENDMDL
MODEL 9
REMARK VINA RESULT:    -4.329      2.046      4.745
REMARK INTER + INTRA:          -9.843
REMARK INTER:                  -7.603
REMARK INTRA:                  -2.240
REMARK UNBOUND:                -1.971
REMARK SMILES CCCCCCCCCCCCCCCC(=O)[O-]
REMARK SMILES IDX 9 1 10 2 11 3 12 4 13 5 14 6 15 7 16 8 17 9 18 10 8 11 7 12
REMARK SMILES IDX 6 13 5 14 4 15 3 16 2 17 1 18
REMARK H PARENT
REMARK Flexibility Score: inf
ROOT
ATOM      1  C   UNL     1     117.251 120.474 132.151  1.00  0.00     0.000 C 
ENDROOT
BRANCH   1   2
ATOM      2  C   UNL     1     117.633 121.205 130.848  1.00  0.00     0.000 C 
BRANCH   2   3
ATOM      3  C   UNL     1     117.757 122.735 130.963  1.00  0.00     0.000 C 
BRANCH   3   4
ATOM      4  C   UNL     1     117.072 123.478 129.803  1.00  0.00     0.000 C 
BRANCH   4   5
ATOM      5  C   UNL     1     117.188 122.722 128.469  1.00  0.00     0.000 C 
BRANCH   5   6
ATOM      6  C   UNL     1     116.810 123.594 127.259  1.00  0.00     0.006 C 
BRANCH   6   7
ATOM      7  C   UNL     1     118.035 124.274 126.631  1.00  0.00     0.053 C 
BRANCH   7   8
ATOM      8  C   UNL     1     118.205 125.679 127.122  1.00  0.00     0.041 C 
ATOM      9  O   UNL     1     117.285 126.523 126.960  1.00  0.00    -0.550 OA
ATOM     10  O   UNL     1     119.392 126.064 127.735  1.00  0.00    -0.550 OA
ENDBRANCH   7   8
ENDBRANCH   6   7
ENDBRANCH   5   6
ENDBRANCH   4   5
ENDBRANCH   3   4
ENDBRANCH   2   3
ENDBRANCH   1   2
BRANCH   1  11
ATOM     11  C   UNL     1     116.259 121.224 133.060  1.00  0.00     0.000 C 
BRANCH  11  12
ATOM     12  C   UNL     1     114.973 120.424 133.328  1.00  0.00    -0.000 C 
BRANCH  12  13
ATOM     13  C   UNL     1     114.039 120.367 132.105  1.00  0.00    -0.000 C 
BRANCH  13  14
ATOM     14  C   UNL     1     113.925 121.678 131.300  1.00  0.00    -0.000 C 
BRANCH  14  15
ATOM     15  C   UNL     1     113.979 121.516 129.770  1.00  0.00    -0.000 C 
BRANCH  15  16
ATOM     16  C   UNL     1     114.461 120.122 129.335  1.00  0.00    -0.000 C 
BRANCH  16  17
ATOM     17  C   UNL     1     114.671 120.020 127.815  1.00  0.00    -0.003 C 
ATOM     18  C   UNL     1     114.029 121.177 127.049  1.00  0.00     0.004 C 
ENDBRANCH  16  17
ENDBRANCH  15  16
ENDBRANCH  14  15
ENDBRANCH  13  14
ENDBRANCH  12  13
ENDBRANCH  11  12
ENDBRANCH   1  11
TORSDOF 14
ENDMDL
