MODEL 1
REMARK VINA RESULT:    -6.268      0.000      0.000
REMARK INTER + INTRA:         -13.717
REMARK INTER:                 -12.130
REMARK INTRA:                  -1.587
REMARK UNBOUND:                -1.587
REMARK SMILES CCCCCCCCCCCCCCCCCC(=O)[O-]
REMARK SMILES IDX 10 1 11 2 12 3 13 4 14 5 15 6 16 7 17 8 18 9 19 10 20 11
REMARK SMILES IDX 9 12 8 13 7 14 6 15 5 16 4 17 3 18 2 19 1 20
REMARK H PARENT
REMARK Flexibility Score: inf
ROOT
ATOM      1  C   UNL     1      -1.635  24.124  44.507  1.00  0.00     0.000 C 
ENDROOT
BRANCH   1   2
ATOM      2  C   UNL     1      -1.041  25.357  45.218  1.00  0.00     0.000 C 
BRANCH   2   3
ATOM      3  C   UNL     1      -1.344  25.446  46.724  1.00  0.00     0.000 C 
BRANCH   3   4
ATOM      4  C   UNL     1      -0.106  25.795  47.562  1.00  0.00     0.000 C 
BRANCH   4   5
ATOM      5  C   UNL     1      -0.331  25.452  49.043  1.00  0.00     0.000 C 
BRANCH   5   6
ATOM      6  C   UNL     1       0.972  25.466  49.858  1.00  0.00     0.000 C 
BRANCH   6   7
ATOM      7  C   UNL     1       1.013  24.362  50.929  1.00  0.00     0.006 C 
BRANCH   7   8
ATOM      8  C   UNL     1      -0.060  23.290  50.695  1.00  0.00     0.053 C 
BRANCH   8   9
ATOM      9  C   UNL     1       0.256  22.021  51.426  1.00  0.00     0.041 C 
ATOM     10  O   UNL     1       1.406  21.516  51.351  1.00  0.00    -0.550 OA
ATOM     11  O   UNL     1      -0.712  21.413  52.216  1.00  0.00    -0.550 OA
ENDBRANCH   8   9
ENDBRANCH   7   8
ENDBRANCH   6   7
ENDBRANCH   5   6
ENDBRANCH   4   5
ENDBRANCH   3   4
ENDBRANCH   2   3
ENDBRANCH   1   2
BRANCH   1  12
ATOM     12  C   UNL     1      -2.126  23.001  45.442  1.00  0.00     0.000 C 
BRANCH  12  13
ATOM     13  C   UNL     1      -1.068  21.938  45.792  1.00  0.00    -0.000 C 
BRANCH  13  14
ATOM     14  C   UNL     1      -0.734  21.898  47.291  1.00  0.00    -0.000 C 
BRANCH  14  15
ATOM     15  C   UNL     1      -0.324  20.483  47.723  1.00  0.00    -0.000 C 
BRANCH  15  16
ATOM     16  C   UNL     1       0.512  19.754  46.658  1.00  0.00    -0.000 C 
BRANCH  16  17
ATOM     17  C   UNL     1       1.890  19.320  47.183  1.00  0.00    -0.000 C 
BRANCH  17  18
ATOM     18  C   UNL     1       1.950  19.277  48.719  1.00  0.00    -0.000 C 
BRANCH  18  19
ATOM     19  C   UNL     1       3.303  18.778  49.246  1.00  0.00    -0.003 C 
ATOM     20  C   UNL     1       4.073  19.902  49.935  1.00  0.00     0.004 C 
ENDBRANCH  18  19
ENDBRANCH  17  18
ENDBRANCH  16  17
ENDBRANCH  15  16
ENDBRANCH  14  15
ENDBRANCH  13  14
ENDBRANCH  12  13
ENDBRANCH   1  12
TORSDOF 16
ENDMDL
MODEL 2
REMARK VINA RESULT:    -6.096      2.599      4.564
REMARK INTER + INTRA:         -13.385
REMARK INTER:                 -11.552
REMARK INTRA:                  -1.833
REMARK UNBOUND:                -1.587
REMARK SMILES CCCCCCCCCCCCCCCCCC(=O)[O-]
REMARK SMILES IDX 10 1 11 2 12 3 13 4 14 5 15 6 16 7 17 8 18 9 19 10 20 11
REMARK SMILES IDX 9 12 8 13 7 14 6 15 5 16 4 17 3 18 2 19 1 20
REMARK H PARENT
REMARK Flexibility Score: inf
ROOT
ATOM      1  C   UNL     1       1.226  21.709  51.308  1.00  0.00     0.000 C 
ENDROOT
BRANCH   1   2
ATOM      2  C   UNL     1       1.664  23.163  51.571  1.00  0.00     0.000 C 
BRANCH   2   3
ATOM      3  C   UNL     1       0.871  24.231  50.797  1.00  0.00     0.000 C 
BRANCH   3   4
ATOM      4  C   UNL     1       1.731  25.439  50.397  1.00  0.00     0.000 C 
BRANCH   4   5
ATOM      5  C   UNL     1       1.169  26.121  49.139  1.00  0.00     0.000 C 
BRANCH   5   6
ATOM      6  C   UNL     1      -0.130  25.467  48.642  1.00  0.00     0.000 C 
BRANCH   6   7
ATOM      7  C   UNL     1      -0.285  25.546  47.113  1.00  0.00     0.006 C 
BRANCH   7   8
ATOM      8  C   UNL     1      -1.702  25.177  46.655  1.00  0.00     0.053 C 
BRANCH   8   9
ATOM      9  C   UNL     1      -1.686  24.405  45.371  1.00  0.00     0.041 C 
ATOM     10  O   UNL     1      -1.369  24.973  44.294  1.00  0.00    -0.550 OA
ATOM     11  O   UNL     1      -1.991  23.049  45.371  1.00  0.00    -0.550 OA
ENDBRANCH   8   9
ENDBRANCH   7   8
ENDBRANCH   6   7
ENDBRANCH   5   6
ENDBRANCH   4   5
ENDBRANCH   3   4
ENDBRANCH   2   3
ENDBRANCH   1   2
BRANCH   1  12
ATOM     12  C   UNL     1      -0.260  21.529  50.935  1.00  0.00     0.000 C 
BRANCH  12  13
ATOM     13  C   UNL     1      -0.513  20.759  49.627  1.00  0.00    -0.000 C 
BRANCH  13  14
ATOM     14  C   UNL     1      -0.225  21.598  48.373  1.00  0.00    -0.000 C 
BRANCH  14  15
ATOM     15  C   UNL     1      -0.013  20.698  47.147  1.00  0.00    -0.000 C 
BRANCH  15  16
ATOM     16  C   UNL     1       0.513  19.302  47.519  1.00  0.00    -0.000 C 
BRANCH  16  17
ATOM     17  C   UNL     1       2.012  19.307  47.861  1.00  0.00    -0.000 C 
BRANCH  17  18
ATOM     18  C   UNL     1       2.304  18.707  49.246  1.00  0.00    -0.000 C 
BRANCH  18  19
ATOM     19  C   UNL     1       3.783  18.819  49.641  1.00  0.00    -0.003 C 
ATOM     20  C   UNL     1       4.206  20.278  49.785  1.00  0.00     0.004 C 
ENDBRANCH  18  19
ENDBRANCH  17  18
ENDBRANCH  16  17
ENDBRANCH  15  16
ENDBRANCH  14  15
ENDBRANCH  13  14
ENDBRANCH  12  13
ENDBRANCH   1  12
TORSDOF 16
ENDMDL
MODEL 3
REMARK VINA RESULT:    -6.015      1.426      4.823
REMARK INTER + INTRA:         -13.228
REMARK INTER:                 -11.642
REMARK INTRA:                  -1.586
REMARK UNBOUND:                -1.587
REMARK SMILES CCCCCCCCCCCCCCCCCC(=O)[O-]
REMARK SMILES IDX 10 1 11 2 12 3 13 4 14 5 15 6 16 7 17 8 18 9 19 10 20 11
REMARK SMILES IDX 9 12 8 13 7 14 6 15 5 16 4 17 3 18 2 19 1 20
REMARK H PARENT
REMARK Flexibility Score: inf
ROOT
ATOM      1  C   UNL     1      -1.388  24.515  45.312  1.00  0.00     0.000 C 
ENDROOT
BRANCH   1   2
ATOM      2  C   UNL     1      -2.016  23.109  45.237  1.00  0.00     0.000 C 
BRANCH   2   3
ATOM      3  C   UNL     1      -1.043  21.948  45.515  1.00  0.00     0.000 C 
BRANCH   3   4
ATOM      4  C   UNL     1      -0.678  21.818  47.000  1.00  0.00     0.000 C 
BRANCH   4   5
ATOM      5  C   UNL     1      -0.365  20.359  47.363  1.00  0.00     0.000 C 
BRANCH   5   6
ATOM      6  C   UNL     1       0.753  19.759  46.495  1.00  0.00     0.000 C 
BRANCH   6   7
ATOM      7  C   UNL     1       1.953  19.274  47.327  1.00  0.00     0.006 C 
BRANCH   7   8
ATOM      8  C   UNL     1       1.724  19.454  48.834  1.00  0.00     0.053 C 
BRANCH   8   9
ATOM      9  C   UNL     1       2.990  19.271  49.614  1.00  0.00     0.041 C 
ATOM     10  O   UNL     1       3.607  20.271  50.063  1.00  0.00    -0.550 OA
ATOM     11  O   UNL     1       3.469  17.992  49.872  1.00  0.00    -0.550 OA
ENDBRANCH   8   9
ENDBRANCH   7   8
ENDBRANCH   6   7
ENDBRANCH   5   6
ENDBRANCH   4   5
ENDBRANCH   3   4
ENDBRANCH   2   3
ENDBRANCH   1   2
BRANCH   1  12
ATOM     12  C   UNL     1      -1.521  25.220  46.677  1.00  0.00     0.000 C 
BRANCH  12  13
ATOM     13  C   UNL     1      -0.207  25.784  47.248  1.00  0.00    -0.000 C 
BRANCH  13  14
ATOM     14  C   UNL     1      -0.119  25.661  48.776  1.00  0.00    -0.000 C 
BRANCH  14  15
ATOM     15  C   UNL     1       1.254  26.125  49.285  1.00  0.00    -0.000 C 
BRANCH  15  16
ATOM     16  C   UNL     1       1.642  25.476  50.624  1.00  0.00    -0.000 C 
BRANCH  16  17
ATOM     17  C   UNL     1       0.843  24.194  50.912  1.00  0.00    -0.000 C 
BRANCH  17  18
ATOM     18  C   UNL     1       1.734  23.036  51.389  1.00  0.00    -0.000 C 
BRANCH  18  19
ATOM     19  C   UNL     1       0.929  21.785  51.770  1.00  0.00    -0.003 C 
ATOM     20  C   UNL     1      -0.397  21.734  51.016  1.00  0.00     0.004 C 
ENDBRANCH  18  19
ENDBRANCH  17  18
ENDBRANCH  16  17
ENDBRANCH  15  16
ENDBRANCH  14  15
ENDBRANCH  13  14
ENDBRANCH  12  13
ENDBRANCH   1  12
TORSDOF 16
ENDMDL
MODEL 4
REMARK VINA RESULT:    -5.841      1.859      6.432
REMARK INTER + INTRA:         -12.891
REMARK INTER:                 -11.293
REMARK INTRA:                  -1.598
REMARK UNBOUND:                -1.587
REMARK SMILES CCCCCCCCCCCCCCCCCC(=O)[O-]
REMARK SMILES IDX 10 1 11 2 12 3 13 4 14 5 15 6 16 7 17 8 18 9 19 10 20 11
REMARK SMILES IDX 9 12 8 13 7 14 6 15 5 16 4 17 3 18 2 19 1 20
REMARK H PARENT
REMARK Flexibility Score: inf
ROOT
ATOM      1  C   UNL     1       1.721  22.151  51.541  1.00  0.00     0.000 C 
ENDROOT
BRANCH   1   2
ATOM      2  C   UNL     1       0.278  21.793  51.948  1.00  0.00     0.000 C 
BRANCH   2   3
ATOM      3  C   UNL     1      -0.589  21.209  50.819  1.00  0.00     0.000 C 
BRANCH   3   4
ATOM      4  C   UNL     1       0.050  21.368  49.432  1.00  0.00     0.000 C 
BRANCH   4   5
ATOM      5  C   UNL     1      -0.711  20.548  48.379  1.00  0.00     0.000 C 
BRANCH   5   6
ATOM      6  C   UNL     1       0.214  19.642  47.552  1.00  0.00     0.000 C 
BRANCH   6   7
ATOM      7  C   UNL     1       1.206  18.853  48.425  1.00  0.00     0.006 C 
BRANCH   7   8
ATOM      8  C   UNL     1       2.659  19.281  48.181  1.00  0.00     0.053 C 
BRANCH   8   9
ATOM      9  C   UNL     1       3.510  19.071  49.396  1.00  0.00     0.041 C 
ATOM     10  O   UNL     1       3.370  18.035  50.096  1.00  0.00    -0.550 OA
ATOM     11  O   UNL     1       4.482  20.005  49.734  1.00  0.00    -0.550 OA
ENDBRANCH   8   9
ENDBRANCH   7   8
ENDBRANCH   6   7
ENDBRANCH   5   6
ENDBRANCH   4   5
ENDBRANCH   3   4
ENDBRANCH   2   3
ENDBRANCH   1   2
BRANCH   1  12
ATOM     12  C   UNL     1       2.094  23.640  51.685  1.00  0.00     0.000 C 
BRANCH  12  13
ATOM     13  C   UNL     1       1.108  24.623  51.027  1.00  0.00    -0.000 C 
BRANCH  13  14
ATOM     14  C   UNL     1       1.806  25.670  50.146  1.00  0.00    -0.000 C 
BRANCH  14  15
ATOM     15  C   UNL     1       0.920  26.063  48.955  1.00  0.00    -0.000 C 
BRANCH  15  16
ATOM     16  C   UNL     1      -0.307  25.149  48.800  1.00  0.00    -0.000 C 
BRANCH  16  17
ATOM     17  C   UNL     1      -1.387  25.759  47.891  1.00  0.00    -0.000 C 
BRANCH  17  18
ATOM     18  C   UNL     1      -1.155  25.444  46.405  1.00  0.00    -0.000 C 
BRANCH  18  19
ATOM     19  C   UNL     1      -1.414  23.969  46.063  1.00  0.00    -0.003 C 
ATOM     20  C   UNL     1      -1.839  23.809  44.606  1.00  0.00     0.004 C 
ENDBRANCH  18  19
ENDBRANCH  17  18
ENDBRANCH  16  17
ENDBRANCH  15  16
ENDBRANCH  14  15
ENDBRANCH  13  14
ENDBRANCH  12  13
ENDBRANCH   1  12
TORSDOF 16
ENDMDL
MODEL 5
REMARK VINA RESULT:    -5.758      1.005      1.969
REMARK INTER + INTRA:         -12.730
REMARK INTER:                 -11.345
REMARK INTRA:                  -1.385
REMARK UNBOUND:                -1.587
REMARK SMILES CCCCCCCCCCCCCCCCCC(=O)[O-]
REMARK SMILES IDX 10 1 11 2 12 3 13 4 14 5 15 6 16 7 17 8 18 9 19 10 20 11
REMARK SMILES IDX 9 12 8 13 7 14 6 15 5 16 4 17 3 18 2 19 1 20
REMARK H PARENT
REMARK Flexibility Score: inf
ROOT
ATOM      1  C   UNL     1      -0.636  25.200  46.615  1.00  0.00     0.000 C 
ENDROOT
BRANCH   1   2
ATOM      2  C   UNL     1      -1.090  25.717  47.994  1.00  0.00     0.000 C 
BRANCH   2   3
ATOM      3  C   UNL     1      -0.278  25.181  49.188  1.00  0.00     0.000 C 
BRANCH   3   4
ATOM      4  C   UNL     1       1.039  25.940  49.403  1.00  0.00     0.000 C 
BRANCH   4   5
ATOM      5  C   UNL     1       1.870  25.292  50.521  1.00  0.00     0.000 C 
BRANCH   5   6
ATOM      6  C   UNL     1       1.081  24.233  51.307  1.00  0.00     0.000 C 
BRANCH   6   7
ATOM      7  C   UNL     1       1.977  23.101  51.838  1.00  0.00     0.006 C 
BRANCH   7   8
ATOM      8  C   UNL     1       1.574  21.731  51.277  1.00  0.00     0.053 C 
BRANCH   8   9
ATOM      9  C   UNL     1       0.113  21.461  51.468  1.00  0.00     0.041 C 
ATOM     10  O   UNL     1      -0.619  21.205  50.477  1.00  0.00    -0.550 OA
ATOM     11  O   UNL     1      -0.432  21.458  52.746  1.00  0.00    -0.550 OA
ENDBRANCH   8   9
ENDBRANCH   7   8
ENDBRANCH   6   7
ENDBRANCH   5   6
ENDBRANCH   4   5
ENDBRANCH   3   4
ENDBRANCH   2   3
ENDBRANCH   1   2
BRANCH   1  12
ATOM     12  C   UNL     1      -1.773  24.918  45.613  1.00  0.00     0.000 C 
BRANCH  12  13
ATOM     13  C   UNL     1      -1.648  23.590  44.844  1.00  0.00    -0.000 C 
BRANCH  13  14
ATOM     14  C   UNL     1      -1.833  22.359  45.743  1.00  0.00    -0.000 C 
BRANCH  14  15
ATOM     15  C   UNL     1      -0.530  21.551  45.841  1.00  0.00    -0.000 C 
BRANCH  15  16
ATOM     16  C   UNL     1      -0.396  20.799  47.175  1.00  0.00    -0.000 C 
BRANCH  16  17
ATOM     17  C   UNL     1       0.449  19.520  47.050  1.00  0.00    -0.000 C 
BRANCH  17  18
ATOM     18  C   UNL     1       1.023  19.057  48.398  1.00  0.00    -0.000 C 
BRANCH  18  19
ATOM     19  C   UNL     1       2.473  19.515  48.615  1.00  0.00    -0.003 C 
ATOM     20  C   UNL     1       3.211  18.574  49.562  1.00  0.00     0.004 C 
ENDBRANCH  18  19
ENDBRANCH  17  18
ENDBRANCH  16  17
ENDBRANCH  15  16
ENDBRANCH  14  15
ENDBRANCH  13  14
ENDBRANCH  12  13
ENDBRANCH   1  12
TORSDOF 16
ENDMDL
MODEL 6
REMARK VINA RESULT:    -5.725      1.452      5.524
REMARK INTER + INTRA:         -12.666
REMARK INTER:                 -11.064
REMARK INTRA:                  -1.601
REMARK UNBOUND:                -1.587
REMARK SMILES CCCCCCCCCCCCCCCCCC(=O)[O-]
REMARK SMILES IDX 10 1 11 2 12 3 13 4 14 5 15 6 16 7 17 8 18 9 19 10 20 11
REMARK SMILES IDX 9 12 8 13 7 14 6 15 5 16 4 17 3 18 2 19 1 20
REMARK H PARENT
REMARK Flexibility Score: inf
ROOT
ATOM      1  C   UNL     1       2.200  19.031  48.013  1.00  0.00     0.000 C 
ENDROOT
BRANCH   1   2
ATOM      2  C   UNL     1       2.559  18.958  49.511  1.00  0.00     0.000 C 
BRANCH   2   3
ATOM      3  C   UNL     1       3.452  20.103  50.021  1.00  0.00     0.000 C 
BRANCH   3   4
ATOM      4  C   UNL     1       2.661  21.197  50.752  1.00  0.00     0.000 C 
BRANCH   4   5
ATOM      5  C   UNL     1       1.216  20.747  51.016  1.00  0.00     0.000 C 
BRANCH   5   6
ATOM      6  C   UNL     1       0.182  21.605  50.270  1.00  0.00     0.000 C 
BRANCH   6   7
ATOM      7  C   UNL     1      -0.259  22.837  51.079  1.00  0.00     0.006 C 
BRANCH   7   8
ATOM      8  C   UNL     1       0.117  24.152  50.383  1.00  0.00     0.053 C 
BRANCH   8   9
ATOM      9  C   UNL     1       1.418  24.695  50.889  1.00  0.00     0.041 C 
ATOM     10  O   UNL     1       1.907  24.268  51.967  1.00  0.00    -0.550 OA
ATOM     11  O   UNL     1       2.108  25.649  50.151  1.00  0.00    -0.550 OA
ENDBRANCH   8   9
ENDBRANCH   7   8
ENDBRANCH   6   7
ENDBRANCH   5   6
ENDBRANCH   4   5
ENDBRANCH   3   4
ENDBRANCH   2   3
ENDBRANCH   1   2
BRANCH   1  12
ATOM     12  C   UNL     1       0.706  19.262  47.707  1.00  0.00     0.000 C 
BRANCH  12  13
ATOM     13  C   UNL     1       0.423  20.108  46.453  1.00  0.00    -0.000 C 
BRANCH  13  14
ATOM     14  C   UNL     1      -0.609  21.218  46.700  1.00  0.00    -0.000 C 
BRANCH  14  15
ATOM     15  C   UNL     1      -1.027  21.882  45.381  1.00  0.00    -0.000 C 
BRANCH  15  16
ATOM     16  C   UNL     1      -2.015  23.043  45.586  1.00  0.00    -0.000 C 
BRANCH  16  17
ATOM     17  C   UNL     1      -1.763  24.211  44.618  1.00  0.00    -0.000 C 
BRANCH  17  18
ATOM     18  C   UNL     1      -1.067  25.401  45.296  1.00  0.00    -0.000 C 
BRANCH  18  19
ATOM     19  C   UNL     1      -0.885  25.201  46.808  1.00  0.00    -0.003 C 
ATOM     20  C   UNL     1       0.197  26.125  47.359  1.00  0.00     0.004 C 
ENDBRANCH  18  19
ENDBRANCH  17  18
ENDBRANCH  16  17
ENDBRANCH  15  16
ENDBRANCH  14  15
ENDBRANCH  13  14
ENDBRANCH  12  13
ENDBRANCH   1  12
TORSDOF 16
ENDMDL
MODEL 7
REMARK VINA RESULT:    -5.691      1.023      5.055
REMARK INTER + INTRA:         -12.601
REMARK INTER:                 -11.014
REMARK INTRA:                  -1.587
REMARK UNBOUND:                -1.587
REMARK SMILES CCCCCCCCCCCCCCCCCC(=O)[O-]
REMARK SMILES IDX 10 1 11 2 12 3 13 4 14 5 15 6 16 7 17 8 18 9 19 10 20 11
REMARK SMILES IDX 9 12 8 13 7 14 6 15 5 16 4 17 3 18 2 19 1 20
REMARK H PARENT
REMARK Flexibility Score: inf
ROOT
ATOM      1  C   UNL     1       0.101  20.665  45.828  1.00  0.00     0.000 C 
ENDROOT
BRANCH   1   2
ATOM      2  C   UNL     1       0.383  19.490  46.784  1.00  0.00     0.000 C 
BRANCH   2   3
ATOM      3  C   UNL     1       1.817  19.435  47.341  1.00  0.00     0.000 C 
BRANCH   3   4
ATOM      4  C   UNL     1       1.871  18.984  48.808  1.00  0.00     0.000 C 
BRANCH   4   5
ATOM      5  C   UNL     1       3.287  19.147  49.381  1.00  0.00     0.000 C 
BRANCH   5   6
ATOM      6  C   UNL     1       3.355  20.194  50.504  1.00  0.00     0.000 C 
BRANCH   6   7
ATOM      7  C   UNL     1       2.298  21.301  50.346  1.00  0.00     0.006 C 
BRANCH   7   8
ATOM      8  C   UNL     1       1.368  21.391  51.564  1.00  0.00     0.053 C 
BRANCH   8   9
ATOM      9  C   UNL     1      -0.075  21.390  51.162  1.00  0.00     0.041 C 
ATOM     10  O   UNL     1      -0.404  21.078  49.988  1.00  0.00    -0.550 OA
ATOM     11  O   UNL     1      -1.057  21.700  52.094  1.00  0.00    -0.550 OA
ENDBRANCH   8   9
ENDBRANCH   7   8
ENDBRANCH   6   7
ENDBRANCH   5   6
ENDBRANCH   4   5
ENDBRANCH   3   4
ENDBRANCH   2   3
ENDBRANCH   1   2
BRANCH   1  12
ATOM     12  C   UNL     1      -0.722  21.820  46.433  1.00  0.00     0.000 C 
BRANCH  12  13
ATOM     13  C   UNL     1      -1.777  22.429  45.492  1.00  0.00    -0.000 C 
BRANCH  13  14
ATOM     14  C   UNL     1      -1.507  23.905  45.167  1.00  0.00    -0.000 C 
BRANCH  14  15
ATOM     15  C   UNL     1      -1.519  24.759  46.444  1.00  0.00    -0.000 C 
BRANCH  15  16
ATOM     16  C   UNL     1      -0.393  25.806  46.469  1.00  0.00    -0.000 C 
BRANCH  16  17
ATOM     17  C   UNL     1       0.203  25.998  47.874  1.00  0.00    -0.000 C 
BRANCH  17  18
ATOM     18  C   UNL     1      -0.320  24.965  48.884  1.00  0.00    -0.000 C 
BRANCH  18  19
ATOM     19  C   UNL     1       0.528  24.903  50.163  1.00  0.00    -0.003 C 
ATOM     20  C   UNL     1       1.687  25.894  50.102  1.00  0.00     0.004 C 
ENDBRANCH  18  19
ENDBRANCH  17  18
ENDBRANCH  16  17
ENDBRANCH  15  16
ENDBRANCH  14  15
ENDBRANCH  13  14
ENDBRANCH  12  13
ENDBRANCH   1  12
TORSDOF 16
ENDMDL
MODEL 8
REMARK VINA RESULT:    -5.674      1.838      4.506
REMARK INTER + INTRA:         -12.569
REMARK INTER:                 -11.034
REMARK INTRA:                  -1.534
REMARK UNBOUND:                -1.587
REMARK SMILES CCCCCCCCCCCCCCCCCC(=O)[O-]
REMARK SMILES IDX 10 1 11 2 12 3 13 4 14 5 15 6 16 7 17 8 18 9 19 10 20 11
REMARK SMILES IDX 9 12 8 13 7 14 6 15 5 16 4 17 3 18 2 19 1 20
REMARK H PARENT
REMARK Flexibility Score: inf
ROOT
ATOM      1  C   UNL     1      -0.255  25.818  48.976  1.00  0.00     0.000 C 
ENDROOT
BRANCH   1   2
ATOM      2  C   UNL     1      -0.080  25.767  47.445  1.00  0.00     0.000 C 
BRANCH   2   3
ATOM      3  C   UNL     1      -1.353  25.411  46.657  1.00  0.00     0.000 C 
BRANCH   3   4
ATOM      4  C   UNL     1      -1.091  25.215  45.157  1.00  0.00     0.000 C 
BRANCH   4   5
ATOM      5  C   UNL     1      -1.794  23.951  44.638  1.00  0.00     0.000 C 
BRANCH   5   6
ATOM      6  C   UNL     1      -1.973  22.883  45.728  1.00  0.00     0.000 C 
BRANCH   6   7
ATOM      7  C   UNL     1      -1.013  21.693  45.553  1.00  0.00     0.006 C 
BRANCH   7   8
ATOM      8  C   UNL     1      -0.400  21.243  46.886  1.00  0.00     0.053 C 
BRANCH   8   9
ATOM      9  C   UNL     1       0.489  20.050  46.714  1.00  0.00     0.041 C 
ATOM     10  O   UNL     1       0.243  18.982  47.333  1.00  0.00    -0.550 OA
ATOM     11  O   UNL     1       1.570  20.108  45.844  1.00  0.00    -0.550 OA
ENDBRANCH   8   9
ENDBRANCH   7   8
ENDBRANCH   6   7
ENDBRANCH   5   6
ENDBRANCH   4   5
ENDBRANCH   3   4
ENDBRANCH   2   3
ENDBRANCH   1   2
BRANCH   1  12
ATOM     12  C   UNL     1       1.054  25.926  49.783  1.00  0.00     0.000 C 
BRANCH  12  13
ATOM     13  C   UNL     1       1.371  24.710  50.673  1.00  0.00    -0.000 C 
BRANCH  13  14
ATOM     14  C   UNL     1       0.224  23.689  50.719  1.00  0.00    -0.000 C 
BRANCH  14  15
ATOM     15  C   UNL     1       0.576  22.511  51.640  1.00  0.00    -0.000 C 
BRANCH  15  16
ATOM     16  C   UNL     1       0.139  21.154  51.063  1.00  0.00    -0.000 C 
BRANCH  16  17
ATOM     17  C   UNL     1       1.250  20.475  50.245  1.00  0.00    -0.000 C 
BRANCH  17  18
ATOM     18  C   UNL     1       2.657  20.865  50.723  1.00  0.00    -0.000 C 
BRANCH  18  19
ATOM     19  C   UNL     1       3.763  20.039  50.049  1.00  0.00    -0.003 C 
ATOM     20  C   UNL     1       3.177  18.857  49.282  1.00  0.00     0.004 C 
ENDBRANCH  18  19
ENDBRANCH  17  18
ENDBRANCH  16  17
ENDBRANCH  15  16
ENDBRANCH  14  15
ENDBRANCH  13  14
ENDBRANCH  12  13
ENDBRANCH   1  12
TORSDOF 16
ENDMDL
MODEL 9
REMARK VINA RESULT:    -5.661      2.233      6.011
REMARK INTER + INTRA:         -12.542
REMARK INTER:                 -11.378
REMARK INTRA:                  -1.164
REMARK UNBOUND:                -1.587
REMARK SMILES CCCCCCCCCCCCCCCCCC(=O)[O-]
REMARK SMILES IDX 10 1 11 2 12 3 13 4 14 5 15 6 16 7 17 8 18 9 19 10 20 11
REMARK SMILES IDX 9 12 8 13 7 14 6 15 5 16 4 17 3 18 2 19 1 20
REMARK H PARENT
REMARK Flexibility Score: inf
ROOT
ATOM      1  C   UNL     1       1.934  19.274  48.057  1.00  0.00     0.000 C 
ENDROOT
BRANCH   1   2
ATOM      2  C   UNL     1       0.402  19.332  48.219  1.00  0.00     0.000 C 
BRANCH   2   3
ATOM      3  C   UNL     1      -0.266  20.588  47.632  1.00  0.00     0.000 C 
BRANCH   3   4
ATOM      4  C   UNL     1       0.038  20.784  46.140  1.00  0.00     0.000 C 
BRANCH   4   5
ATOM      5  C   UNL     1      -1.135  21.473  45.427  1.00  0.00     0.000 C 
BRANCH   5   6
ATOM      6  C   UNL     1      -1.426  22.876  45.984  1.00  0.00     0.000 C 
BRANCH   6   7
ATOM      7  C   UNL     1      -1.794  23.886  44.884  1.00  0.00     0.006 C 
BRANCH   7   8
ATOM      8  C   UNL     1      -1.146  25.257  45.117  1.00  0.00     0.053 C 
BRANCH   8   9
ATOM      9  C   UNL     1      -1.108  25.613  46.571  1.00  0.00     0.041 C 
ATOM     10  O   UNL     1      -0.008  25.846  47.138  1.00  0.00    -0.550 OA
ATOM     11  O   UNL     1      -2.290  25.721  47.293  1.00  0.00    -0.550 OA
ENDBRANCH   8   9
ENDBRANCH   7   8
ENDBRANCH   6   7
ENDBRANCH   5   6
ENDBRANCH   4   5
ENDBRANCH   3   4
ENDBRANCH   2   3
ENDBRANCH   1   2
BRANCH   1  12
ATOM     12  C   UNL     1       2.702  18.722  49.275  1.00  0.00     0.000 C 
BRANCH  12  13
ATOM     13  C   UNL     1       3.762  19.673  49.860  1.00  0.00    -0.000 C 
BRANCH  13  14
ATOM     14  C   UNL     1       3.169  21.007  50.338  1.00  0.00    -0.000 C 
BRANCH  14  15
ATOM     15  C   UNL     1       1.787  20.796  50.974  1.00  0.00    -0.000 C 
BRANCH  15  16
ATOM     16  C   UNL     1       1.250  22.062  51.661  1.00  0.00    -0.000 C 
BRANCH  16  17
ATOM     17  C   UNL     1      -0.014  22.613  50.979  1.00  0.00    -0.000 C 
BRANCH  17  18
ATOM     18  C   UNL     1       0.218  23.985  50.327  1.00  0.00    -0.000 C 
BRANCH  18  19
ATOM     19  C   UNL     1       1.424  24.729  50.920  1.00  0.00    -0.003 C 
ATOM     20  C   UNL     1       1.732  25.996  50.128  1.00  0.00     0.004 C 
ENDBRANCH  18  19
ENDBRANCH  17  18
ENDBRANCH  16  17
ENDBRANCH  15  16
ENDBRANCH  14  15
ENDBRANCH  13  14
ENDBRANCH  12  13
ENDBRANCH   1  12
TORSDOF 16
ENDMDL
