MODEL 1
REMARK VINA RESULT:    -0.557      0.000      0.000
REMARK INTER + INTRA:          -3.232
REMARK INTER:                  -1.273
REMARK INTRA:                  -1.959
REMARK UNBOUND:                -1.959
REMARK SMILES CCCCCCCCCCCCCCCCCCCCCCCC(=O)[O-]
REMARK SMILES IDX 13 1 14 2 15 3 16 4 17 5 18 6 19 7 20 8 21 9 22 10 23 11
REMARK SMILES IDX 24 12 25 13 26 14 12 15 11 16 10 17 9 18 8 19 7 20 6 21 5 22
REMARK SMILES IDX 4 23 3 24 2 25 1 26
REMARK H PARENT
REMARK Flexibility Score: inf
ROOT
ATOM      1  C   UNL     1      13.521   7.736  15.420  1.00  0.00     0.000 C 
ENDROOT
BRANCH   1   2
ATOM      2  C   UNL     1      12.634   7.661  16.680  1.00  0.00     0.000 C 
BRANCH   2   3
ATOM      3  C   UNL     1      12.116   6.251  17.031  1.00  0.00     0.000 C 
BRANCH   3   4
ATOM      4  C   UNL     1      12.594   5.699  18.387  1.00  0.00     0.000 C 
BRANCH   4   5
ATOM      5  C   UNL     1      12.824   4.178  18.363  1.00  0.00     0.000 C 
BRANCH   5   6
ATOM      6  C   UNL     1      13.045   3.628  16.943  1.00  0.00     0.000 C 
BRANCH   6   7
ATOM      7  C   UNL     1      14.412   2.953  16.715  1.00  0.00     0.000 C 
BRANCH   7   8
ATOM      8  C   UNL     1      15.390   3.794  15.863  1.00  0.00     0.000 C 
BRANCH   8   9
ATOM      9  C   UNL     1      14.693   4.775  14.903  1.00  0.00     0.000 C 
BRANCH   9  10
ATOM     10  C   UNL     1      15.520   5.049  13.636  1.00  0.00     0.006 C 
BRANCH  10  11
ATOM     11  C   UNL     1      16.927   4.446  13.755  1.00  0.00     0.053 C 
BRANCH  11  12
ATOM     12  C   UNL     1      17.433   3.964  12.427  1.00  0.00     0.041 C 
ATOM     13  O   UNL     1      18.668   3.795  12.250  1.00  0.00    -0.550 OA
ATOM     14  O   UNL     1      16.543   3.646  11.405  1.00  0.00    -0.550 OA
ENDBRANCH  11  12
ENDBRANCH  10  11
ENDBRANCH   9  10
ENDBRANCH   8   9
ENDBRANCH   7   8
ENDBRANCH   6   7
ENDBRANCH   5   6
ENDBRANCH   4   5
ENDBRANCH   3   4
ENDBRANCH   2   3
ENDBRANCH   1   2
BRANCH   1  15
ATOM     15  C   UNL     1      13.463   9.075  14.658  1.00  0.00     0.000 C 
BRANCH  15  16
ATOM     16  C   UNL     1      12.823  10.237  15.440  1.00  0.00     0.000 C 
BRANCH  16  17
ATOM     17  C   UNL     1      12.028  11.194  14.538  1.00  0.00     0.000 C 
BRANCH  17  18
ATOM     18  C   UNL     1      11.974  12.603  15.145  1.00  0.00    -0.000 C 
BRANCH  18  19
ATOM     19  C   UNL     1      13.291  13.003  15.831  1.00  0.00    -0.000 C 
BRANCH  19  20
ATOM     20  C   UNL     1      13.647  14.483  15.605  1.00  0.00    -0.000 C 
BRANCH  20  21
ATOM     21  C   UNL     1      12.689  15.172  14.618  1.00  0.00    -0.000 C 
BRANCH  21  22
ATOM     22  C   UNL     1      13.395  16.145  13.643  1.00  0.00    -0.000 C 
BRANCH  22  23
ATOM     23  C   UNL     1      13.374  15.677  12.175  1.00  0.00    -0.000 C 
BRANCH  23  24
ATOM     24  C   UNL     1      12.257  14.671  11.831  1.00  0.00    -0.000 C 
BRANCH  24  25
ATOM     25  C   UNL     1      12.716  13.201  11.752  1.00  0.00    -0.003 C 
ATOM     26  C   UNL     1      11.655  12.272  11.166  1.00  0.00     0.004 C 
ENDBRANCH  24  25
ENDBRANCH  23  24
ENDBRANCH  22  23
ENDBRANCH  21  22
ENDBRANCH  20  21
ENDBRANCH  19  20
ENDBRANCH  18  19
ENDBRANCH  17  18
ENDBRANCH  16  17
ENDBRANCH  15  16
ENDBRANCH   1  15
TORSDOF 22
ENDMDL
MODEL 2
REMARK VINA RESULT:    -0.439      3.670      9.405
REMARK INTER + INTRA:          -2.962
REMARK INTER:                  -1.302
REMARK INTRA:                  -1.660
REMARK UNBOUND:                -1.959
REMARK SMILES CCCCCCCCCCCCCCCCCCCCCCCC(=O)[O-]
REMARK SMILES IDX 13 1 14 2 15 3 16 4 17 5 18 6 19 7 20 8 21 9 22 10 23 11
REMARK SMILES IDX 24 12 25 13 26 14 12 15 11 16 10 17 9 18 8 19 7 20 6 21 5 22
REMARK SMILES IDX 4 23 3 24 2 25 1 26
REMARK H PARENT
REMARK Flexibility Score: inf
ROOT
ATOM      1  C   UNL     1      13.272   6.639  18.236  1.00  0.00     0.000 C 
ENDROOT
BRANCH   1   2
ATOM      2  C   UNL     1      12.400   6.791  16.973  1.00  0.00     0.000 C 
BRANCH   2   3
ATOM      3  C   UNL     1      13.180   6.857  15.644  1.00  0.00     0.000 C 
BRANCH   3   4
ATOM      4  C   UNL     1      13.792   8.231  15.314  1.00  0.00     0.000 C 
BRANCH   4   5
ATOM      5  C   UNL     1      12.775   9.380  15.431  1.00  0.00     0.000 C 
BRANCH   5   6
ATOM      6  C   UNL     1      13.160  10.607  14.586  1.00  0.00     0.000 C 
BRANCH   6   7
ATOM      7  C   UNL     1      11.993  11.557  14.252  1.00  0.00     0.000 C 
BRANCH   7   8
ATOM      8  C   UNL     1      11.888  12.776  15.198  1.00  0.00     0.000 C 
BRANCH   8   9
ATOM      9  C   UNL     1      13.228  13.181  15.839  1.00  0.00     0.000 C 
BRANCH   9  10
ATOM     10  C   UNL     1      13.719  14.557  15.359  1.00  0.00     0.006 C 
BRANCH  10  11
ATOM     11  C   UNL     1      12.691  15.216  14.429  1.00  0.00     0.053 C 
BRANCH  11  12
ATOM     12  C   UNL     1      13.320  15.661  13.141  1.00  0.00     0.041 C 
ATOM     13  O   UNL     1      12.909  15.190  12.047  1.00  0.00    -0.550 OA
ATOM     14  O   UNL     1      14.315  16.634  13.140  1.00  0.00    -0.550 OA
ENDBRANCH  11  12
ENDBRANCH  10  11
ENDBRANCH   9  10
ENDBRANCH   8   9
ENDBRANCH   7   8
ENDBRANCH   6   7
ENDBRANCH   5   6
ENDBRANCH   4   5
ENDBRANCH   3   4
ENDBRANCH   2   3
ENDBRANCH   1   2
BRANCH   1  15
ATOM     15  C   UNL     1      12.745   5.631  19.277  1.00  0.00     0.000 C 
BRANCH  15  16
ATOM     16  C   UNL     1      11.856   4.513  18.703  1.00  0.00     0.000 C 
BRANCH  16  17
ATOM     17  C   UNL     1      12.342   3.108  19.091  1.00  0.00     0.000 C 
BRANCH  17  18
ATOM     18  C   UNL     1      12.996   2.404  17.894  1.00  0.00    -0.000 C 
BRANCH  18  19
ATOM     19  C   UNL     1      13.275   3.360  16.723  1.00  0.00    -0.000 C 
BRANCH  19  20
ATOM     20  C   UNL     1      14.761   3.384  16.323  1.00  0.00    -0.000 C 
BRANCH  20  21
ATOM     21  C   UNL     1      15.042   4.366  15.172  1.00  0.00    -0.000 C 
BRANCH  21  22
ATOM     22  C   UNL     1      16.401   4.130  14.471  1.00  0.00    -0.000 C 
BRANCH  22  23
ATOM     23  C   UNL     1      16.559   4.903  13.147  1.00  0.00    -0.000 C 
BRANCH  23  24
ATOM     24  C   UNL     1      16.898   4.030  11.923  1.00  0.00    -0.000 C 
BRANCH  24  25
ATOM     25  C   UNL     1      15.733   3.824  10.934  1.00  0.00    -0.003 C 
ATOM     26  C   UNL     1      14.423   4.444  11.414  1.00  0.00     0.004 C 
ENDBRANCH  24  25
ENDBRANCH  23  24
ENDBRANCH  22  23
ENDBRANCH  21  22
ENDBRANCH  20  21
ENDBRANCH  19  20
ENDBRANCH  18  19
ENDBRANCH  17  18
ENDBRANCH  16  17
ENDBRANCH  15  16
ENDBRANCH   1  15
TORSDOF 22
ENDMDL
MODEL 3
REMARK VINA RESULT:    -0.382      3.564      9.311
REMARK INTER + INTRA:          -2.833
REMARK INTER:                  -1.608
REMARK INTRA:                  -1.225
REMARK UNBOUND:                -1.959
REMARK SMILES CCCCCCCCCCCCCCCCCCCCCCCC(=O)[O-]
REMARK SMILES IDX 13 1 14 2 15 3 16 4 17 5 18 6 19 7 20 8 21 9 22 10 23 11
REMARK SMILES IDX 24 12 25 13 26 14 12 15 11 16 10 17 9 18 8 19 7 20 6 21 5 22
REMARK SMILES IDX 4 23 3 24 2 25 1 26
REMARK H PARENT
REMARK Flexibility Score: inf
ROOT
ATOM      1  C   UNL     1      12.872   5.732  18.707  1.00  0.00     0.000 C 
ENDROOT
BRANCH   1   2
ATOM      2  C   UNL     1      13.395   6.872  17.809  1.00  0.00     0.000 C 
BRANCH   2   3
ATOM      3  C   UNL     1      12.435   7.311  16.684  1.00  0.00     0.000 C 
BRANCH   3   4
ATOM      4  C   UNL     1      13.117   7.912  15.442  1.00  0.00     0.000 C 
BRANCH   4   5
ATOM      5  C   UNL     1      13.213   9.448  15.499  1.00  0.00     0.000 C 
BRANCH   5   6
ATOM      6  C   UNL     1      12.135  10.146  14.652  1.00  0.00     0.000 C 
BRANCH   6   7
ATOM      7  C   UNL     1      12.377  11.648  14.404  1.00  0.00     0.000 C 
BRANCH   7   8
ATOM      8  C   UNL     1      12.690  12.450  15.689  1.00  0.00     0.000 C 
BRANCH   8   9
ATOM      9  C   UNL     1      13.546  13.706  15.444  1.00  0.00     0.000 C 
BRANCH   9  10
ATOM     10  C   UNL     1      12.721  14.890  14.915  1.00  0.00     0.006 C 
BRANCH  10  11
ATOM     11  C   UNL     1      13.546  15.746  13.944  1.00  0.00     0.053 C 
BRANCH  11  12
ATOM     12  C   UNL     1      13.231  15.417  12.515  1.00  0.00     0.041 C 
ATOM     13  O   UNL     1      12.796  14.273  12.216  1.00  0.00    -0.550 OA
ATOM     14  O   UNL     1      13.359  16.384  11.521  1.00  0.00    -0.550 OA
ENDBRANCH  11  12
ENDBRANCH  10  11
ENDBRANCH   9  10
ENDBRANCH   8   9
ENDBRANCH   7   8
ENDBRANCH   6   7
ENDBRANCH   5   6
ENDBRANCH   4   5
ENDBRANCH   3   4
ENDBRANCH   2   3
ENDBRANCH   1   2
BRANCH   1  15
ATOM     15  C   UNL     1      12.369   4.485  17.954  1.00  0.00     0.000 C 
BRANCH  15  16
ATOM     16  C   UNL     1      12.936   4.313  16.534  1.00  0.00     0.000 C 
BRANCH  16  17
ATOM     17  C   UNL     1      14.160   3.386  16.489  1.00  0.00     0.000 C 
BRANCH  17  18
ATOM     18  C   UNL     1      15.204   3.901  15.489  1.00  0.00    -0.000 C 
BRANCH  18  19
ATOM     19  C   UNL     1      14.857   5.293  14.935  1.00  0.00    -0.000 C 
BRANCH  19  20
ATOM     20  C   UNL     1      15.199   5.435  13.441  1.00  0.00    -0.000 C 
BRANCH  20  21
ATOM     21  C   UNL     1      14.169   4.737  12.536  1.00  0.00    -0.000 C 
BRANCH  21  22
ATOM     22  C   UNL     1      14.648   4.554  11.076  1.00  0.00    -0.000 C 
BRANCH  22  23
ATOM     23  C   UNL     1      15.652   3.400  10.891  1.00  0.00    -0.000 C 
BRANCH  23  24
ATOM     24  C   UNL     1      17.131   3.788  11.087  1.00  0.00    -0.000 C 
BRANCH  24  25
ATOM     25  C   UNL     1      17.815   3.131  12.303  1.00  0.00    -0.003 C 
ATOM     26  C   UNL     1      18.197   4.133  13.390  1.00  0.00     0.004 C 
ENDBRANCH  24  25
ENDBRANCH  23  24
ENDBRANCH  22  23
ENDBRANCH  21  22
ENDBRANCH  20  21
ENDBRANCH  19  20
ENDBRANCH  18  19
ENDBRANCH  17  18
ENDBRANCH  16  17
ENDBRANCH  15  16
ENDBRANCH   1  15
TORSDOF 22
ENDMDL
MODEL 4
REMARK VINA RESULT:    -0.370      4.896     10.036
REMARK INTER + INTRA:          -2.805
REMARK INTER:                  -1.669
REMARK INTRA:                  -1.137
REMARK UNBOUND:                -1.959
REMARK SMILES CCCCCCCCCCCCCCCCCCCCCCCC(=O)[O-]
REMARK SMILES IDX 13 1 14 2 15 3 16 4 17 5 18 6 19 7 20 8 21 9 22 10 23 11
REMARK SMILES IDX 24 12 25 13 26 14 12 15 11 16 10 17 9 18 8 19 7 20 6 21 5 22
REMARK SMILES IDX 4 23 3 24 2 25 1 26
REMARK H PARENT
REMARK Flexibility Score: inf
ROOT
ATOM      1  C   UNL     1      13.396   4.389  15.929  1.00  0.00     0.000 C 
ENDROOT
BRANCH   1   2
ATOM      2  C   UNL     1      14.649   5.113  15.396  1.00  0.00     0.000 C 
BRANCH   2   3
ATOM      3  C   UNL     1      14.371   6.237  14.377  1.00  0.00     0.000 C 
BRANCH   3   4
ATOM      4  C   UNL     1      14.424   7.665  14.949  1.00  0.00     0.000 C 
BRANCH   4   5
ATOM      5  C   UNL     1      13.089   8.107  15.575  1.00  0.00     0.000 C 
BRANCH   5   6
ATOM      6  C   UNL     1      12.506   9.367  14.912  1.00  0.00     0.000 C 
BRANCH   6   7
ATOM      7  C   UNL     1      13.338  10.649  15.116  1.00  0.00     0.000 C 
BRANCH   7   8
ATOM      8  C   UNL     1      12.486  11.936  15.224  1.00  0.00     0.000 C 
BRANCH   8   9
ATOM      9  C   UNL     1      13.276  13.165  15.707  1.00  0.00     0.000 C 
BRANCH   9  10
ATOM     10  C   UNL     1      12.902  14.446  14.942  1.00  0.00     0.006 C 
BRANCH  10  11
ATOM     11  C   UNL     1      13.351  14.363  13.477  1.00  0.00     0.053 C 
BRANCH  11  12
ATOM     12  C   UNL     1      13.377  15.718  12.832  1.00  0.00     0.041 C 
ATOM     13  O   UNL     1      13.894  16.692  13.439  1.00  0.00    -0.550 OA
ATOM     14  O   UNL     1      12.884  15.897  11.542  1.00  0.00    -0.550 OA
ENDBRANCH  11  12
ENDBRANCH  10  11
ENDBRANCH   9  10
ENDBRANCH   8   9
ENDBRANCH   7   8
ENDBRANCH   6   7
ENDBRANCH   5   6
ENDBRANCH   4   5
ENDBRANCH   3   4
ENDBRANCH   2   3
ENDBRANCH   1   2
BRANCH   1  15
ATOM     15  C   UNL     1      13.650   3.420  17.101  1.00  0.00     0.000 C 
BRANCH  15  16
ATOM     16  C   UNL     1      12.493   3.304  18.108  1.00  0.00     0.000 C 
BRANCH  16  17
ATOM     17  C   UNL     1      12.428   4.493  19.080  1.00  0.00     0.000 C 
BRANCH  17  18
ATOM     18  C   UNL     1      12.480   5.826  18.320  1.00  0.00    -0.000 C 
BRANCH  18  19
ATOM     19  C   UNL     1      13.414   6.851  18.985  1.00  0.00    -0.000 C 
BRANCH  19  20
ATOM     20  C   UNL     1      14.794   6.258  19.322  1.00  0.00    -0.000 C 
BRANCH  20  21
ATOM     21  C   UNL     1      15.633   7.196  20.207  1.00  0.00    -0.000 C 
BRANCH  21  22
ATOM     22  C   UNL     1      16.871   6.514  20.837  1.00  0.00    -0.000 C 
BRANCH  22  23
ATOM     23  C   UNL     1      16.670   6.099  22.308  1.00  0.00    -0.000 C 
BRANCH  23  24
ATOM     24  C   UNL     1      17.575   4.945  22.786  1.00  0.00    -0.000 C 
BRANCH  24  25
ATOM     25  C   UNL     1      18.893   5.392  23.450  1.00  0.00    -0.003 C 
ATOM     26  C   UNL     1      19.936   4.279  23.520  1.00  0.00     0.004 C 
ENDBRANCH  24  25
ENDBRANCH  23  24
ENDBRANCH  22  23
ENDBRANCH  21  22
ENDBRANCH  20  21
ENDBRANCH  19  20
ENDBRANCH  18  19
ENDBRANCH  17  18
ENDBRANCH  16  17
ENDBRANCH  15  16
ENDBRANCH   1  15
TORSDOF 22
ENDMDL
MODEL 5
REMARK VINA RESULT:    -0.257      0.956      2.295
REMARK INTER + INTRA:          -2.547
REMARK INTER:                  -0.837
REMARK INTRA:                  -1.710
REMARK UNBOUND:                -1.959
REMARK SMILES CCCCCCCCCCCCCCCCCCCCCCCC(=O)[O-]
REMARK SMILES IDX 13 1 14 2 15 3 16 4 17 5 18 6 19 7 20 8 21 9 22 10 23 11
REMARK SMILES IDX 24 12 25 13 26 14 12 15 11 16 10 17 9 18 8 19 7 20 6 21 5 22
REMARK SMILES IDX 4 23 3 24 2 25 1 26
REMARK H PARENT
REMARK Flexibility Score: inf
ROOT
ATOM      1  C   UNL     1      12.404   6.366  17.143  1.00  0.00     0.000 C 
ENDROOT
BRANCH   1   2
ATOM      2  C   UNL     1      13.046   6.558  18.532  1.00  0.00     0.000 C 
BRANCH   2   3
ATOM      3  C   UNL     1      12.847   5.383  19.512  1.00  0.00     0.000 C 
BRANCH   3   4
ATOM      4  C   UNL     1      11.743   4.385  19.119  1.00  0.00     0.000 C 
BRANCH   4   5
ATOM      5  C   UNL     1      12.062   2.942  19.550  1.00  0.00     0.000 C 
BRANCH   5   6
ATOM      6  C   UNL     1      12.817   2.149  18.469  1.00  0.00     0.000 C 
BRANCH   6   7
ATOM      7  C   UNL     1      12.866   2.825  17.085  1.00  0.00     0.000 C 
BRANCH   7   8
ATOM      8  C   UNL     1      14.295   3.184  16.615  1.00  0.00     0.000 C 
BRANCH   8   9
ATOM      9  C   UNL     1      14.364   4.453  15.747  1.00  0.00     0.000 C 
BRANCH   9  10
ATOM     10  C   UNL     1      15.506   4.404  14.719  1.00  0.00     0.006 C 
BRANCH  10  11
ATOM     11  C   UNL     1      15.152   5.213  13.463  1.00  0.00     0.053 C 
BRANCH  11  12
ATOM     12  C   UNL     1      15.636   4.532  12.216  1.00  0.00     0.041 C 
ATOM     13  O   UNL     1      14.880   4.451  11.212  1.00  0.00    -0.550 OA
ATOM     14  O   UNL     1      16.936   4.041  12.138  1.00  0.00    -0.550 OA
ENDBRANCH  11  12
ENDBRANCH  10  11
ENDBRANCH   9  10
ENDBRANCH   8   9
ENDBRANCH   7   8
ENDBRANCH   6   7
ENDBRANCH   5   6
ENDBRANCH   4   5
ENDBRANCH   3   4
ENDBRANCH   2   3
ENDBRANCH   1   2
BRANCH   1  15
ATOM     15  C   UNL     1      12.383   7.625  16.253  1.00  0.00     0.000 C 
BRANCH  15  16
ATOM     16  C   UNL     1      13.556   7.738  15.263  1.00  0.00     0.000 C 
BRANCH  16  17
ATOM     17  C   UNL     1      13.884   9.192  14.892  1.00  0.00     0.000 C 
BRANCH  17  18
ATOM     18  C   UNL     1      12.828  10.154  15.455  1.00  0.00    -0.000 C 
BRANCH  18  19
ATOM     19  C   UNL     1      12.271  11.112  14.389  1.00  0.00    -0.000 C 
BRANCH  19  20
ATOM     20  C   UNL     1      11.997  12.520  14.948  1.00  0.00    -0.000 C 
BRANCH  20  21
ATOM     21  C   UNL     1      13.127  13.016  15.867  1.00  0.00    -0.000 C 
BRANCH  21  22
ATOM     22  C   UNL     1      13.699  14.395  15.459  1.00  0.00    -0.000 C 
BRANCH  22  23
ATOM     23  C   UNL     1      12.747  15.227  14.578  1.00  0.00    -0.000 C 
BRANCH  23  24
ATOM     24  C   UNL     1      13.431  15.999  13.433  1.00  0.00    -0.000 C 
BRANCH  24  25
ATOM     25  C   UNL     1      13.034  15.538  12.017  1.00  0.00    -0.003 C 
ATOM     26  C   UNL     1      12.680  14.054  11.946  1.00  0.00     0.004 C 
ENDBRANCH  24  25
ENDBRANCH  23  24
ENDBRANCH  22  23
ENDBRANCH  21  22
ENDBRANCH  20  21
ENDBRANCH  19  20
ENDBRANCH  18  19
ENDBRANCH  17  18
ENDBRANCH  16  17
ENDBRANCH  15  16
ENDBRANCH   1  15
TORSDOF 22
ENDMDL
MODEL 6
REMARK VINA RESULT:    -0.236      3.567      6.400
REMARK INTER + INTRA:          -2.499
REMARK INTER:                  -1.347
REMARK INTRA:                  -1.152
REMARK UNBOUND:                -1.959
REMARK SMILES CCCCCCCCCCCCCCCCCCCCCCCC(=O)[O-]
REMARK SMILES IDX 13 1 14 2 15 3 16 4 17 5 18 6 19 7 20 8 21 9 22 10 23 11
REMARK SMILES IDX 24 12 25 13 26 14 12 15 11 16 10 17 9 18 8 19 7 20 6 21 5 22
REMARK SMILES IDX 4 23 3 24 2 25 1 26
REMARK H PARENT
REMARK Flexibility Score: inf
ROOT
ATOM      1  C   UNL     1      14.888   4.466  15.849  1.00  0.00     0.000 C 
ENDROOT
BRANCH   1   2
ATOM      2  C   UNL     1      15.251   4.802  14.388  1.00  0.00     0.000 C 
BRANCH   2   3
ATOM      3  C   UNL     1      16.752   4.694  14.046  1.00  0.00     0.000 C 
BRANCH   3   4
ATOM      4  C   UNL     1      17.062   4.200  12.621  1.00  0.00     0.000 C 
BRANCH   4   5
ATOM      5  C   UNL     1      18.429   3.500  12.517  1.00  0.00     0.000 C 
BRANCH   5   6
ATOM      6  C   UNL     1      18.748   3.021  11.090  1.00  0.00     0.000 C 
BRANCH   6   7
ATOM      7  C   UNL     1      20.199   2.546  10.875  1.00  0.00     0.000 C 
BRANCH   7   8
ATOM      8  C   UNL     1      20.753   1.689  12.037  1.00  0.00     0.000 C 
BRANCH   8   9
ATOM      9  C   UNL     1      21.604   0.492  11.576  1.00  0.00     0.000 C 
BRANCH   9  10
ATOM     10  C   UNL     1      23.104   0.695  11.845  1.00  0.00     0.006 C 
BRANCH  10  11
ATOM     11  C   UNL     1      23.676  -0.461  12.678  1.00  0.00     0.053 C 
BRANCH  11  12
ATOM     12  C   UNL     1      23.675  -0.136  14.143  1.00  0.00     0.041 C 
ATOM     13  O   UNL     1      23.604   1.064  14.520  1.00  0.00    -0.550 OA
ATOM     14  O   UNL     1      23.694  -1.153  15.093  1.00  0.00    -0.550 OA
ENDBRANCH  11  12
ENDBRANCH  10  11
ENDBRANCH   9  10
ENDBRANCH   8   9
ENDBRANCH   7   8
ENDBRANCH   6   7
ENDBRANCH   5   6
ENDBRANCH   4   5
ENDBRANCH   3   4
ENDBRANCH   2   3
ENDBRANCH   1   2
BRANCH   1  15
ATOM     15  C   UNL     1      13.402   4.137  16.094  1.00  0.00     0.000 C 
BRANCH  15  16
ATOM     16  C   UNL     1      12.750   4.909  17.255  1.00  0.00     0.000 C 
BRANCH  16  17
ATOM     17  C   UNL     1      13.253   6.356  17.364  1.00  0.00     0.000 C 
BRANCH  17  18
ATOM     18  C   UNL     1      12.497   7.275  16.394  1.00  0.00    -0.000 C 
BRANCH  18  19
ATOM     19  C   UNL     1      13.389   7.796  15.255  1.00  0.00    -0.000 C 
BRANCH  19  20
ATOM     20  C   UNL     1      13.583   9.322  15.310  1.00  0.00    -0.000 C 
BRANCH  20  21
ATOM     21  C   UNL     1      12.306  10.089  14.924  1.00  0.00    -0.000 C 
BRANCH  21  22
ATOM     22  C   UNL     1      12.567  11.550  14.487  1.00  0.00    -0.000 C 
BRANCH  22  23
ATOM     23  C   UNL     1      12.844  12.510  15.661  1.00  0.00    -0.000 C 
BRANCH  23  24
ATOM     24  C   UNL     1      13.138  13.967  15.252  1.00  0.00    -0.000 C 
BRANCH  24  25
ATOM     25  C   UNL     1      13.301  14.191  13.735  1.00  0.00    -0.003 C 
ATOM     26  C   UNL     1      13.343  15.667  13.347  1.00  0.00     0.004 C 
ENDBRANCH  24  25
ENDBRANCH  23  24
ENDBRANCH  22  23
ENDBRANCH  21  22
ENDBRANCH  20  21
ENDBRANCH  19  20
ENDBRANCH  18  19
ENDBRANCH  17  18
ENDBRANCH  16  17
ENDBRANCH  15  16
ENDBRANCH   1  15
TORSDOF 22
ENDMDL
MODEL 7
REMARK VINA RESULT:    -0.064      0.938      2.890
REMARK INTER + INTRA:          -2.105
REMARK INTER:                  -0.956
REMARK INTRA:                  -1.149
REMARK UNBOUND:                -1.959
REMARK SMILES CCCCCCCCCCCCCCCCCCCCCCCC(=O)[O-]
REMARK SMILES IDX 13 1 14 2 15 3 16 4 17 5 18 6 19 7 20 8 21 9 22 10 23 11
REMARK SMILES IDX 24 12 25 13 26 14 12 15 11 16 10 17 9 18 8 19 7 20 6 21 5 22
REMARK SMILES IDX 4 23 3 24 2 25 1 26
REMARK H PARENT
REMARK Flexibility Score: inf
ROOT
ATOM      1  C   UNL     1      12.856   5.863  18.403  1.00  0.00     0.000 C 
ENDROOT
BRANCH   1   2
ATOM      2  C   UNL     1      12.267   4.572  19.008  1.00  0.00     0.000 C 
BRANCH   2   3
ATOM      3  C   UNL     1      12.743   3.263  18.345  1.00  0.00     0.000 C 
BRANCH   3   4
ATOM      4  C   UNL     1      13.163   3.394  16.869  1.00  0.00     0.000 C 
BRANCH   4   5
ATOM      5  C   UNL     1      14.644   3.043  16.638  1.00  0.00     0.000 C 
BRANCH   5   6
ATOM      6  C   UNL     1      15.335   3.995  15.646  1.00  0.00     0.000 C 
BRANCH   6   7
ATOM      7  C   UNL     1      14.384   4.719  14.673  1.00  0.00     0.000 C 
BRANCH   7   8
ATOM      8  C   UNL     1      15.081   5.251  13.399  1.00  0.00     0.000 C 
BRANCH   8   9
ATOM      9  C   UNL     1      14.500   4.684  12.091  1.00  0.00     0.000 C 
BRANCH   9  10
ATOM     10  C   UNL     1      15.589   4.341  11.062  1.00  0.00     0.006 C 
BRANCH  10  11
ATOM     11  C   UNL     1      16.454   3.168  11.545  1.00  0.00     0.053 C 
BRANCH  11  12
ATOM     12  C   UNL     1      17.850   3.612  11.872  1.00  0.00     0.041 C 
ATOM     13  O   UNL     1      18.797   3.330  11.091  1.00  0.00    -0.550 OA
ATOM     14  O   UNL     1      18.100   4.384  13.003  1.00  0.00    -0.550 OA
ENDBRANCH  11  12
ENDBRANCH  10  11
ENDBRANCH   9  10
ENDBRANCH   8   9
ENDBRANCH   7   8
ENDBRANCH   6   7
ENDBRANCH   5   6
ENDBRANCH   4   5
ENDBRANCH   3   4
ENDBRANCH   2   3
ENDBRANCH   1   2
BRANCH   1  15
ATOM     15  C   UNL     1      12.208   6.319  17.080  1.00  0.00     0.000 C 
BRANCH  15  16
ATOM     16  C   UNL     1      12.555   7.756  16.651  1.00  0.00     0.000 C 
BRANCH  16  17
ATOM     17  C   UNL     1      13.383   7.808  15.358  1.00  0.00     0.000 C 
BRANCH  17  18
ATOM     18  C   UNL     1      13.731   9.257  14.987  1.00  0.00    -0.000 C 
BRANCH  18  19
ATOM     19  C   UNL     1      12.509  10.189  15.028  1.00  0.00    -0.000 C 
BRANCH  19  20
ATOM     20  C   UNL     1      12.852  11.628  14.604  1.00  0.00    -0.000 C 
BRANCH  20  21
ATOM     21  C   UNL     1      12.721  12.628  15.766  1.00  0.00    -0.000 C 
BRANCH  21  22
ATOM     22  C   UNL     1      13.501  13.945  15.544  1.00  0.00    -0.000 C 
BRANCH  22  23
ATOM     23  C   UNL     1      12.693  15.029  14.803  1.00  0.00    -0.000 C 
BRANCH  23  24
ATOM     24  C   UNL     1      13.485  15.815  13.739  1.00  0.00    -0.000 C 
BRANCH  24  25
ATOM     25  C   UNL     1      13.310  15.303  12.296  1.00  0.00    -0.003 C 
ATOM     26  C   UNL     1      12.413  14.071  12.201  1.00  0.00     0.004 C 
ENDBRANCH  24  25
ENDBRANCH  23  24
ENDBRANCH  22  23
ENDBRANCH  21  22
ENDBRANCH  20  21
ENDBRANCH  19  20
ENDBRANCH  18  19
ENDBRANCH  17  18
ENDBRANCH  16  17
ENDBRANCH  15  16
ENDBRANCH   1  15
TORSDOF 22
ENDMDL
MODEL 8
REMARK VINA RESULT:     0.074      2.965      9.269
REMARK INTER + INTRA:          -1.790
REMARK INTER:                  -0.417
REMARK INTRA:                  -1.373
REMARK UNBOUND:                -1.959
REMARK SMILES CCCCCCCCCCCCCCCCCCCCCCCC(=O)[O-]
REMARK SMILES IDX 13 1 14 2 15 3 16 4 17 5 18 6 19 7 20 8 21 9 22 10 23 11
REMARK SMILES IDX 24 12 25 13 26 14 12 15 11 16 10 17 9 18 8 19 7 20 6 21 5 22
REMARK SMILES IDX 4 23 3 24 2 25 1 26
REMARK H PARENT
REMARK Flexibility Score: inf
ROOT
ATOM      1  C   UNL     1      13.608   6.962  15.798  1.00  0.00     0.000 C 
ENDROOT
BRANCH   1   2
ATOM      2  C   UNL     1      13.460   8.141  14.815  1.00  0.00     0.000 C 
BRANCH   2   3
ATOM      3  C   UNL     1      13.536   9.542  15.458  1.00  0.00     0.000 C 
BRANCH   3   4
ATOM      4  C   UNL     1      12.416  10.513  15.041  1.00  0.00     0.000 C 
BRANCH   4   5
ATOM      5  C   UNL     1      12.945  11.911  14.676  1.00  0.00     0.000 C 
BRANCH   5   6
ATOM      6  C   UNL     1      12.775  12.931  15.817  1.00  0.00     0.000 C 
BRANCH   6   7
ATOM      7  C   UNL     1      12.718  14.404  15.366  1.00  0.00     0.000 C 
BRANCH   7   8
ATOM      8  C   UNL     1      13.758  14.766  14.280  1.00  0.00     0.000 C 
BRANCH   8   9
ATOM      9  C   UNL     1      13.250  15.789  13.249  1.00  0.00     0.000 C 
BRANCH   9  10
ATOM     10  C   UNL     1      13.085  15.181  11.846  1.00  0.00     0.006 C 
BRANCH  10  11
ATOM     11  C   UNL     1      11.741  14.450  11.717  1.00  0.00     0.053 C 
BRANCH  11  12
ATOM     12  C   UNL     1      11.931  12.967  11.598  1.00  0.00     0.041 C 
ATOM     13  O   UNL     1      11.062  12.183  12.064  1.00  0.00    -0.550 OA
ATOM     14  O   UNL     1      13.033  12.447  10.924  1.00  0.00    -0.550 OA
ENDBRANCH  11  12
ENDBRANCH  10  11
ENDBRANCH   9  10
ENDBRANCH   8   9
ENDBRANCH   7   8
ENDBRANCH   6   7
ENDBRANCH   5   6
ENDBRANCH   4   5
ENDBRANCH   3   4
ENDBRANCH   2   3
ENDBRANCH   1   2
BRANCH   1  15
ATOM     15  C   UNL     1      12.478   6.833  16.840  1.00  0.00     0.000 C 
BRANCH  15  16
ATOM     16  C   UNL     1      12.939   6.414  18.247  1.00  0.00     0.000 C 
BRANCH  16  17
ATOM     17  C   UNL     1      12.625   4.943  18.562  1.00  0.00     0.000 C 
BRANCH  17  18
ATOM     18  C   UNL     1      12.563   4.107  17.276  1.00  0.00    -0.000 C 
BRANCH  18  19
ATOM     19  C   UNL     1      13.519   2.904  17.304  1.00  0.00    -0.000 C 
BRANCH  19  20
ATOM     20  C   UNL     1      14.794   3.145  16.476  1.00  0.00    -0.000 C 
BRANCH  20  21
ATOM     21  C   UNL     1      14.552   4.093  15.289  1.00  0.00    -0.000 C 
BRANCH  21  22
ATOM     22  C   UNL     1      15.839   4.459  14.512  1.00  0.00    -0.000 C 
BRANCH  22  23
ATOM     23  C   UNL     1      15.574   5.162  13.167  1.00  0.00    -0.000 C 
BRANCH  23  24
ATOM     24  C   UNL     1      16.057   4.388  11.924  1.00  0.00    -0.000 C 
BRANCH  24  25
ATOM     25  C   UNL     1      14.935   3.946  10.963  1.00  0.00    -0.003 C 
ATOM     26  C   UNL     1      13.787   4.949  10.880  1.00  0.00     0.004 C 
ENDBRANCH  24  25
ENDBRANCH  23  24
ENDBRANCH  22  23
ENDBRANCH  21  22
ENDBRANCH  20  21
ENDBRANCH  19  20
ENDBRANCH  18  19
ENDBRANCH  17  18
ENDBRANCH  16  17
ENDBRANCH  15  16
ENDBRANCH   1  15
TORSDOF 22
ENDMDL
MODEL 9
REMARK VINA RESULT:     0.143      4.251      5.604
REMARK INTER + INTRA:          -1.632
REMARK INTER:                  -0.101
REMARK INTRA:                  -1.531
REMARK UNBOUND:                -1.959
REMARK SMILES CCCCCCCCCCCCCCCCCCCCCCCC(=O)[O-]
REMARK SMILES IDX 13 1 14 2 15 3 16 4 17 5 18 6 19 7 20 8 21 9 22 10 23 11
REMARK SMILES IDX 24 12 25 13 26 14 12 15 11 16 10 17 9 18 8 19 7 20 6 21 5 22
REMARK SMILES IDX 4 23 3 24 2 25 1 26
REMARK H PARENT
REMARK Flexibility Score: inf
ROOT
ATOM      1  C   UNL     1      14.727   4.957  14.631  1.00  0.00     0.000 C 
ENDROOT
BRANCH   1   2
ATOM      2  C   UNL     1      14.580   4.606  16.125  1.00  0.00     0.000 C 
BRANCH   2   3
ATOM      3  C   UNL     1      13.140   4.305  16.588  1.00  0.00     0.000 C 
BRANCH   3   4
ATOM      4  C   UNL     1      12.431   5.464  17.312  1.00  0.00     0.000 C 
BRANCH   4   5
ATOM      5  C   UNL     1      12.869   5.606  18.781  1.00  0.00     0.000 C 
BRANCH   5   6
ATOM      6  C   UNL     1      13.716   6.865  19.034  1.00  0.00     0.000 C 
BRANCH   6   7
ATOM      7  C   UNL     1      15.221   6.602  19.244  1.00  0.00     0.000 C 
BRANCH   7   8
ATOM      8  C   UNL     1      15.742   7.033  20.635  1.00  0.00     0.000 C 
BRANCH   8   9
ATOM      9  C   UNL     1      16.956   6.222  21.122  1.00  0.00     0.000 C 
BRANCH   9  10
ATOM     10  C   UNL     1      16.853   5.840  22.607  1.00  0.00     0.006 C 
BRANCH  10  11
ATOM     11  C   UNL     1      17.722   4.614  22.922  1.00  0.00     0.053 C 
BRANCH  11  12
ATOM     12  C   UNL     1      19.132   5.007  23.247  1.00  0.00     0.041 C 
ATOM     13  O   UNL     1      19.457   6.224  23.260  1.00  0.00    -0.550 OA
ATOM     14  O   UNL     1      20.074   4.042  23.593  1.00  0.00    -0.550 OA
ENDBRANCH  11  12
ENDBRANCH  10  11
ENDBRANCH   9  10
ENDBRANCH   8   9
ENDBRANCH   7   8
ENDBRANCH   6   7
ENDBRANCH   5   6
ENDBRANCH   4   5
ENDBRANCH   3   4
ENDBRANCH   2   3
ENDBRANCH   1   2
BRANCH   1  15
ATOM     15  C   UNL     1      14.039   6.267  14.196  1.00  0.00     0.000 C 
BRANCH  15  16
ATOM     16  C   UNL     1      14.413   7.503  15.034  1.00  0.00     0.000 C 
BRANCH  16  17
ATOM     17  C   UNL     1      13.197   8.374  15.384  1.00  0.00     0.000 C 
BRANCH  17  18
ATOM     18  C   UNL     1      13.432   9.835  14.974  1.00  0.00    -0.000 C 
BRANCH  18  19
ATOM     19  C   UNL     1      12.144  10.674  15.008  1.00  0.00    -0.000 C 
BRANCH  19  20
ATOM     20  C   UNL     1      12.341  12.080  14.415  1.00  0.00    -0.000 C 
BRANCH  20  21
ATOM     21  C   UNL     1      12.320  13.179  15.492  1.00  0.00    -0.000 C 
BRANCH  21  22
ATOM     22  C   UNL     1      13.356  14.303  15.254  1.00  0.00    -0.000 C 
BRANCH  22  23
ATOM     23  C   UNL     1      12.782  15.533  14.524  1.00  0.00    -0.000 C 
BRANCH  23  24
ATOM     24  C   UNL     1      13.710  16.144  13.455  1.00  0.00    -0.000 C 
BRANCH  24  25
ATOM     25  C   UNL     1      13.280  15.878  11.999  1.00  0.00    -0.003 C 
ATOM     26  C   UNL     1      12.505  14.572  11.831  1.00  0.00     0.004 C 
ENDBRANCH  24  25
ENDBRANCH  23  24
ENDBRANCH  22  23
ENDBRANCH  21  22
ENDBRANCH  20  21
ENDBRANCH  19  20
ENDBRANCH  18  19
ENDBRANCH  17  18
ENDBRANCH  16  17
ENDBRANCH  15  16
ENDBRANCH   1  15
TORSDOF 22
ENDMDL
