MODEL 1
REMARK VINA RESULT:    -5.554      0.000      0.000
REMARK INTER + INTRA:         -10.217
REMARK INTER:                  -8.152
REMARK INTRA:                  -2.065
REMARK UNBOUND:                -2.065
REMARK SMILES O=c1c(O[C@@H]2O[C@@H](CO)[C@@H](O)[C@@H](O)[C@@H]2O)c(-c2ccc(O)c(O)c2)oc2cc(O)cc(O)c12
REMARK SMILES IDX 4 1 3 2 16 3 25 4 2 5 26 6 1 7 33 8 27 9 31 10 28 11 30 12
REMARK SMILES IDX 17 13 18 14 19 15 20 16 24 17 22 18 21 19 23 21 32 23 29 25
REMARK SMILES IDX 5 27 14 28 6 29 12 30 7 31 10 32 15 33 13 35 8 37 9 38 11 40
REMARK H PARENT 21 20 23 22 32 24 29 26 15 34 13 36 9 39 11 41
REMARK Flexibility Score: inf
ROOT
ATOM      1  O   UNL     1      48.520  28.106  15.572  1.00  0.00    -0.454 OA
ENDROOT
BRANCH   1   2
ATOM      2  C   UNL     1      47.629  27.525  16.484  1.00  0.00     0.214 A 
ATOM      3  C   UNL     1      48.077  26.818  17.617  1.00  0.00     0.180 A 
ATOM      4  O   UNL     1      47.198  26.188  18.387  1.00  0.00    -0.452 OA
ATOM      5  C   UNL     1      46.252  27.635  16.253  1.00  0.00     0.239 A 
ATOM      6  C   UNL     1      45.886  26.235  18.187  1.00  0.00     0.146 A 
ATOM      7  O   UNL     1      45.867  28.259  15.230  1.00  0.00    -0.285 OA
ATOM      8  C   UNL     1      45.336  27.009  17.132  1.00  0.00     0.111 A 
ATOM      9  C   UNL     1      45.054  25.507  19.042  1.00  0.00     0.094 A 
ATOM     10  C   UNL     1      43.917  27.067  16.999  1.00  0.00     0.134 A 
ATOM     11  C   UNL     1      43.673  25.523  18.866  1.00  0.00     0.123 A 
ATOM     12  C   UNL     1      43.111  26.299  17.847  1.00  0.00     0.093 A 
BRANCH   3  13
ATOM     13  C   UNL     1      49.506  26.752  17.993  1.00  0.00     0.025 A 
ATOM     14  C   UNL     1      50.231  25.574  17.763  1.00  0.00     0.016 A 
ATOM     15  C   UNL     1      51.582  25.497  18.112  1.00  0.00     0.051 A 
ATOM     16  C   UNL     1      52.222  26.591  18.710  1.00  0.00     0.157 A 
ATOM     17  C   UNL     1      50.144  27.839  18.618  1.00  0.00     0.062 A 
ATOM     18  C   UNL     1      51.496  27.766  18.968  1.00  0.00     0.158 A 
BRANCH  16  19
ATOM     19  O   UNL     1      53.572  26.513  19.051  1.00  0.00    -0.504 OA
ATOM     20  H   UNL     1      54.125  27.344  19.221  1.00  0.00     0.293 HD
ENDBRANCH  16  19
BRANCH  18  21
ATOM     21  O   UNL     1      52.100  28.868  19.572  1.00  0.00    -0.504 OA
ATOM     22  H   UNL     1      52.800  28.767  20.298  1.00  0.00     0.293 HD
ENDBRANCH  18  21
ENDBRANCH   3  13
BRANCH  10  23
ATOM     23  O   UNL     1      43.253  27.877  16.072  1.00  0.00    -0.507 OA
ATOM     24  H   UNL     1      42.259  27.865  15.906  1.00  0.00     0.293 HD
ENDBRANCH  10  23
BRANCH  11  25
ATOM     25  O   UNL     1      42.863  24.770  19.714  1.00  0.00    -0.508 OA
ATOM     26  H   UNL     1      42.338  25.201  20.466  1.00  0.00     0.293 HD
ENDBRANCH  11  25
ENDBRANCH   1   2
BRANCH   1  27
ATOM     27  C   UNL     1      49.068  27.397  14.453  1.00  0.00     0.339 C 
ATOM     28  C   UNL     1      48.917  28.219  13.154  1.00  0.00     0.214 C 
ATOM     29  O   UNL     1      50.426  27.055  14.690  1.00  0.00    -0.332 OA
ATOM     30  C   UNL     1      49.820  29.462  13.205  1.00  0.00     0.180 C 
ATOM     31  C   UNL     1      51.232  28.210  14.866  1.00  0.00     0.179 C 
ATOM     32  C   UNL     1      51.258  29.055  13.571  1.00  0.00     0.177 C 
BRANCH  28  33
ATOM     33  O   UNL     1      47.581  28.613  12.979  1.00  0.00    -0.384 OA
ATOM     34  H   UNL     1      47.066  27.791  12.768  1.00  0.00     0.211 HD
ENDBRANCH  28  33
BRANCH  30  35
ATOM     35  O   UNL     1      49.817  30.116  11.962  1.00  0.00    -0.387 OA
ATOM     36  H   UNL     1      49.378  30.997  12.100  1.00  0.00     0.211 HD
ENDBRANCH  30  35
BRANCH  31  37
ATOM     37  C   UNL     1      52.642  27.760  15.279  1.00  0.00     0.191 C 
BRANCH  37  38
ATOM     38  O   UNL     1      52.943  26.497  14.749  1.00  0.00    -0.394 OA
ATOM     39  H   UNL     1      52.092  25.988  14.725  1.00  0.00     0.210 HD
ENDBRANCH  37  38
ENDBRANCH  31  37
BRANCH  32  40
ATOM     40  O   UNL     1      51.835  28.308  12.527  1.00  0.00    -0.387 OA
ATOM     41  H   UNL     1      52.290  27.531  12.945  1.00  0.00     0.211 HD
ENDBRANCH  32  40
ENDBRANCH   1  27
TORSDOF 12
ENDMDL
MODEL 2
REMARK VINA RESULT:    -5.449      1.675      4.828
REMARK INTER + INTRA:         -10.063
REMARK INTER:                  -8.078
REMARK INTRA:                  -1.985
REMARK UNBOUND:                -2.065
REMARK SMILES O=c1c(O[C@@H]2O[C@@H](CO)[C@@H](O)[C@@H](O)[C@@H]2O)c(-c2ccc(O)c(O)c2)oc2cc(O)cc(O)c12
REMARK SMILES IDX 4 1 3 2 16 3 25 4 2 5 26 6 1 7 33 8 27 9 31 10 28 11 30 12
REMARK SMILES IDX 17 13 18 14 19 15 20 16 24 17 22 18 21 19 23 21 32 23 29 25
REMARK SMILES IDX 5 27 14 28 6 29 12 30 7 31 10 32 15 33 13 35 8 37 9 38 11 40
REMARK H PARENT 21 20 23 22 32 24 29 26 15 34 13 36 9 39 11 41
REMARK Flexibility Score: inf
ROOT
ATOM      1  O   UNL     1      49.718  27.457  17.072  1.00  0.00    -0.454 OA
ENDROOT
BRANCH   1   2
ATOM      2  C   UNL     1      48.339  27.457  16.823  1.00  0.00     0.214 A 
ATOM      3  C   UNL     1      47.774  28.192  15.762  1.00  0.00     0.180 A 
ATOM      4  O   UNL     1      46.454  28.254  15.637  1.00  0.00    -0.452 OA
ATOM      5  C   UNL     1      47.496  26.720  17.662  1.00  0.00     0.239 A 
ATOM      6  C   UNL     1      45.613  27.600  16.430  1.00  0.00     0.146 A 
ATOM      7  O   UNL     1      48.013  26.078  18.614  1.00  0.00    -0.285 OA
ATOM      8  C   UNL     1      46.095  26.751  17.461  1.00  0.00     0.111 A 
ATOM      9  C   UNL     1      44.240  27.763  16.227  1.00  0.00     0.094 A 
ATOM     10  C   UNL     1      45.147  26.030  18.247  1.00  0.00     0.134 A 
ATOM     11  C   UNL     1      43.323  27.102  17.039  1.00  0.00     0.123 A 
ATOM     12  C   UNL     1      43.778  26.242  18.044  1.00  0.00     0.093 A 
BRANCH   3  13
ATOM     13  C   UNL     1      48.602  28.904  14.764  1.00  0.00     0.025 A 
ATOM     14  C   UNL     1      49.347  28.169  13.829  1.00  0.00     0.016 A 
ATOM     15  C   UNL     1      50.134  28.827  12.880  1.00  0.00     0.051 A 
ATOM     16  C   UNL     1      50.200  30.227  12.863  1.00  0.00     0.157 A 
ATOM     17  C   UNL     1      48.691  30.307  14.761  1.00  0.00     0.062 A 
ATOM     18  C   UNL     1      49.478  30.969  13.812  1.00  0.00     0.158 A 
BRANCH  16  19
ATOM     19  O   UNL     1      50.981  30.880  11.910  1.00  0.00    -0.504 OA
ATOM     20  H   UNL     1      51.194  31.867  11.986  1.00  0.00     0.293 HD
ENDBRANCH  16  19
BRANCH  18  21
ATOM     21  O   UNL     1      49.532  32.363  13.829  1.00  0.00    -0.504 OA
ATOM     22  H   UNL     1      50.385  32.871  13.628  1.00  0.00     0.293 HD
ENDBRANCH  18  21
ENDBRANCH   3  13
BRANCH  10  23
ATOM     23  O   UNL     1      45.496  25.084  19.215  1.00  0.00    -0.507 OA
ATOM     24  H   UNL     1      45.940  25.297  20.094  1.00  0.00     0.293 HD
ENDBRANCH  10  23
BRANCH  11  25
ATOM     25  O   UNL     1      41.959  27.297  16.836  1.00  0.00    -0.508 OA
ATOM     26  H   UNL     1      41.351  27.611  17.582  1.00  0.00     0.293 HD
ENDBRANCH  11  25
ENDBRANCH   1   2
BRANCH   1  27
ATOM     27  C   UNL     1      50.336  28.299  18.053  1.00  0.00     0.339 C 
ATOM     28  C   UNL     1      51.343  27.500  18.909  1.00  0.00     0.214 C 
ATOM     29  O   UNL     1      50.960  29.416  17.435  1.00  0.00    -0.332 OA
ATOM     30  C   UNL     1      52.551  27.081  18.055  1.00  0.00     0.180 C 
ATOM     31  C   UNL     1      51.991  29.012  16.547  1.00  0.00     0.179 C 
ATOM     32  C   UNL     1      53.127  28.304  17.320  1.00  0.00     0.177 C 
BRANCH  28  33
ATOM     33  O   UNL     1      50.727  26.359  19.447  1.00  0.00    -0.384 OA
ATOM     34  H   UNL     1      50.611  26.527  20.419  1.00  0.00     0.211 HD
ENDBRANCH  28  33
BRANCH  30  35
ATOM     35  O   UNL     1      53.543  26.507  18.866  1.00  0.00    -0.387 OA
ATOM     36  H   UNL     1      53.914  25.732  18.366  1.00  0.00     0.211 HD
ENDBRANCH  30  35
BRANCH  31  37
ATOM     37  C   UNL     1      52.502  30.254  15.799  1.00  0.00     0.191 C 
BRANCH  37  38
ATOM     38  O   UNL     1      52.402  31.401  16.600  1.00  0.00    -0.394 OA
ATOM     39  H   UNL     1      52.235  31.087  17.527  1.00  0.00     0.210 HD
ENDBRANCH  37  38
ENDBRANCH  31  37
BRANCH  32  40
ATOM     40  O   UNL     1      53.706  29.198  18.240  1.00  0.00    -0.387 OA
ATOM     41  H   UNL     1      53.171  29.140  19.075  1.00  0.00     0.211 HD
ENDBRANCH  32  40
ENDBRANCH   1  27
TORSDOF 12
ENDMDL
MODEL 3
REMARK VINA RESULT:    -5.337      3.155      6.473
REMARK INTER + INTRA:          -9.898
REMARK INTER:                  -8.118
REMARK INTRA:                  -1.780
REMARK UNBOUND:                -2.065
REMARK SMILES O=c1c(O[C@@H]2O[C@@H](CO)[C@@H](O)[C@@H](O)[C@@H]2O)c(-c2ccc(O)c(O)c2)oc2cc(O)cc(O)c12
REMARK SMILES IDX 4 1 3 2 16 3 25 4 2 5 26 6 1 7 33 8 27 9 31 10 28 11 30 12
REMARK SMILES IDX 17 13 18 14 19 15 20 16 24 17 22 18 21 19 23 21 32 23 29 25
REMARK SMILES IDX 5 27 14 28 6 29 12 30 7 31 10 32 15 33 13 35 8 37 9 38 11 40
REMARK H PARENT 21 20 23 22 32 24 29 26 15 34 13 36 9 39 11 41
REMARK Flexibility Score: inf
ROOT
ATOM      1  O   UNL     1      47.721  24.829  20.496  1.00  0.00    -0.454 OA
ENDROOT
BRANCH   1   2
ATOM      2  C   UNL     1      47.148  25.547  19.437  1.00  0.00     0.214 A 
ATOM      3  C   UNL     1      47.912  26.400  18.616  1.00  0.00     0.180 A 
ATOM      4  O   UNL     1      47.304  27.145  17.701  1.00  0.00    -0.452 OA
ATOM      5  C   UNL     1      45.774  25.425  19.199  1.00  0.00     0.239 A 
ATOM      6  C   UNL     1      45.999  27.090  17.463  1.00  0.00     0.146 A 
ATOM      7  O   UNL     1      45.102  24.669  19.949  1.00  0.00    -0.285 OA
ATOM      8  C   UNL     1      45.166  26.183  18.170  1.00  0.00     0.111 A 
ATOM      9  C   UNL     1      45.460  27.945  16.497  1.00  0.00     0.094 A 
ATOM     10  C   UNL     1      43.781  26.128  17.833  1.00  0.00     0.134 A 
ATOM     11  C   UNL     1      44.096  27.925  16.220  1.00  0.00     0.123 A 
ATOM     12  C   UNL     1      43.264  27.021  16.887  1.00  0.00     0.093 A 
BRANCH   3  13
ATOM     13  C   UNL     1      49.383  26.497  18.729  1.00  0.00     0.025 A 
ATOM     14  C   UNL     1      50.186  25.444  18.265  1.00  0.00     0.016 A 
ATOM     15  C   UNL     1      51.578  25.520  18.364  1.00  0.00     0.051 A 
ATOM     16  C   UNL     1      52.185  26.644  18.943  1.00  0.00     0.157 A 
ATOM     17  C   UNL     1      49.994  27.611  19.332  1.00  0.00     0.062 A 
ATOM     18  C   UNL     1      51.388  27.691  19.433  1.00  0.00     0.158 A 
BRANCH  16  19
ATOM     19  O   UNL     1      53.574  26.720  19.034  1.00  0.00    -0.504 OA
ATOM     20  H   UNL     1      54.176  26.158  18.445  1.00  0.00     0.293 HD
ENDBRANCH  16  19
BRANCH  18  21
ATOM     21  O   UNL     1      51.960  28.817  20.024  1.00  0.00    -0.504 OA
ATOM     22  H   UNL     1      51.688  29.138  20.946  1.00  0.00     0.293 HD
ENDBRANCH  18  21
ENDBRANCH   3  13
BRANCH  10  23
ATOM     23  O   UNL     1      42.882  25.205  18.377  1.00  0.00    -0.507 OA
ATOM     24  H   UNL     1      42.347  24.540  17.842  1.00  0.00     0.293 HD
ENDBRANCH  10  23
BRANCH  11  25
ATOM     25  O   UNL     1      43.575  28.802  15.270  1.00  0.00    -0.508 OA
ATOM     26  H   UNL     1      43.739  28.669  14.279  1.00  0.00     0.293 HD
ENDBRANCH  11  25
ENDBRANCH   1   2
BRANCH   1  27
ATOM     27  C   UNL     1      48.104  25.437  21.737  1.00  0.00     0.339 C 
ATOM     28  C   UNL     1      47.301  24.840  22.912  1.00  0.00     0.214 C 
ATOM     29  O   UNL     1      49.502  25.305  21.950  1.00  0.00    -0.332 OA
ATOM     30  C   UNL     1      47.709  23.376  23.146  1.00  0.00     0.180 C 
ATOM     31  C   UNL     1      49.891  23.942  22.035  1.00  0.00     0.179 C 
ATOM     32  C   UNL     1      49.239  23.267  23.264  1.00  0.00     0.177 C 
BRANCH  28  33
ATOM     33  O   UNL     1      45.924  24.909  22.647  1.00  0.00    -0.384 OA
ATOM     34  H   UNL     1      45.474  25.095  23.513  1.00  0.00     0.211 HD
ENDBRANCH  28  33
BRANCH  30  35
ATOM     35  O   UNL     1      47.109  22.886  24.318  1.00  0.00    -0.387 OA
ATOM     36  H   UNL     1      47.746  23.056  25.062  1.00  0.00     0.211 HD
ENDBRANCH  30  35
BRANCH  31  37
ATOM     37  C   UNL     1      51.425  23.878  22.099  1.00  0.00     0.191 C 
BRANCH  37  38
ATOM     38  O   UNL     1      51.852  22.785  22.868  1.00  0.00    -0.394 OA
ATOM     39  H   UNL     1      52.822  22.917  23.035  1.00  0.00     0.210 HD
ENDBRANCH  37  38
ENDBRANCH  31  37
BRANCH  32  40
ATOM     40  O   UNL     1      49.684  23.895  24.442  1.00  0.00    -0.387 OA
ATOM     41  H   UNL     1      49.052  24.636  24.632  1.00  0.00     0.211 HD
ENDBRANCH  32  40
ENDBRANCH   1  27
TORSDOF 12
ENDMDL
MODEL 4
REMARK VINA RESULT:    -5.256      2.419      5.976
REMARK INTER + INTRA:          -9.779
REMARK INTER:                  -8.699
REMARK INTRA:                  -1.080
REMARK UNBOUND:                -2.065
REMARK SMILES O=c1c(O[C@@H]2O[C@@H](CO)[C@@H](O)[C@@H](O)[C@@H]2O)c(-c2ccc(O)c(O)c2)oc2cc(O)cc(O)c12
REMARK SMILES IDX 4 1 3 2 16 3 25 4 2 5 26 6 1 7 33 8 27 9 31 10 28 11 30 12
REMARK SMILES IDX 17 13 18 14 19 15 20 16 24 17 22 18 21 19 23 21 32 23 29 25
REMARK SMILES IDX 5 27 14 28 6 29 12 30 7 31 10 32 15 33 13 35 8 37 9 38 11 40
REMARK H PARENT 21 20 23 22 32 24 29 26 15 34 13 36 9 39 11 41
REMARK Flexibility Score: inf
ROOT
ATOM      1  O   UNL     1      47.978  26.073  16.388  1.00  0.00    -0.454 OA
ENDROOT
BRANCH   1   2
ATOM      2  C   UNL     1      47.949  25.784  17.759  1.00  0.00     0.214 A 
ATOM      3  C   UNL     1      46.763  25.869  18.514  1.00  0.00     0.180 A 
ATOM      4  O   UNL     1      46.809  25.697  19.829  1.00  0.00    -0.452 OA
ATOM      5  C   UNL     1      49.137  25.414  18.401  1.00  0.00     0.239 A 
ATOM      6  C   UNL     1      47.919  25.381  20.486  1.00  0.00     0.146 A 
ATOM      7  O   UNL     1      50.192  25.354  17.716  1.00  0.00    -0.285 OA
ATOM      8  C   UNL     1      49.141  25.171  19.795  1.00  0.00     0.111 A 
ATOM      9  C   UNL     1      47.858  25.256  21.877  1.00  0.00     0.094 A 
ATOM     10  C   UNL     1      50.288  24.778  20.546  1.00  0.00     0.134 A 
ATOM     11  C   UNL     1      48.999  24.931  22.607  1.00  0.00     0.123 A 
ATOM     12  C   UNL     1      50.206  24.696  21.942  1.00  0.00     0.093 A 
BRANCH   3  13
ATOM     13  C   UNL     1      45.449  26.141  17.892  1.00  0.00     0.025 A 
ATOM     14  C   UNL     1      44.474  25.132  17.860  1.00  0.00     0.016 A 
ATOM     15  C   UNL     1      43.227  25.373  17.276  1.00  0.00     0.051 A 
ATOM     16  C   UNL     1      42.944  26.621  16.703  1.00  0.00     0.157 A 
ATOM     17  C   UNL     1      45.171  27.382  17.293  1.00  0.00     0.062 A 
ATOM     18  C   UNL     1      43.923  27.628  16.708  1.00  0.00     0.158 A 
BRANCH  16  19
ATOM     19  O   UNL     1      41.697  26.861  16.127  1.00  0.00    -0.504 OA
ATOM     20  H   UNL     1      41.479  27.744  15.682  1.00  0.00     0.293 HD
ENDBRANCH  16  19
BRANCH  18  21
ATOM     21  O   UNL     1      43.677  28.876  16.136  1.00  0.00    -0.504 OA
ATOM     22  H   UNL     1      42.745  29.174  15.877  1.00  0.00     0.293 HD
ENDBRANCH  18  21
ENDBRANCH   3  13
BRANCH  10  23
ATOM     23  O   UNL     1      51.517  24.437  19.973  1.00  0.00    -0.507 OA
ATOM     24  H   UNL     1      52.337  24.164  20.491  1.00  0.00     0.293 HD
ENDBRANCH  10  23
BRANCH  11  25
ATOM     25  O   UNL     1      48.922  24.835  23.995  1.00  0.00    -0.508 OA
ATOM     26  H   UNL     1      49.642  25.221  24.594  1.00  0.00     0.293 HD
ENDBRANCH  11  25
ENDBRANCH   1   2
BRANCH   1  27
ATOM     27  C   UNL     1      48.966  26.922  15.788  1.00  0.00     0.339 C 
ATOM     28  C   UNL     1      49.408  26.366  14.417  1.00  0.00     0.214 C 
ATOM     29  O   UNL     1      48.482  28.252  15.672  1.00  0.00    -0.332 OA
ATOM     30  C   UNL     1      48.256  26.469  13.405  1.00  0.00     0.180 C 
ATOM     31  C   UNL     1      47.336  28.319  14.837  1.00  0.00     0.179 C 
ATOM     32  C   UNL     1      47.692  27.900  13.391  1.00  0.00     0.177 C 
BRANCH  28  33
ATOM     33  O   UNL     1      49.809  25.026  14.541  1.00  0.00    -0.384 OA
ATOM     34  H   UNL     1      50.377  24.971  15.353  1.00  0.00     0.211 HD
ENDBRANCH  28  33
BRANCH  30  35
ATOM     35  O   UNL     1      48.706  26.127  12.119  1.00  0.00    -0.387 OA
ATOM     36  H   UNL     1      48.018  25.530  11.721  1.00  0.00     0.211 HD
ENDBRANCH  30  35
BRANCH  31  37
ATOM     37  C   UNL     1      46.777  29.749  14.892  1.00  0.00     0.191 C 
BRANCH  37  38
ATOM     38  O   UNL     1      45.540  29.834  14.236  1.00  0.00    -0.394 OA
ATOM     39  H   UNL     1      44.859  30.009  14.936  1.00  0.00     0.210 HD
ENDBRANCH  37  38
ENDBRANCH  31  37
BRANCH  32  40
ATOM     40  O   UNL     1      48.640  28.794  12.858  1.00  0.00    -0.387 OA
ATOM     41  H   UNL     1      49.475  28.675  13.382  1.00  0.00     0.211 HD
ENDBRANCH  32  40
ENDBRANCH   1  27
TORSDOF 12
ENDMDL
MODEL 5
REMARK VINA RESULT:    -5.231      3.469      7.303
REMARK INTER + INTRA:          -9.742
REMARK INTER:                  -7.694
REMARK INTRA:                  -2.049
REMARK UNBOUND:                -2.065
REMARK SMILES O=c1c(O[C@@H]2O[C@@H](CO)[C@@H](O)[C@@H](O)[C@@H]2O)c(-c2ccc(O)c(O)c2)oc2cc(O)cc(O)c12
REMARK SMILES IDX 4 1 3 2 16 3 25 4 2 5 26 6 1 7 33 8 27 9 31 10 28 11 30 12
REMARK SMILES IDX 17 13 18 14 19 15 20 16 24 17 22 18 21 19 23 21 32 23 29 25
REMARK SMILES IDX 5 27 14 28 6 29 12 30 7 31 10 32 15 33 13 35 8 37 9 38 11 40
REMARK H PARENT 21 20 23 22 32 24 29 26 15 34 13 36 9 39 11 41
REMARK Flexibility Score: inf
ROOT
ATOM      1  O   UNL     1      45.228  24.258  19.770  1.00  0.00    -0.454 OA
ENDROOT
BRANCH   1   2
ATOM      2  C   UNL     1      45.483  25.179  18.746  1.00  0.00     0.214 A 
ATOM      3  C   UNL     1      46.793  25.466  18.311  1.00  0.00     0.180 A 
ATOM      4  O   UNL     1      46.991  26.429  17.420  1.00  0.00    -0.452 OA
ATOM      5  C   UNL     1      44.408  25.847  18.148  1.00  0.00     0.239 A 
ATOM      6  C   UNL     1      46.005  27.113  16.851  1.00  0.00     0.146 A 
ATOM      7  O   UNL     1      43.245  25.590  18.555  1.00  0.00    -0.285 OA
ATOM      8  C   UNL     1      44.648  26.821  17.150  1.00  0.00     0.111 A 
ATOM      9  C   UNL     1      46.331  28.129  15.948  1.00  0.00     0.094 A 
ATOM     10  C   UNL     1      43.629  27.551  16.468  1.00  0.00     0.134 A 
ATOM     11  C   UNL     1      45.329  28.876  15.334  1.00  0.00     0.123 A 
ATOM     12  C   UNL     1      43.987  28.586  15.596  1.00  0.00     0.093 A 
BRANCH   3  13
ATOM     13  C   UNL     1      47.971  24.724  18.810  1.00  0.00     0.025 A 
ATOM     14  C   UNL     1      48.224  23.426  18.342  1.00  0.00     0.016 A 
ATOM     15  C   UNL     1      49.333  22.713  18.803  1.00  0.00     0.051 A 
ATOM     16  C   UNL     1      50.196  23.281  19.750  1.00  0.00     0.157 A 
ATOM     17  C   UNL     1      48.824  25.282  19.779  1.00  0.00     0.062 A 
ATOM     18  C   UNL     1      49.936  24.570  20.243  1.00  0.00     0.158 A 
BRANCH  16  19
ATOM     19  O   UNL     1      51.306  22.569  20.203  1.00  0.00    -0.504 OA
ATOM     20  H   UNL     1      51.358  21.561  20.124  1.00  0.00     0.293 HD
ENDBRANCH  16  19
BRANCH  18  21
ATOM     21  O   UNL     1      50.768  25.160  21.194  1.00  0.00    -0.504 OA
ATOM     22  H   UNL     1      51.121  24.646  21.993  1.00  0.00     0.293 HD
ENDBRANCH  18  21
ENDBRANCH   3  13
BRANCH  10  23
ATOM     23  O   UNL     1      42.262  27.284  16.592  1.00  0.00    -0.507 OA
ATOM     24  H   UNL     1      41.526  27.915  16.318  1.00  0.00     0.293 HD
ENDBRANCH  10  23
BRANCH  11  25
ATOM     25  O   UNL     1      45.677  29.900  14.455  1.00  0.00    -0.508 OA
ATOM     26  H   UNL     1      45.385  29.887  13.485  1.00  0.00     0.293 HD
ENDBRANCH  11  25
ENDBRANCH   1   2
BRANCH   1  27
ATOM     27  C   UNL     1      45.281  24.599  21.162  1.00  0.00     0.339 C 
ATOM     28  C   UNL     1      43.998  24.143  21.889  1.00  0.00     0.214 C 
ATOM     29  O   UNL     1      46.441  24.048  21.770  1.00  0.00    -0.332 OA
ATOM     30  C   UNL     1      43.939  22.607  21.950  1.00  0.00     0.180 C 
ATOM     31  C   UNL     1      46.440  22.630  21.705  1.00  0.00     0.179 C 
ATOM     32  C   UNL     1      45.257  22.050  22.514  1.00  0.00     0.177 C 
BRANCH  28  33
ATOM     33  O   UNL     1      42.861  24.633  21.227  1.00  0.00    -0.384 OA
ATOM     34  H   UNL     1      42.232  23.870  21.136  1.00  0.00     0.211 HD
ENDBRANCH  28  33
BRANCH  30  35
ATOM     35  O   UNL     1      42.867  22.194  22.758  1.00  0.00    -0.387 OA
ATOM     36  H   UNL     1      42.882  22.764  23.571  1.00  0.00     0.211 HD
ENDBRANCH  30  35
BRANCH  31  37
ATOM     37  C   UNL     1      47.791  22.120  22.230  1.00  0.00     0.191 C 
BRANCH  37  38
ATOM     38  O   UNL     1      48.362  23.036  23.127  1.00  0.00    -0.394 OA
ATOM     39  H   UNL     1      49.249  22.670  23.381  1.00  0.00     0.210 HD
ENDBRANCH  37  38
ENDBRANCH  31  37
BRANCH  32  40
ATOM     40  O   UNL     1      45.393  22.399  23.871  1.00  0.00    -0.387 OA
ATOM     41  H   UNL     1      44.796  23.175  24.031  1.00  0.00     0.211 HD
ENDBRANCH  32  40
ENDBRANCH   1  27
TORSDOF 12
ENDMDL
MODEL 6
REMARK VINA RESULT:    -5.178      2.192      5.352
REMARK INTER + INTRA:          -9.665
REMARK INTER:                  -8.037
REMARK INTRA:                  -1.628
REMARK UNBOUND:                -2.065
REMARK SMILES O=c1c(O[C@@H]2O[C@@H](CO)[C@@H](O)[C@@H](O)[C@@H]2O)c(-c2ccc(O)c(O)c2)oc2cc(O)cc(O)c12
REMARK SMILES IDX 4 1 3 2 16 3 25 4 2 5 26 6 1 7 33 8 27 9 31 10 28 11 30 12
REMARK SMILES IDX 17 13 18 14 19 15 20 16 24 17 22 18 21 19 23 21 32 23 29 25
REMARK SMILES IDX 5 27 14 28 6 29 12 30 7 31 10 32 15 33 13 35 8 37 9 38 11 40
REMARK H PARENT 21 20 23 22 32 24 29 26 15 34 13 36 9 39 11 41
REMARK Flexibility Score: inf
ROOT
ATOM      1  O   UNL     1      49.282  26.274  18.552  1.00  0.00    -0.454 OA
ENDROOT
BRANCH   1   2
ATOM      2  C   UNL     1      48.010  25.787  18.884  1.00  0.00     0.214 A 
ATOM      3  C   UNL     1      46.884  26.035  18.075  1.00  0.00     0.180 A 
ATOM      4  O   UNL     1      45.682  25.653  18.489  1.00  0.00    -0.452 OA
ATOM      5  C   UNL     1      47.851  25.048  20.062  1.00  0.00     0.239 A 
ATOM      6  C   UNL     1      45.478  24.980  19.616  1.00  0.00     0.146 A 
ATOM      7  O   UNL     1      48.864  24.845  20.781  1.00  0.00    -0.285 OA
ATOM      8  C   UNL     1      46.565  24.595  20.443  1.00  0.00     0.111 A 
ATOM      9  C   UNL     1      44.166  24.656  19.971  1.00  0.00     0.094 A 
ATOM     10  C   UNL     1      46.292  23.825  21.613  1.00  0.00     0.134 A 
ATOM     11  C   UNL     1      43.905  23.957  21.147  1.00  0.00     0.123 A 
ATOM     12  C   UNL     1      44.964  23.547  21.961  1.00  0.00     0.093 A 
BRANCH   3  13
ATOM     13  C   UNL     1      46.987  26.708  16.762  1.00  0.00     0.025 A 
ATOM     14  C   UNL     1      47.870  26.209  15.793  1.00  0.00     0.016 A 
ATOM     15  C   UNL     1      47.978  26.833  14.547  1.00  0.00     0.051 A 
ATOM     16  C   UNL     1      47.216  27.974  14.259  1.00  0.00     0.157 A 
ATOM     17  C   UNL     1      46.243  27.868  16.479  1.00  0.00     0.062 A 
ATOM     18  C   UNL     1      46.348  28.495  15.233  1.00  0.00     0.158 A 
BRANCH  16  19
ATOM     19  O   UNL     1      47.322  28.591  13.013  1.00  0.00    -0.504 OA
ATOM     20  H   UNL     1      47.645  28.086  12.197  1.00  0.00     0.293 HD
ENDBRANCH  16  19
BRANCH  18  21
ATOM     21  O   UNL     1      45.585  29.635  14.982  1.00  0.00    -0.504 OA
ATOM     22  H   UNL     1      44.623  29.717  15.290  1.00  0.00     0.293 HD
ENDBRANCH  18  21
ENDBRANCH   3  13
BRANCH  10  23
ATOM     23  O   UNL     1      47.280  23.294  22.446  1.00  0.00    -0.507 OA
ATOM     24  H   UNL     1      47.876  22.517  22.208  1.00  0.00     0.293 HD
ENDBRANCH  10  23
BRANCH  11  25
ATOM     25  O   UNL     1      42.587  23.665  21.494  1.00  0.00    -0.508 OA
ATOM     26  H   UNL     1      41.831  24.310  21.298  1.00  0.00     0.293 HD
ENDBRANCH  11  25
ENDBRANCH   1   2
BRANCH   1  27
ATOM     27  C   UNL     1      49.847  27.454  19.139  1.00  0.00     0.339 C 
ATOM     28  C   UNL     1      51.271  27.178  19.668  1.00  0.00     0.214 C 
ATOM     29  O   UNL     1      49.842  28.529  18.211  1.00  0.00    -0.332 OA
ATOM     30  C   UNL     1      52.233  26.925  18.496  1.00  0.00     0.180 C 
ATOM     31  C   UNL     1      50.631  28.233  17.068  1.00  0.00     0.179 C 
ATOM     32  C   UNL     1      52.116  28.059  17.464  1.00  0.00     0.177 C 
BRANCH  28  33
ATOM     33  O   UNL     1      51.266  26.063  20.523  1.00  0.00    -0.384 OA
ATOM     34  H   UNL     1      52.203  25.740  20.577  1.00  0.00     0.211 HD
ENDBRANCH  28  33
BRANCH  30  35
ATOM     35  O   UNL     1      53.556  26.845  18.962  1.00  0.00    -0.387 OA
ATOM     36  H   UNL     1      53.570  27.259  19.865  1.00  0.00     0.211 HD
ENDBRANCH  30  35
BRANCH  31  37
ATOM     37  C   UNL     1      50.445  29.364  16.045  1.00  0.00     0.191 C 
BRANCH  37  38
ATOM     38  O   UNL     1      50.276  30.601  16.685  1.00  0.00    -0.394 OA
ATOM     39  H   UNL     1      50.536  31.299  16.029  1.00  0.00     0.210 HD
ENDBRANCH  37  38
ENDBRANCH  31  37
BRANCH  32  40
ATOM     40  O   UNL     1      52.609  29.262  18.002  1.00  0.00    -0.387 OA
ATOM     41  H   UNL     1      52.793  29.095  18.963  1.00  0.00     0.211 HD
ENDBRANCH  32  40
ENDBRANCH   1  27
TORSDOF 12
ENDMDL
MODEL 7
REMARK VINA RESULT:    -5.072      2.227      3.591
REMARK INTER + INTRA:          -9.510
REMARK INTER:                  -8.207
REMARK INTRA:                  -1.303
REMARK UNBOUND:                -2.065
REMARK SMILES O=c1c(O[C@@H]2O[C@@H](CO)[C@@H](O)[C@@H](O)[C@@H]2O)c(-c2ccc(O)c(O)c2)oc2cc(O)cc(O)c12
REMARK SMILES IDX 4 1 3 2 16 3 25 4 2 5 26 6 1 7 33 8 27 9 31 10 28 11 30 12
REMARK SMILES IDX 17 13 18 14 19 15 20 16 24 17 22 18 21 19 23 21 32 23 29 25
REMARK SMILES IDX 5 27 14 28 6 29 12 30 7 31 10 32 15 33 13 35 8 37 9 38 11 40
REMARK H PARENT 21 20 23 22 32 24 29 26 15 34 13 36 9 39 11 41
REMARK Flexibility Score: inf
ROOT
ATOM      1  O   UNL     1      49.905  27.174  16.852  1.00  0.00    -0.454 OA
ENDROOT
BRANCH   1   2
ATOM      2  C   UNL     1      48.518  27.182  17.048  1.00  0.00     0.214 A 
ATOM      3  C   UNL     1      47.911  26.485  18.111  1.00  0.00     0.180 A 
ATOM      4  O   UNL     1      46.587  26.428  18.187  1.00  0.00    -0.452 OA
ATOM      5  C   UNL     1      47.709  27.889  16.150  1.00  0.00     0.239 A 
ATOM      6  C   UNL     1      45.779  27.053  17.338  1.00  0.00     0.146 A 
ATOM      7  O   UNL     1      48.264  28.496  15.197  1.00  0.00    -0.285 OA
ATOM      8  C   UNL     1      46.301  27.865  16.297  1.00  0.00     0.111 A 
ATOM      9  C   UNL     1      44.399  26.897  17.493  1.00  0.00     0.094 A 
ATOM     10  C   UNL     1      45.386  28.557  15.450  1.00  0.00     0.134 A 
ATOM     11  C   UNL     1      43.515  27.529  16.623  1.00  0.00     0.123 A 
ATOM     12  C   UNL     1      44.010  28.353  15.607  1.00  0.00     0.093 A 
BRANCH   3  13
ATOM     13  C   UNL     1      48.699  25.810  19.165  1.00  0.00     0.025 A 
ATOM     14  C   UNL     1      49.226  24.532  18.927  1.00  0.00     0.016 A 
ATOM     15  C   UNL     1      49.973  23.881  19.913  1.00  0.00     0.051 A 
ATOM     16  C   UNL     1      50.191  24.494  21.155  1.00  0.00     0.157 A 
ATOM     17  C   UNL     1      48.898  26.411  20.421  1.00  0.00     0.062 A 
ATOM     18  C   UNL     1      49.646  25.762  21.410  1.00  0.00     0.158 A 
BRANCH  16  19
ATOM     19  O   UNL     1      50.943  23.845  22.133  1.00  0.00    -0.504 OA
ATOM     20  H   UNL     1      51.715  24.304  22.601  1.00  0.00     0.293 HD
ENDBRANCH  16  19
BRANCH  18  21
ATOM     21  O   UNL     1      49.835  26.394  22.640  1.00  0.00    -0.504 OA
ATOM     22  H   UNL     1      49.760  27.399  22.745  1.00  0.00     0.293 HD
ENDBRANCH  18  21
ENDBRANCH   3  13
BRANCH  10  23
ATOM     23  O   UNL     1      45.773  29.468  14.463  1.00  0.00    -0.507 OA
ATOM     24  H   UNL     1      46.268  30.329  14.637  1.00  0.00     0.293 HD
ENDBRANCH  10  23
BRANCH  11  25
ATOM     25  O   UNL     1      42.143  27.341  16.780  1.00  0.00    -0.508 OA
ATOM     26  H   UNL     1      41.704  27.378  17.692  1.00  0.00     0.293 HD
ENDBRANCH  11  25
ENDBRANCH   1   2
BRANCH   1  27
ATOM     27  C   UNL     1      50.819  27.892  17.692  1.00  0.00     0.339 C 
ATOM     28  C   UNL     1      52.262  27.379  17.500  1.00  0.00     0.214 C 
ATOM     29  O   UNL     1      50.732  29.289  17.450  1.00  0.00    -0.332 OA
ATOM     30  C   UNL     1      52.775  27.749  16.098  1.00  0.00     0.180 C 
ATOM     31  C   UNL     1      51.083  29.608  16.112  1.00  0.00     0.179 C 
ATOM     32  C   UNL     1      52.563  29.251  15.838  1.00  0.00     0.177 C 
BRANCH  28  33
ATOM     33  O   UNL     1      52.311  25.986  17.667  1.00  0.00    -0.384 OA
ATOM     34  H   UNL     1      51.891  25.789  18.545  1.00  0.00     0.211 HD
ENDBRANCH  28  33
BRANCH  30  35
ATOM     35  O   UNL     1      54.140  27.439  15.982  1.00  0.00    -0.387 OA
ATOM     36  H   UNL     1      54.287  27.122  15.052  1.00  0.00     0.211 HD
ENDBRANCH  30  35
BRANCH  31  37
ATOM     37  C   UNL     1      50.809  31.103  15.881  1.00  0.00     0.191 C 
BRANCH  37  38
ATOM     38  O   UNL     1      49.430  31.361  15.837  1.00  0.00    -0.394 OA
ATOM     39  H   UNL     1      49.316  32.214  15.343  1.00  0.00     0.210 HD
ENDBRANCH  37  38
ENDBRANCH  31  37
BRANCH  32  40
ATOM     40  O   UNL     1      53.398  30.014  16.675  1.00  0.00    -0.387 OA
ATOM     41  H   UNL     1      54.084  29.396  17.040  1.00  0.00     0.211 HD
ENDBRANCH  32  40
ENDBRANCH   1  27
TORSDOF 12
ENDMDL
MODEL 8
REMARK VINA RESULT:    -4.991      1.491      2.488
REMARK INTER + INTRA:          -9.391
REMARK INTER:                  -8.186
REMARK INTRA:                  -1.205
REMARK UNBOUND:                -2.065
REMARK SMILES O=c1c(O[C@@H]2O[C@@H](CO)[C@@H](O)[C@@H](O)[C@@H]2O)c(-c2ccc(O)c(O)c2)oc2cc(O)cc(O)c12
REMARK SMILES IDX 4 1 3 2 16 3 25 4 2 5 26 6 1 7 33 8 27 9 31 10 28 11 30 12
REMARK SMILES IDX 17 13 18 14 19 15 20 16 24 17 22 18 21 19 23 21 32 23 29 25
REMARK SMILES IDX 5 27 14 28 6 29 12 30 7 31 10 32 15 33 13 35 8 37 9 38 11 40
REMARK H PARENT 21 20 23 22 32 24 29 26 15 34 13 36 9 39 11 41
REMARK Flexibility Score: inf
ROOT
ATOM      1  O   UNL     1      49.058  27.953  14.968  1.00  0.00    -0.454 OA
ENDROOT
BRANCH   1   2
ATOM      2  C   UNL     1      48.159  27.466  15.926  1.00  0.00     0.214 A 
ATOM      3  C   UNL     1      48.567  26.599  16.959  1.00  0.00     0.180 A 
ATOM      4  O   UNL     1      47.659  26.074  17.772  1.00  0.00    -0.452 OA
ATOM      5  C   UNL     1      46.811  27.838  15.846  1.00  0.00     0.239 A 
ATOM      6  C   UNL     1      46.366  26.370  17.711  1.00  0.00     0.146 A 
ATOM      7  O   UNL     1      46.458  28.603  14.910  1.00  0.00    -0.285 OA
ATOM      8  C   UNL     1      45.877  27.314  16.770  1.00  0.00     0.111 A 
ATOM      9  C   UNL     1      45.493  25.733  18.597  1.00  0.00     0.094 A 
ATOM     10  C   UNL     1      44.487  27.635  16.788  1.00  0.00     0.134 A 
ATOM     11  C   UNL     1      44.129  26.008  18.565  1.00  0.00     0.123 A 
ATOM     12  C   UNL     1      43.632  26.954  17.662  1.00  0.00     0.093 A 
BRANCH   3  13
ATOM     13  C   UNL     1      49.987  26.249  17.181  1.00  0.00     0.025 A 
ATOM     14  C   UNL     1      50.577  25.227  16.424  1.00  0.00     0.016 A 
ATOM     15  C   UNL     1      51.918  24.885  16.622  1.00  0.00     0.051 A 
ATOM     16  C   UNL     1      52.682  25.551  17.590  1.00  0.00     0.157 A 
ATOM     17  C   UNL     1      50.749  26.898  18.170  1.00  0.00     0.062 A 
ATOM     18  C   UNL     1      52.092  26.559  18.371  1.00  0.00     0.158 A 
BRANCH  16  19
ATOM     19  O   UNL     1      54.021  25.212  17.781  1.00  0.00    -0.504 OA
ATOM     20  H   UNL     1      54.309  24.253  17.933  1.00  0.00     0.293 HD
ENDBRANCH  16  19
BRANCH  18  21
ATOM     21  O   UNL     1      52.821  27.232  19.350  1.00  0.00    -0.504 OA
ATOM     22  H   UNL     1      53.821  27.379  19.271  1.00  0.00     0.293 HD
ENDBRANCH  18  21
ENDBRANCH   3  13
BRANCH  10  23
ATOM     23  O   UNL     1      43.904  28.624  15.989  1.00  0.00    -0.507 OA
ATOM     24  H   UNL     1      42.918  28.703  15.800  1.00  0.00     0.293 HD
ENDBRANCH  10  23
BRANCH  11  25
ATOM     25  O   UNL     1      43.272  25.344  19.441  1.00  0.00    -0.508 OA
ATOM     26  H   UNL     1      43.305  25.507  20.440  1.00  0.00     0.293 HD
ENDBRANCH  11  25
ENDBRANCH   1   2
BRANCH   1  27
ATOM     27  C   UNL     1      50.103  28.884  15.277  1.00  0.00     0.339 C 
ATOM     28  C   UNL     1      51.135  28.953  14.130  1.00  0.00     0.214 C 
ATOM     29  O   UNL     1      49.565  30.167  15.562  1.00  0.00    -0.332 OA
ATOM     30  C   UNL     1      50.504  29.598  12.885  1.00  0.00     0.180 C 
ATOM     31  C   UNL     1      48.870  30.701  14.445  1.00  0.00     0.179 C 
ATOM     32  C   UNL     1      49.839  30.933  13.263  1.00  0.00     0.177 C 
BRANCH  28  33
ATOM     33  O   UNL     1      51.596  27.665  13.811  1.00  0.00    -0.384 OA
ATOM     34  H   UNL     1      52.576  27.666  13.970  1.00  0.00     0.211 HD
ENDBRANCH  28  33
BRANCH  30  35
ATOM     35  O   UNL     1      51.483  29.819  11.903  1.00  0.00    -0.387 OA
ATOM     36  H   UNL     1      51.274  30.693  11.478  1.00  0.00     0.211 HD
ENDBRANCH  30  35
BRANCH  31  37
ATOM     37  C   UNL     1      48.182  32.005  14.879  1.00  0.00     0.191 C 
BRANCH  37  38
ATOM     38  O   UNL     1      47.006  31.739  15.597  1.00  0.00    -0.394 OA
ATOM     39  H   UNL     1      46.398  31.256  14.979  1.00  0.00     0.210 HD
ENDBRANCH  37  38
ENDBRANCH  31  37
BRANCH  32  40
ATOM     40  O   UNL     1      50.816  31.879  13.628  1.00  0.00    -0.387 OA
ATOM     41  H   UNL     1      51.310  31.500  14.401  1.00  0.00     0.211 HD
ENDBRANCH  32  40
ENDBRANCH   1  27
TORSDOF 12
ENDMDL
MODEL 9
REMARK VINA RESULT:    -4.761      2.120      6.490
REMARK INTER + INTRA:          -9.053
REMARK INTER:                  -7.145
REMARK INTRA:                  -1.907
REMARK UNBOUND:                -2.065
REMARK SMILES O=c1c(O[C@@H]2O[C@@H](CO)[C@@H](O)[C@@H](O)[C@@H]2O)c(-c2ccc(O)c(O)c2)oc2cc(O)cc(O)c12
REMARK SMILES IDX 4 1 3 2 16 3 25 4 2 5 26 6 1 7 33 8 27 9 31 10 28 11 30 12
REMARK SMILES IDX 17 13 18 14 19 15 20 16 24 17 22 18 21 19 23 21 32 23 29 25
REMARK SMILES IDX 5 27 14 28 6 29 12 30 7 31 10 32 15 33 13 35 8 37 9 38 11 40
REMARK H PARENT 21 20 23 22 32 24 29 26 15 34 13 36 9 39 11 41
REMARK Flexibility Score: inf
ROOT
ATOM      1  O   UNL     1      47.004  26.104  17.243  1.00  0.00    -0.454 OA
ENDROOT
BRANCH   1   2
ATOM      2  C   UNL     1      48.026  26.938  16.770  1.00  0.00     0.214 A 
ATOM      3  C   UNL     1      49.234  27.109  17.475  1.00  0.00     0.180 A 
ATOM      4  O   UNL     1      50.123  27.997  17.047  1.00  0.00    -0.452 OA
ATOM      5  C   UNL     1      47.836  27.635  15.571  1.00  0.00     0.239 A 
ATOM      6  C   UNL     1      49.970  28.707  15.935  1.00  0.00     0.146 A 
ATOM      7  O   UNL     1      46.746  27.482  14.958  1.00  0.00    -0.285 OA
ATOM      8  C   UNL     1      48.833  28.525  15.105  1.00  0.00     0.111 A 
ATOM      9  C   UNL     1      50.955  29.637  15.596  1.00  0.00     0.094 A 
ATOM     10  C   UNL     1      48.748  29.274  13.894  1.00  0.00     0.134 A 
ATOM     11  C   UNL     1      50.832  30.407  14.443  1.00  0.00     0.123 A 
ATOM     12  C   UNL     1      49.733  30.224  13.599  1.00  0.00     0.093 A 
BRANCH   3  13
ATOM     13  C   UNL     1      49.560  26.325  18.687  1.00  0.00     0.025 A 
ATOM     14  C   UNL     1      49.933  24.979  18.563  1.00  0.00     0.016 A 
ATOM     15  C   UNL     1      50.244  24.225  19.698  1.00  0.00     0.051 A 
ATOM     16  C   UNL     1      50.171  24.803  20.973  1.00  0.00     0.157 A 
ATOM     17  C   UNL     1      49.462  26.895  19.969  1.00  0.00     0.062 A 
ATOM     18  C   UNL     1      49.773  26.143  21.108  1.00  0.00     0.158 A 
BRANCH  16  19
ATOM     19  O   UNL     1      50.488  24.050  22.103  1.00  0.00    -0.504 OA
ATOM     20  H   UNL     1      50.195  24.335  23.030  1.00  0.00     0.293 HD
ENDBRANCH  16  19
BRANCH  18  21
ATOM     21  O   UNL     1      49.678  26.745  22.362  1.00  0.00    -0.504 OA
ATOM     22  H   UNL     1      49.079  27.543  22.532  1.00  0.00     0.293 HD
ENDBRANCH  18  21
ENDBRANCH   3  13
BRANCH  10  23
ATOM     23  O   UNL     1      47.738  29.106  12.941  1.00  0.00    -0.507 OA
ATOM     24  H   UNL     1      47.805  29.389  11.976  1.00  0.00     0.293 HD
ENDBRANCH  10  23
BRANCH  11  25
ATOM     25  O   UNL     1      51.815  31.347  14.136  1.00  0.00    -0.508 OA
ATOM     26  H   UNL     1      52.766  31.070  13.927  1.00  0.00     0.293 HD
ENDBRANCH  11  25
ENDBRANCH   1   2
BRANCH   1  27
ATOM     27  C   UNL     1      46.123  26.473  18.311  1.00  0.00     0.339 C 
ATOM     28  C   UNL     1      44.649  26.405  17.857  1.00  0.00     0.214 C 
ATOM     29  O   UNL     1      46.348  25.658  19.453  1.00  0.00    -0.332 OA
ATOM     30  C   UNL     1      44.237  24.945  17.608  1.00  0.00     0.180 C 
ATOM     31  C   UNL     1      46.089  24.290  19.176  1.00  0.00     0.179 C 
ATOM     32  C   UNL     1      44.597  24.079  18.828  1.00  0.00     0.177 C 
BRANCH  28  33
ATOM     33  O   UNL     1      44.465  27.154  16.684  1.00  0.00    -0.384 OA
ATOM     34  H   UNL     1      43.896  27.931  16.926  1.00  0.00     0.211 HD
ENDBRANCH  28  33
BRANCH  30  35
ATOM     35  O   UNL     1      42.856  24.864  17.363  1.00  0.00    -0.387 OA
ATOM     36  H   UNL     1      42.439  24.490  18.184  1.00  0.00     0.211 HD
ENDBRANCH  30  35
BRANCH  31  37
ATOM     37  C   UNL     1      46.510  23.460  20.398  1.00  0.00     0.191 C 
BRANCH  37  38
ATOM     38  O   UNL     1      46.477  24.233  21.568  1.00  0.00    -0.394 OA
ATOM     39  H   UNL     1      47.308  24.776  21.574  1.00  0.00     0.210 HD
ENDBRANCH  37  38
ENDBRANCH  31  37
BRANCH  32  40
ATOM     40  O   UNL     1      43.798  24.432  19.930  1.00  0.00    -0.387 OA
ATOM     41  H   UNL     1      43.045  23.786  19.961  1.00  0.00     0.211 HD
ENDBRANCH  32  40
ENDBRANCH   1  27
TORSDOF 12
ENDMDL
