MODEL 1
REMARK VINA RESULT:    -4.143      0.000      0.000
REMARK INTER + INTRA:          -5.141
REMARK INTER:                  -4.869
REMARK INTRA:                  -0.272
REMARK UNBOUND:                -0.272
REMARK SMILES O=c1c(O)c(-c2ccc(O)cc2)oc2cc(O)cc(O)c12
REMARK SMILES IDX 5 1 3 2 2 3 1 4 21 5 19 6 18 7 16 8 15 9 14 10 13 11 6 12
REMARK SMILES IDX 7 13 8 14 9 15 12 16 11 17 10 18 4 20 20 22 17 24
REMARK H PARENT 10 19 4 21 20 23 17 25
REMARK Flexibility Score: inf
ROOT
ATOM      1  C   UNL     1     -31.369 -20.696 -33.898  1.00  0.00     0.180 A 
ATOM      2  C   UNL     1     -32.473 -19.964 -34.367  1.00  0.00     0.208 A 
ATOM      3  C   UNL     1     -33.103 -20.367 -35.556  1.00  0.00     0.238 A 
ATOM      4  O   UNL     1     -34.124 -19.741 -35.941  1.00  0.00    -0.285 OA
ATOM      5  C   UNL     1     -32.610 -21.487 -36.269  1.00  0.00     0.111 A 
ATOM      6  C   UNL     1     -33.146 -21.960 -37.505  1.00  0.00     0.134 A 
ATOM      7  C   UNL     1     -32.663 -23.154 -38.055  1.00  0.00     0.093 A 
ATOM      8  C   UNL     1     -31.619 -23.857 -37.447  1.00  0.00     0.123 A 
ATOM      9  C   UNL     1     -31.051 -23.371 -36.272  1.00  0.00     0.094 A 
ATOM     10  C   UNL     1     -31.536 -22.202 -35.680  1.00  0.00     0.146 A 
ATOM     11  O   UNL     1     -30.972 -21.780 -34.555  1.00  0.00    -0.452 OA
ENDROOT
BRANCH   1  12
ATOM     12  C   UNL     1     -30.638 -20.318 -32.667  1.00  0.00     0.021 A 
ATOM     13  C   UNL     1     -29.488 -19.516 -32.764  1.00  0.00     0.016 A 
ATOM     14  C   UNL     1     -28.795 -19.130 -31.614  1.00  0.00     0.047 A 
ATOM     15  C   UNL     1     -29.251 -19.527 -30.350  1.00  0.00     0.115 A 
ATOM     16  C   UNL     1     -31.101 -20.697 -31.394  1.00  0.00     0.016 A 
ATOM     17  C   UNL     1     -30.406 -20.308 -30.245  1.00  0.00     0.047 A 
BRANCH  15  18
ATOM     18  O   UNL     1     -28.569 -19.148 -29.196  1.00  0.00    -0.508 OA
ATOM     19  H   UNL     1     -27.755 -19.658 -28.872  1.00  0.00     0.293 HD
ENDBRANCH  15  18
ENDBRANCH   1  12
BRANCH   2  20
ATOM     20  O   UNL     1     -32.956 -18.875 -33.636  1.00  0.00    -0.502 OA
ATOM     21  H   UNL     1     -32.346 -18.160 -33.260  1.00  0.00     0.293 HD
ENDBRANCH   2  20
BRANCH   6  22
ATOM     22  O   UNL     1     -34.124 -21.285 -38.241  1.00  0.00    -0.507 OA
ATOM     23  H   UNL     1     -34.025 -21.000 -39.204  1.00  0.00     0.293 HD
ENDBRANCH   6  22
BRANCH   8  24
ATOM     24  O   UNL     1     -31.135 -25.035 -38.009  1.00  0.00    -0.508 OA
ATOM     25  H   UNL     1     -30.284 -25.471 -37.675  1.00  0.00     0.293 HD
ENDBRANCH   8  24
TORSDOF 5
ENDMDL
MODEL 2
REMARK VINA RESULT:    -3.964      0.120      1.062
REMARK INTER + INTRA:          -4.931
REMARK INTER:                  -4.680
REMARK INTRA:                  -0.251
REMARK UNBOUND:                -0.272
REMARK SMILES O=c1c(O)c(-c2ccc(O)cc2)oc2cc(O)cc(O)c12
REMARK SMILES IDX 5 1 3 2 2 3 1 4 21 5 19 6 18 7 16 8 15 9 14 10 13 11 6 12
REMARK SMILES IDX 7 13 8 14 9 15 12 16 11 17 10 18 4 20 20 22 17 24
REMARK H PARENT 10 19 4 21 20 23 17 25
REMARK Flexibility Score: inf
ROOT
ATOM      1  C   UNL     1     -31.344 -20.680 -33.813  1.00  0.00     0.180 A 
ATOM      2  C   UNL     1     -32.460 -19.965 -34.280  1.00  0.00     0.208 A 
ATOM      3  C   UNL     1     -33.094 -20.385 -35.460  1.00  0.00     0.238 A 
ATOM      4  O   UNL     1     -34.125 -19.774 -35.843  1.00  0.00    -0.285 OA
ATOM      5  C   UNL     1     -32.594 -21.505 -36.168  1.00  0.00     0.111 A 
ATOM      6  C   UNL     1     -33.133 -21.995 -37.396  1.00  0.00     0.134 A 
ATOM      7  C   UNL     1     -32.641 -23.188 -37.939  1.00  0.00     0.093 A 
ATOM      8  C   UNL     1     -31.585 -23.874 -37.333  1.00  0.00     0.123 A 
ATOM      9  C   UNL     1     -31.013 -23.372 -36.166  1.00  0.00     0.094 A 
ATOM     10  C   UNL     1     -31.507 -22.204 -35.581  1.00  0.00     0.146 A 
ATOM     11  O   UNL     1     -30.939 -21.765 -34.464  1.00  0.00    -0.452 OA
ENDROOT
BRANCH   1  12
ATOM     12  C   UNL     1     -30.607 -20.283 -32.591  1.00  0.00     0.021 A 
ATOM     13  C   UNL     1     -31.118 -20.636 -31.330  1.00  0.00     0.016 A 
ATOM     14  C   UNL     1     -30.428 -20.290 -30.165  1.00  0.00     0.047 A 
ATOM     15  C   UNL     1     -29.211 -19.602 -30.245  1.00  0.00     0.115 A 
ATOM     16  C   UNL     1     -29.375 -19.610 -32.664  1.00  0.00     0.016 A 
ATOM     17  C   UNL     1     -28.686 -19.267 -31.497  1.00  0.00     0.047 A 
BRANCH  15  18
ATOM     18  O   UNL     1     -28.514 -19.251 -29.091  1.00  0.00    -0.508 OA
ATOM     19  H   UNL     1     -27.847 -19.883 -28.664  1.00  0.00     0.293 HD
ENDBRANCH  15  18
ENDBRANCH   1  12
BRANCH   2  20
ATOM     20  O   UNL     1     -32.950 -18.875 -33.554  1.00  0.00    -0.502 OA
ATOM     21  H   UNL     1     -33.614 -18.218 -33.944  1.00  0.00     0.293 HD
ENDBRANCH   2  20
BRANCH   6  22
ATOM     22  O   UNL     1     -34.125 -21.338 -38.130  1.00  0.00    -0.507 OA
ATOM     23  H   UNL     1     -34.067 -21.129 -39.116  1.00  0.00     0.293 HD
ENDBRANCH   6  22
BRANCH   8  24
ATOM     24  O   UNL     1     -31.091 -25.052 -37.889  1.00  0.00    -0.508 OA
ATOM     25  H   UNL     1     -31.395 -25.376 -38.799  1.00  0.00     0.293 HD
ENDBRANCH   8  24
TORSDOF 5
ENDMDL
MODEL 3
REMARK VINA RESULT:    -2.142      1.159      1.600
REMARK INTER + INTRA:          -2.789
REMARK INTER:                  -2.955
REMARK INTRA:                   0.167
REMARK UNBOUND:                -0.272
REMARK SMILES O=c1c(O)c(-c2ccc(O)cc2)oc2cc(O)cc(O)c12
REMARK SMILES IDX 5 1 3 2 2 3 1 4 21 5 19 6 18 7 16 8 15 9 14 10 13 11 6 12
REMARK SMILES IDX 7 13 8 14 9 15 12 16 11 17 10 18 4 20 20 22 17 24
REMARK H PARENT 10 19 4 21 20 23 17 25
REMARK Flexibility Score: inf
ROOT
ATOM      1  C   UNL     1     -32.049 -21.140 -33.831  1.00  0.00     0.180 A 
ATOM      2  C   UNL     1     -32.868 -20.079 -34.255  1.00  0.00     0.208 A 
ATOM      3  C   UNL     1     -33.347 -20.075 -35.576  1.00  0.00     0.238 A 
ATOM      4  O   UNL     1     -34.124 -19.152 -35.933  1.00  0.00    -0.285 OA
ATOM      5  C   UNL     1     -32.987 -21.121 -36.459  1.00  0.00     0.111 A 
ATOM      6  C   UNL     1     -33.383 -21.198 -37.829  1.00  0.00     0.134 A 
ATOM      7  C   UNL     1     -33.077 -22.344 -38.572  1.00  0.00     0.093 A 
ATOM      8  C   UNL     1     -32.335 -23.388 -38.015  1.00  0.00     0.123 A 
ATOM      9  C   UNL     1     -31.894 -23.297 -36.697  1.00  0.00     0.094 A 
ATOM     10  C   UNL     1     -32.214 -22.182 -35.919  1.00  0.00     0.146 A 
ATOM     11  O   UNL     1     -31.783 -22.140 -34.664  1.00  0.00    -0.452 OA
ENDROOT
BRANCH   1  12
ATOM     12  C   UNL     1     -31.485 -21.201 -32.463  1.00  0.00     0.021 A 
ATOM     13  C   UNL     1     -31.345 -22.447 -31.828  1.00  0.00     0.016 A 
ATOM     14  C   UNL     1     -30.796 -22.530 -30.545  1.00  0.00     0.047 A 
ATOM     15  C   UNL     1     -30.363 -21.371 -29.888  1.00  0.00     0.115 A 
ATOM     16  C   UNL     1     -31.030 -20.044 -31.805  1.00  0.00     0.016 A 
ATOM     17  C   UNL     1     -30.479 -20.131 -30.523  1.00  0.00     0.047 A 
BRANCH  15  18
ATOM     18  O   UNL     1     -29.814 -21.441 -28.610  1.00  0.00    -0.508 OA
ATOM     19  H   UNL     1     -28.845 -21.199 -28.437  1.00  0.00     0.293 HD
ENDBRANCH  15  18
ENDBRANCH   1  12
BRANCH   2  20
ATOM     20  O   UNL     1     -33.228 -19.068 -33.361  1.00  0.00    -0.502 OA
ATOM     21  H   UNL     1     -34.066 -19.117 -32.793  1.00  0.00     0.293 HD
ENDBRANCH   2  20
BRANCH   6  22
ATOM     22  O   UNL     1     -34.046 -20.171 -38.508  1.00  0.00    -0.507 OA
ATOM     23  H   UNL     1     -33.804 -19.193 -38.449  1.00  0.00     0.293 HD
ENDBRANCH   6  22
BRANCH   8  24
ATOM     24  O   UNL     1     -32.023 -24.518 -38.768  1.00  0.00    -0.508 OA
ATOM     25  H   UNL     1     -31.202 -24.550 -39.360  1.00  0.00     0.293 HD
ENDBRANCH   8  24
TORSDOF 5
ENDMDL
MODEL 4
REMARK VINA RESULT:    -2.063      1.744      7.144
REMARK INTER + INTRA:          -2.697
REMARK INTER:                  -2.986
REMARK INTRA:                   0.289
REMARK UNBOUND:                -0.272
REMARK SMILES O=c1c(O)c(-c2ccc(O)cc2)oc2cc(O)cc(O)c12
REMARK SMILES IDX 5 1 3 2 2 3 1 4 21 5 19 6 18 7 16 8 15 9 14 10 13 11 6 12
REMARK SMILES IDX 7 13 8 14 9 15 12 16 11 17 10 18 4 20 20 22 17 24
REMARK H PARENT 10 19 4 21 20 23 17 25
REMARK Flexibility Score: inf
ROOT
ATOM      1  C   UNL     1     -31.496 -20.625 -33.838  1.00  0.00     0.180 A 
ATOM      2  C   UNL     1     -30.095 -20.564 -33.737  1.00  0.00     0.208 A 
ATOM      3  C   UNL     1     -29.518 -20.109 -32.541  1.00  0.00     0.238 A 
ATOM      4  O   UNL     1     -28.264 -20.109 -32.437  1.00  0.00    -0.285 OA
ATOM      5  C   UNL     1     -30.348 -19.706 -31.467  1.00  0.00     0.111 A 
ATOM      6  C   UNL     1     -29.872 -19.191 -30.223  1.00  0.00     0.134 A 
ATOM      7  C   UNL     1     -30.778 -18.947 -29.184  1.00  0.00     0.093 A 
ATOM      8  C   UNL     1     -32.150 -19.136 -29.366  1.00  0.00     0.123 A 
ATOM      9  C   UNL     1     -32.630 -19.582 -30.596  1.00  0.00     0.094 A 
ATOM     10  C   UNL     1     -31.747 -19.869 -31.639  1.00  0.00     0.146 A 
ATOM     11  O   UNL     1     -32.246 -20.301 -32.791  1.00  0.00    -0.452 OA
ENDROOT
BRANCH   1  12
ATOM     12  C   UNL     1     -32.179 -21.069 -35.075  1.00  0.00     0.021 A 
ATOM     13  C   UNL     1     -33.404 -20.484 -35.437  1.00  0.00     0.016 A 
ATOM     14  C   UNL     1     -34.055 -20.873 -36.612  1.00  0.00     0.047 A 
ATOM     15  C   UNL     1     -33.481 -21.839 -37.447  1.00  0.00     0.115 A 
ATOM     16  C   UNL     1     -31.599 -22.024 -35.930  1.00  0.00     0.016 A 
ATOM     17  C   UNL     1     -32.251 -22.410 -37.104  1.00  0.00     0.047 A 
BRANCH  15  18
ATOM     18  O   UNL     1     -34.119 -22.236 -38.621  1.00  0.00    -0.508 OA
ATOM     19  H   UNL     1     -34.953 -21.765 -38.953  1.00  0.00     0.293 HD
ENDBRANCH  15  18
ENDBRANCH   1  12
BRANCH   2  20
ATOM     20  O   UNL     1     -29.295 -20.988 -34.802  1.00  0.00    -0.502 OA
ATOM     21  H   UNL     1     -28.908 -20.343 -35.481  1.00  0.00     0.293 HD
ENDBRANCH   2  20
BRANCH   6  22
ATOM     22  O   UNL     1     -28.532 -18.879 -29.969  1.00  0.00    -0.507 OA
ATOM     23  H   UNL     1     -28.215 -18.040 -29.506  1.00  0.00     0.293 HD
ENDBRANCH   6  22
BRANCH   8  24
ATOM     24  O   UNL     1     -33.046 -18.875 -28.332  1.00  0.00    -0.508 OA
ATOM     25  H   UNL     1     -33.616 -18.038 -28.323  1.00  0.00     0.293 HD
ENDBRANCH   8  24
TORSDOF 5
ENDMDL
MODEL 5
REMARK VINA RESULT:    -1.977      1.707      6.969
REMARK INTER + INTRA:          -2.595
REMARK INTER:                  -2.485
REMARK INTRA:                  -0.111
REMARK UNBOUND:                -0.272
REMARK SMILES O=c1c(O)c(-c2ccc(O)cc2)oc2cc(O)cc(O)c12
REMARK SMILES IDX 5 1 3 2 2 3 1 4 21 5 19 6 18 7 16 8 15 9 14 10 13 11 6 12
REMARK SMILES IDX 7 13 8 14 9 15 12 16 11 17 10 18 4 20 20 22 17 24
REMARK H PARENT 10 19 4 21 20 23 17 25
REMARK Flexibility Score: inf
ROOT
ATOM      1  C   UNL     1     -30.849 -21.016 -33.792  1.00  0.00     0.180 A 
ATOM      2  C   UNL     1     -29.717 -20.190 -33.913  1.00  0.00     0.208 A 
ATOM      3  C   UNL     1     -29.039 -19.789 -32.751  1.00  0.00     0.238 A 
ATOM      4  O   UNL     1     -27.996 -19.096 -32.868  1.00  0.00    -0.285 OA
ATOM      5  C   UNL     1     -29.510 -20.206 -31.482  1.00  0.00     0.111 A 
ATOM      6  C   UNL     1     -28.925 -19.828 -30.236  1.00  0.00     0.134 A 
ATOM      7  C   UNL     1     -29.394 -20.404 -29.049  1.00  0.00     0.093 A 
ATOM      8  C   UNL     1     -30.470 -21.295 -29.057  1.00  0.00     0.123 A 
ATOM      9  C   UNL     1     -31.086 -21.625 -30.262  1.00  0.00     0.094 A 
ATOM     10  C   UNL     1     -30.617 -21.094 -31.466  1.00  0.00     0.146 A 
ATOM     11  O   UNL     1     -31.226 -21.442 -32.593  1.00  0.00    -0.452 OA
ENDROOT
BRANCH   1  12
ATOM     12  C   UNL     1     -31.631 -21.458 -34.969  1.00  0.00     0.021 A 
ATOM     13  C   UNL     1     -32.954 -21.013 -35.128  1.00  0.00     0.016 A 
ATOM     14  C   UNL     1     -33.703 -21.402 -36.243  1.00  0.00     0.047 A 
ATOM     15  C   UNL     1     -33.133 -22.227 -37.221  1.00  0.00     0.115 A 
ATOM     16  C   UNL     1     -31.060 -22.271 -35.966  1.00  0.00     0.016 A 
ATOM     17  C   UNL     1     -31.810 -22.656 -37.080  1.00  0.00     0.047 A 
BRANCH  15  18
ATOM     18  O   UNL     1     -33.870 -22.621 -38.336  1.00  0.00    -0.508 OA
ATOM     19  H   UNL     1     -34.851 -22.384 -38.433  1.00  0.00     0.293 HD
ENDBRANCH  15  18
ENDBRANCH   1  12
BRANCH   2  20
ATOM     20  O   UNL     1     -29.258 -19.809 -35.177  1.00  0.00    -0.502 OA
ATOM     21  H   UNL     1     -28.444 -20.230 -35.609  1.00  0.00     0.293 HD
ENDBRANCH   2  20
BRANCH   6  22
ATOM     22  O   UNL     1     -27.908 -18.876 -30.108  1.00  0.00    -0.507 OA
ATOM     23  H   UNL     1     -26.920 -19.082 -30.148  1.00  0.00     0.293 HD
ENDBRANCH   6  22
BRANCH   8  24
ATOM     24  O   UNL     1     -30.940 -21.851 -27.870  1.00  0.00    -0.508 OA
ATOM     25  H   UNL     1     -31.917 -22.091 -27.747  1.00  0.00     0.293 HD
ENDBRANCH   8  24
TORSDOF 5
ENDMDL
