MODEL 1
REMARK VINA RESULT:    -4.641      0.000      0.000
REMARK INTER + INTRA:         -11.008
REMARK INTER:                  -8.982
REMARK INTRA:                  -2.026
REMARK UNBOUND:                -2.026
REMARK SMILES CCCCCCCCCCCCCCCCCC(=O)[O-]
REMARK SMILES IDX 10 1 11 2 12 3 13 4 14 5 15 6 16 7 17 8 18 9 19 10 20 11
REMARK SMILES IDX 9 12 8 13 7 14 6 15 5 16 4 17 3 18 2 19 1 20
REMARK H PARENT
REMARK Flexibility Score: inf
ROOT
ATOM      1  C   UNL     1     125.971 144.558 138.151  1.00  0.00     0.000 C 
ENDROOT
BRANCH   1   2
ATOM      2  C   UNL     1     126.147 144.547 139.681  1.00  0.00     0.000 C 
BRANCH   2   3
ATOM      3  C   UNL     1     126.492 143.174 140.287  1.00  0.00     0.000 C 
BRANCH   3   4
ATOM      4  C   UNL     1     127.966 143.042 140.727  1.00  0.00     0.000 C 
BRANCH   4   5
ATOM      5  C   UNL     1     128.535 141.639 140.454  1.00  0.00     0.000 C 
BRANCH   5   6
ATOM      6  C   UNL     1     129.112 141.498 139.036  1.00  0.00     0.000 C 
BRANCH   6   7
ATOM      7  C   UNL     1     130.649 141.531 139.014  1.00  0.00     0.006 C 
BRANCH   7   8
ATOM      8  C   UNL     1     131.246 140.269 138.377  1.00  0.00     0.053 C 
BRANCH   8   9
ATOM      9  C   UNL     1     132.279 139.634 139.258  1.00  0.00     0.041 C 
ATOM     10  O   UNL     1     132.746 140.265 140.242  1.00  0.00    -0.550 OA
ATOM     11  O   UNL     1     132.753 138.360 138.970  1.00  0.00    -0.550 OA
ENDBRANCH   8   9
ENDBRANCH   7   8
ENDBRANCH   6   7
ENDBRANCH   5   6
ENDBRANCH   4   5
ENDBRANCH   3   4
ENDBRANCH   2   3
ENDBRANCH   1   2
BRANCH   1  12
ATOM     12  C   UNL     1     126.368 143.249 137.442  1.00  0.00     0.000 C 
BRANCH  12  13
ATOM     13  C   UNL     1     125.700 143.086 136.068  1.00  0.00    -0.000 C 
BRANCH  13  14
ATOM     14  C   UNL     1     125.219 141.647 135.806  1.00  0.00    -0.000 C 
BRANCH  14  15
ATOM     15  C   UNL     1     125.583 140.632 136.908  1.00  0.00    -0.000 C 
BRANCH  15  16
ATOM     16  C   UNL     1     125.338 139.154 136.547  1.00  0.00    -0.000 C 
BRANCH  16  17
ATOM     17  C   UNL     1     126.598 138.357 136.166  1.00  0.00    -0.000 C 
BRANCH  17  18
ATOM     18  C   UNL     1     127.867 138.881 136.857  1.00  0.00    -0.000 C 
BRANCH  18  19
ATOM     19  C   UNL     1     128.453 137.870 137.855  1.00  0.00    -0.003 C 
ATOM     20  C   UNL     1     127.800 137.955 139.236  1.00  0.00     0.004 C 
ENDBRANCH  18  19
ENDBRANCH  17  18
ENDBRANCH  16  17
ENDBRANCH  15  16
ENDBRANCH  14  15
ENDBRANCH  13  14
ENDBRANCH  12  13
ENDBRANCH   1  12
TORSDOF 16
ENDMDL
MODEL 2
REMARK VINA RESULT:    -4.576      3.163      5.340
REMARK INTER + INTRA:         -10.882
REMARK INTER:                  -8.268
REMARK INTRA:                  -2.614
REMARK UNBOUND:                -2.026
REMARK SMILES CCCCCCCCCCCCCCCCCC(=O)[O-]
REMARK SMILES IDX 10 1 11 2 12 3 13 4 14 5 15 6 16 7 17 8 18 9 19 10 20 11
REMARK SMILES IDX 9 12 8 13 7 14 6 15 5 16 4 17 3 18 2 19 1 20
REMARK H PARENT
REMARK Flexibility Score: inf
ROOT
ATOM      1  C   UNL     1     131.873 140.522 139.660  1.00  0.00     0.000 C 
ENDROOT
BRANCH   1   2
ATOM      2  C   UNL     1     131.633 141.392 140.909  1.00  0.00     0.000 C 
BRANCH   2   3
ATOM      3  C   UNL     1     130.254 141.216 141.571  1.00  0.00     0.000 C 
BRANCH   3   4
ATOM      4  C   UNL     1     129.328 142.441 141.412  1.00  0.00     0.000 C 
BRANCH   4   5
ATOM      5  C   UNL     1     127.840 142.051 141.385  1.00  0.00     0.000 C 
BRANCH   5   6
ATOM      6  C   UNL     1     127.023 142.897 140.395  1.00  0.00     0.000 C 
BRANCH   6   7
ATOM      7  C   UNL     1     127.439 142.666 138.932  1.00  0.00     0.006 C 
BRANCH   7   8
ATOM      8  C   UNL     1     126.465 143.320 137.943  1.00  0.00     0.053 C 
BRANCH   8   9
ATOM      9  C   UNL     1     126.037 142.366 136.870  1.00  0.00     0.041 C 
ATOM     10  O   UNL     1     125.651 142.801 135.754  1.00  0.00    -0.550 OA
ATOM     11  O   UNL     1     126.029 140.999 137.115  1.00  0.00    -0.550 OA
ENDBRANCH   8   9
ENDBRANCH   7   8
ENDBRANCH   6   7
ENDBRANCH   5   6
ENDBRANCH   4   5
ENDBRANCH   3   4
ENDBRANCH   2   3
ENDBRANCH   1   2
BRANCH   1  12
ATOM     12  C   UNL     1     130.953 140.835 138.465  1.00  0.00     0.000 C 
BRANCH  12  13
ATOM     13  C   UNL     1     130.584 139.585 137.650  1.00  0.00    -0.000 C 
BRANCH  13  14
ATOM     14  C   UNL     1     129.075 139.285 137.668  1.00  0.00    -0.000 C 
BRANCH  14  15
ATOM     15  C   UNL     1     128.459 139.148 139.074  1.00  0.00    -0.000 C 
BRANCH  15  16
ATOM     16  C   UNL     1     128.468 137.722 139.660  1.00  0.00    -0.000 C 
BRANCH  16  17
ATOM     17  C   UNL     1     129.527 137.471 140.749  1.00  0.00    -0.000 C 
BRANCH  17  18
ATOM     18  C   UNL     1     130.893 137.066 140.172  1.00  0.00    -0.000 C 
BRANCH  18  19
ATOM     19  C   UNL     1     130.838 135.730 139.415  1.00  0.00    -0.003 C 
ATOM     20  C   UNL     1     131.675 135.740 138.135  1.00  0.00     0.004 C 
ENDBRANCH  18  19
ENDBRANCH  17  18
ENDBRANCH  16  17
ENDBRANCH  15  16
ENDBRANCH  14  15
ENDBRANCH  13  14
ENDBRANCH  12  13
ENDBRANCH   1  12
TORSDOF 16
ENDMDL
MODEL 3
REMARK VINA RESULT:    -4.515      1.458      2.908
REMARK INTER + INTRA:         -10.764
REMARK INTER:                  -8.924
REMARK INTRA:                  -1.840
REMARK UNBOUND:                -2.026
REMARK SMILES CCCCCCCCCCCCCCCCCC(=O)[O-]
REMARK SMILES IDX 10 1 11 2 12 3 13 4 14 5 15 6 16 7 17 8 18 9 19 10 20 11
REMARK SMILES IDX 9 12 8 13 7 14 6 15 5 16 4 17 3 18 2 19 1 20
REMARK H PARENT
REMARK Flexibility Score: inf
ROOT
ATOM      1  C   UNL     1     127.232 142.694 140.056  1.00  0.00     0.000 C 
ENDROOT
BRANCH   1   2
ATOM      2  C   UNL     1     128.440 142.755 141.010  1.00  0.00     0.000 C 
BRANCH   2   3
ATOM      3  C   UNL     1     129.617 141.837 140.630  1.00  0.00     0.000 C 
BRANCH   3   4
ATOM      4  C   UNL     1     129.751 141.596 139.112  1.00  0.00     0.000 C 
BRANCH   4   5
ATOM      5  C   UNL     1     131.139 141.055 138.725  1.00  0.00     0.000 C 
BRANCH   5   6
ATOM      6  C   UNL     1     131.700 140.069 139.762  1.00  0.00     0.000 C 
BRANCH   6   7
ATOM      7  C   UNL     1     132.602 138.994 139.131  1.00  0.00     0.006 C 
BRANCH   7   8
ATOM      8  C   UNL     1     131.925 138.293 137.945  1.00  0.00     0.053 C 
BRANCH   8   9
ATOM      9  C   UNL     1     131.515 136.893 138.285  1.00  0.00     0.041 C 
ATOM     10  O   UNL     1     132.112 135.914 137.764  1.00  0.00    -0.550 OA
ATOM     11  O   UNL     1     130.449 136.669 139.147  1.00  0.00    -0.550 OA
ENDBRANCH   8   9
ENDBRANCH   7   8
ENDBRANCH   6   7
ENDBRANCH   5   6
ENDBRANCH   4   5
ENDBRANCH   3   4
ENDBRANCH   2   3
ENDBRANCH   1   2
BRANCH   1  12
ATOM     12  C   UNL     1     126.553 144.048 139.781  1.00  0.00     0.000 C 
BRANCH  12  13
ATOM     13  C   UNL     1     126.136 144.222 138.312  1.00  0.00    -0.000 C 
BRANCH  13  14
ATOM     14  C   UNL     1     126.458 142.989 137.450  1.00  0.00    -0.000 C 
BRANCH  14  15
ATOM     15  C   UNL     1     125.805 142.985 136.054  1.00  0.00    -0.000 C 
BRANCH  15  16
ATOM     16  C   UNL     1     125.012 141.710 135.703  1.00  0.00    -0.000 C 
BRANCH  16  17
ATOM     17  C   UNL     1     125.065 140.596 136.763  1.00  0.00    -0.000 C 
BRANCH  17  18
ATOM     18  C   UNL     1     126.109 139.514 136.440  1.00  0.00    -0.000 C 
BRANCH  18  19
ATOM     19  C   UNL     1     127.157 139.358 137.553  1.00  0.00    -0.003 C 
ATOM     20  C   UNL     1     128.481 138.786 137.045  1.00  0.00     0.004 C 
ENDBRANCH  18  19
ENDBRANCH  17  18
ENDBRANCH  16  17
ENDBRANCH  15  16
ENDBRANCH  14  15
ENDBRANCH  13  14
ENDBRANCH  12  13
ENDBRANCH   1  12
TORSDOF 16
ENDMDL
MODEL 4
REMARK VINA RESULT:    -4.446      2.385      5.814
REMARK INTER + INTRA:         -10.630
REMARK INTER:                  -8.479
REMARK INTRA:                  -2.152
REMARK UNBOUND:                -2.026
REMARK SMILES CCCCCCCCCCCCCCCCCC(=O)[O-]
REMARK SMILES IDX 10 1 11 2 12 3 13 4 14 5 15 6 16 7 17 8 18 9 19 10 20 11
REMARK SMILES IDX 9 12 8 13 7 14 6 15 5 16 4 17 3 18 2 19 1 20
REMARK H PARENT
REMARK Flexibility Score: inf
ROOT
ATOM      1  C   UNL     1     130.851 140.435 138.414  1.00  0.00     0.000 C 
ENDROOT
BRANCH   1   2
ATOM      2  C   UNL     1     129.331 140.235 138.263  1.00  0.00     0.000 C 
BRANCH   2   3
ATOM      3  C   UNL     1     128.776 138.951 138.905  1.00  0.00     0.000 C 
BRANCH   3   4
ATOM      4  C   UNL     1     129.142 137.664 138.136  1.00  0.00     0.000 C 
BRANCH   4   5
ATOM      5  C   UNL     1     129.982 136.694 138.984  1.00  0.00     0.000 C 
BRANCH   5   6
ATOM      6  C   UNL     1     131.414 136.526 138.450  1.00  0.00     0.000 C 
BRANCH   6   7
ATOM      7  C   UNL     1     132.456 137.270 139.302  1.00  0.00     0.006 C 
BRANCH   7   8
ATOM      8  C   UNL     1     133.594 137.849 138.451  1.00  0.00     0.053 C 
BRANCH   8   9
ATOM      9  C   UNL     1     134.512 138.714 139.260  1.00  0.00     0.041 C 
ATOM     10  O   UNL     1     135.506 139.264 138.718  1.00  0.00    -0.550 OA
ATOM     11  O   UNL     1     134.291 138.881 140.622  1.00  0.00    -0.550 OA
ENDBRANCH   8   9
ENDBRANCH   7   8
ENDBRANCH   6   7
ENDBRANCH   5   6
ENDBRANCH   4   5
ENDBRANCH   3   4
ENDBRANCH   2   3
ENDBRANCH   1   2
BRANCH   1  12
ATOM     12  C   UNL     1     131.275 141.311 139.608  1.00  0.00     0.000 C 
BRANCH  12  13
ATOM     13  C   UNL     1     131.252 140.552 140.945  1.00  0.00    -0.000 C 
BRANCH  13  14
ATOM     14  C   UNL     1     130.142 141.044 141.891  1.00  0.00    -0.000 C 
BRANCH  14  15
ATOM     15  C   UNL     1     129.449 142.349 141.452  1.00  0.00    -0.000 C 
BRANCH  15  16
ATOM     16  C   UNL     1     127.966 142.204 141.054  1.00  0.00    -0.000 C 
BRANCH  16  17
ATOM     17  C   UNL     1     127.528 143.054 139.848  1.00  0.00    -0.000 C 
BRANCH  17  18
ATOM     18  C   UNL     1     126.104 143.613 139.997  1.00  0.00    -0.000 C 
BRANCH  18  19
ATOM     19  C   UNL     1     126.064 145.147 139.925  1.00  0.00    -0.003 C 
ATOM     20  C   UNL     1     125.984 145.671 138.491  1.00  0.00     0.004 C 
ENDBRANCH  18  19
ENDBRANCH  17  18
ENDBRANCH  16  17
ENDBRANCH  15  16
ENDBRANCH  14  15
ENDBRANCH  13  14
ENDBRANCH  12  13
ENDBRANCH   1  12
TORSDOF 16
ENDMDL
MODEL 5
REMARK VINA RESULT:    -4.443      2.187      5.144
REMARK INTER + INTRA:         -10.624
REMARK INTER:                  -8.477
REMARK INTRA:                  -2.148
REMARK UNBOUND:                -2.026
REMARK SMILES CCCCCCCCCCCCCCCCCC(=O)[O-]
REMARK SMILES IDX 10 1 11 2 12 3 13 4 14 5 15 6 16 7 17 8 18 9 19 10 20 11
REMARK SMILES IDX 9 12 8 13 7 14 6 15 5 16 4 17 3 18 2 19 1 20
REMARK H PARENT
REMARK Flexibility Score: inf
ROOT
ATOM      1  C   UNL     1     129.258 138.702 139.581  1.00  0.00     0.000 C 
ENDROOT
BRANCH   1   2
ATOM      2  C   UNL     1     129.454 139.752 138.470  1.00  0.00     0.000 C 
BRANCH   2   3
ATOM      3  C   UNL     1     130.902 140.241 138.284  1.00  0.00     0.000 C 
BRANCH   3   4
ATOM      4  C   UNL     1     131.243 141.500 139.109  1.00  0.00     0.000 C 
BRANCH   4   5
ATOM      5  C   UNL     1     132.119 141.179 140.332  1.00  0.00     0.000 C 
BRANCH   5   6
ATOM      6  C   UNL     1     132.702 139.757 140.287  1.00  0.00     0.000 C 
BRANCH   6   7
ATOM      7  C   UNL     1     134.233 139.737 140.436  1.00  0.00     0.006 C 
BRANCH   7   8
ATOM      8  C   UNL     1     134.692 140.337 141.772  1.00  0.00     0.053 C 
BRANCH   8   9
ATOM      9  C   UNL     1     135.491 141.589 141.575  1.00  0.00     0.041 C 
ATOM     10  O   UNL     1     134.991 142.710 141.855  1.00  0.00    -0.550 OA
ATOM     11  O   UNL     1     136.774 141.522 141.046  1.00  0.00    -0.550 OA
ENDBRANCH   8   9
ENDBRANCH   7   8
ENDBRANCH   6   7
ENDBRANCH   5   6
ENDBRANCH   4   5
ENDBRANCH   3   4
ENDBRANCH   2   3
ENDBRANCH   1   2
BRANCH   1  12
ATOM     12  C   UNL     1     128.275 139.111 140.694  1.00  0.00     0.000 C 
BRANCH  12  13
ATOM     13  C   UNL     1     128.831 140.214 141.609  1.00  0.00    -0.000 C 
BRANCH  13  14
ATOM     14  C   UNL     1     127.905 141.440 141.696  1.00  0.00    -0.000 C 
BRANCH  14  15
ATOM     15  C   UNL     1     128.049 142.444 140.535  1.00  0.00    -0.000 C 
BRANCH  15  16
ATOM     16  C   UNL     1     126.859 143.407 140.348  1.00  0.00    -0.000 C 
BRANCH  16  17
ATOM     17  C   UNL     1     126.311 143.495 138.912  1.00  0.00    -0.000 C 
BRANCH  17  18
ATOM     18  C   UNL     1     126.961 142.478 137.961  1.00  0.00    -0.000 C 
BRANCH  18  19
ATOM     19  C   UNL     1     125.929 141.738 137.096  1.00  0.00    -0.003 C 
ATOM     20  C   UNL     1     126.221 140.242 136.975  1.00  0.00     0.004 C 
ENDBRANCH  18  19
ENDBRANCH  17  18
ENDBRANCH  16  17
ENDBRANCH  15  16
ENDBRANCH  14  15
ENDBRANCH  13  14
ENDBRANCH  12  13
ENDBRANCH   1  12
TORSDOF 16
ENDMDL
MODEL 6
REMARK VINA RESULT:    -4.410      1.828      3.411
REMARK INTER + INTRA:         -10.560
REMARK INTER:                  -8.851
REMARK INTRA:                  -1.709
REMARK UNBOUND:                -2.026
REMARK SMILES CCCCCCCCCCCCCCCCCC(=O)[O-]
REMARK SMILES IDX 10 1 11 2 12 3 13 4 14 5 15 6 16 7 17 8 18 9 19 10 20 11
REMARK SMILES IDX 9 12 8 13 7 14 6 15 5 16 4 17 3 18 2 19 1 20
REMARK H PARENT
REMARK Flexibility Score: inf
ROOT
ATOM      1  C   UNL     1     127.812 142.786 140.356  1.00  0.00     0.000 C 
ENDROOT
BRANCH   1   2
ATOM      2  C   UNL     1     127.903 141.811 141.544  1.00  0.00     0.000 C 
BRANCH   2   3
ATOM      3  C   UNL     1     129.248 141.074 141.680  1.00  0.00     0.000 C 
BRANCH   3   4
ATOM      4  C   UNL     1     130.454 141.881 141.154  1.00  0.00     0.000 C 
BRANCH   4   5
ATOM      5  C   UNL     1     131.242 141.119 140.075  1.00  0.00     0.000 C 
BRANCH   5   6
ATOM      6  C   UNL     1     130.523 141.099 138.717  1.00  0.00     0.000 C 
BRANCH   6   7
ATOM      7  C   UNL     1     130.456 139.691 138.101  1.00  0.00     0.006 C 
BRANCH   7   8
ATOM      8  C   UNL     1     129.046 139.340 137.608  1.00  0.00     0.053 C 
BRANCH   8   9
ATOM      9  C   UNL     1     128.448 138.210 138.388  1.00  0.00     0.041 C 
ATOM     10  O   UNL     1     128.283 137.085 137.848  1.00  0.00    -0.550 OA
ATOM     11  O   UNL     1     128.038 138.409 139.700  1.00  0.00    -0.550 OA
ENDBRANCH   8   9
ENDBRANCH   7   8
ENDBRANCH   6   7
ENDBRANCH   5   6
ENDBRANCH   4   5
ENDBRANCH   3   4
ENDBRANCH   2   3
ENDBRANCH   1   2
BRANCH   1  12
ATOM     12  C   UNL     1     126.486 143.564 140.254  1.00  0.00     0.000 C 
BRANCH  12  13
ATOM     13  C   UNL     1     126.189 144.059 138.830  1.00  0.00    -0.000 C 
BRANCH  13  14
ATOM     14  C   UNL     1     126.540 143.018 137.751  1.00  0.00    -0.000 C 
BRANCH  14  15
ATOM     15  C   UNL     1     125.793 143.195 136.414  1.00  0.00    -0.000 C 
BRANCH  15  16
ATOM     16  C   UNL     1     125.248 141.895 135.789  1.00  0.00    -0.000 C 
BRANCH  16  17
ATOM     17  C   UNL     1     125.572 140.609 136.571  1.00  0.00    -0.000 C 
BRANCH  17  18
ATOM     18  C   UNL     1     124.551 139.486 136.323  1.00  0.00    -0.000 C 
BRANCH  18  19
ATOM     19  C   UNL     1     125.149 138.089 136.545  1.00  0.00    -0.003 C 
ATOM     20  C   UNL     1     125.878 137.554 135.311  1.00  0.00     0.004 C 
ENDBRANCH  18  19
ENDBRANCH  17  18
ENDBRANCH  16  17
ENDBRANCH  15  16
ENDBRANCH  14  15
ENDBRANCH  13  14
ENDBRANCH  12  13
ENDBRANCH   1  12
TORSDOF 16
ENDMDL
MODEL 7
REMARK VINA RESULT:    -4.405      2.679      5.614
REMARK INTER + INTRA:         -10.551
REMARK INTER:                  -8.672
REMARK INTRA:                  -1.879
REMARK UNBOUND:                -2.026
REMARK SMILES CCCCCCCCCCCCCCCCCC(=O)[O-]
REMARK SMILES IDX 10 1 11 2 12 3 13 4 14 5 15 6 16 7 17 8 18 9 19 10 20 11
REMARK SMILES IDX 9 12 8 13 7 14 6 15 5 16 4 17 3 18 2 19 1 20
REMARK H PARENT
REMARK Flexibility Score: inf
ROOT
ATOM      1  C   UNL     1     126.118 143.099 136.878  1.00  0.00     0.000 C 
ENDROOT
BRANCH   1   2
ATOM      2  C   UNL     1     125.429 141.963 136.098  1.00  0.00     0.000 C 
BRANCH   2   3
ATOM      3  C   UNL     1     125.726 140.544 136.617  1.00  0.00     0.000 C 
BRANCH   3   4
ATOM      4  C   UNL     1     124.517 139.588 136.538  1.00  0.00     0.000 C 
BRANCH   4   5
ATOM      5  C   UNL     1     124.677 138.532 135.430  1.00  0.00     0.000 C 
BRANCH   5   6
ATOM      6  C   UNL     1     126.096 137.944 135.372  1.00  0.00     0.000 C 
BRANCH   6   7
ATOM      7  C   UNL     1     126.187 136.548 136.011  1.00  0.00     0.006 C 
BRANCH   7   8
ATOM      8  C   UNL     1     126.934 136.572 137.351  1.00  0.00     0.053 C 
BRANCH   8   9
ATOM      9  C   UNL     1     126.020 136.289 138.504  1.00  0.00     0.041 C 
ATOM     10  O   UNL     1     125.009 135.556 138.345  1.00  0.00    -0.550 OA
ATOM     11  O   UNL     1     126.263 136.866 139.744  1.00  0.00    -0.550 OA
ENDBRANCH   8   9
ENDBRANCH   7   8
ENDBRANCH   6   7
ENDBRANCH   5   6
ENDBRANCH   4   5
ENDBRANCH   3   4
ENDBRANCH   2   3
ENDBRANCH   1   2
BRANCH   1  12
ATOM     12  C   UNL     1     126.822 142.662 138.176  1.00  0.00     0.000 C 
BRANCH  12  13
ATOM     13  C   UNL     1     126.237 143.331 139.430  1.00  0.00    -0.000 C 
BRANCH  13  14
ATOM     14  C   UNL     1     127.244 143.403 140.592  1.00  0.00    -0.000 C 
BRANCH  14  15
ATOM     15  C   UNL     1     128.018 142.097 140.859  1.00  0.00    -0.000 C 
BRANCH  15  16
ATOM     16  C   UNL     1     129.493 142.280 141.272  1.00  0.00    -0.000 C 
BRANCH  16  17
ATOM     17  C   UNL     1     130.501 141.416 140.492  1.00  0.00    -0.000 C 
BRANCH  17  18
ATOM     18  C   UNL     1     130.321 141.518 138.968  1.00  0.00    -0.000 C 
BRANCH  18  19
ATOM     19  C   UNL     1     130.359 140.145 138.280  1.00  0.00    -0.003 C 
ATOM     20  C   UNL     1     128.971 139.522 138.122  1.00  0.00     0.004 C 
ENDBRANCH  18  19
ENDBRANCH  17  18
ENDBRANCH  16  17
ENDBRANCH  15  16
ENDBRANCH  14  15
ENDBRANCH  13  14
ENDBRANCH  12  13
ENDBRANCH   1  12
TORSDOF 16
ENDMDL
MODEL 8
REMARK VINA RESULT:    -4.300      6.854     10.221
REMARK INTER + INTRA:         -10.349
REMARK INTER:                  -8.775
REMARK INTRA:                  -1.574
REMARK UNBOUND:                -2.026
REMARK SMILES CCCCCCCCCCCCCCCCCC(=O)[O-]
REMARK SMILES IDX 10 1 11 2 12 3 13 4 14 5 15 6 16 7 17 8 18 9 19 10 20 11
REMARK SMILES IDX 9 12 8 13 7 14 6 15 5 16 4 17 3 18 2 19 1 20
REMARK H PARENT
REMARK Flexibility Score: inf
ROOT
ATOM      1  C   UNL     1     135.188 136.468 140.411  1.00  0.00     0.000 C 
ENDROOT
BRANCH   1   2
ATOM      2  C   UNL     1     136.615 135.904 140.269  1.00  0.00     0.000 C 
BRANCH   2   3
ATOM      3  C   UNL     1     137.561 136.742 139.390  1.00  0.00     0.000 C 
BRANCH   3   4
ATOM      4  C   UNL     1     138.872 137.145 140.098  1.00  0.00     0.000 C 
BRANCH   4   5
ATOM      5  C   UNL     1     140.100 136.431 139.508  1.00  0.00     0.000 C 
BRANCH   5   6
ATOM      6  C   UNL     1     140.538 135.216 140.341  1.00  0.00     0.000 C 
BRANCH   6   7
ATOM      7  C   UNL     1     140.770 133.960 139.484  1.00  0.00     0.006 C 
BRANCH   7   8
ATOM      8  C   UNL     1     139.558 133.018 139.496  1.00  0.00     0.053 C 
BRANCH   8   9
ATOM      9  C   UNL     1     138.628 133.293 138.354  1.00  0.00     0.041 C 
ATOM     10  O   UNL     1     137.412 132.979 138.437  1.00  0.00    -0.550 OA
ATOM     11  O   UNL     1     139.113 133.861 137.182  1.00  0.00    -0.550 OA
ENDBRANCH   8   9
ENDBRANCH   7   8
ENDBRANCH   6   7
ENDBRANCH   5   6
ENDBRANCH   4   5
ENDBRANCH   3   4
ENDBRANCH   2   3
ENDBRANCH   1   2
BRANCH   1  12
ATOM     12  C   UNL     1     134.898 137.721 139.564  1.00  0.00     0.000 C 
BRANCH  12  13
ATOM     13  C   UNL     1     133.569 138.399 139.933  1.00  0.00    -0.000 C 
BRANCH  13  14
ATOM     14  C   UNL     1     132.351 137.483 139.716  1.00  0.00    -0.000 C 
BRANCH  14  15
ATOM     15  C   UNL     1     132.034 137.165 138.241  1.00  0.00    -0.000 C 
BRANCH  15  16
ATOM     16  C   UNL     1     132.045 135.668 137.874  1.00  0.00    -0.000 C 
BRANCH  16  17
ATOM     17  C   UNL     1     131.756 134.708 139.042  1.00  0.00    -0.000 C 
BRANCH  17  18
ATOM     18  C   UNL     1     132.467 133.353 138.892  1.00  0.00    -0.000 C 
BRANCH  18  19
ATOM     19  C   UNL     1     131.777 132.235 139.689  1.00  0.00    -0.003 C 
ATOM     20  C   UNL     1     130.346 132.593 140.093  1.00  0.00     0.004 C 
ENDBRANCH  18  19
ENDBRANCH  17  18
ENDBRANCH  16  17
ENDBRANCH  15  16
ENDBRANCH  14  15
ENDBRANCH  13  14
ENDBRANCH  12  13
ENDBRANCH   1  12
TORSDOF 16
ENDMDL
MODEL 9
REMARK VINA RESULT:    -4.277      3.202      6.302
REMARK INTER + INTRA:         -10.303
REMARK INTER:                  -7.582
REMARK INTRA:                  -2.722
REMARK UNBOUND:                -2.026
REMARK SMILES CCCCCCCCCCCCCCCCCC(=O)[O-]
REMARK SMILES IDX 10 1 11 2 12 3 13 4 14 5 15 6 16 7 17 8 18 9 19 10 20 11
REMARK SMILES IDX 9 12 8 13 7 14 6 15 5 16 4 17 3 18 2 19 1 20
REMARK H PARENT
REMARK Flexibility Score: inf
ROOT
ATOM      1  C   UNL     1     130.057 138.804 138.825  1.00  0.00     0.000 C 
ENDROOT
BRANCH   1   2
ATOM      2  C   UNL     1     128.535 138.719 139.043  1.00  0.00     0.000 C 
BRANCH   2   3
ATOM      3  C   UNL     1     128.098 138.469 140.499  1.00  0.00     0.000 C 
BRANCH   3   4
ATOM      4  C   UNL     1     128.923 139.258 141.538  1.00  0.00     0.000 C 
BRANCH   4   5
ATOM      5  C   UNL     1     128.221 140.552 141.983  1.00  0.00     0.000 C 
BRANCH   5   6
ATOM      6  C   UNL     1     129.044 141.812 141.669  1.00  0.00     0.000 C 
BRANCH   6   7
ATOM      7  C   UNL     1     128.243 142.863 140.882  1.00  0.00     0.006 C 
BRANCH   7   8
ATOM      8  C   UNL     1     127.958 142.416 139.442  1.00  0.00     0.053 C 
BRANCH   8   9
ATOM      9  C   UNL     1     126.732 143.074 138.887  1.00  0.00     0.041 C 
ATOM     10  O   UNL     1     126.517 143.069 137.647  1.00  0.00    -0.550 OA
ATOM     11  O   UNL     1     125.846 143.726 139.736  1.00  0.00    -0.550 OA
ENDBRANCH   8   9
ENDBRANCH   7   8
ENDBRANCH   6   7
ENDBRANCH   5   6
ENDBRANCH   4   5
ENDBRANCH   3   4
ENDBRANCH   2   3
ENDBRANCH   1   2
BRANCH   1  12
ATOM     12  C   UNL     1     130.538 140.069 138.090  1.00  0.00     0.000 C 
BRANCH  12  13
ATOM     13  C   UNL     1     131.459 140.949 138.950  1.00  0.00    -0.000 C 
BRANCH  13  14
ATOM     14  C   UNL     1     132.238 140.143 140.005  1.00  0.00    -0.000 C 
BRANCH  14  15
ATOM     15  C   UNL     1     133.513 139.452 139.482  1.00  0.00    -0.000 C 
BRANCH  15  16
ATOM     16  C   UNL     1     133.859 138.111 140.158  1.00  0.00    -0.000 C 
BRANCH  16  17
ATOM     17  C   UNL     1     132.727 137.494 141.000  1.00  0.00    -0.000 C 
BRANCH  17  18
ATOM     18  C   UNL     1     132.186 136.184 140.404  1.00  0.00    -0.000 C 
BRANCH  18  19
ATOM     19  C   UNL     1     132.932 135.766 139.129  1.00  0.00    -0.003 C 
ATOM     20  C   UNL     1     132.024 135.720 137.899  1.00  0.00     0.004 C 
ENDBRANCH  18  19
ENDBRANCH  17  18
ENDBRANCH  16  17
ENDBRANCH  15  16
ENDBRANCH  14  15
ENDBRANCH  13  14
ENDBRANCH  12  13
ENDBRANCH   1  12
TORSDOF 16
ENDMDL
