MODEL 1
REMARK VINA RESULT:    -3.411      0.000      0.000
REMARK INTER + INTRA:          -6.860
REMARK INTER:                  -5.804
REMARK INTRA:                  -1.056
REMARK UNBOUND:                -1.056
REMARK SMILES CCCCCCCCCCCCCC(=O)[O-]
REMARK SMILES IDX 8 1 9 2 10 3 11 4 12 5 13 6 14 7 15 8 16 9 7 10 6 11 5 12
REMARK SMILES IDX 4 13 3 14 2 15 1 16
REMARK H PARENT
REMARK Flexibility Score: inf
ROOT
ATOM      1  C   UNL     1      32.261  57.237  84.810  1.00  0.00     0.000 C 
ENDROOT
BRANCH   1   2
ATOM      2  C   UNL     1      31.424  57.346  86.096  1.00  0.00     0.000 C 
BRANCH   2   3
ATOM      3  C   UNL     1      29.902  57.433  85.878  1.00  0.00     0.000 C 
BRANCH   3   4
ATOM      4  C   UNL     1      29.329  58.825  86.201  1.00  0.00     0.000 C 
BRANCH   4   5
ATOM      5  C   UNL     1      28.315  58.792  87.355  1.00  0.00     0.006 C 
BRANCH   5   6
ATOM      6  C   UNL     1      27.087  59.672  87.089  1.00  0.00     0.053 C 
BRANCH   6   7
ATOM      7  C   UNL     1      27.507  61.079  86.800  1.00  0.00     0.041 C 
ATOM      8  O   UNL     1      27.164  61.634  85.723  1.00  0.00    -0.550 OA
ATOM      9  O   UNL     1      28.234  61.795  87.743  1.00  0.00    -0.550 OA
ENDBRANCH   6   7
ENDBRANCH   5   6
ENDBRANCH   4   5
ENDBRANCH   3   4
ENDBRANCH   2   3
ENDBRANCH   1   2
BRANCH   1  10
ATOM     10  C   UNL     1      31.402  56.989  83.557  1.00  0.00     0.000 C 
BRANCH  10  11
ATOM     11  C   UNL     1      32.014  57.601  82.287  1.00  0.00    -0.000 C 
BRANCH  11  12
ATOM     12  C   UNL     1      31.101  58.660  81.645  1.00  0.00    -0.000 C 
BRANCH  12  13
ATOM     13  C   UNL     1      29.881  59.007  82.518  1.00  0.00    -0.000 C 
BRANCH  13  14
ATOM     14  C   UNL     1      28.631  59.475  81.745  1.00  0.00    -0.000 C 
BRANCH  14  15
ATOM     15  C   UNL     1      27.784  60.541  82.463  1.00  0.00    -0.003 C 
ATOM     16  C   UNL     1      27.366  61.688  81.543  1.00  0.00     0.004 C 
ENDBRANCH  14  15
ENDBRANCH  13  14
ENDBRANCH  12  13
ENDBRANCH  11  12
ENDBRANCH  10  11
ENDBRANCH   1  10
TORSDOF 12
ENDMDL
MODEL 2
REMARK VINA RESULT:    -3.377      2.905      6.255
REMARK INTER + INTRA:          -6.801
REMARK INTER:                  -5.293
REMARK INTRA:                  -1.508
REMARK UNBOUND:                -1.056
REMARK SMILES CCCCCCCCCCCCCC(=O)[O-]
REMARK SMILES IDX 8 1 9 2 10 3 11 4 12 5 13 6 14 7 15 8 16 9 7 10 6 11 5 12
REMARK SMILES IDX 4 13 3 14 2 15 1 16
REMARK H PARENT
REMARK Flexibility Score: inf
ROOT
ATOM      1  C   UNL     1      26.521  61.423  84.846  1.00  0.00     0.000 C 
ENDROOT
BRANCH   1   2
ATOM      2  C   UNL     1      27.346  61.302  83.553  1.00  0.00     0.000 C 
BRANCH   2   3
ATOM      3  C   UNL     1      27.575  59.862  83.058  1.00  0.00     0.000 C 
BRANCH   3   4
ATOM      4  C   UNL     1      29.063  59.469  83.029  1.00  0.00     0.000 C 
BRANCH   4   5
ATOM      5  C   UNL     1      29.303  58.126  82.322  1.00  0.00     0.006 C 
BRANCH   5   6
ATOM      6  C   UNL     1      30.276  58.244  81.141  1.00  0.00     0.053 C 
BRANCH   6   7
ATOM      7  C   UNL     1      31.681  58.384  81.636  1.00  0.00     0.041 C 
ATOM      8  O   UNL     1      32.163  57.531  82.428  1.00  0.00    -0.550 OA
ATOM      9  O   UNL     1      32.477  59.429  81.184  1.00  0.00    -0.550 OA
ENDBRANCH   6   7
ENDBRANCH   5   6
ENDBRANCH   4   5
ENDBRANCH   3   4
ENDBRANCH   2   3
ENDBRANCH   1   2
BRANCH   1  10
ATOM     10  C   UNL     1      26.663  60.195  85.763  1.00  0.00     0.000 C 
BRANCH  10  11
ATOM     11  C   UNL     1      27.620  60.442  86.940  1.00  0.00    -0.000 C 
BRANCH  11  12
ATOM     12  C   UNL     1      28.336  59.159  87.396  1.00  0.00    -0.000 C 
BRANCH  12  13
ATOM     13  C   UNL     1      28.201  58.006  86.384  1.00  0.00    -0.000 C 
BRANCH  13  14
ATOM     14  C   UNL     1      29.460  57.132  86.212  1.00  0.00    -0.000 C 
BRANCH  14  15
ATOM     15  C   UNL     1      30.762  57.909  85.952  1.00  0.00    -0.003 C 
ATOM     16  C   UNL     1      31.981  56.998  85.809  1.00  0.00     0.004 C 
ENDBRANCH  14  15
ENDBRANCH  13  14
ENDBRANCH  12  13
ENDBRANCH  11  12
ENDBRANCH  10  11
ENDBRANCH   1  10
TORSDOF 12
ENDMDL
MODEL 3
REMARK VINA RESULT:    -3.348      1.730      3.350
REMARK INTER + INTRA:          -6.752
REMARK INTER:                  -4.670
REMARK INTRA:                  -2.082
REMARK UNBOUND:                -1.056
REMARK SMILES CCCCCCCCCCCCCC(=O)[O-]
REMARK SMILES IDX 8 1 9 2 10 3 11 4 12 5 13 6 14 7 15 8 16 9 7 10 6 11 5 12
REMARK SMILES IDX 4 13 3 14 2 15 1 16
REMARK H PARENT
REMARK Flexibility Score: inf
ROOT
ATOM      1  C   UNL     1      28.081  57.728  82.659  1.00  0.00     0.000 C 
ENDROOT
BRANCH   1   2
ATOM      2  C   UNL     1      29.346  58.521  83.033  1.00  0.00     0.000 C 
BRANCH   2   3
ATOM      3  C   UNL     1      29.781  58.397  84.505  1.00  0.00     0.000 C 
BRANCH   3   4
ATOM      4  C   UNL     1      28.804  57.562  85.350  1.00  0.00     0.000 C 
BRANCH   4   5
ATOM      5  C   UNL     1      28.460  58.235  86.689  1.00  0.00     0.006 C 
BRANCH   5   6
ATOM      6  C   UNL     1      28.923  59.696  86.753  1.00  0.00     0.053 C 
BRANCH   6   7
ATOM      7  C   UNL     1      27.975  60.507  87.578  1.00  0.00     0.041 C 
ATOM      8  O   UNL     1      28.045  61.765  87.573  1.00  0.00    -0.550 OA
ATOM      9  O   UNL     1      26.980  59.877  88.316  1.00  0.00    -0.550 OA
ENDBRANCH   6   7
ENDBRANCH   5   6
ENDBRANCH   4   5
ENDBRANCH   3   4
ENDBRANCH   2   3
ENDBRANCH   1   2
BRANCH   1  10
ATOM     10  C   UNL     1      27.112  58.531  81.773  1.00  0.00     0.000 C 
BRANCH  10  11
ATOM     11  C   UNL     1      27.775  59.762  81.134  1.00  0.00    -0.000 C 
BRANCH  11  12
ATOM     12  C   UNL     1      27.015  61.064  81.440  1.00  0.00    -0.000 C 
BRANCH  12  13
ATOM     13  C   UNL     1      27.616  61.843  82.625  1.00  0.00    -0.000 C 
BRANCH  13  14
ATOM     14  C   UNL     1      27.163  61.368  84.021  1.00  0.00    -0.000 C 
BRANCH  14  15
ATOM     15  C   UNL     1      25.670  61.009  84.133  1.00  0.00    -0.003 C 
ATOM     16  C   UNL     1      25.416  59.792  85.022  1.00  0.00     0.004 C 
ENDBRANCH  14  15
ENDBRANCH  13  14
ENDBRANCH  12  13
ENDBRANCH  11  12
ENDBRANCH  10  11
ENDBRANCH   1  10
TORSDOF 12
ENDMDL
MODEL 4
REMARK VINA RESULT:    -3.333      6.356      9.223
REMARK INTER + INTRA:          -6.727
REMARK INTER:                  -5.640
REMARK INTRA:                  -1.087
REMARK UNBOUND:                -1.056
REMARK SMILES CCCCCCCCCCCCCC(=O)[O-]
REMARK SMILES IDX 8 1 9 2 10 3 11 4 12 5 13 6 14 7 15 8 16 9 7 10 6 11 5 12
REMARK SMILES IDX 4 13 3 14 2 15 1 16
REMARK H PARENT
REMARK Flexibility Score: inf
ROOT
ATOM      1  C   UNL     1      25.429  62.748  80.398  1.00  0.00     0.000 C 
ENDROOT
BRANCH   1   2
ATOM      2  C   UNL     1      26.778  62.107  80.768  1.00  0.00     0.000 C 
BRANCH   2   3
ATOM      3  C   UNL     1      26.895  60.605  80.449  1.00  0.00     0.000 C 
BRANCH   3   4
ATOM      4  C   UNL     1      28.237  60.234  79.794  1.00  0.00     0.000 C 
BRANCH   4   5
ATOM      5  C   UNL     1      28.485  61.000  78.484  1.00  0.00     0.006 C 
BRANCH   5   6
ATOM      6  C   UNL     1      28.010  60.227  77.247  1.00  0.00     0.053 C 
BRANCH   6   7
ATOM      7  C   UNL     1      29.013  59.184  76.867  1.00  0.00     0.041 C 
ATOM      8  O   UNL     1      28.854  57.989  77.230  1.00  0.00    -0.550 OA
ATOM      9  O   UNL     1      30.100  59.522  76.070  1.00  0.00    -0.550 OA
ENDBRANCH   6   7
ENDBRANCH   5   6
ENDBRANCH   4   5
ENDBRANCH   3   4
ENDBRANCH   2   3
ENDBRANCH   1   2
BRANCH   1  10
ATOM     10  C   UNL     1      24.740  62.048  79.213  1.00  0.00     0.000 C 
BRANCH  10  11
ATOM     11  C   UNL     1      24.534  62.982  78.010  1.00  0.00    -0.000 C 
BRANCH  11  12
ATOM     12  C   UNL     1      25.712  62.938  77.022  1.00  0.00    -0.000 C 
BRANCH  12  13
ATOM     13  C   UNL     1      25.504  63.855  75.802  1.00  0.00    -0.000 C 
BRANCH  13  14
ATOM     14  C   UNL     1      25.189  65.327  76.133  1.00  0.00    -0.000 C 
BRANCH  14  15
ATOM     15  C   UNL     1      26.219  66.347  75.613  1.00  0.00    -0.003 C 
ATOM     16  C   UNL     1      25.861  67.789  75.969  1.00  0.00     0.004 C 
ENDBRANCH  14  15
ENDBRANCH  13  14
ENDBRANCH  12  13
ENDBRANCH  11  12
ENDBRANCH  10  11
ENDBRANCH   1  10
TORSDOF 12
ENDMDL
MODEL 5
REMARK VINA RESULT:    -3.313      5.283      8.329
REMARK INTER + INTRA:          -6.692
REMARK INTER:                  -6.225
REMARK INTRA:                  -0.467
REMARK UNBOUND:                -1.056
REMARK SMILES CCCCCCCCCCCCCC(=O)[O-]
REMARK SMILES IDX 8 1 9 2 10 3 11 4 12 5 13 6 14 7 15 8 16 9 7 10 6 11 5 12
REMARK SMILES IDX 4 13 3 14 2 15 1 16
REMARK H PARENT
REMARK Flexibility Score: inf
ROOT
ATOM      1  C   UNL     1      27.256  61.415  78.453  1.00  0.00     0.000 C 
ENDROOT
BRANCH   1   2
ATOM      2  C   UNL     1      28.752  61.057  78.407  1.00  0.00     0.000 C 
BRANCH   2   3
ATOM      3  C   UNL     1      29.076  59.573  78.659  1.00  0.00     0.000 C 
BRANCH   3   4
ATOM      4  C   UNL     1      28.248  58.965  79.805  1.00  0.00     0.000 C 
BRANCH   4   5
ATOM      5  C   UNL     1      29.100  58.116  80.762  1.00  0.00     0.006 C 
BRANCH   5   6
ATOM      6  C   UNL     1      30.571  58.551  80.789  1.00  0.00     0.053 C 
BRANCH   6   7
ATOM      7  C   UNL     1      31.152  58.339  82.151  1.00  0.00     0.041 C 
ATOM      8  O   UNL     1      32.282  57.798  82.281  1.00  0.00    -0.550 OA
ATOM      9  O   UNL     1      30.470  58.786  83.276  1.00  0.00    -0.550 OA
ENDBRANCH   6   7
ENDBRANCH   5   6
ENDBRANCH   4   5
ENDBRANCH   3   4
ENDBRANCH   2   3
ENDBRANCH   1   2
BRANCH   1  10
ATOM     10  C   UNL     1      26.615  61.483  77.055  1.00  0.00     0.000 C 
BRANCH  10  11
ATOM     11  C   UNL     1      25.597  62.626  76.924  1.00  0.00    -0.000 C 
BRANCH  11  12
ATOM     12  C   UNL     1      25.961  63.614  75.803  1.00  0.00    -0.000 C 
BRANCH  12  13
ATOM     13  C   UNL     1      25.541  65.061  76.119  1.00  0.00    -0.000 C 
BRANCH  13  14
ATOM     14  C   UNL     1      26.229  66.147  75.268  1.00  0.00    -0.000 C 
BRANCH  14  15
ATOM     15  C   UNL     1      26.238  67.554  75.890  1.00  0.00    -0.003 C 
ATOM     16  C   UNL     1      24.875  67.971  76.440  1.00  0.00     0.004 C 
ENDBRANCH  14  15
ENDBRANCH  13  14
ENDBRANCH  12  13
ENDBRANCH  11  12
ENDBRANCH  10  11
ENDBRANCH   1  10
TORSDOF 12
ENDMDL
MODEL 6
REMARK VINA RESULT:    -3.263      4.260      7.264
REMARK INTER + INTRA:          -6.608
REMARK INTER:                  -5.454
REMARK INTRA:                  -1.154
REMARK UNBOUND:                -1.056
REMARK SMILES CCCCCCCCCCCCCC(=O)[O-]
REMARK SMILES IDX 8 1 9 2 10 3 11 4 12 5 13 6 14 7 15 8 16 9 7 10 6 11 5 12
REMARK SMILES IDX 4 13 3 14 2 15 1 16
REMARK H PARENT
REMARK Flexibility Score: inf
ROOT
ATOM      1  C   UNL     1      27.163  61.382  83.871  1.00  0.00     0.000 C 
ENDROOT
BRANCH   1   2
ATOM      2  C   UNL     1      27.645  61.750  82.456  1.00  0.00     0.000 C 
BRANCH   2   3
ATOM      3  C   UNL     1      26.532  61.870  81.399  1.00  0.00     0.000 C 
BRANCH   3   4
ATOM      4  C   UNL     1      26.533  60.706  80.393  1.00  0.00     0.000 C 
BRANCH   4   5
ATOM      5  C   UNL     1      27.909  60.032  80.272  1.00  0.00     0.006 C 
BRANCH   5   6
ATOM      6  C   UNL     1      28.534  60.207  78.882  1.00  0.00     0.053 C 
BRANCH   6   7
ATOM      7  C   UNL     1      29.457  59.070  78.579  1.00  0.00     0.041 C 
ATOM      8  O   UNL     1      29.796  58.268  79.489  1.00  0.00    -0.550 OA
ATOM      9  O   UNL     1      29.904  58.864  77.279  1.00  0.00    -0.550 OA
ENDBRANCH   6   7
ENDBRANCH   5   6
ENDBRANCH   4   5
ENDBRANCH   3   4
ENDBRANCH   2   3
ENDBRANCH   1   2
BRANCH   1  10
ATOM     10  C   UNL     1      25.629  61.395  84.001  1.00  0.00     0.000 C 
BRANCH  10  11
ATOM     11  C   UNL     1      25.075  60.100  84.616  1.00  0.00    -0.000 C 
BRANCH  11  12
ATOM     12  C   UNL     1      26.160  59.276  85.330  1.00  0.00    -0.000 C 
BRANCH  12  13
ATOM     13  C   UNL     1      25.967  59.228  86.857  1.00  0.00    -0.000 C 
BRANCH  13  14
ATOM     14  C   UNL     1      27.268  59.253  87.685  1.00  0.00    -0.000 C 
BRANCH  14  15
ATOM     15  C   UNL     1      28.342  60.232  87.181  1.00  0.00    -0.003 C 
ATOM     16  C   UNL     1      28.063  61.681  87.580  1.00  0.00     0.004 C 
ENDBRANCH  14  15
ENDBRANCH  13  14
ENDBRANCH  12  13
ENDBRANCH  11  12
ENDBRANCH  10  11
ENDBRANCH   1  10
TORSDOF 12
ENDMDL
MODEL 7
REMARK VINA RESULT:    -3.259      2.699      4.844
REMARK INTER + INTRA:          -6.601
REMARK INTER:                  -4.770
REMARK INTRA:                  -1.832
REMARK UNBOUND:                -1.056
REMARK SMILES CCCCCCCCCCCCCC(=O)[O-]
REMARK SMILES IDX 8 1 9 2 10 3 11 4 12 5 13 6 14 7 15 8 16 9 7 10 6 11 5 12
REMARK SMILES IDX 4 13 3 14 2 15 1 16
REMARK H PARENT
REMARK Flexibility Score: inf
ROOT
ATOM      1  C   UNL     1      27.681  60.089  87.887  1.00  0.00     0.000 C 
ENDROOT
BRANCH   1   2
ATOM      2  C   UNL     1      26.587  59.013  87.768  1.00  0.00     0.000 C 
BRANCH   2   3
ATOM      3  C   UNL     1      27.103  57.586  87.507  1.00  0.00     0.000 C 
BRANCH   3   4
ATOM      4  C   UNL     1      28.629  57.461  87.668  1.00  0.00     0.000 C 
BRANCH   4   5
ATOM      5  C   UNL     1      29.316  56.960  86.388  1.00  0.00     0.006 C 
BRANCH   5   6
ATOM      6  C   UNL     1      30.302  57.982  85.806  1.00  0.00     0.053 C 
BRANCH   6   7
ATOM      7  C   UNL     1      31.690  57.423  85.802  1.00  0.00     0.041 C 
ATOM      8  O   UNL     1      32.157  56.876  86.836  1.00  0.00    -0.550 OA
ATOM      9  O   UNL     1      32.452  57.462  84.640  1.00  0.00    -0.550 OA
ENDBRANCH   6   7
ENDBRANCH   5   6
ENDBRANCH   4   5
ENDBRANCH   3   4
ENDBRANCH   2   3
ENDBRANCH   1   2
BRANCH   1  10
ATOM     10  C   UNL     1      27.732  61.026  86.667  1.00  0.00     0.000 C 
BRANCH  10  11
ATOM     11  C   UNL     1      26.660  60.694  85.618  1.00  0.00    -0.000 C 
BRANCH  11  12
ATOM     12  C   UNL     1      27.267  60.270  84.269  1.00  0.00    -0.000 C 
BRANCH  12  13
ATOM     13  C   UNL     1      26.952  58.807  83.905  1.00  0.00    -0.000 C 
BRANCH  13  14
ATOM     14  C   UNL     1      27.673  58.273  82.651  1.00  0.00    -0.000 C 
BRANCH  14  15
ATOM     15  C   UNL     1      28.695  59.239  82.026  1.00  0.00    -0.003 C 
ATOM     16  C   UNL     1      30.143  58.814  82.271  1.00  0.00     0.004 C 
ENDBRANCH  14  15
ENDBRANCH  13  14
ENDBRANCH  12  13
ENDBRANCH  11  12
ENDBRANCH  10  11
ENDBRANCH   1  10
TORSDOF 12
ENDMDL
MODEL 8
REMARK VINA RESULT:    -3.248      3.250      6.204
REMARK INTER + INTRA:          -6.583
REMARK INTER:                  -4.735
REMARK INTRA:                  -1.848
REMARK UNBOUND:                -1.056
REMARK SMILES CCCCCCCCCCCCCC(=O)[O-]
REMARK SMILES IDX 8 1 9 2 10 3 11 4 12 5 13 6 14 7 15 8 16 9 7 10 6 11 5 12
REMARK SMILES IDX 4 13 3 14 2 15 1 16
REMARK H PARENT
REMARK Flexibility Score: inf
ROOT
ATOM      1  C   UNL     1      25.357  60.627  84.149  1.00  0.00     0.000 C 
ENDROOT
BRANCH   1   2
ATOM      2  C   UNL     1      26.665  61.437  84.173  1.00  0.00     0.000 C 
BRANCH   2   3
ATOM      3  C   UNL     1      27.621  61.165  82.996  1.00  0.00     0.000 C 
BRANCH   3   4
ATOM      4  C   UNL     1      26.946  60.411  81.837  1.00  0.00     0.000 C 
BRANCH   4   5
ATOM      5  C   UNL     1      27.809  59.257  81.303  1.00  0.00     0.006 C 
BRANCH   5   6
ATOM      6  C   UNL     1      29.127  59.098  82.073  1.00  0.00     0.053 C 
BRANCH   6   7
ATOM      7  C   UNL     1      30.246  58.779  81.132  1.00  0.00     0.041 C 
ATOM      8  O   UNL     1      30.005  58.539  79.919  1.00  0.00    -0.550 OA
ATOM      9  O   UNL     1      31.560  58.796  81.582  1.00  0.00    -0.550 OA
ENDBRANCH   6   7
ENDBRANCH   5   6
ENDBRANCH   4   5
ENDBRANCH   3   4
ENDBRANCH   2   3
ENDBRANCH   1   2
BRANCH   1  10
ATOM     10  C   UNL     1      25.331  59.504  85.202  1.00  0.00     0.000 C 
BRANCH  10  11
ATOM     11  C   UNL     1      25.896  58.177  84.669  1.00  0.00    -0.000 C 
BRANCH  11  12
ATOM     12  C   UNL     1      27.263  57.831  85.282  1.00  0.00    -0.000 C 
BRANCH  12  13
ATOM     13  C   UNL     1      27.224  57.743  86.819  1.00  0.00    -0.000 C 
BRANCH  13  14
ATOM     14  C   UNL     1      28.309  58.558  87.552  1.00  0.00    -0.000 C 
BRANCH  14  15
ATOM     15  C   UNL     1      28.653  59.912  86.906  1.00  0.00    -0.003 C 
ATOM     16  C   UNL     1      27.916  61.084  87.552  1.00  0.00     0.004 C 
ENDBRANCH  14  15
ENDBRANCH  13  14
ENDBRANCH  12  13
ENDBRANCH  11  12
ENDBRANCH  10  11
ENDBRANCH   1  10
TORSDOF 12
ENDMDL
MODEL 9
REMARK VINA RESULT:    -3.189      2.863      5.062
REMARK INTER + INTRA:          -6.482
REMARK INTER:                  -4.925
REMARK INTRA:                  -1.557
REMARK UNBOUND:                -1.056
REMARK SMILES CCCCCCCCCCCCCC(=O)[O-]
REMARK SMILES IDX 8 1 9 2 10 3 11 4 12 5 13 6 14 7 15 8 16 9 7 10 6 11 5 12
REMARK SMILES IDX 4 13 3 14 2 15 1 16
REMARK H PARENT
REMARK Flexibility Score: inf
ROOT
ATOM      1  C   UNL     1      27.189  57.740  87.560  1.00  0.00     0.000 C 
ENDROOT
BRANCH   1   2
ATOM      2  C   UNL     1      28.713  57.954  87.590  1.00  0.00     0.000 C 
BRANCH   2   3
ATOM      3  C   UNL     1      29.483  57.313  86.420  1.00  0.00     0.000 C 
BRANCH   3   4
ATOM      4  C   UNL     1      29.943  58.340  85.371  1.00  0.00     0.000 C 
BRANCH   4   5
ATOM      5  C   UNL     1      29.315  58.094  83.991  1.00  0.00     0.006 C 
BRANCH   5   6
ATOM      6  C   UNL     1      29.735  59.143  82.953  1.00  0.00     0.053 C 
BRANCH   6   7
ATOM      7  C   UNL     1      30.638  58.531  81.929  1.00  0.00     0.041 C 
ATOM      8  O   UNL     1      31.624  57.835  82.288  1.00  0.00    -0.550 OA
ATOM      9  O   UNL     1      30.362  58.686  80.576  1.00  0.00    -0.550 OA
ENDBRANCH   6   7
ENDBRANCH   5   6
ENDBRANCH   4   5
ENDBRANCH   3   4
ENDBRANCH   2   3
ENDBRANCH   1   2
BRANCH   1  10
ATOM     10  C   UNL     1      26.415  59.006  87.151  1.00  0.00     0.000 C 
BRANCH  10  11
ATOM     11  C   UNL     1      27.276  60.277  87.226  1.00  0.00    -0.000 C 
BRANCH  11  12
ATOM     12  C   UNL     1      27.307  61.046  85.894  1.00  0.00    -0.000 C 
BRANCH  12  13
ATOM     13  C   UNL     1      26.372  60.440  84.831  1.00  0.00    -0.000 C 
BRANCH  13  14
ATOM     14  C   UNL     1      25.642  61.463  83.937  1.00  0.00    -0.000 C 
BRANCH  14  15
ATOM     15  C   UNL     1      25.909  61.317  82.429  1.00  0.00    -0.003 C 
ATOM     16  C   UNL     1      27.281  61.846  82.013  1.00  0.00     0.004 C 
ENDBRANCH  14  15
ENDBRANCH  13  14
ENDBRANCH  12  13
ENDBRANCH  11  12
ENDBRANCH  10  11
ENDBRANCH   1  10
TORSDOF 12
ENDMDL
