MODEL 1
REMARK VINA RESULT:    -4.980      0.000      0.000
REMARK INTER + INTRA:          -6.146
REMARK INTER:                  -5.854
REMARK INTRA:                  -0.292
REMARK UNBOUND:                -0.292
REMARK SMILES O=C([O-])C=Cc1ccc(O)c(O)c1
REMARK SMILES IDX 6 1 13 2 7 3 11 4 8 5 9 6 5 7 4 8 2 9 1 10 3 11 12 12 10 14
REMARK H PARENT 12 13 10 15
REMARK Flexibility Score: inf
ROOT
ATOM      1  C   UNL     1       4.748  27.454  58.954  1.00  0.00    -0.022 A 
ATOM      2  C   UNL     1       5.692  28.278  58.314  1.00  0.00     0.058 A 
ATOM      3  C   UNL     1       3.382  27.698  58.760  1.00  0.00     0.012 A 
ATOM      4  C   UNL     1       5.272  29.364  57.533  1.00  0.00     0.157 A 
ATOM      5  C   UNL     1       2.961  28.781  57.983  1.00  0.00     0.051 A 
ATOM      6  C   UNL     1       3.899  29.619  57.372  1.00  0.00     0.157 A 
ENDROOT
BRANCH   1   7
ATOM      7  C   UNL     1       5.169  26.275  59.737  1.00  0.00     0.010 C 
ATOM      8  C   UNL     1       5.437  26.268  61.053  1.00  0.00     0.025 C 
BRANCH   8   9
ATOM      9  C   UNL     1       5.193  27.384  61.988  1.00  0.00     0.064 C 
ATOM     10  O   UNL     1       6.071  28.256  62.217  1.00  0.00    -0.545 OA
ATOM     11  O   UNL     1       3.941  27.511  62.575  1.00  0.00    -0.545 OA
ENDBRANCH   8   9
ENDBRANCH   1   7
BRANCH   4  12
ATOM     12  O   UNL     1       6.213  30.187  56.915  1.00  0.00    -0.504 OA
ATOM     13  H   UNL     1       7.022  30.537  57.414  1.00  0.00     0.293 HD
ENDBRANCH   4  12
BRANCH   6  14
ATOM     14  O   UNL     1       3.450  30.694  56.605  1.00  0.00    -0.504 OA
ATOM     15  H   UNL     1       2.521  31.082  56.714  1.00  0.00     0.293 HD
ENDBRANCH   6  14
TORSDOF 4
ENDMDL
MODEL 2
REMARK VINA RESULT:    -4.954      1.226      2.014
REMARK INTER + INTRA:          -6.115
REMARK INTER:                  -5.867
REMARK INTRA:                  -0.248
REMARK UNBOUND:                -0.292
REMARK SMILES O=C([O-])C=Cc1ccc(O)c(O)c1
REMARK SMILES IDX 6 1 13 2 7 3 11 4 8 5 9 6 5 7 4 8 2 9 1 10 3 11 12 12 10 14
REMARK H PARENT 12 13 10 15
REMARK Flexibility Score: inf
ROOT
ATOM      1  C   UNL     1       5.233  27.965  58.454  1.00  0.00    -0.022 A 
ATOM      2  C   UNL     1       3.902  27.651  58.122  1.00  0.00     0.058 A 
ATOM      3  C   UNL     1       5.752  29.216  58.093  1.00  0.00     0.012 A 
ATOM      4  C   UNL     1       3.120  28.558  57.393  1.00  0.00     0.157 A 
ATOM      5  C   UNL     1       4.975  30.121  57.365  1.00  0.00     0.051 A 
ATOM      6  C   UNL     1       3.662  29.797  57.009  1.00  0.00     0.157 A 
ENDROOT
BRANCH   1   7
ATOM      7  C   UNL     1       6.055  27.046  59.266  1.00  0.00     0.010 C 
ATOM      8  C   UNL     1       6.098  27.020  60.608  1.00  0.00     0.025 C 
BRANCH   8   9
ATOM      9  C   UNL     1       5.208  27.772  61.514  1.00  0.00     0.064 C 
ATOM     10  O   UNL     1       5.614  28.781  62.149  1.00  0.00    -0.545 OA
ATOM     11  O   UNL     1       3.875  27.398  61.617  1.00  0.00    -0.545 OA
ENDBRANCH   8   9
ENDBRANCH   1   7
BRANCH   4  12
ATOM     12  O   UNL     1       1.807  28.235  57.053  1.00  0.00    -0.504 OA
ATOM     13  H   UNL     1       1.167  28.929  56.684  1.00  0.00     0.293 HD
ENDBRANCH   4  12
BRANCH   6  14
ATOM     14  O   UNL     1       2.911  30.718  56.279  1.00  0.00    -0.504 OA
ATOM     15  H   UNL     1       2.324  31.411  56.729  1.00  0.00     0.293 HD
ENDBRANCH   6  14
TORSDOF 4
ENDMDL
MODEL 3
REMARK VINA RESULT:    -4.791      0.572      1.054
REMARK INTER + INTRA:          -5.923
REMARK INTER:                  -5.667
REMARK INTRA:                  -0.256
REMARK UNBOUND:                -0.292
REMARK SMILES O=C([O-])C=Cc1ccc(O)c(O)c1
REMARK SMILES IDX 6 1 13 2 7 3 11 4 8 5 9 6 5 7 4 8 2 9 1 10 3 11 12 12 10 14
REMARK H PARENT 12 13 10 15
REMARK Flexibility Score: inf
ROOT
ATOM      1  C   UNL     1       5.136  27.233  59.075  1.00  0.00    -0.022 A 
ATOM      2  C   UNL     1       5.972  28.142  58.402  1.00  0.00     0.058 A 
ATOM      3  C   UNL     1       3.746  27.370  58.965  1.00  0.00     0.012 A 
ATOM      4  C   UNL     1       5.422  29.206  57.673  1.00  0.00     0.157 A 
ATOM      5  C   UNL     1       3.195  28.430  58.239  1.00  0.00     0.051 A 
ATOM      6  C   UNL     1       4.026  29.352  57.596  1.00  0.00     0.157 A 
ENDROOT
BRANCH   1   7
ATOM      7  C   UNL     1       5.693  26.076  59.805  1.00  0.00     0.010 C 
ATOM      8  C   UNL     1       6.093  26.083  61.087  1.00  0.00     0.025 C 
BRANCH   8   9
ATOM      9  C   UNL     1       5.887  27.184  62.048  1.00  0.00     0.064 C 
ATOM     10  O   UNL     1       4.743  27.461  62.497  1.00  0.00    -0.545 OA
ATOM     11  O   UNL     1       6.988  27.885  62.520  1.00  0.00    -0.545 OA
ENDBRANCH   8   9
ENDBRANCH   1   7
BRANCH   4  12
ATOM     12  O   UNL     1       6.257  30.113  57.022  1.00  0.00    -0.504 OA
ATOM     13  H   UNL     1       7.094  30.476  57.463  1.00  0.00     0.293 HD
ENDBRANCH   4  12
BRANCH   6  14
ATOM     14  O   UNL     1       3.449  30.402  56.881  1.00  0.00    -0.504 OA
ATOM     15  H   UNL     1       2.806  31.056  57.311  1.00  0.00     0.293 HD
ENDBRANCH   6  14
TORSDOF 4
ENDMDL
MODEL 4
REMARK VINA RESULT:    -4.508      2.133      2.524
REMARK INTER + INTRA:          -5.591
REMARK INTER:                  -5.422
REMARK INTRA:                  -0.168
REMARK UNBOUND:                -0.292
REMARK SMILES O=C([O-])C=Cc1ccc(O)c(O)c1
REMARK SMILES IDX 6 1 13 2 7 3 11 4 8 5 9 6 5 7 4 8 2 9 1 10 3 11 12 12 10 14
REMARK H PARENT 12 13 10 15
REMARK Flexibility Score: inf
ROOT
ATOM      1  C   UNL     1       4.994  27.154  59.547  1.00  0.00    -0.022 A 
ATOM      2  C   UNL     1       4.908  28.424  60.145  1.00  0.00     0.058 A 
ATOM      3  C   UNL     1       4.709  27.018  58.182  1.00  0.00     0.012 A 
ATOM      4  C   UNL     1       4.490  29.534  59.396  1.00  0.00     0.157 A 
ATOM      5  C   UNL     1       4.292  28.122  57.433  1.00  0.00     0.051 A 
ATOM      6  C   UNL     1       4.176  29.379  58.034  1.00  0.00     0.157 A 
ENDROOT
BRANCH   1   7
ATOM      7  C   UNL     1       5.482  25.983  60.304  1.00  0.00     0.010 C 
ATOM      8  C   UNL     1       6.771  25.685  60.531  1.00  0.00     0.025 C 
BRANCH   8   9
ATOM      9  C   UNL     1       7.924  26.554  60.225  1.00  0.00     0.064 C 
ATOM     10  O   UNL     1       8.250  26.822  59.038  1.00  0.00    -0.545 OA
ATOM     11  O   UNL     1       8.623  27.142  61.269  1.00  0.00    -0.545 OA
ENDBRANCH   8   9
ENDBRANCH   1   7
BRANCH   4  12
ATOM     12  O   UNL     1       4.391  30.787  59.998  1.00  0.00    -0.504 OA
ATOM     13  H   UNL     1       3.563  31.066  60.510  1.00  0.00     0.293 HD
ENDBRANCH   4  12
BRANCH   6  14
ATOM     14  O   UNL     1       3.755  30.463  57.264  1.00  0.00    -0.504 OA
ATOM     15  H   UNL     1       4.277  30.786  56.458  1.00  0.00     0.293 HD
ENDBRANCH   6  14
TORSDOF 4
ENDMDL
MODEL 5
REMARK VINA RESULT:    -4.457      2.326      4.253
REMARK INTER + INTRA:          -5.531
REMARK INTER:                  -5.258
REMARK INTRA:                  -0.273
REMARK UNBOUND:                -0.292
REMARK SMILES O=C([O-])C=Cc1ccc(O)c(O)c1
REMARK SMILES IDX 6 1 13 2 7 3 11 4 8 5 9 6 5 7 4 8 2 9 1 10 3 11 12 12 10 14
REMARK H PARENT 12 13 10 15
REMARK Flexibility Score: inf
ROOT
ATOM      1  C   UNL     1       5.138  27.337  58.673  1.00  0.00    -0.022 A 
ATOM      2  C   UNL     1       6.509  27.643  58.583  1.00  0.00     0.058 A 
ATOM      3  C   UNL     1       4.716  26.339  59.561  1.00  0.00     0.012 A 
ATOM      4  C   UNL     1       7.447  26.921  59.334  1.00  0.00     0.157 A 
ATOM      5  C   UNL     1       5.649  25.617  60.310  1.00  0.00     0.051 A 
ATOM      6  C   UNL     1       7.014  25.900  60.198  1.00  0.00     0.157 A 
ENDROOT
BRANCH   1   7
ATOM      7  C   UNL     1       4.130  28.120  57.931  1.00  0.00     0.010 C 
ATOM      8  C   UNL     1       3.390  29.118  58.440  1.00  0.00     0.025 C 
BRANCH   8   9
ATOM      9  C   UNL     1       3.569  29.733  59.769  1.00  0.00     0.064 C 
ATOM     10  O   UNL     1       2.865  29.389  60.755  1.00  0.00    -0.545 OA
ATOM     11  O   UNL     1       4.583  30.663  59.953  1.00  0.00    -0.545 OA
ENDBRANCH   8   9
ENDBRANCH   1   7
BRANCH   4  12
ATOM     12  O   UNL     1       8.806  27.218  59.229  1.00  0.00    -0.504 OA
ATOM     13  H   UNL     1       9.499  26.491  59.096  1.00  0.00     0.293 HD
ENDBRANCH   4  12
BRANCH   6  14
ATOM     14  O   UNL     1       7.924  25.162  60.955  1.00  0.00    -0.504 OA
ATOM     15  H   UNL     1       7.707  24.236  61.305  1.00  0.00     0.293 HD
ENDBRANCH   6  14
TORSDOF 4
ENDMDL
MODEL 6
REMARK VINA RESULT:    -4.432      1.207      2.152
REMARK INTER + INTRA:          -5.501
REMARK INTER:                  -5.242
REMARK INTRA:                  -0.260
REMARK UNBOUND:                -0.292
REMARK SMILES O=C([O-])C=Cc1ccc(O)c(O)c1
REMARK SMILES IDX 6 1 13 2 7 3 11 4 8 5 9 6 5 7 4 8 2 9 1 10 3 11 12 12 10 14
REMARK H PARENT 12 13 10 15
REMARK Flexibility Score: inf
ROOT
ATOM      1  C   UNL     1       3.936  27.425  59.497  1.00  0.00    -0.022 A 
ATOM      2  C   UNL     1       3.287  28.463  58.804  1.00  0.00     0.058 A 
ATOM      3  C   UNL     1       5.326  27.287  59.380  1.00  0.00     0.012 A 
ATOM      4  C   UNL     1       4.014  29.317  57.962  1.00  0.00     0.157 A 
ATOM      5  C   UNL     1       6.052  28.135  58.541  1.00  0.00     0.051 A 
ATOM      6  C   UNL     1       5.403  29.147  57.827  1.00  0.00     0.157 A 
ENDROOT
BRANCH   1   7
ATOM      7  C   UNL     1       3.197  26.549  60.429  1.00  0.00     0.010 C 
ATOM      8  C   UNL     1       3.184  26.670  61.767  1.00  0.00     0.025 C 
BRANCH   8   9
ATOM      9  C   UNL     1       3.752  27.794  62.536  1.00  0.00     0.064 C 
ATOM     10  O   UNL     1       4.925  27.754  62.992  1.00  0.00    -0.545 OA
ATOM     11  O   UNL     1       2.999  28.948  62.703  1.00  0.00    -0.545 OA
ENDBRANCH   8   9
ENDBRANCH   1   7
BRANCH   4  12
ATOM     12  O   UNL     1       3.363  30.333  57.264  1.00  0.00    -0.504 OA
ATOM     13  H   UNL     1       3.878  31.071  56.798  1.00  0.00     0.293 HD
ENDBRANCH   4  12
BRANCH   6  14
ATOM     14  O   UNL     1       6.154  29.978  56.994  1.00  0.00    -0.504 OA
ATOM     15  H   UNL     1       5.752  30.790  56.540  1.00  0.00     0.293 HD
ENDBRANCH   6  14
TORSDOF 4
ENDMDL
MODEL 7
REMARK VINA RESULT:    -4.149      1.612      1.952
REMARK INTER + INTRA:          -5.169
REMARK INTER:                  -4.962
REMARK INTRA:                  -0.207
REMARK UNBOUND:                -0.292
REMARK SMILES O=C([O-])C=Cc1ccc(O)c(O)c1
REMARK SMILES IDX 6 1 13 2 7 3 11 4 8 5 9 6 5 7 4 8 2 9 1 10 3 11 12 12 10 14
REMARK H PARENT 12 13 10 15
REMARK Flexibility Score: inf
ROOT
ATOM      1  C   UNL     1       5.177  27.348  59.473  1.00  0.00    -0.022 A 
ATOM      2  C   UNL     1       5.099  28.648  60.005  1.00  0.00     0.058 A 
ATOM      3  C   UNL     1       4.709  27.110  58.174  1.00  0.00     0.012 A 
ATOM      4  C   UNL     1       4.510  29.684  59.266  1.00  0.00     0.157 A 
ATOM      5  C   UNL     1       4.120  28.140  57.435  1.00  0.00     0.051 A 
ATOM      6  C   UNL     1       4.014  29.425  57.976  1.00  0.00     0.157 A 
ENDROOT
BRANCH   1   7
ATOM      7  C   UNL     1       5.841  26.257  60.215  1.00  0.00     0.010 C 
ATOM      8  C   UNL     1       5.365  25.666  61.323  1.00  0.00     0.025 C 
BRANCH   8   9
ATOM      9  C   UNL     1       4.021  25.870  61.899  1.00  0.00     0.064 C 
ATOM     10  O   UNL     1       2.998  25.343  61.387  1.00  0.00    -0.545 OA
ATOM     11  O   UNL     1       3.892  26.604  63.070  1.00  0.00    -0.545 OA
ENDBRANCH   8   9
ENDBRANCH   1   7
BRANCH   4  12
ATOM     12  O   UNL     1       4.421  30.966  59.805  1.00  0.00    -0.504 OA
ATOM     13  H   UNL     1       4.390  31.789  59.215  1.00  0.00     0.293 HD
ENDBRANCH   4  12
BRANCH   6  14
ATOM     14  O   UNL     1       3.419  30.434  57.217  1.00  0.00    -0.504 OA
ATOM     15  H   UNL     1       3.799  30.731  56.326  1.00  0.00     0.293 HD
ENDBRANCH   6  14
TORSDOF 4
ENDMDL
MODEL 8
REMARK VINA RESULT:    -4.126      1.998      2.528
REMARK INTER + INTRA:          -5.142
REMARK INTER:                  -4.867
REMARK INTRA:                  -0.275
REMARK UNBOUND:                -0.292
REMARK SMILES O=C([O-])C=Cc1ccc(O)c(O)c1
REMARK SMILES IDX 6 1 13 2 7 3 11 4 8 5 9 6 5 7 4 8 2 9 1 10 3 11 12 12 10 14
REMARK H PARENT 12 13 10 15
REMARK Flexibility Score: inf
ROOT
ATOM      1  C   UNL     1       5.370  27.627  60.265  1.00  0.00    -0.022 A 
ATOM      2  C   UNL     1       4.408  28.639  60.435  1.00  0.00     0.058 A 
ATOM      3  C   UNL     1       5.410  26.914  59.059  1.00  0.00     0.012 A 
ATOM      4  C   UNL     1       3.464  28.896  59.430  1.00  0.00     0.157 A 
ATOM      5  C   UNL     1       4.470  27.168  58.057  1.00  0.00     0.051 A 
ATOM      6  C   UNL     1       3.494  28.153  58.237  1.00  0.00     0.157 A 
ENDROOT
BRANCH   1   7
ATOM      7  C   UNL     1       6.405  27.376  61.288  1.00  0.00     0.010 C 
ATOM      8  C   UNL     1       6.235  26.654  62.408  1.00  0.00     0.025 C 
BRANCH   8   9
ATOM      9  C   UNL     1       5.050  25.837  62.734  1.00  0.00     0.064 C 
ATOM     10  O   UNL     1       4.987  24.617  62.430  1.00  0.00    -0.545 OA
ATOM     11  O   UNL     1       4.011  26.411  63.454  1.00  0.00    -0.545 OA
ENDBRANCH   8   9
ENDBRANCH   1   7
BRANCH   4  12
ATOM     12  O   UNL     1       2.503  29.890  59.611  1.00  0.00    -0.504 OA
ATOM     13  H   UNL     1       1.734  29.772  60.260  1.00  0.00     0.293 HD
ENDBRANCH   4  12
BRANCH   6  14
ATOM     14  O   UNL     1       2.566  28.383  57.221  1.00  0.00    -0.504 OA
ATOM     15  H   UNL     1       2.694  29.113  56.531  1.00  0.00     0.293 HD
ENDBRANCH   6  14
TORSDOF 4
ENDMDL
MODEL 9
REMARK VINA RESULT:    -4.116      1.879      5.179
REMARK INTER + INTRA:          -5.130
REMARK INTER:                  -4.844
REMARK INTRA:                  -0.286
REMARK UNBOUND:                -0.292
REMARK SMILES O=C([O-])C=Cc1ccc(O)c(O)c1
REMARK SMILES IDX 6 1 13 2 7 3 11 4 8 5 9 6 5 7 4 8 2 9 1 10 3 11 12 12 10 14
REMARK H PARENT 12 13 10 15
REMARK Flexibility Score: inf
ROOT
ATOM      1  C   UNL     1       5.953  26.903  59.584  1.00  0.00    -0.022 A 
ATOM      2  C   UNL     1       5.593  27.083  60.931  1.00  0.00     0.058 A 
ATOM      3  C   UNL     1       7.292  26.644  59.261  1.00  0.00     0.012 A 
ATOM      4  C   UNL     1       6.571  27.058  61.937  1.00  0.00     0.157 A 
ATOM      5  C   UNL     1       8.268  26.619  60.260  1.00  0.00     0.051 A 
ATOM      6  C   UNL     1       7.916  26.829  61.597  1.00  0.00     0.157 A 
ENDROOT
BRANCH   1   7
ATOM      7  C   UNL     1       4.932  26.873  58.517  1.00  0.00     0.010 C 
ATOM      8  C   UNL     1       4.477  27.943  57.845  1.00  0.00     0.025 C 
BRANCH   8   9
ATOM      9  C   UNL     1       5.033  29.309  57.920  1.00  0.00     0.064 C 
ATOM     10  O   UNL     1       5.834  29.743  57.051  1.00  0.00    -0.545 OA
ATOM     11  O   UNL     1       4.609  30.156  58.934  1.00  0.00    -0.545 OA
ENDBRANCH   8   9
ENDBRANCH   1   7
BRANCH   4  12
ATOM     12  O   UNL     1       6.210  27.253  63.269  1.00  0.00    -0.504 OA
ATOM     13  H   UNL     1       6.895  27.501  63.973  1.00  0.00     0.293 HD
ENDBRANCH   4  12
BRANCH   6  14
ATOM     14  O   UNL     1       8.912  26.802  62.573  1.00  0.00    -0.504 OA
ATOM     15  H   UNL     1       9.794  26.325  62.429  1.00  0.00     0.293 HD
ENDBRANCH   6  14
TORSDOF 4
ENDMDL
