MODEL 1
REMARK VINA RESULT:    -4.728      0.000      0.000
REMARK INTER + INTRA:          -5.005
REMARK INTER:                  -5.005
REMARK INTRA:                   0.000
REMARK UNBOUND:                 0.000
REMARK SMILES O=c1ccc2cc(O)c(O)cc2o1
REMARK SMILES IDX 4 1 3 2 2 3 1 4 13 5 12 6 11 7 9 8 7 9 6 10 5 11 8 12 10 14
REMARK H PARENT 8 13 10 15
REMARK Flexibility Score: inf
ROOT
ATOM      1  C   UNL     1      -9.381  -0.355  -6.505  1.00  0.00     0.019 A 
ATOM      2  C   UNL     1      -8.662  -1.482  -6.905  1.00  0.00     0.094 A 
ATOM      3  C   UNL     1      -7.413  -1.310  -7.510  1.00  0.00     0.336 A 
ATOM      4  O   UNL     1      -6.750  -2.316  -7.877  1.00  0.00    -0.246 OA
ATOM      5  O   UNL     1      -6.919  -0.090  -7.701  1.00  0.00    -0.423 OA
ATOM      6  C   UNL     1      -7.571   1.012  -7.336  1.00  0.00     0.142 A 
ATOM      7  C   UNL     1      -7.001   2.269  -7.562  1.00  0.00     0.098 A 
ATOM      8  C   UNL     1      -7.684   3.433  -7.178  1.00  0.00     0.161 A 
ATOM      9  C   UNL     1      -8.942   3.337  -6.565  1.00  0.00     0.158 A 
ATOM     10  C   UNL     1      -9.519   2.079  -6.336  1.00  0.00     0.062 A 
ATOM     11  C   UNL     1      -8.837   0.916  -6.719  1.00  0.00     0.022 A 
ENDROOT
BRANCH   9  12
ATOM     12  O   UNL     1      -9.614   4.500  -6.187  1.00  0.00    -0.504 OA
ATOM     13  H   UNL     1      -9.336   5.031  -5.371  1.00  0.00     0.293 HD
ENDBRANCH   9  12
BRANCH   8  14
ATOM     14  O   UNL     1      -7.119   4.686  -7.403  1.00  0.00    -0.504 OA
ATOM     15  H   UNL     1      -7.607   5.403  -7.929  1.00  0.00     0.293 HD
ENDBRANCH   8  14
TORSDOF 2
ENDMDL
MODEL 2
REMARK VINA RESULT:    -4.677      1.571      4.914
REMARK INTER + INTRA:          -4.950
REMARK INTER:                  -4.950
REMARK INTRA:                   0.000
REMARK UNBOUND:                 0.000
REMARK SMILES O=c1ccc2cc(O)c(O)cc2o1
REMARK SMILES IDX 4 1 3 2 2 3 1 4 13 5 12 6 11 7 9 8 7 9 6 10 5 11 8 12 10 14
REMARK H PARENT 8 13 10 15
REMARK Flexibility Score: inf
ROOT
ATOM      1  C   UNL     1      -6.618   2.174  -9.403  1.00  0.00     0.019 A 
ATOM      2  C   UNL     1      -6.919   3.535  -9.348  1.00  0.00     0.094 A 
ATOM      3  C   UNL     1      -7.672   4.020  -8.273  1.00  0.00     0.336 A 
ATOM      4  O   UNL     1      -7.954   5.246  -8.207  1.00  0.00    -0.246 OA
ATOM      5  O   UNL     1      -8.095   3.195  -7.320  1.00  0.00    -0.423 OA
ATOM      6  C   UNL     1      -7.831   1.890  -7.333  1.00  0.00     0.142 A 
ATOM      7  C   UNL     1      -8.301   1.071  -6.302  1.00  0.00     0.098 A 
ATOM      8  C   UNL     1      -8.025  -0.305  -6.312  1.00  0.00     0.161 A 
ATOM      9  C   UNL     1      -7.275  -0.862  -7.358  1.00  0.00     0.158 A 
ATOM     10  C   UNL     1      -6.801  -0.045  -8.395  1.00  0.00     0.062 A 
ATOM     11  C   UNL     1      -7.075   1.329  -8.386  1.00  0.00     0.022 A 
ENDROOT
BRANCH   9  12
ATOM     12  O   UNL     1      -7.005  -2.230  -7.359  1.00  0.00    -0.504 OA
ATOM     13  H   UNL     1      -7.469  -2.862  -6.719  1.00  0.00     0.293 HD
ENDBRANCH   9  12
BRANCH   8  14
ATOM     14  O   UNL     1      -8.493  -1.123  -5.286  1.00  0.00    -0.504 OA
ATOM     15  H   UNL     1      -7.874  -1.480  -4.566  1.00  0.00     0.293 HD
ENDBRANCH   8  14
TORSDOF 2
ENDMDL
MODEL 3
REMARK VINA RESULT:    -4.633      1.218      2.328
REMARK INTER + INTRA:          -4.904
REMARK INTER:                  -4.904
REMARK INTRA:                   0.000
REMARK UNBOUND:                 0.000
REMARK SMILES O=c1ccc2cc(O)c(O)cc2o1
REMARK SMILES IDX 4 1 3 2 2 3 1 4 13 5 12 6 11 7 9 8 7 9 6 10 5 11 8 12 10 14
REMARK H PARENT 8 13 10 15
REMARK Flexibility Score: inf
ROOT
ATOM      1  C   UNL     1      -6.396   0.277  -9.218  1.00  0.00     0.019 A 
ATOM      2  C   UNL     1      -6.482  -1.112  -9.127  1.00  0.00     0.094 A 
ATOM      3  C   UNL     1      -7.143  -1.680  -8.033  1.00  0.00     0.336 A 
ATOM      4  O   UNL     1      -7.230  -2.932  -7.934  1.00  0.00    -0.246 OA
ATOM      5  O   UNL     1      -7.681  -0.906  -7.095  1.00  0.00    -0.423 OA
ATOM      6  C   UNL     1      -7.622   0.423  -7.141  1.00  0.00     0.142 A 
ATOM      7  C   UNL     1      -8.206   1.186  -6.126  1.00  0.00     0.098 A 
ATOM      8  C   UNL     1      -8.147   2.587  -6.172  1.00  0.00     0.161 A 
ATOM      9  C   UNL     1      -7.500   3.226  -7.239  1.00  0.00     0.158 A 
ATOM     10  C   UNL     1      -6.911   2.466  -8.261  1.00  0.00     0.062 A 
ATOM     11  C   UNL     1      -6.971   1.067  -8.216  1.00  0.00     0.022 A 
ENDROOT
BRANCH   9  12
ATOM     12  O   UNL     1      -7.446   4.619  -7.277  1.00  0.00    -0.504 OA
ATOM     13  H   UNL     1      -8.219   5.188  -6.956  1.00  0.00     0.293 HD
ENDBRANCH   9  12
BRANCH   8  14
ATOM     14  O   UNL     1      -8.728   3.349  -5.161  1.00  0.00    -0.504 OA
ATOM     15  H   UNL     1      -8.377   4.269  -4.920  1.00  0.00     0.293 HD
ENDBRANCH   8  14
TORSDOF 2
ENDMDL
MODEL 4
REMARK VINA RESULT:    -4.602      1.377      4.673
REMARK INTER + INTRA:          -4.871
REMARK INTER:                  -4.871
REMARK INTRA:                   0.000
REMARK UNBOUND:                 0.000
REMARK SMILES O=c1ccc2cc(O)c(O)cc2o1
REMARK SMILES IDX 4 1 3 2 2 3 1 4 13 5 12 6 11 7 9 8 7 9 6 10 5 11 8 12 10 14
REMARK H PARENT 8 13 10 15
REMARK Flexibility Score: inf
ROOT
ATOM      1  C   UNL     1      -8.334   2.021  -6.042  1.00  0.00     0.019 A 
ATOM      2  C   UNL     1      -8.276   3.371  -6.388  1.00  0.00     0.094 A 
ATOM      3  C   UNL     1      -7.641   3.739  -7.579  1.00  0.00     0.336 A 
ATOM      4  O   UNL     1      -7.578   4.953  -7.908  1.00  0.00    -0.246 OA
ATOM      5  O   UNL     1      -7.100   2.814  -8.367  1.00  0.00    -0.423 OA
ATOM      6  C   UNL     1      -7.132   1.516  -8.075  1.00  0.00     0.142 A 
ATOM      7  C   UNL     1      -6.547   0.589  -8.943  1.00  0.00     0.098 A 
ATOM      8  C   UNL     1      -6.579  -0.780  -8.640  1.00  0.00     0.161 A 
ATOM      9  C   UNL     1      -7.199  -1.223  -7.462  1.00  0.00     0.158 A 
ATOM     10  C   UNL     1      -7.788  -0.298  -6.587  1.00  0.00     0.062 A 
ATOM     11  C   UNL     1      -7.757   1.070  -6.890  1.00  0.00     0.022 A 
ENDROOT
BRANCH   9  12
ATOM     12  O   UNL     1      -7.226  -2.586  -7.168  1.00  0.00    -0.504 OA
ATOM     13  H   UNL     1      -8.098  -3.095  -7.094  1.00  0.00     0.293 HD
ENDBRANCH   9  12
BRANCH   8  14
ATOM     14  O   UNL     1      -5.996  -1.706  -9.503  1.00  0.00    -0.504 OA
ATOM     15  H   UNL     1      -6.541  -2.194 -10.205  1.00  0.00     0.293 HD
ENDBRANCH   8  14
TORSDOF 2
ENDMDL
MODEL 5
REMARK VINA RESULT:    -4.531      1.495      5.017
REMARK INTER + INTRA:          -4.796
REMARK INTER:                  -4.796
REMARK INTRA:                   0.000
REMARK UNBOUND:                 0.000
REMARK SMILES O=c1ccc2cc(O)c(O)cc2o1
REMARK SMILES IDX 4 1 3 2 2 3 1 4 13 5 12 6 11 7 9 8 7 9 6 10 5 11 8 12 10 14
REMARK H PARENT 8 13 10 15
REMARK Flexibility Score: inf
ROOT
ATOM      1  C   UNL     1      -7.044   2.635  -8.016  1.00  0.00     0.019 A 
ATOM      2  C   UNL     1      -7.741   3.399  -7.080  1.00  0.00     0.094 A 
ATOM      3  C   UNL     1      -8.460   2.747  -6.072  1.00  0.00     0.336 A 
ATOM      4  O   UNL     1      -9.096   3.420  -5.219  1.00  0.00    -0.246 OA
ATOM      5  O   UNL     1      -8.477   1.419  -6.009  1.00  0.00    -0.423 OA
ATOM      6  C   UNL     1      -7.826   0.652  -6.881  1.00  0.00     0.142 A 
ATOM      7  C   UNL     1      -7.880  -0.741  -6.764  1.00  0.00     0.098 A 
ATOM      8  C   UNL     1      -7.195  -1.553  -7.680  1.00  0.00     0.161 A 
ATOM      9  C   UNL     1      -6.454  -0.969  -8.717  1.00  0.00     0.158 A 
ATOM     10  C   UNL     1      -6.396   0.428  -8.840  1.00  0.00     0.062 A 
ATOM     11  C   UNL     1      -7.079   1.240  -7.925  1.00  0.00     0.022 A 
ENDROOT
BRANCH   9  12
ATOM     12  O   UNL     1      -5.776  -1.784  -9.624  1.00  0.00    -0.504 OA
ATOM     13  H   UNL     1      -4.791  -1.657  -9.817  1.00  0.00     0.293 HD
ENDBRANCH   9  12
BRANCH   8  14
ATOM     14  O   UNL     1      -7.248  -2.941  -7.566  1.00  0.00    -0.504 OA
ATOM     15  H   UNL     1      -6.587  -3.452  -6.991  1.00  0.00     0.293 HD
ENDBRANCH   8  14
TORSDOF 2
ENDMDL
MODEL 6
REMARK VINA RESULT:    -4.255     21.585     22.466
REMARK INTER + INTRA:          -4.504
REMARK INTER:                  -4.504
REMARK INTRA:                   0.000
REMARK UNBOUND:                 0.000
REMARK SMILES O=c1ccc2cc(O)c(O)cc2o1
REMARK SMILES IDX 4 1 3 2 2 3 1 4 13 5 12 6 11 7 9 8 7 9 6 10 5 11 8 12 10 14
REMARK H PARENT 8 13 10 15
REMARK Flexibility Score: inf
ROOT
ATOM      1  C   UNL     1       8.287  -2.472   9.048  1.00  0.00     0.019 A 
ATOM      2  C   UNL     1       8.348  -1.180   9.572  1.00  0.00     0.094 A 
ATOM      3  C   UNL     1       8.552  -0.105   8.701  1.00  0.00     0.336 A 
ATOM      4  O   UNL     1       8.610   1.068   9.155  1.00  0.00    -0.246 OA
ATOM      5  O   UNL     1       8.684  -0.312   7.394  1.00  0.00    -0.423 OA
ATOM      6  C   UNL     1       8.633  -1.526   6.852  1.00  0.00     0.142 A 
ATOM      7  C   UNL     1       8.778  -1.683   5.470  1.00  0.00     0.098 A 
ATOM      8  C   UNL     1       8.723  -2.962   4.895  1.00  0.00     0.161 A 
ATOM      9  C   UNL     1       8.522  -4.087   5.707  1.00  0.00     0.158 A 
ATOM     10  C   UNL     1       8.376  -3.937   7.094  1.00  0.00     0.062 A 
ATOM     11  C   UNL     1       8.429  -2.660   7.669  1.00  0.00     0.022 A 
ENDROOT
BRANCH   9  12
ATOM     12  O   UNL     1       8.469  -5.355   5.127  1.00  0.00    -0.504 OA
ATOM     13  H   UNL     1       8.207  -5.483   4.157  1.00  0.00     0.293 HD
ENDBRANCH   9  12
BRANCH   8  14
ATOM     14  O   UNL     1       8.869  -3.120   3.519  1.00  0.00    -0.504 OA
ATOM     15  H   UNL     1       8.160  -2.797   2.869  1.00  0.00     0.293 HD
ENDBRANCH   8  14
TORSDOF 2
ENDMDL
MODEL 7
REMARK VINA RESULT:    -4.091     14.393     16.557
REMARK INTER + INTRA:          -4.330
REMARK INTER:                  -4.330
REMARK INTRA:                   0.000
REMARK UNBOUND:                 0.000
REMARK SMILES O=c1ccc2cc(O)c(O)cc2o1
REMARK SMILES IDX 4 1 3 2 2 3 1 4 13 5 12 6 11 7 9 8 7 9 6 10 5 11 8 12 10 14
REMARK H PARENT 8 13 10 15
REMARK Flexibility Score: inf
ROOT
ATOM      1  C   UNL     1       7.144  -5.676  -8.276  1.00  0.00     0.019 A 
ATOM      2  C   UNL     1       8.003  -6.415  -9.089  1.00  0.00     0.094 A 
ATOM      3  C   UNL     1       7.797  -7.793  -9.218  1.00  0.00     0.336 A 
ATOM      4  O   UNL     1       8.563  -8.476  -9.947  1.00  0.00    -0.246 OA
ATOM      5  O   UNL     1       6.797  -8.387  -8.574  1.00  0.00    -0.423 OA
ATOM      6  C   UNL     1       5.954  -7.721  -7.788  1.00  0.00     0.142 A 
ATOM      7  C   UNL     1       4.919  -8.400  -7.137  1.00  0.00     0.098 A 
ATOM      8  C   UNL     1       4.028  -7.701  -6.308  1.00  0.00     0.161 A 
ATOM      9  C   UNL     1       4.173  -6.318  -6.132  1.00  0.00     0.158 A 
ATOM     10  C   UNL     1       5.209  -5.631  -6.782  1.00  0.00     0.062 A 
ATOM     11  C   UNL     1       6.099  -6.328  -7.611  1.00  0.00     0.022 A 
ENDROOT
BRANCH   9  12
ATOM     12  O   UNL     1       3.283  -5.631  -5.306  1.00  0.00    -0.504 OA
ATOM     13  H   UNL     1       3.001  -4.680  -5.507  1.00  0.00     0.293 HD
ENDBRANCH   9  12
BRANCH   8  14
ATOM     14  O   UNL     1       2.997  -8.376  -5.658  1.00  0.00    -0.504 OA
ATOM     15  H   UNL     1       3.077  -9.355  -5.408  1.00  0.00     0.293 HD
ENDBRANCH   8  14
TORSDOF 2
ENDMDL
MODEL 8
REMARK VINA RESULT:    -4.017      1.663      2.651
REMARK INTER + INTRA:          -4.252
REMARK INTER:                  -4.252
REMARK INTRA:                   0.000
REMARK UNBOUND:                 0.000
REMARK SMILES O=c1ccc2cc(O)c(O)cc2o1
REMARK SMILES IDX 4 1 3 2 2 3 1 4 13 5 12 6 11 7 9 8 7 9 6 10 5 11 8 12 10 14
REMARK H PARENT 8 13 10 15
REMARK Flexibility Score: inf
ROOT
ATOM      1  C   UNL     1      -6.879   0.162  -8.276  1.00  0.00     0.019 A 
ATOM      2  C   UNL     1      -7.401  -0.753  -7.362  1.00  0.00     0.094 A 
ATOM      3  C   UNL     1      -8.228  -0.288  -6.334  1.00  0.00     0.336 A 
ATOM      4  O   UNL     1      -8.709  -1.100  -5.500  1.00  0.00    -0.246 OA
ATOM      5  O   UNL     1      -8.511   1.007  -6.231  1.00  0.00    -0.423 OA
ATOM      6  C   UNL     1      -8.035   1.914  -7.080  1.00  0.00     0.142 A 
ATOM      7  C   UNL     1      -8.368   3.263  -6.922  1.00  0.00     0.098 A 
ATOM      8  C   UNL     1      -7.868   4.223  -7.816  1.00  0.00     0.161 A 
ATOM      9  C   UNL     1      -7.033   3.830  -8.871  1.00  0.00     0.158 A 
ATOM     10  C   UNL     1      -6.695   2.478  -9.035  1.00  0.00     0.062 A 
ATOM     11  C   UNL     1      -7.194   1.519  -8.144  1.00  0.00     0.022 A 
ENDROOT
BRANCH   9  12
ATOM     12  O   UNL     1      -6.540   4.791  -9.754  1.00  0.00    -0.504 OA
ATOM     13  H   UNL     1      -6.915   4.892 -10.689  1.00  0.00     0.293 HD
ENDBRANCH   9  12
BRANCH   8  14
ATOM     14  O   UNL     1      -8.198   5.568  -7.660  1.00  0.00    -0.504 OA
ATOM     15  H   UNL     1      -7.745   6.293  -8.206  1.00  0.00     0.293 HD
ENDBRANCH   8  14
TORSDOF 2
ENDMDL
MODEL 9
REMARK VINA RESULT:    -3.959     14.414     16.497
REMARK INTER + INTRA:          -4.190
REMARK INTER:                  -4.190
REMARK INTRA:                   0.000
REMARK UNBOUND:                 0.000
REMARK SMILES O=c1ccc2cc(O)c(O)cc2o1
REMARK SMILES IDX 4 1 3 2 2 3 1 4 13 5 12 6 11 7 9 8 7 9 6 10 5 11 8 12 10 14
REMARK H PARENT 8 13 10 15
REMARK Flexibility Score: inf
ROOT
ATOM      1  C   UNL     1       6.817  -8.404  -8.686  1.00  0.00     0.019 A 
ATOM      2  C   UNL     1       7.852  -7.697  -9.298  1.00  0.00     0.094 A 
ATOM      3  C   UNL     1       7.980  -6.327  -9.047  1.00  0.00     0.336 A 
ATOM      4  O   UNL     1       8.908  -5.673  -9.591  1.00  0.00    -0.246 OA
ATOM      5  O   UNL     1       7.126  -5.709  -8.236  1.00  0.00    -0.423 OA
ATOM      6  C   UNL     1       6.125  -6.344  -7.631  1.00  0.00     0.142 A 
ATOM      7  C   UNL     1       5.258  -5.641  -6.788  1.00  0.00     0.098 A 
ATOM      8  C   UNL     1       4.202  -6.307  -6.148  1.00  0.00     0.161 A 
ATOM      9  C   UNL     1       4.012  -7.681  -6.353  1.00  0.00     0.158 A 
ATOM     10  C   UNL     1       4.878  -8.391  -7.198  1.00  0.00     0.062 A 
ATOM     11  C   UNL     1       5.934  -7.728  -7.837  1.00  0.00     0.022 A 
ENDROOT
BRANCH   9  12
ATOM     12  O   UNL     1       2.959  -8.335  -5.714  1.00  0.00    -0.504 OA
ATOM     13  H   UNL     1       3.113  -9.163  -5.153  1.00  0.00     0.293 HD
ENDBRANCH   9  12
BRANCH   8  14
ATOM     14  O   UNL     1       3.337  -5.609  -5.308  1.00  0.00    -0.504 OA
ATOM     15  H   UNL     1       3.037  -4.663  -5.521  1.00  0.00     0.293 HD
ENDBRANCH   8  14
TORSDOF 2
ENDMDL
