MODEL 1
REMARK VINA RESULT:    -4.704      0.000      0.000
REMARK INTER + INTRA:         -16.307
REMARK INTER:                 -11.853
REMARK INTRA:                  -4.454
REMARK UNBOUND:                -4.454
REMARK SMILES CCCCCCCCCCCCCCCCCCCCCCCCCCCC(=O)[O-]
REMARK SMILES IDX 15 1 16 2 17 3 18 4 19 5 20 6 21 7 22 8 23 9 24 10 25 11
REMARK SMILES IDX 26 12 27 13 28 14 29 15 30 16 14 17 13 18 12 19 11 20 10 21
REMARK SMILES IDX 9 22 8 23 7 24 6 25 5 26 4 27 3 28 2 29 1 30
REMARK H PARENT
REMARK Flexibility Score: inf
ROOT
ATOM      1  C   UNL     1      21.034  22.983   8.706  1.00  0.00     0.000 C 
ENDROOT
BRANCH   1   2
ATOM      2  C   UNL     1      21.667  22.317   7.472  1.00  0.00     0.000 C 
BRANCH   2   3
ATOM      3  C   UNL     1      22.125  20.857   7.675  1.00  0.00     0.000 C 
BRANCH   3   4
ATOM      4  C   UNL     1      21.719  19.905   6.531  1.00  0.00     0.000 C 
BRANCH   4   5
ATOM      5  C   UNL     1      22.172  20.417   5.151  1.00  0.00     0.000 C 
BRANCH   5   6
ATOM      6  C   UNL     1      22.804  19.307   4.294  1.00  0.00     0.000 C 
BRANCH   6   7
ATOM      7  C   UNL     1      24.313  19.160   4.555  1.00  0.00     0.000 C 
BRANCH   7   8
ATOM      8  C   UNL     1      24.679  17.821   5.217  1.00  0.00     0.000 C 
BRANCH   8   9
ATOM      9  C   UNL     1      25.099  16.705   4.244  1.00  0.00     0.000 C 
BRANCH   9  10
ATOM     10  C   UNL     1      24.300  15.407   4.435  1.00  0.00     0.000 C 
BRANCH  10  11
ATOM     11  C   UNL     1      22.790  15.690   4.463  1.00  0.00     0.000 C 
BRANCH  11  12
ATOM     12  C   UNL     1      22.130  15.204   5.765  1.00  0.00     0.006 C 
BRANCH  12  13
ATOM     13  C   UNL     1      21.511  16.357   6.567  1.00  0.00     0.053 C 
BRANCH  13  14
ATOM     14  C   UNL     1      20.021  16.365   6.417  1.00  0.00     0.041 C 
ATOM     15  O   UNL     1      19.294  15.789   7.270  1.00  0.00    -0.550 OA
ATOM     16  O   UNL     1      19.434  17.014   5.338  1.00  0.00    -0.550 OA
ENDBRANCH  13  14
ENDBRANCH  12  13
ENDBRANCH  11  12
ENDBRANCH  10  11
ENDBRANCH   9  10
ENDBRANCH   8   9
ENDBRANCH   7   8
ENDBRANCH   6   7
ENDBRANCH   5   6
ENDBRANCH   4   5
ENDBRANCH   3   4
ENDBRANCH   2   3
ENDBRANCH   1   2
BRANCH   1  17
ATOM     17  C   UNL     1      20.336  24.314   8.373  1.00  0.00     0.000 C 
BRANCH  17  18
ATOM     18  C   UNL     1      18.805  24.184   8.327  1.00  0.00     0.000 C 
BRANCH  18  19
ATOM     19  C   UNL     1      18.087  25.376   8.984  1.00  0.00     0.000 C 
BRANCH  19  20
ATOM     20  C   UNL     1      17.014  24.933   9.993  1.00  0.00     0.000 C 
BRANCH  20  21
ATOM     21  C   UNL     1      16.875  23.403  10.078  1.00  0.00     0.000 C 
BRANCH  21  22
ATOM     22  C   UNL     1      17.574  22.821  11.318  1.00  0.00    -0.000 C 
BRANCH  22  23
ATOM     23  C   UNL     1      18.281  21.486  11.026  1.00  0.00    -0.000 C 
BRANCH  23  24
ATOM     24  C   UNL     1      17.645  20.718   9.853  1.00  0.00    -0.000 C 
BRANCH  24  25
ATOM     25  C   UNL     1      18.576  20.467   8.652  1.00  0.00    -0.000 C 
BRANCH  25  26
ATOM     26  C   UNL     1      18.002  19.447   7.655  1.00  0.00    -0.000 C 
BRANCH  26  27
ATOM     27  C   UNL     1      17.772  20.043   6.253  1.00  0.00    -0.000 C 
BRANCH  27  28
ATOM     28  C   UNL     1      17.713  21.579   6.193  1.00  0.00    -0.000 C 
BRANCH  28  29
ATOM     29  C   UNL     1      18.782  22.187   5.274  1.00  0.00    -0.003 C 
ATOM     30  C   UNL     1      19.157  21.223   4.151  1.00  0.00     0.004 C 
ENDBRANCH  28  29
ENDBRANCH  27  28
ENDBRANCH  26  27
ENDBRANCH  25  26
ENDBRANCH  24  25
ENDBRANCH  23  24
ENDBRANCH  22  23
ENDBRANCH  21  22
ENDBRANCH  20  21
ENDBRANCH  19  20
ENDBRANCH  18  19
ENDBRANCH  17  18
ENDBRANCH   1  17
TORSDOF 26
ENDMDL
MODEL 2
REMARK VINA RESULT:    -4.537      2.013      3.936
REMARK INTER + INTRA:         -15.886
REMARK INTER:                 -12.537
REMARK INTRA:                  -3.349
REMARK UNBOUND:                -4.454
REMARK SMILES CCCCCCCCCCCCCCCCCCCCCCCCCCCC(=O)[O-]
REMARK SMILES IDX 15 1 16 2 17 3 18 4 19 5 20 6 21 7 22 8 23 9 24 10 25 11
REMARK SMILES IDX 26 12 27 13 28 14 29 15 30 16 14 17 13 18 12 19 11 20 10 21
REMARK SMILES IDX 9 22 8 23 7 24 6 25 5 26 4 27 3 28 2 29 1 30
REMARK H PARENT
REMARK Flexibility Score: inf
ROOT
ATOM      1  C   UNL     1      21.431  22.397   9.304  1.00  0.00     0.000 C 
ENDROOT
BRANCH   1   2
ATOM      2  C   UNL     1      21.612  23.182   7.994  1.00  0.00     0.000 C 
BRANCH   2   3
ATOM      3  C   UNL     1      20.780  22.669   6.799  1.00  0.00     0.000 C 
BRANCH   3   4
ATOM      4  C   UNL     1      21.065  21.202   6.417  1.00  0.00     0.000 C 
BRANCH   4   5
ATOM      5  C   UNL     1      21.078  20.983   4.893  1.00  0.00     0.000 C 
BRANCH   5   6
ATOM      6  C   UNL     1      20.933  19.500   4.513  1.00  0.00     0.000 C 
BRANCH   6   7
ATOM      7  C   UNL     1      19.560  18.930   4.908  1.00  0.00     0.000 C 
BRANCH   7   8
ATOM      8  C   UNL     1      19.653  17.823   5.971  1.00  0.00     0.000 C 
BRANCH   8   9
ATOM      9  C   UNL     1      20.321  16.519   5.499  1.00  0.00     0.000 C 
BRANCH   9  10
ATOM     10  C   UNL     1      21.701  16.287   6.134  1.00  0.00     0.000 C 
BRANCH  10  11
ATOM     11  C   UNL     1      22.394  15.065   5.514  1.00  0.00     0.000 C 
BRANCH  11  12
ATOM     12  C   UNL     1      23.647  15.452   4.708  1.00  0.00     0.006 C 
BRANCH  12  13
ATOM     13  C   UNL     1      23.636  16.930   4.296  1.00  0.00     0.053 C 
BRANCH  13  14
ATOM     14  C   UNL     1      24.670  17.699   5.059  1.00  0.00     0.041 C 
ATOM     15  O   UNL     1      24.325  18.634   5.830  1.00  0.00    -0.550 OA
ATOM     16  O   UNL     1      26.015  17.379   4.925  1.00  0.00    -0.550 OA
ENDBRANCH  13  14
ENDBRANCH  12  13
ENDBRANCH  11  12
ENDBRANCH  10  11
ENDBRANCH   9  10
ENDBRANCH   8   9
ENDBRANCH   7   8
ENDBRANCH   6   7
ENDBRANCH   5   6
ENDBRANCH   4   5
ENDBRANCH   3   4
ENDBRANCH   2   3
ENDBRANCH   1   2
BRANCH   1  17
ATOM     17  C   UNL     1      20.744  23.226  10.405  1.00  0.00     0.000 C 
BRANCH  17  18
ATOM     18  C   UNL     1      19.233  22.955  10.495  1.00  0.00     0.000 C 
BRANCH  18  19
ATOM     19  C   UNL     1      18.867  22.009  11.651  1.00  0.00     0.000 C 
BRANCH  19  20
ATOM     20  C   UNL     1      17.413  21.516  11.570  1.00  0.00     0.000 C 
BRANCH  20  21
ATOM     21  C   UNL     1      16.875  21.486  10.128  1.00  0.00     0.000 C 
BRANCH  21  22
ATOM     22  C   UNL     1      17.259  20.195   9.387  1.00  0.00    -0.000 C 
BRANCH  22  23
ATOM     23  C   UNL     1      18.066  20.466   8.106  1.00  0.00    -0.000 C 
BRANCH  23  24
ATOM     24  C   UNL     1      17.173  20.813   6.900  1.00  0.00    -0.000 C 
BRANCH  24  25
ATOM     25  C   UNL     1      17.235  22.281   6.440  1.00  0.00    -0.000 C 
BRANCH  25  26
ATOM     26  C   UNL     1      17.015  23.277   7.591  1.00  0.00    -0.000 C 
BRANCH  26  27
ATOM     27  C   UNL     1      17.622  24.664   7.309  1.00  0.00    -0.000 C 
BRANCH  27  28
ATOM     28  C   UNL     1      18.252  25.365   8.526  1.00  0.00    -0.000 C 
BRANCH  28  29
ATOM     29  C   UNL     1      18.377  26.885   8.347  1.00  0.00    -0.003 C 
ATOM     30  C   UNL     1      17.251  27.620   9.069  1.00  0.00     0.004 C 
ENDBRANCH  28  29
ENDBRANCH  27  28
ENDBRANCH  26  27
ENDBRANCH  25  26
ENDBRANCH  24  25
ENDBRANCH  23  24
ENDBRANCH  22  23
ENDBRANCH  21  22
ENDBRANCH  20  21
ENDBRANCH  19  20
ENDBRANCH  18  19
ENDBRANCH  17  18
ENDBRANCH   1  17
TORSDOF 26
ENDMDL
MODEL 3
REMARK VINA RESULT:    -4.473      2.835      4.248
REMARK INTER + INTRA:         -15.727
REMARK INTER:                 -12.382
REMARK INTRA:                  -3.344
REMARK UNBOUND:                -4.454
REMARK SMILES CCCCCCCCCCCCCCCCCCCCCCCCCCCC(=O)[O-]
REMARK SMILES IDX 15 1 16 2 17 3 18 4 19 5 20 6 21 7 22 8 23 9 24 10 25 11
REMARK SMILES IDX 26 12 27 13 28 14 29 15 30 16 14 17 13 18 12 19 11 20 10 21
REMARK SMILES IDX 9 22 8 23 7 24 6 25 5 26 4 27 3 28 2 29 1 30
REMARK H PARENT
REMARK Flexibility Score: inf
ROOT
ATOM      1  C   UNL     1      21.048  21.393   7.746  1.00  0.00     0.000 C 
ENDROOT
BRANCH   1   2
ATOM      2  C   UNL     1      21.157  22.279   6.494  1.00  0.00     0.000 C 
BRANCH   2   3
ATOM      3  C   UNL     1      20.792  21.586   5.164  1.00  0.00     0.000 C 
BRANCH   3   4
ATOM      4  C   UNL     1      21.974  20.860   4.487  1.00  0.00     0.000 C 
BRANCH   4   5
ATOM      5  C   UNL     1      22.124  19.405   4.967  1.00  0.00     0.000 C 
BRANCH   5   6
ATOM      6  C   UNL     1      20.797  18.629   4.908  1.00  0.00     0.000 C 
BRANCH   6   7
ATOM      7  C   UNL     1      20.737  17.498   5.949  1.00  0.00     0.000 C 
BRANCH   7   8
ATOM      8  C   UNL     1      22.083  16.776   6.128  1.00  0.00     0.000 C 
BRANCH   8   9
ATOM      9  C   UNL     1      22.250  15.492   5.295  1.00  0.00     0.000 C 
BRANCH   9  10
ATOM     10  C   UNL     1      23.304  15.628   4.186  1.00  0.00     0.000 C 
BRANCH  10  11
ATOM     11  C   UNL     1      24.470  16.519   4.640  1.00  0.00     0.000 C 
BRANCH  11  12
ATOM     12  C   UNL     1      25.802  15.752   4.692  1.00  0.00     0.006 C 
BRANCH  12  13
ATOM     13  C   UNL     1      26.989  16.673   5.008  1.00  0.00     0.053 C 
BRANCH  13  14
ATOM     14  C   UNL     1      28.201  15.870   5.365  1.00  0.00     0.041 C 
ATOM     15  O   UNL     1      29.244  16.443   5.779  1.00  0.00    -0.550 OA
ATOM     16  O   UNL     1      28.178  14.485   5.248  1.00  0.00    -0.550 OA
ENDBRANCH  13  14
ENDBRANCH  12  13
ENDBRANCH  11  12
ENDBRANCH  10  11
ENDBRANCH   9  10
ENDBRANCH   8   9
ENDBRANCH   7   8
ENDBRANCH   6   7
ENDBRANCH   5   6
ENDBRANCH   4   5
ENDBRANCH   3   4
ENDBRANCH   2   3
ENDBRANCH   1   2
BRANCH   1  17
ATOM     17  C   UNL     1      21.901  21.910   8.919  1.00  0.00     0.000 C 
BRANCH  17  18
ATOM     18  C   UNL     1      21.430  23.280   9.434  1.00  0.00     0.000 C 
BRANCH  18  19
ATOM     19  C   UNL     1      20.505  23.170  10.658  1.00  0.00     0.000 C 
BRANCH  19  20
ATOM     20  C   UNL     1      19.020  23.086  10.268  1.00  0.00     0.000 C 
BRANCH  20  21
ATOM     21  C   UNL     1      18.187  22.271  11.273  1.00  0.00     0.000 C 
BRANCH  21  22
ATOM     22  C   UNL     1      17.265  21.254  10.579  1.00  0.00    -0.000 C 
BRANCH  22  23
ATOM     23  C   UNL     1      18.021  20.344   9.596  1.00  0.00    -0.000 C 
BRANCH  23  24
ATOM     24  C   UNL     1      17.393  20.334   8.190  1.00  0.00    -0.000 C 
BRANCH  24  25
ATOM     25  C   UNL     1      16.875  21.698   7.695  1.00  0.00    -0.000 C 
BRANCH  25  26
ATOM     26  C   UNL     1      17.868  22.410   6.761  1.00  0.00    -0.000 C 
BRANCH  26  27
ATOM     27  C   UNL     1      17.534  23.898   6.552  1.00  0.00    -0.000 C 
BRANCH  27  28
ATOM     28  C   UNL     1      17.124  24.664   7.822  1.00  0.00    -0.000 C 
BRANCH  28  29
ATOM     29  C   UNL     1      18.006  25.891   8.096  1.00  0.00    -0.003 C 
ATOM     30  C   UNL     1      17.722  26.478   9.476  1.00  0.00     0.004 C 
ENDBRANCH  28  29
ENDBRANCH  27  28
ENDBRANCH  26  27
ENDBRANCH  25  26
ENDBRANCH  24  25
ENDBRANCH  23  24
ENDBRANCH  22  23
ENDBRANCH  21  22
ENDBRANCH  20  21
ENDBRANCH  19  20
ENDBRANCH  18  19
ENDBRANCH  17  18
ENDBRANCH   1  17
TORSDOF 26
ENDMDL
MODEL 4
REMARK VINA RESULT:    -4.408      1.988      3.580
REMARK INTER + INTRA:         -15.561
REMARK INTER:                 -11.645
REMARK INTRA:                  -3.916
REMARK UNBOUND:                -4.454
REMARK SMILES CCCCCCCCCCCCCCCCCCCCCCCCCCCC(=O)[O-]
REMARK SMILES IDX 15 1 16 2 17 3 18 4 19 5 20 6 21 7 22 8 23 9 24 10 25 11
REMARK SMILES IDX 26 12 27 13 28 14 29 15 30 16 14 17 13 18 12 19 11 20 10 21
REMARK SMILES IDX 9 22 8 23 7 24 6 25 5 26 4 27 3 28 2 29 1 30
REMARK H PARENT
REMARK Flexibility Score: inf
ROOT
ATOM      1  C   UNL     1      21.931  22.689   9.148  1.00  0.00     0.000 C 
ENDROOT
BRANCH   1   2
ATOM      2  C   UNL     1      21.609  22.880   7.656  1.00  0.00     0.000 C 
BRANCH   2   3
ATOM      3  C   UNL     1      21.250  21.589   6.890  1.00  0.00     0.000 C 
BRANCH   3   4
ATOM      4  C   UNL     1      21.779  21.549   5.441  1.00  0.00     0.000 C 
BRANCH   4   5
ATOM      5  C   UNL     1      20.650  21.390   4.406  1.00  0.00     0.000 C 
BRANCH   5   6
ATOM      6  C   UNL     1      19.960  20.018   4.498  1.00  0.00     0.000 C 
BRANCH   6   7
ATOM      7  C   UNL     1      20.845  18.884   3.953  1.00  0.00     0.000 C 
BRANCH   7   8
ATOM      8  C   UNL     1      21.462  18.018   5.064  1.00  0.00     0.000 C 
BRANCH   8   9
ATOM      9  C   UNL     1      20.462  17.143   5.841  1.00  0.00     0.000 C 
BRANCH   9  10
ATOM     10  C   UNL     1      19.606  16.253   4.927  1.00  0.00     0.000 C 
BRANCH  10  11
ATOM     11  C   UNL     1      18.118  16.361   5.291  1.00  0.00     0.000 C 
BRANCH  11  12
ATOM     12  C   UNL     1      17.895  17.108   6.617  1.00  0.00     0.006 C 
BRANCH  12  13
ATOM     13  C   UNL     1      17.091  16.275   7.625  1.00  0.00     0.053 C 
BRANCH  13  14
ATOM     14  C   UNL     1      17.785  14.980   7.912  1.00  0.00     0.041 C 
ATOM     15  O   UNL     1      18.990  14.973   8.282  1.00  0.00    -0.550 OA
ATOM     16  O   UNL     1      17.100  13.778   7.780  1.00  0.00    -0.550 OA
ENDBRANCH  13  14
ENDBRANCH  12  13
ENDBRANCH  11  12
ENDBRANCH  10  11
ENDBRANCH   9  10
ENDBRANCH   8   9
ENDBRANCH   7   8
ENDBRANCH   6   7
ENDBRANCH   5   6
ENDBRANCH   4   5
ENDBRANCH   3   4
ENDBRANCH   2   3
ENDBRANCH   1   2
BRANCH   1  17
ATOM     17  C   UNL     1      20.987  23.483  10.068  1.00  0.00     0.000 C 
BRANCH  17  18
ATOM     18  C   UNL     1      20.009  24.375   9.285  1.00  0.00     0.000 C 
BRANCH  18  19
ATOM     19  C   UNL     1      19.066  25.171  10.204  1.00  0.00     0.000 C 
BRANCH  19  20
ATOM     20  C   UNL     1      18.415  26.365   9.486  1.00  0.00     0.000 C 
BRANCH  20  21
ATOM     21  C   UNL     1      17.665  25.953   8.208  1.00  0.00     0.000 C 
BRANCH  21  22
ATOM     22  C   UNL     1      17.227  24.479   8.236  1.00  0.00    -0.000 C 
BRANCH  22  23
ATOM     23  C   UNL     1      16.928  23.924   6.833  1.00  0.00    -0.000 C 
BRANCH  23  24
ATOM     24  C   UNL     1      17.985  22.911   6.355  1.00  0.00    -0.000 C 
BRANCH  24  25
ATOM     25  C   UNL     1      17.476  21.467   6.180  1.00  0.00    -0.000 C 
BRANCH  25  26
ATOM     26  C   UNL     1      16.878  20.884   7.471  1.00  0.00    -0.000 C 
BRANCH  26  27
ATOM     27  C   UNL     1      17.918  20.144   8.333  1.00  0.00    -0.000 C 
BRANCH  27  28
ATOM     28  C   UNL     1      18.442  20.928   9.549  1.00  0.00    -0.000 C 
BRANCH  28  29
ATOM     29  C   UNL     1      17.332  21.321  10.535  1.00  0.00    -0.003 C 
ATOM     30  C   UNL     1      17.863  22.252  11.621  1.00  0.00     0.004 C 
ENDBRANCH  28  29
ENDBRANCH  27  28
ENDBRANCH  26  27
ENDBRANCH  25  26
ENDBRANCH  24  25
ENDBRANCH  23  24
ENDBRANCH  22  23
ENDBRANCH  21  22
ENDBRANCH  20  21
ENDBRANCH  19  20
ENDBRANCH  18  19
ENDBRANCH  17  18
ENDBRANCH   1  17
TORSDOF 26
ENDMDL
MODEL 5
REMARK VINA RESULT:    -4.355      6.320      8.296
REMARK INTER + INTRA:         -15.428
REMARK INTER:                 -13.241
REMARK INTRA:                  -2.187
REMARK UNBOUND:                -4.454
REMARK SMILES CCCCCCCCCCCCCCCCCCCCCCCCCCCC(=O)[O-]
REMARK SMILES IDX 15 1 16 2 17 3 18 4 19 5 20 6 21 7 22 8 23 9 24 10 25 11
REMARK SMILES IDX 26 12 27 13 28 14 29 15 30 16 14 17 13 18 12 19 11 20 10 21
REMARK SMILES IDX 9 22 8 23 7 24 6 25 5 26 4 27 3 28 2 29 1 30
REMARK H PARENT
REMARK Flexibility Score: inf
ROOT
ATOM      1  C   UNL     1      23.460  18.338   5.428  1.00  0.00     0.000 C 
ENDROOT
BRANCH   1   2
ATOM      2  C   UNL     1      24.739  18.470   4.584  1.00  0.00     0.000 C 
BRANCH   2   3
ATOM      3  C   UNL     1      25.371  17.137   4.135  1.00  0.00     0.000 C 
BRANCH   3   4
ATOM      4  C   UNL     1      26.907  17.089   4.274  1.00  0.00     0.000 C 
BRANCH   4   5
ATOM      5  C   UNL     1      27.367  16.168   5.418  1.00  0.00     0.000 C 
BRANCH   5   6
ATOM      6  C   UNL     1      28.808  16.465   5.867  1.00  0.00     0.000 C 
BRANCH   6   7
ATOM      7  C   UNL     1      29.841  15.627   5.096  1.00  0.00     0.000 C 
BRANCH   7   8
ATOM      8  C   UNL     1      29.410  14.161   4.914  1.00  0.00     0.000 C 
BRANCH   8   9
ATOM      9  C   UNL     1      30.370  13.119   5.516  1.00  0.00     0.000 C 
BRANCH   9  10
ATOM     10  C   UNL     1      30.908  13.525   6.896  1.00  0.00     0.000 C 
BRANCH  10  11
ATOM     11  C   UNL     1      31.732  12.389   7.521  1.00  0.00     0.000 C 
BRANCH  11  12
ATOM     12  C   UNL     1      32.958  12.914   8.289  1.00  0.00     0.006 C 
BRANCH  12  13
ATOM     13  C   UNL     1      34.110  11.899   8.306  1.00  0.00     0.053 C 
BRANCH  13  14
ATOM     14  C   UNL     1      35.367  12.518   7.780  1.00  0.00     0.041 C 
ATOM     15  O   UNL     1      35.406  12.980   6.608  1.00  0.00    -0.550 OA
ATOM     16  O   UNL     1      36.496  12.593   8.586  1.00  0.00    -0.550 OA
ENDBRANCH  13  14
ENDBRANCH  12  13
ENDBRANCH  11  12
ENDBRANCH  10  11
ENDBRANCH   9  10
ENDBRANCH   8   9
ENDBRANCH   7   8
ENDBRANCH   6   7
ENDBRANCH   5   6
ENDBRANCH   4   5
ENDBRANCH   3   4
ENDBRANCH   2   3
ENDBRANCH   1   2
BRANCH   1  17
ATOM     17  C   UNL     1      23.392  19.363   6.574  1.00  0.00     0.000 C 
BRANCH  17  18
ATOM     18  C   UNL     1      22.085  20.172   6.569  1.00  0.00     0.000 C 
BRANCH  18  19
ATOM     19  C   UNL     1      21.797  20.829   5.208  1.00  0.00     0.000 C 
BRANCH  19  20
ATOM     20  C   UNL     1      20.504  21.662   5.218  1.00  0.00     0.000 C 
BRANCH  20  21
ATOM     21  C   UNL     1      20.381  22.553   6.467  1.00  0.00     0.000 C 
BRANCH  21  22
ATOM     22  C   UNL     1      18.929  22.974   6.744  1.00  0.00    -0.000 C 
BRANCH  22  23
ATOM     23  C   UNL     1      18.172  21.955   7.612  1.00  0.00    -0.000 C 
BRANCH  23  24
ATOM     24  C   UNL     1      19.072  21.286   8.668  1.00  0.00    -0.000 C 
BRANCH  24  25
ATOM     25  C   UNL     1      19.047  21.944  10.061  1.00  0.00    -0.000 C 
BRANCH  25  26
ATOM     26  C   UNL     1      20.221  22.911  10.286  1.00  0.00    -0.000 C 
BRANCH  26  27
ATOM     27  C   UNL     1      19.894  24.359   9.874  1.00  0.00    -0.000 C 
BRANCH  27  28
ATOM     28  C   UNL     1      18.419  24.769  10.033  1.00  0.00    -0.000 C 
BRANCH  28  29
ATOM     29  C   UNL     1      17.971  25.814   9.000  1.00  0.00    -0.003 C 
ATOM     30  C   UNL     1      18.986  26.949   8.888  1.00  0.00     0.004 C 
ENDBRANCH  28  29
ENDBRANCH  27  28
ENDBRANCH  26  27
ENDBRANCH  25  26
ENDBRANCH  24  25
ENDBRANCH  23  24
ENDBRANCH  22  23
ENDBRANCH  21  22
ENDBRANCH  20  21
ENDBRANCH  19  20
ENDBRANCH  18  19
ENDBRANCH  17  18
ENDBRANCH   1  17
TORSDOF 26
ENDMDL
MODEL 6
REMARK VINA RESULT:    -4.275      3.124      8.470
REMARK INTER + INTRA:         -15.228
REMARK INTER:                 -11.522
REMARK INTRA:                  -3.705
REMARK UNBOUND:                -4.454
REMARK SMILES CCCCCCCCCCCCCCCCCCCCCCCCCCCC(=O)[O-]
REMARK SMILES IDX 15 1 16 2 17 3 18 4 19 5 20 6 21 7 22 8 23 9 24 10 25 11
REMARK SMILES IDX 26 12 27 13 28 14 29 15 30 16 14 17 13 18 12 19 11 20 10 21
REMARK SMILES IDX 9 22 8 23 7 24 6 25 5 26 4 27 3 28 2 29 1 30
REMARK H PARENT
REMARK Flexibility Score: inf
ROOT
ATOM      1  C   UNL     1      22.193  20.560   6.194  1.00  0.00     0.000 C 
ENDROOT
BRANCH   1   2
ATOM      2  C   UNL     1      21.219  21.137   7.235  1.00  0.00     0.000 C 
BRANCH   2   3
ATOM      3  C   UNL     1      20.826  22.613   7.022  1.00  0.00     0.000 C 
BRANCH   3   4
ATOM      4  C   UNL     1      19.544  22.809   6.185  1.00  0.00     0.000 C 
BRANCH   4   5
ATOM      5  C   UNL     1      18.273  22.833   7.054  1.00  0.00     0.000 C 
BRANCH   5   6
ATOM      6  C   UNL     1      17.267  21.741   6.650  1.00  0.00     0.000 C 
BRANCH   6   7
ATOM      7  C   UNL     1      16.902  20.823   7.829  1.00  0.00     0.000 C 
BRANCH   7   8
ATOM      8  C   UNL     1      18.075  20.595   8.798  1.00  0.00     0.000 C 
BRANCH   8   9
ATOM      9  C   UNL     1      17.721  20.725  10.290  1.00  0.00     0.000 C 
BRANCH   9  10
ATOM     10  C   UNL     1      18.430  21.903  10.976  1.00  0.00     0.000 C 
BRANCH  10  11
ATOM     11  C   UNL     1      17.432  23.019  11.322  1.00  0.00     0.000 C 
BRANCH  11  12
ATOM     12  C   UNL     1      17.305  24.057  10.193  1.00  0.00     0.006 C 
BRANCH  12  13
ATOM     13  C   UNL     1      18.578  24.903  10.038  1.00  0.00     0.053 C 
BRANCH  13  14
ATOM     14  C   UNL     1      18.248  26.261   9.501  1.00  0.00     0.041 C 
ATOM     15  O   UNL     1      19.155  27.123   9.352  1.00  0.00    -0.550 OA
ATOM     16  O   UNL     1      16.938  26.574   9.156  1.00  0.00    -0.550 OA
ENDBRANCH  13  14
ENDBRANCH  12  13
ENDBRANCH  11  12
ENDBRANCH  10  11
ENDBRANCH   9  10
ENDBRANCH   8   9
ENDBRANCH   7   8
ENDBRANCH   6   7
ENDBRANCH   5   6
ENDBRANCH   4   5
ENDBRANCH   3   4
ENDBRANCH   2   3
ENDBRANCH   1   2
BRANCH   1  17
ATOM     17  C   UNL     1      21.765  20.861   4.746  1.00  0.00     0.000 C 
BRANCH  17  18
ATOM     18  C   UNL     1      21.046  19.675   4.083  1.00  0.00     0.000 C 
BRANCH  18  19
ATOM     19  C   UNL     1      19.517  19.741   4.246  1.00  0.00     0.000 C 
BRANCH  19  20
ATOM     20  C   UNL     1      18.991  18.728   5.276  1.00  0.00     0.000 C 
BRANCH  20  21
ATOM     21  C   UNL     1      20.105  17.841   5.858  1.00  0.00     0.000 C 
BRANCH  21  22
ATOM     22  C   UNL     1      19.933  16.361   5.480  1.00  0.00    -0.000 C 
BRANCH  22  23
ATOM     23  C   UNL     1      21.277  15.635   5.301  1.00  0.00    -0.000 C 
BRANCH  23  24
ATOM     24  C   UNL     1      22.225  16.365   4.332  1.00  0.00    -0.000 C 
BRANCH  24  25
ATOM     25  C   UNL     1      23.565  16.817   4.943  1.00  0.00    -0.000 C 
BRANCH  25  26
ATOM     26  C   UNL     1      24.241  17.938   4.137  1.00  0.00    -0.000 C 
BRANCH  26  27
ATOM     27  C   UNL     1      25.740  17.682   3.892  1.00  0.00    -0.000 C 
BRANCH  27  28
ATOM     28  C   UNL     1      26.494  17.025   5.062  1.00  0.00    -0.000 C 
BRANCH  28  29
ATOM     29  C   UNL     1      27.891  16.522   4.670  1.00  0.00    -0.003 C 
ATOM     30  C   UNL     1      28.769  16.317   5.901  1.00  0.00     0.004 C 
ENDBRANCH  28  29
ENDBRANCH  27  28
ENDBRANCH  26  27
ENDBRANCH  25  26
ENDBRANCH  24  25
ENDBRANCH  23  24
ENDBRANCH  22  23
ENDBRANCH  21  22
ENDBRANCH  20  21
ENDBRANCH  19  20
ENDBRANCH  18  19
ENDBRANCH  17  18
ENDBRANCH   1  17
TORSDOF 26
ENDMDL
MODEL 7
REMARK VINA RESULT:    -4.216      1.932      4.241
REMARK INTER + INTRA:         -15.077
REMARK INTER:                 -11.508
REMARK INTRA:                  -3.569
REMARK UNBOUND:                -4.454
REMARK SMILES CCCCCCCCCCCCCCCCCCCCCCCCCCCC(=O)[O-]
REMARK SMILES IDX 15 1 16 2 17 3 18 4 19 5 20 6 21 7 22 8 23 9 24 10 25 11
REMARK SMILES IDX 26 12 27 13 28 14 29 15 30 16 14 17 13 18 12 19 11 20 10 21
REMARK SMILES IDX 9 22 8 23 7 24 6 25 5 26 4 27 3 28 2 29 1 30
REMARK H PARENT
REMARK Flexibility Score: inf
ROOT
ATOM      1  C   UNL     1      20.943  21.245   7.573  1.00  0.00     0.000 C 
ENDROOT
BRANCH   1   2
ATOM      2  C   UNL     1      21.142  22.133   6.333  1.00  0.00     0.000 C 
BRANCH   2   3
ATOM      3  C   UNL     1      19.881  22.353   5.472  1.00  0.00     0.000 C 
BRANCH   3   4
ATOM      4  C   UNL     1      19.743  21.365   4.294  1.00  0.00     0.000 C 
BRANCH   4   5
ATOM      5  C   UNL     1      19.293  19.965   4.749  1.00  0.00     0.000 C 
BRANCH   5   6
ATOM      6  C   UNL     1      17.780  19.894   5.017  1.00  0.00     0.000 C 
BRANCH   6   7
ATOM      7  C   UNL     1      17.416  18.772   6.003  1.00  0.00     0.000 C 
BRANCH   7   8
ATOM      8  C   UNL     1      18.640  18.194   6.734  1.00  0.00     0.000 C 
BRANCH   8   9
ATOM      9  C   UNL     1      18.482  16.744   7.224  1.00  0.00     0.000 C 
BRANCH   9  10
ATOM     10  C   UNL     1      19.343  15.746   6.434  1.00  0.00     0.000 C 
BRANCH  10  11
ATOM     11  C   UNL     1      20.341  16.479   5.524  1.00  0.00     0.000 C 
BRANCH  11  12
ATOM     12  C   UNL     1      21.713  16.663   6.194  1.00  0.00     0.006 C 
BRANCH  12  13
ATOM     13  C   UNL     1      22.784  17.136   5.201  1.00  0.00     0.053 C 
BRANCH  13  14
ATOM     14  C   UNL     1      23.365  18.447   5.634  1.00  0.00     0.041 C 
ATOM     15  O   UNL     1      23.941  19.193   4.798  1.00  0.00    -0.550 OA
ATOM     16  O   UNL     1      23.262  18.849   6.960  1.00  0.00    -0.550 OA
ENDBRANCH  13  14
ENDBRANCH  12  13
ENDBRANCH  11  12
ENDBRANCH  10  11
ENDBRANCH   9  10
ENDBRANCH   8   9
ENDBRANCH   7   8
ENDBRANCH   6   7
ENDBRANCH   5   6
ENDBRANCH   4   5
ENDBRANCH   3   4
ENDBRANCH   2   3
ENDBRANCH   1   2
BRANCH   1  17
ATOM     17  C   UNL     1      21.852  21.649   8.748  1.00  0.00     0.000 C 
BRANCH  17  18
ATOM     18  C   UNL     1      21.560  23.069   9.262  1.00  0.00     0.000 C 
BRANCH  18  19
ATOM     19  C   UNL     1      20.818  23.072  10.610  1.00  0.00     0.000 C 
BRANCH  19  20
ATOM     20  C   UNL     1      19.291  23.028  10.441  1.00  0.00     0.000 C 
BRANCH  20  21
ATOM     21  C   UNL     1      18.598  22.181  11.523  1.00  0.00     0.000 C 
BRANCH  21  22
ATOM     22  C   UNL     1      18.008  20.879  10.957  1.00  0.00    -0.000 C 
BRANCH  22  23
ATOM     23  C   UNL     1      18.258  20.723   9.448  1.00  0.00    -0.000 C 
BRANCH  23  24
ATOM     24  C   UNL     1      17.062  21.182   8.594  1.00  0.00    -0.000 C 
BRANCH  24  25
ATOM     25  C   UNL     1      16.875  22.708   8.497  1.00  0.00    -0.000 C 
BRANCH  25  26
ATOM     26  C   UNL     1      16.875  23.218   7.046  1.00  0.00    -0.000 C 
BRANCH  26  27
ATOM     27  C   UNL     1      17.455  24.638   6.909  1.00  0.00    -0.000 C 
BRANCH  27  28
ATOM     28  C   UNL     1      18.158  25.185   8.165  1.00  0.00    -0.000 C 
BRANCH  28  29
ATOM     29  C   UNL     1      17.944  26.693   8.365  1.00  0.00    -0.003 C 
ATOM     30  C   UNL     1      19.055  27.298   9.218  1.00  0.00     0.004 C 
ENDBRANCH  28  29
ENDBRANCH  27  28
ENDBRANCH  26  27
ENDBRANCH  25  26
ENDBRANCH  24  25
ENDBRANCH  23  24
ENDBRANCH  22  23
ENDBRANCH  21  22
ENDBRANCH  20  21
ENDBRANCH  19  20
ENDBRANCH  18  19
ENDBRANCH  17  18
ENDBRANCH   1  17
TORSDOF 26
ENDMDL
MODEL 8
REMARK VINA RESULT:    -4.124      5.017     11.519
REMARK INTER + INTRA:         -14.846
REMARK INTER:                 -12.650
REMARK INTRA:                  -2.195
REMARK UNBOUND:                -4.454
REMARK SMILES CCCCCCCCCCCCCCCCCCCCCCCCCCCC(=O)[O-]
REMARK SMILES IDX 15 1 16 2 17 3 18 4 19 5 20 6 21 7 22 8 23 9 24 10 25 11
REMARK SMILES IDX 26 12 27 13 28 14 29 15 30 16 14 17 13 18 12 19 11 20 10 21
REMARK SMILES IDX 9 22 8 23 7 24 6 25 5 26 4 27 3 28 2 29 1 30
REMARK H PARENT
REMARK Flexibility Score: inf
ROOT
ATOM      1  C   UNL     1      24.333  18.987   4.560  1.00  0.00     0.000 C 
ENDROOT
BRANCH   1   2
ATOM      2  C   UNL     1      23.104  19.396   5.390  1.00  0.00     0.000 C 
BRANCH   2   3
ATOM      3  C   UNL     1      21.810  19.627   4.581  1.00  0.00     0.000 C 
BRANCH   3   4
ATOM      4  C   UNL     1      21.362  21.101   4.516  1.00  0.00     0.000 C 
BRANCH   4   5
ATOM      5  C   UNL     1      19.877  21.282   4.882  1.00  0.00     0.000 C 
BRANCH   5   6
ATOM      6  C   UNL     1      19.661  22.399   5.917  1.00  0.00     0.000 C 
BRANCH   6   7
ATOM      7  C   UNL     1      20.905  22.633   6.790  1.00  0.00     0.000 C 
BRANCH   7   8
ATOM      8  C   UNL     1      20.873  21.839   8.107  1.00  0.00     0.000 C 
BRANCH   8   9
ATOM      9  C   UNL     1      21.743  22.416   9.237  1.00  0.00     0.000 C 
BRANCH   9  10
ATOM     10  C   UNL     1      20.945  23.272  10.233  1.00  0.00     0.000 C 
BRANCH  10  11
ATOM     11  C   UNL     1      19.452  22.913  10.195  1.00  0.00     0.000 C 
BRANCH  11  12
ATOM     12  C   UNL     1      18.556  24.158  10.076  1.00  0.00     0.006 C 
BRANCH  12  13
ATOM     13  C   UNL     1      18.798  24.923   8.768  1.00  0.00     0.053 C 
BRANCH  13  14
ATOM     14  C   UNL     1      18.470  26.374   8.935  1.00  0.00     0.041 C 
ATOM     15  O   UNL     1      17.329  26.725   9.341  1.00  0.00    -0.550 OA
ATOM     16  O   UNL     1      19.427  27.341   8.652  1.00  0.00    -0.550 OA
ENDBRANCH  13  14
ENDBRANCH  12  13
ENDBRANCH  11  12
ENDBRANCH  10  11
ENDBRANCH   9  10
ENDBRANCH   8   9
ENDBRANCH   7   8
ENDBRANCH   6   7
ENDBRANCH   5   6
ENDBRANCH   4   5
ENDBRANCH   3   4
ENDBRANCH   2   3
ENDBRANCH   1   2
BRANCH   1  17
ATOM     17  C   UNL     1      25.036  17.735   5.114  1.00  0.00     0.000 C 
BRANCH  17  18
ATOM     18  C   UNL     1      25.376  16.713   4.016  1.00  0.00     0.000 C 
BRANCH  18  19
ATOM     19  C   UNL     1      26.751  16.055   4.223  1.00  0.00     0.000 C 
BRANCH  19  20
ATOM     20  C   UNL     1      27.404  16.460   5.555  1.00  0.00     0.000 C 
BRANCH  20  21
ATOM     21  C   UNL     1      28.940  16.377   5.513  1.00  0.00     0.000 C 
BRANCH  21  22
ATOM     22  C   UNL     1      29.445  15.449   4.396  1.00  0.00    -0.000 C 
BRANCH  22  23
ATOM     23  C   UNL     1      29.793  14.041   4.909  1.00  0.00    -0.000 C 
BRANCH  23  24
ATOM     24  C   UNL     1      28.908  12.944   4.287  1.00  0.00    -0.000 C 
BRANCH  24  25
ATOM     25  C   UNL     1      28.961  11.579   4.999  1.00  0.00    -0.000 C 
BRANCH  25  26
ATOM     26  C   UNL     1      30.394  11.136   5.336  1.00  0.00    -0.000 C 
BRANCH  26  27
ATOM     27  C   UNL     1      30.467  10.233   6.581  1.00  0.00    -0.000 C 
BRANCH  27  28
ATOM     28  C   UNL     1      31.211  10.834   7.786  1.00  0.00    -0.000 C 
BRANCH  28  29
ATOM     29  C   UNL     1      31.320  12.365   7.723  1.00  0.00    -0.003 C 
ATOM     30  C   UNL     1      32.143  12.907   8.889  1.00  0.00     0.004 C 
ENDBRANCH  28  29
ENDBRANCH  27  28
ENDBRANCH  26  27
ENDBRANCH  25  26
ENDBRANCH  24  25
ENDBRANCH  23  24
ENDBRANCH  22  23
ENDBRANCH  21  22
ENDBRANCH  20  21
ENDBRANCH  19  20
ENDBRANCH  18  19
ENDBRANCH  17  18
ENDBRANCH   1  17
TORSDOF 26
ENDMDL
MODEL 9
REMARK VINA RESULT:    -4.120      2.114      6.275
REMARK INTER + INTRA:         -14.837
REMARK INTER:                 -11.712
REMARK INTRA:                  -3.125
REMARK UNBOUND:                -4.454
REMARK SMILES CCCCCCCCCCCCCCCCCCCCCCCCCCCC(=O)[O-]
REMARK SMILES IDX 15 1 16 2 17 3 18 4 19 5 20 6 21 7 22 8 23 9 24 10 25 11
REMARK SMILES IDX 26 12 27 13 28 14 29 15 30 16 14 17 13 18 12 19 11 20 10 21
REMARK SMILES IDX 9 22 8 23 7 24 6 25 5 26 4 27 3 28 2 29 1 30
REMARK H PARENT
REMARK Flexibility Score: inf
ROOT
ATOM      1  C   UNL     1      26.101  17.212   4.964  1.00  0.00     0.000 C 
ENDROOT
BRANCH   1   2
ATOM      2  C   UNL     1      27.570  16.915   4.616  1.00  0.00     0.000 C 
BRANCH   2   3
ATOM      3  C   UNL     1      28.401  16.284   5.752  1.00  0.00     0.000 C 
BRANCH   3   4
ATOM      4  C   UNL     1      28.986  14.898   5.410  1.00  0.00     0.000 C 
BRANCH   4   5
ATOM      5  C   UNL     1      28.520  14.386   4.034  1.00  0.00     0.000 C 
BRANCH   5   6
ATOM      6  C   UNL     1      27.664  13.113   4.142  1.00  0.00     0.000 C 
BRANCH   6   7
ATOM      7  C   UNL     1      26.419  13.322   5.021  1.00  0.00     0.000 C 
BRANCH   7   8
ATOM      8  C   UNL     1      25.189  13.779   4.219  1.00  0.00     0.000 C 
BRANCH   8   9
ATOM      9  C   UNL     1      23.915  14.009   5.053  1.00  0.00     0.000 C 
BRANCH   9  10
ATOM     10  C   UNL     1      23.107  15.231   4.591  1.00  0.00     0.000 C 
BRANCH  10  11
ATOM     11  C   UNL     1      22.141  15.699   5.689  1.00  0.00     0.000 C 
BRANCH  11  12
ATOM     12  C   UNL     1      20.701  15.858   5.170  1.00  0.00     0.006 C 
BRANCH  12  13
ATOM     13  C   UNL     1      20.449  17.252   4.579  1.00  0.00     0.053 C 
BRANCH  13  14
ATOM     14  C   UNL     1      19.282  17.908   5.250  1.00  0.00     0.041 C 
ATOM     15  O   UNL     1      18.204  18.084   4.621  1.00  0.00    -0.550 OA
ATOM     16  O   UNL     1      19.381  18.318   6.574  1.00  0.00    -0.550 OA
ENDBRANCH  13  14
ENDBRANCH  12  13
ENDBRANCH  11  12
ENDBRANCH  10  11
ENDBRANCH   9  10
ENDBRANCH   8   9
ENDBRANCH   7   8
ENDBRANCH   6   7
ENDBRANCH   5   6
ENDBRANCH   4   5
ENDBRANCH   3   4
ENDBRANCH   2   3
ENDBRANCH   1   2
BRANCH   1  17
ATOM     17  C   UNL     1      25.461  18.243   4.018  1.00  0.00     0.000 C 
BRANCH  17  18
ATOM     18  C   UNL     1      24.040  18.641   4.450  1.00  0.00     0.000 C 
BRANCH  18  19
ATOM     19  C   UNL     1      23.942  18.957   5.953  1.00  0.00     0.000 C 
BRANCH  19  20
ATOM     20  C   UNL     1      22.692  19.781   6.301  1.00  0.00     0.000 C 
BRANCH  20  21
ATOM     21  C   UNL     1      22.032  20.411   5.062  1.00  0.00     0.000 C 
BRANCH  21  22
ATOM     22  C   UNL     1      21.059  21.543   5.430  1.00  0.00    -0.000 C 
BRANCH  22  23
ATOM     23  C   UNL     1      21.357  22.155   6.809  1.00  0.00    -0.000 C 
BRANCH  23  24
ATOM     24  C   UNL     1      20.086  22.379   7.650  1.00  0.00    -0.000 C 
BRANCH  24  25
ATOM     25  C   UNL     1      20.244  22.113   9.158  1.00  0.00    -0.000 C 
BRANCH  25  26
ATOM     26  C   UNL     1      20.192  23.399  10.000  1.00  0.00    -0.000 C 
BRANCH  26  27
ATOM     27  C   UNL     1      19.569  24.587   9.243  1.00  0.00    -0.000 C 
BRANCH  27  28
ATOM     28  C   UNL     1      19.060  25.737  10.130  1.00  0.00    -0.000 C 
BRANCH  28  29
ATOM     29  C   UNL     1      18.942  27.070   9.377  1.00  0.00    -0.003 C 
ATOM     30  C   UNL     1      17.903  26.984   8.262  1.00  0.00     0.004 C 
ENDBRANCH  28  29
ENDBRANCH  27  28
ENDBRANCH  26  27
ENDBRANCH  25  26
ENDBRANCH  24  25
ENDBRANCH  23  24
ENDBRANCH  22  23
ENDBRANCH  21  22
ENDBRANCH  20  21
ENDBRANCH  19  20
ENDBRANCH  18  19
ENDBRANCH  17  18
ENDBRANCH   1  17
TORSDOF 26
ENDMDL
