MODEL 1
REMARK VINA RESULT:    -2.973      0.000      0.000
REMARK INTER + INTRA:          -2.496
REMARK INTER:                  -3.234
REMARK INTRA:                   0.738
REMARK UNBOUND:                 0.738
REMARK SMILES C[C@H]1[C@H](C)CC[C@]2(C(=O)[O-])CC[C@@]3(C)C(=CC[C@@H]4[C@@]5(C)CC[C@@H](O)C(C)(C)[C@@H]5CC[C@@]43C)[C@@H]12
REMARK SMILES IDX 7 1 6 2 11 3 33 4 5 5 12 6 15 7 2 8 3 9 13 10 16 11 1 12
REMARK SMILES IDX 4 13 14 14 31 15 17 16 18 17 30 18 32 19 19 20 29 21 28 22
REMARK SMILES IDX 21 23 20 24 25 25 22 26 23 27 26 28 27 29 8 30 9 31 10 32
REMARK SMILES IDX 24 33
REMARK H PARENT 24 34
REMARK Flexibility Score: inf
ROOT
ATOM      1  C   UNL     1      13.159  -1.582   7.692  1.00  0.00     0.017 C 
ATOM      2  C   UNL     1      11.884  -0.937   8.303  1.00  0.00     0.014 C 
ATOM      3  C   UNL     1      12.721  -2.705   6.737  1.00  0.00     0.014 C 
ATOM      4  C   UNL     1      13.975  -2.244   8.846  1.00  0.00     0.030 C 
ATOM      5  C   UNL     1      12.229   0.125   9.356  1.00  0.00     0.004 C 
ATOM      6  C   UNL     1      13.919  -3.358   6.043  1.00  0.00     0.013 C 
ATOM      7  C   UNL     1      15.095  -3.208   8.375  1.00  0.00    -0.063 C 
ATOM      8  C   UNL     1      14.322  -1.237  10.009  1.00  0.00    -0.003 C 
ATOM      9  C   UNL     1      13.074  -0.446  10.511  1.00  0.00    -0.011 C 
ATOM     10  C   UNL     1      15.077  -3.907   6.979  1.00  0.00    -0.006 C 
ATOM     11  C   UNL     1      15.925  -3.723   9.315  1.00  0.00    -0.027 C 
ATOM     12  C   UNL     1      15.492  -0.288   9.696  1.00  0.00     0.008 C 
ATOM     13  C   UNL     1      12.209  -1.287  11.469  1.00  0.00     0.008 C 
ATOM     14  C   UNL     1      16.404  -3.542   6.235  1.00  0.00     0.017 C 
ATOM     15  C   UNL     1      14.976  -5.507   7.205  1.00  0.00    -0.020 C 
ATOM     16  C   UNL     1      16.796  -4.908   9.053  1.00  0.00     0.032 C 
ATOM     17  C   UNL     1      15.992  -6.028   8.339  1.00  0.00     0.006 C 
ATOM     18  C   UNL     1      15.225  -6.291   5.875  1.00  0.00     0.008 C 
ATOM     19  C   UNL     1      13.520  -5.845   7.666  1.00  0.00     0.012 C 
ATOM     20  C   UNL     1      16.849  -7.333   7.995  1.00  0.00    -0.025 C 
ATOM     21  C   UNL     1      15.220  -7.826   6.020  1.00  0.00     0.005 C 
ATOM     22  C   UNL     1      15.865  -8.363   7.332  1.00  0.00     0.003 C 
ATOM     23  C   UNL     1      17.386  -7.934   9.338  1.00  0.00     0.010 C 
ATOM     24  C   UNL     1      18.070  -7.023   7.063  1.00  0.00     0.012 C 
ATOM     25  C   UNL     1      16.362  -9.863   7.243  1.00  0.00    -0.006 C 
ATOM     26  C   UNL     1      17.907  -9.375   9.232  1.00  0.00     0.033 C 
ATOM     27  C   UNL     1      16.854 -10.328   8.651  1.00  0.00     0.120 C 
ATOM     28  C   UNL     1      17.492 -10.102   6.202  1.00  0.00     0.014 C 
ATOM     29  C   UNL     1      15.177 -10.771   6.815  1.00  0.00     0.014 C 
ENDROOT
BRANCH   1  30
ATOM     30  C   UNL     1      13.925  -0.525   6.896  1.00  0.00     0.048 C 
ATOM     31  O   UNL     1      13.347   0.125   5.983  1.00  0.00    -0.550 OA
ATOM     32  O   UNL     1      15.287  -0.334   7.075  1.00  0.00    -0.550 OA
ENDBRANCH   1  30
BRANCH  27  33
ATOM     33  O   UNL     1      15.779 -10.409   9.558  1.00  0.00    -0.393 OA
ATOM     34  H   UNL     1      16.163 -10.536  10.465  1.00  0.00     0.210 HD
ENDBRANCH  27  33
TORSDOF 2
ENDMDL
MODEL 2
REMARK VINA RESULT:    -0.963      2.041      7.780
REMARK INTER + INTRA:          -0.310
REMARK INTER:                  -1.915
REMARK INTRA:                   1.606
REMARK UNBOUND:                 0.738
REMARK SMILES C[C@H]1[C@H](C)CC[C@]2(C(=O)[O-])CC[C@@]3(C)C(=CC[C@@H]4[C@@]5(C)CC[C@@H](O)C(C)(C)[C@@H]5CC[C@@]43C)[C@@H]12
REMARK SMILES IDX 7 1 6 2 11 3 33 4 5 5 12 6 15 7 2 8 3 9 13 10 16 11 1 12
REMARK SMILES IDX 4 13 14 14 31 15 17 16 18 17 30 18 32 19 19 20 29 21 28 22
REMARK SMILES IDX 21 23 20 24 25 25 22 26 23 27 26 28 27 29 8 30 9 31 10 32
REMARK SMILES IDX 24 33
REMARK H PARENT 24 34
REMARK Flexibility Score: inf
ROOT
ATOM      1  C   UNL     1      15.408  -9.395   7.869  1.00  0.00     0.017 C 
ATOM      2  C   UNL     1      15.034 -10.634   8.729  1.00  0.00     0.014 C 
ATOM      3  C   UNL     1      16.593  -8.682   8.542  1.00  0.00     0.014 C 
ATOM      4  C   UNL     1      14.201  -8.405   7.883  1.00  0.00     0.030 C 
ATOM      5  C   UNL     1      13.786 -11.347   8.192  1.00  0.00     0.004 C 
ATOM      6  C   UNL     1      17.068  -7.477   7.724  1.00  0.00     0.013 C 
ATOM      7  C   UNL     1      14.525  -6.984   7.353  1.00  0.00    -0.063 C 
ATOM      8  C   UNL     1      12.855  -9.072   7.403  1.00  0.00    -0.003 C 
ATOM      9  C   UNL     1      12.558 -10.418   8.134  1.00  0.00    -0.011 C 
ATOM     10  C   UNL     1      15.972  -6.396   7.342  1.00  0.00    -0.006 C 
ATOM     11  C   UNL     1      13.499  -6.109   7.219  1.00  0.00    -0.027 C 
ATOM     12  C   UNL     1      12.737  -9.231   5.877  1.00  0.00     0.008 C 
ATOM     13  C   UNL     1      11.968 -10.190   9.539  1.00  0.00     0.008 C 
ATOM     14  C   UNL     1      16.314  -5.975   5.875  1.00  0.00     0.017 C 
ATOM     15  C   UNL     1      16.012  -5.109   8.324  1.00  0.00    -0.020 C 
ATOM     16  C   UNL     1      13.713  -4.638   7.064  1.00  0.00     0.032 C 
ATOM     17  C   UNL     1      14.755  -4.129   8.097  1.00  0.00     0.006 C 
ATOM     18  C   UNL     1      17.342  -4.304   8.161  1.00  0.00     0.008 C 
ATOM     19  C   UNL     1      15.967  -5.619   9.802  1.00  0.00     0.012 C 
ATOM     20  C   UNL     1      15.070  -2.565   7.994  1.00  0.00    -0.025 C 
ATOM     21  C   UNL     1      17.428  -3.019   9.009  1.00  0.00     0.005 C 
ATOM     22  C   UNL     1      16.092  -2.228   9.139  1.00  0.00     0.003 C 
ATOM     23  C   UNL     1      13.739  -1.780   8.252  1.00  0.00     0.010 C 
ATOM     24  C   UNL     1      15.626  -2.154   6.588  1.00  0.00     0.012 C 
ATOM     25  C   UNL     1      16.277  -0.698   9.498  1.00  0.00    -0.006 C 
ATOM     26  C   UNL     1      13.926  -0.286   8.558  1.00  0.00     0.033 C 
ATOM     27  C   UNL     1      14.874  -0.053   9.740  1.00  0.00     0.120 C 
ATOM     28  C   UNL     1      17.039   0.125   8.422  1.00  0.00     0.014 C 
ATOM     29  C   UNL     1      17.103  -0.576  10.807  1.00  0.00     0.014 C 
ENDROOT
BRANCH   1  30
ATOM     30  C   UNL     1      15.834  -9.860   6.476  1.00  0.00     0.048 C 
ATOM     31  O   UNL     1      15.190 -10.770   5.887  1.00  0.00    -0.550 OA
ATOM     32  O   UNL     1      16.992  -9.384   5.879  1.00  0.00    -0.550 OA
ENDBRANCH   1  30
BRANCH  27  33
ATOM     33  O   UNL     1      14.273  -0.576  10.903  1.00  0.00    -0.393 OA
ATOM     34  H   UNL     1      13.297  -0.631  10.734  1.00  0.00     0.210 HD
ENDBRANCH  27  33
TORSDOF 2
ENDMDL
