MODEL 1
REMARK VINA RESULT:    -4.669      0.000      0.000
REMARK INTER + INTRA:         -13.536
REMARK INTER:                 -10.673
REMARK INTRA:                  -2.863
REMARK UNBOUND:                -2.863
REMARK SMILES CCCCCCCCCCCCCCCCCCCCCCCC(=O)[O-]
REMARK SMILES IDX 13 1 14 2 15 3 16 4 17 5 18 6 19 7 20 8 21 9 22 10 23 11
REMARK SMILES IDX 24 12 25 13 26 14 12 15 11 16 10 17 9 18 8 19 7 20 6 21 5 22
REMARK SMILES IDX 4 23 3 24 2 25 1 26
REMARK H PARENT
REMARK Flexibility Score: inf
ROOT
ATOM      1  C   UNL     1      20.486   7.271   6.610  1.00  0.00     0.000 C 
ENDROOT
BRANCH   1   2
ATOM      2  C   UNL     1      19.726   8.270   7.504  1.00  0.00     0.000 C 
BRANCH   2   3
ATOM      3  C   UNL     1      20.225   9.726   7.428  1.00  0.00     0.000 C 
BRANCH   3   4
ATOM      4  C   UNL     1      19.289  10.707   6.696  1.00  0.00     0.000 C 
BRANCH   4   5
ATOM      5  C   UNL     1      18.883  10.247   5.278  1.00  0.00     0.000 C 
BRANCH   5   6
ATOM      6  C   UNL     1      17.380  10.430   5.004  1.00  0.00     0.000 C 
BRANCH   6   7
ATOM      7  C   UNL     1      16.495   9.587   5.941  1.00  0.00     0.000 C 
BRANCH   7   8
ATOM      8  C   UNL     1      15.993   8.263   5.335  1.00  0.00     0.000 C 
BRANCH   8   9
ATOM      9  C   UNL     1      16.582   7.029   6.035  1.00  0.00     0.000 C 
BRANCH   9  10
ATOM     10  C   UNL     1      17.416   6.186   5.059  1.00  0.00     0.006 C 
BRANCH  10  11
ATOM     11  C   UNL     1      17.047   6.461   3.595  1.00  0.00     0.053 C 
BRANCH  11  12
ATOM     12  C   UNL     1      18.255   6.772   2.766  1.00  0.00     0.041 C 
ATOM     13  O   UNL     1      18.976   5.839   2.325  1.00  0.00    -0.550 OA
ATOM     14  O   UNL     1      18.603   8.091   2.509  1.00  0.00    -0.550 OA
ENDBRANCH  11  12
ENDBRANCH  10  11
ENDBRANCH   9  10
ENDBRANCH   8   9
ENDBRANCH   7   8
ENDBRANCH   6   7
ENDBRANCH   5   6
ENDBRANCH   4   5
ENDBRANCH   3   4
ENDBRANCH   2   3
ENDBRANCH   1   2
BRANCH   1  15
ATOM     15  C   UNL     1      21.905   6.970   7.122  1.00  0.00     0.000 C 
BRANCH  15  16
ATOM     16  C   UNL     1      21.928   5.849   8.174  1.00  0.00     0.000 C 
BRANCH  16  17
ATOM     17  C   UNL     1      23.075   4.847   7.947  1.00  0.00     0.000 C 
BRANCH  17  18
ATOM     18  C   UNL     1      24.217   5.432   7.097  1.00  0.00    -0.000 C 
BRANCH  18  19
ATOM     19  C   UNL     1      24.858   4.445   6.103  1.00  0.00    -0.000 C 
BRANCH  19  20
ATOM     20  C   UNL     1      23.917   4.067   4.944  1.00  0.00    -0.000 C 
BRANCH  20  21
ATOM     21  C   UNL     1      23.480   5.285   4.113  1.00  0.00    -0.000 C 
BRANCH  21  22
ATOM     22  C   UNL     1      23.894   5.168   2.637  1.00  0.00    -0.000 C 
BRANCH  22  23
ATOM     23  C   UNL     1      25.385   4.832   2.464  1.00  0.00    -0.000 C 
BRANCH  23  24
ATOM     24  C   UNL     1      25.645   3.877   1.286  1.00  0.00    -0.000 C 
BRANCH  24  25
ATOM     25  C   UNL     1      24.519   2.848   1.103  1.00  0.00    -0.003 C 
ATOM     26  C   UNL     1      24.658   1.644   2.034  1.00  0.00     0.004 C 
ENDBRANCH  24  25
ENDBRANCH  23  24
ENDBRANCH  22  23
ENDBRANCH  21  22
ENDBRANCH  20  21
ENDBRANCH  19  20
ENDBRANCH  18  19
ENDBRANCH  17  18
ENDBRANCH  16  17
ENDBRANCH  15  16
ENDBRANCH   1  15
TORSDOF 22
ENDMDL
MODEL 2
REMARK VINA RESULT:    -4.580      2.327      7.473
REMARK INTER + INTRA:         -13.333
REMARK INTER:                 -10.156
REMARK INTRA:                  -3.177
REMARK UNBOUND:                -2.863
REMARK SMILES CCCCCCCCCCCCCCCCCCCCCCCC(=O)[O-]
REMARK SMILES IDX 13 1 14 2 15 3 16 4 17 5 18 6 19 7 20 8 21 9 22 10 23 11
REMARK SMILES IDX 24 12 25 13 26 14 12 15 11 16 10 17 9 18 8 19 7 20 6 21 5 22
REMARK SMILES IDX 4 23 3 24 2 25 1 26
REMARK H PARENT
REMARK Flexibility Score: inf
ROOT
ATOM      1  C   UNL     1      20.353   7.969   6.898  1.00  0.00     0.000 C 
ENDROOT
BRANCH   1   2
ATOM      2  C   UNL     1      21.348   6.851   7.265  1.00  0.00     0.000 C 
BRANCH   2   3
ATOM      3  C   UNL     1      22.592   7.314   8.048  1.00  0.00     0.000 C 
BRANCH   3   4
ATOM      4  C   UNL     1      23.413   6.190   8.707  1.00  0.00     0.000 C 
BRANCH   4   5
ATOM      5  C   UNL     1      22.850   4.774   8.458  1.00  0.00     0.000 C 
BRANCH   5   6
ATOM      6  C   UNL     1      23.850   3.859   7.729  1.00  0.00     0.000 C 
BRANCH   6   7
ATOM      7  C   UNL     1      23.592   3.780   6.213  1.00  0.00     0.000 C 
BRANCH   7   8
ATOM      8  C   UNL     1      24.254   4.900   5.388  1.00  0.00     0.000 C 
BRANCH   8   9
ATOM      9  C   UNL     1      23.295   5.530   4.366  1.00  0.00     0.000 C 
BRANCH   9  10
ATOM     10  C   UNL     1      23.629   5.070   2.939  1.00  0.00     0.006 C 
BRANCH  10  11
ATOM     11  C   UNL     1      25.127   5.195   2.626  1.00  0.00     0.053 C 
BRANCH  11  12
ATOM     12  C   UNL     1      25.717   3.887   2.199  1.00  0.00     0.041 C 
ATOM     13  O   UNL     1      24.990   3.009   1.665  1.00  0.00    -0.550 OA
ATOM     14  O   UNL     1      27.062   3.623   2.423  1.00  0.00    -0.550 OA
ENDBRANCH  11  12
ENDBRANCH  10  11
ENDBRANCH   9  10
ENDBRANCH   8   9
ENDBRANCH   7   8
ENDBRANCH   6   7
ENDBRANCH   5   6
ENDBRANCH   4   5
ENDBRANCH   3   4
ENDBRANCH   2   3
ENDBRANCH   1   2
BRANCH   1  15
ATOM     15  C   UNL     1      20.408   9.161   7.868  1.00  0.00     0.000 C 
BRANCH  15  16
ATOM     16  C   UNL     1      19.897  10.465   7.231  1.00  0.00     0.000 C 
BRANCH  16  17
ATOM     17  C   UNL     1      19.159  10.224   5.903  1.00  0.00     0.000 C 
BRANCH  17  18
ATOM     18  C   UNL     1      17.713  10.753   5.919  1.00  0.00    -0.000 C 
BRANCH  18  19
ATOM     19  C   UNL     1      16.623   9.667   5.845  1.00  0.00    -0.000 C 
BRANCH  19  20
ATOM     20  C   UNL     1      16.810   8.559   6.899  1.00  0.00    -0.000 C 
BRANCH  20  21
ATOM     21  C   UNL     1      16.526   7.155   6.340  1.00  0.00    -0.000 C 
BRANCH  21  22
ATOM     22  C   UNL     1      16.636   7.099   4.807  1.00  0.00    -0.000 C 
BRANCH  22  23
ATOM     23  C   UNL     1      17.807   6.225   4.329  1.00  0.00    -0.000 C 
BRANCH  23  24
ATOM     24  C   UNL     1      18.956   7.051   3.725  1.00  0.00    -0.000 C 
BRANCH  24  25
ATOM     25  C   UNL     1      18.451   8.248   2.904  1.00  0.00    -0.003 C 
ATOM     26  C   UNL     1      17.940   7.844   1.521  1.00  0.00     0.004 C 
ENDBRANCH  24  25
ENDBRANCH  23  24
ENDBRANCH  22  23
ENDBRANCH  21  22
ENDBRANCH  20  21
ENDBRANCH  19  20
ENDBRANCH  18  19
ENDBRANCH  17  18
ENDBRANCH  16  17
ENDBRANCH  15  16
ENDBRANCH   1  15
TORSDOF 22
ENDMDL
MODEL 3
REMARK VINA RESULT:    -4.543      2.882      7.806
REMARK INTER + INTRA:         -13.248
REMARK INTER:                 -10.429
REMARK INTRA:                  -2.819
REMARK UNBOUND:                -2.863
REMARK SMILES CCCCCCCCCCCCCCCCCCCCCCCC(=O)[O-]
REMARK SMILES IDX 13 1 14 2 15 3 16 4 17 5 18 6 19 7 20 8 21 9 22 10 23 11
REMARK SMILES IDX 24 12 25 13 26 14 12 15 11 16 10 17 9 18 8 19 7 20 6 21 5 22
REMARK SMILES IDX 4 23 3 24 2 25 1 26
REMARK H PARENT
REMARK Flexibility Score: inf
ROOT
ATOM      1  C   UNL     1      20.817   7.785   7.348  1.00  0.00     0.000 C 
ENDROOT
BRANCH   1   2
ATOM      2  C   UNL     1      21.820   8.352   8.371  1.00  0.00     0.000 C 
BRANCH   2   3
ATOM      3  C   UNL     1      22.974   7.404   8.751  1.00  0.00     0.000 C 
BRANCH   3   4
ATOM      4  C   UNL     1      24.063   7.227   7.676  1.00  0.00     0.000 C 
BRANCH   4   5
ATOM      5  C   UNL     1      24.318   5.757   7.279  1.00  0.00     0.000 C 
BRANCH   5   6
ATOM      6  C   UNL     1      23.115   5.120   6.562  1.00  0.00     0.000 C 
BRANCH   6   7
ATOM      7  C   UNL     1      22.926   5.649   5.127  1.00  0.00     0.000 C 
BRANCH   7   8
ATOM      8  C   UNL     1      24.140   5.447   4.202  1.00  0.00     0.000 C 
BRANCH   8   9
ATOM      9  C   UNL     1      23.740   5.001   2.787  1.00  0.00     0.000 C 
BRANCH   9  10
ATOM     10  C   UNL     1      24.961   4.500   2.001  1.00  0.00     0.006 C 
BRANCH  10  11
ATOM     11  C   UNL     1      26.171   4.246   2.910  1.00  0.00     0.053 C 
BRANCH  11  12
ATOM     12  C   UNL     1      27.105   3.233   2.324  1.00  0.00     0.041 C 
ATOM     13  O   UNL     1      26.690   2.079   2.042  1.00  0.00    -0.550 OA
ATOM     14  O   UNL     1      28.441   3.553   2.119  1.00  0.00    -0.550 OA
ENDBRANCH  11  12
ENDBRANCH  10  11
ENDBRANCH   9  10
ENDBRANCH   8   9
ENDBRANCH   7   8
ENDBRANCH   6   7
ENDBRANCH   5   6
ENDBRANCH   4   5
ENDBRANCH   3   4
ENDBRANCH   2   3
ENDBRANCH   1   2
BRANCH   1  15
ATOM     15  C   UNL     1      19.630   8.728   7.088  1.00  0.00     0.000 C 
BRANCH  15  16
ATOM     16  C   UNL     1      20.012  10.212   7.232  1.00  0.00     0.000 C 
BRANCH  16  17
ATOM     17  C   UNL     1      19.233  11.120   6.265  1.00  0.00     0.000 C 
BRANCH  17  18
ATOM     18  C   UNL     1      17.953  10.457   5.725  1.00  0.00    -0.000 C 
BRANCH  18  19
ATOM     19  C   UNL     1      17.757  10.567   4.202  1.00  0.00    -0.000 C 
BRANCH  19  20
ATOM     20  C   UNL     1      18.798   9.757   3.406  1.00  0.00    -0.000 C 
BRANCH  20  21
ATOM     21  C   UNL     1      18.303   8.346   3.045  1.00  0.00    -0.000 C 
BRANCH  21  22
ATOM     22  C   UNL     1      18.858   7.269   3.992  1.00  0.00    -0.000 C 
BRANCH  22  23
ATOM     23  C   UNL     1      17.794   6.238   4.403  1.00  0.00    -0.000 C 
BRANCH  23  24
ATOM     24  C   UNL     1      16.385   6.847   4.506  1.00  0.00    -0.000 C 
BRANCH  24  25
ATOM     25  C   UNL     1      16.093   7.422   5.902  1.00  0.00    -0.003 C 
ATOM     26  C   UNL     1      16.806   6.659   7.018  1.00  0.00     0.004 C 
ENDBRANCH  24  25
ENDBRANCH  23  24
ENDBRANCH  22  23
ENDBRANCH  21  22
ENDBRANCH  20  21
ENDBRANCH  19  20
ENDBRANCH  18  19
ENDBRANCH  17  18
ENDBRANCH  16  17
ENDBRANCH  15  16
ENDBRANCH   1  15
TORSDOF 22
ENDMDL
MODEL 4
REMARK VINA RESULT:    -4.492      3.827      9.102
REMARK INTER + INTRA:         -13.131
REMARK INTER:                 -10.873
REMARK INTRA:                  -2.258
REMARK UNBOUND:                -2.863
REMARK SMILES CCCCCCCCCCCCCCCCCCCCCCCC(=O)[O-]
REMARK SMILES IDX 13 1 14 2 15 3 16 4 17 5 18 6 19 7 20 8 21 9 22 10 23 11
REMARK SMILES IDX 24 12 25 13 26 14 12 15 11 16 10 17 9 18 8 19 7 20 6 21 5 22
REMARK SMILES IDX 4 23 3 24 2 25 1 26
REMARK H PARENT
REMARK Flexibility Score: inf
ROOT
ATOM      1  C   UNL     1      22.540   6.604   6.853  1.00  0.00     0.000 C 
ENDROOT
BRANCH   1   2
ATOM      2  C   UNL     1      23.502   5.817   5.942  1.00  0.00     0.000 C 
BRANCH   2   3
ATOM      3  C   UNL     1      23.058   5.695   4.471  1.00  0.00     0.000 C 
BRANCH   3   4
ATOM      4  C   UNL     1      24.100   5.083   3.516  1.00  0.00     0.000 C 
BRANCH   4   5
ATOM      5  C   UNL     1      23.485   4.334   2.314  1.00  0.00     0.000 C 
BRANCH   5   6
ATOM      6  C   UNL     1      24.553   3.747   1.373  1.00  0.00     0.000 C 
BRANCH   6   7
ATOM      7  C   UNL     1      25.989   3.991   1.873  1.00  0.00     0.000 C 
BRANCH   7   8
ATOM      8  C   UNL     1      26.785   2.712   2.194  1.00  0.00     0.000 C 
BRANCH   8   9
ATOM      9  C   UNL     1      27.700   2.874   3.418  1.00  0.00     0.000 C 
BRANCH   9  10
ATOM     10  C   UNL     1      28.276   4.296   3.492  1.00  0.00     0.006 C 
BRANCH  10  11
ATOM     11  C   UNL     1      29.777   4.296   3.816  1.00  0.00     0.053 C 
BRANCH  11  12
ATOM     12  C   UNL     1      30.612   4.406   2.578  1.00  0.00     0.041 C 
ATOM     13  O   UNL     1      30.101   4.188   1.448  1.00  0.00    -0.550 OA
ATOM     14  O   UNL     1      31.963   4.715   2.674  1.00  0.00    -0.550 OA
ENDBRANCH  11  12
ENDBRANCH  10  11
ENDBRANCH   9  10
ENDBRANCH   8   9
ENDBRANCH   7   8
ENDBRANCH   6   7
ENDBRANCH   5   6
ENDBRANCH   4   5
ENDBRANCH   3   4
ENDBRANCH   2   3
ENDBRANCH   1   2
BRANCH   1  15
ATOM     15  C   UNL     1      21.200   6.926   6.170  1.00  0.00     0.000 C 
BRANCH  15  16
ATOM     16  C   UNL     1      20.146   7.454   7.159  1.00  0.00     0.000 C 
BRANCH  16  17
ATOM     17  C   UNL     1      20.424   8.901   7.603  1.00  0.00     0.000 C 
BRANCH  17  18
ATOM     18  C   UNL     1      19.612   9.937   6.805  1.00  0.00    -0.000 C 
BRANCH  18  19
ATOM     19  C   UNL     1      18.614   9.342   5.794  1.00  0.00    -0.000 C 
BRANCH  19  20
ATOM     20  C   UNL     1      17.149   9.485   6.245  1.00  0.00    -0.000 C 
BRANCH  20  21
ATOM     21  C   UNL     1      16.243   8.379   5.678  1.00  0.00    -0.000 C 
BRANCH  21  22
ATOM     22  C   UNL     1      16.643   6.979   6.174  1.00  0.00    -0.000 C 
BRANCH  22  23
ATOM     23  C   UNL     1      17.024   6.030   5.026  1.00  0.00    -0.000 C 
BRANCH  23  24
ATOM     24  C   UNL     1      16.472   6.492   3.666  1.00  0.00    -0.000 C 
BRANCH  24  25
ATOM     25  C   UNL     1      17.587   6.798   2.653  1.00  0.00    -0.003 C 
ATOM     26  C   UNL     1      18.986   6.656   3.250  1.00  0.00     0.004 C 
ENDBRANCH  24  25
ENDBRANCH  23  24
ENDBRANCH  22  23
ENDBRANCH  21  22
ENDBRANCH  20  21
ENDBRANCH  19  20
ENDBRANCH  18  19
ENDBRANCH  17  18
ENDBRANCH  16  17
ENDBRANCH  15  16
ENDBRANCH   1  15
TORSDOF 22
ENDMDL
MODEL 5
REMARK VINA RESULT:    -4.408      2.374      8.095
REMARK INTER + INTRA:         -12.941
REMARK INTER:                  -9.995
REMARK INTRA:                  -2.946
REMARK UNBOUND:                -2.863
REMARK SMILES CCCCCCCCCCCCCCCCCCCCCCCC(=O)[O-]
REMARK SMILES IDX 13 1 14 2 15 3 16 4 17 5 18 6 19 7 20 8 21 9 22 10 23 11
REMARK SMILES IDX 24 12 25 13 26 14 12 15 11 16 10 17 9 18 8 19 7 20 6 21 5 22
REMARK SMILES IDX 4 23 3 24 2 25 1 26
REMARK H PARENT
REMARK Flexibility Score: inf
ROOT
ATOM      1  C   UNL     1      22.377   6.265   6.193  1.00  0.00     0.000 C 
ENDROOT
BRANCH   1   2
ATOM      2  C   UNL     1      23.884   6.586   6.158  1.00  0.00     0.000 C 
BRANCH   2   3
ATOM      3  C   UNL     1      24.710   5.976   7.308  1.00  0.00     0.000 C 
BRANCH   3   4
ATOM      4  C   UNL     1      26.084   6.629   7.551  1.00  0.00     0.000 C 
BRANCH   4   5
ATOM      5  C   UNL     1      26.357   7.864   6.666  1.00  0.00     0.000 C 
BRANCH   5   6
ATOM      6  C   UNL     1      27.674   7.748   5.878  1.00  0.00     0.000 C 
BRANCH   6   7
ATOM      7  C   UNL     1      27.522   6.941   4.576  1.00  0.00     0.000 C 
BRANCH   7   8
ATOM      8  C   UNL     1      28.042   5.493   4.651  1.00  0.00     0.000 C 
BRANCH   8   9
ATOM      9  C   UNL     1      26.957   4.455   4.327  1.00  0.00     0.000 C 
BRANCH   9  10
ATOM     10  C   UNL     1      25.853   5.065   3.450  1.00  0.00     0.006 C 
BRANCH  10  11
ATOM     11  C   UNL     1      25.617   4.254   2.169  1.00  0.00     0.053 C 
BRANCH  11  12
ATOM     12  C   UNL     1      24.445   3.331   2.303  1.00  0.00     0.041 C 
ATOM     13  O   UNL     1      24.533   2.296   3.014  1.00  0.00    -0.550 OA
ATOM     14  O   UNL     1      23.267   3.595   1.615  1.00  0.00    -0.550 OA
ENDBRANCH  11  12
ENDBRANCH  10  11
ENDBRANCH   9  10
ENDBRANCH   8   9
ENDBRANCH   7   8
ENDBRANCH   6   7
ENDBRANCH   5   6
ENDBRANCH   4   5
ENDBRANCH   3   4
ENDBRANCH   2   3
ENDBRANCH   1   2
BRANCH   1  15
ATOM     15  C   UNL     1      21.613   7.096   7.238  1.00  0.00     0.000 C 
BRANCH  15  16
ATOM     16  C   UNL     1      20.168   7.400   6.809  1.00  0.00     0.000 C 
BRANCH  16  17
ATOM     17  C   UNL     1      19.537   8.543   7.623  1.00  0.00     0.000 C 
BRANCH  17  18
ATOM     18  C   UNL     1      20.028   9.933   7.180  1.00  0.00    -0.000 C 
BRANCH  18  19
ATOM     19  C   UNL     1      18.997  10.768   6.399  1.00  0.00    -0.000 C 
BRANCH  19  20
ATOM     20  C   UNL     1      18.798  10.275   4.954  1.00  0.00    -0.000 C 
BRANCH  20  21
ATOM     21  C   UNL     1      17.321  10.025   4.609  1.00  0.00    -0.000 C 
BRANCH  21  22
ATOM     22  C   UNL     1      16.494   9.608   5.837  1.00  0.00    -0.000 C 
BRANCH  22  23
ATOM     23  C   UNL     1      16.275   8.088   5.916  1.00  0.00    -0.000 C 
BRANCH  23  24
ATOM     24  C   UNL     1      16.359   7.404   4.540  1.00  0.00    -0.000 C 
BRANCH  24  25
ATOM     25  C   UNL     1      17.423   6.296   4.498  1.00  0.00    -0.003 C 
ATOM     26  C   UNL     1      18.614   6.651   3.607  1.00  0.00     0.004 C 
ENDBRANCH  24  25
ENDBRANCH  23  24
ENDBRANCH  22  23
ENDBRANCH  21  22
ENDBRANCH  20  21
ENDBRANCH  19  20
ENDBRANCH  18  19
ENDBRANCH  17  18
ENDBRANCH  16  17
ENDBRANCH  15  16
ENDBRANCH   1  15
TORSDOF 22
ENDMDL
MODEL 6
REMARK VINA RESULT:    -4.394      1.144      2.198
REMARK INTER + INTRA:         -12.908
REMARK INTER:                 -10.419
REMARK INTRA:                  -2.489
REMARK UNBOUND:                -2.863
REMARK SMILES CCCCCCCCCCCCCCCCCCCCCCCC(=O)[O-]
REMARK SMILES IDX 13 1 14 2 15 3 16 4 17 5 18 6 19 7 20 8 21 9 22 10 23 11
REMARK SMILES IDX 24 12 25 13 26 14 12 15 11 16 10 17 9 18 8 19 7 20 6 21 5 22
REMARK SMILES IDX 4 23 3 24 2 25 1 26
REMARK H PARENT
REMARK Flexibility Score: inf
ROOT
ATOM      1  C   UNL     1      20.893   7.004   6.535  1.00  0.00     0.000 C 
ENDROOT
BRANCH   1   2
ATOM      2  C   UNL     1      19.768   7.866   7.139  1.00  0.00     0.000 C 
BRANCH   2   3
ATOM      3  C   UNL     1      20.078   9.372   7.238  1.00  0.00     0.000 C 
BRANCH   3   4
ATOM      4  C   UNL     1      18.970  10.310   6.720  1.00  0.00     0.000 C 
BRANCH   4   5
ATOM      5  C   UNL     1      18.852  10.351   5.182  1.00  0.00     0.000 C 
BRANCH   5   6
ATOM      6  C   UNL     1      17.539   9.730   4.672  1.00  0.00     0.000 C 
BRANCH   6   7
ATOM      7  C   UNL     1      16.601   9.296   5.814  1.00  0.00     0.000 C 
BRANCH   7   8
ATOM      8  C   UNL     1      15.937   7.921   5.614  1.00  0.00     0.000 C 
BRANCH   8   9
ATOM      9  C   UNL     1      16.891   6.883   5.004  1.00  0.00     0.000 C 
BRANCH   9  10
ATOM     10  C   UNL     1      16.242   6.172   3.807  1.00  0.00     0.006 C 
BRANCH  10  11
ATOM     11  C   UNL     1      16.332   7.005   2.521  1.00  0.00     0.053 C 
BRANCH  11  12
ATOM     12  C   UNL     1      17.724   7.026   1.968  1.00  0.00     0.041 C 
ATOM     13  O   UNL     1      18.174   8.069   1.426  1.00  0.00    -0.550 OA
ATOM     14  O   UNL     1      18.512   5.884   2.023  1.00  0.00    -0.550 OA
ENDBRANCH  11  12
ENDBRANCH  10  11
ENDBRANCH   9  10
ENDBRANCH   8   9
ENDBRANCH   7   8
ENDBRANCH   6   7
ENDBRANCH   5   6
ENDBRANCH   4   5
ENDBRANCH   3   4
ENDBRANCH   2   3
ENDBRANCH   1   2
BRANCH   1  15
ATOM     15  C   UNL     1      22.163   6.984   7.403  1.00  0.00     0.000 C 
BRANCH  15  16
ATOM     16  C   UNL     1      23.288   6.137   6.785  1.00  0.00     0.000 C 
BRANCH  16  17
ATOM     17  C   UNL     1      23.069   5.866   5.286  1.00  0.00     0.000 C 
BRANCH  17  18
ATOM     18  C   UNL     1      24.255   5.133   4.633  1.00  0.00    -0.000 C 
BRANCH  18  19
ATOM     19  C   UNL     1      24.312   5.229   3.097  1.00  0.00    -0.000 C 
BRANCH  19  20
ATOM     20  C   UNL     1      23.271   4.332   2.402  1.00  0.00    -0.000 C 
BRANCH  20  21
ATOM     21  C   UNL     1      23.903   3.365   1.388  1.00  0.00    -0.000 C 
BRANCH  21  22
ATOM     22  C   UNL     1      24.251   2.003   2.012  1.00  0.00    -0.000 C 
BRANCH  22  23
ATOM     23  C   UNL     1      25.680   1.545   1.677  1.00  0.00    -0.000 C 
BRANCH  23  24
ATOM     24  C   UNL     1      26.690   1.893   2.785  1.00  0.00    -0.000 C 
BRANCH  24  25
ATOM     25  C   UNL     1      27.667   3.002   2.364  1.00  0.00    -0.003 C 
ATOM     26  C   UNL     1      27.769   4.126   3.395  1.00  0.00     0.004 C 
ENDBRANCH  24  25
ENDBRANCH  23  24
ENDBRANCH  22  23
ENDBRANCH  21  22
ENDBRANCH  20  21
ENDBRANCH  19  20
ENDBRANCH  18  19
ENDBRANCH  17  18
ENDBRANCH  16  17
ENDBRANCH  15  16
ENDBRANCH   1  15
TORSDOF 22
ENDMDL
MODEL 7
REMARK VINA RESULT:    -4.382      2.012      2.916
REMARK INTER + INTRA:         -12.880
REMARK INTER:                 -10.522
REMARK INTRA:                  -2.359
REMARK UNBOUND:                -2.863
REMARK SMILES CCCCCCCCCCCCCCCCCCCCCCCC(=O)[O-]
REMARK SMILES IDX 13 1 14 2 15 3 16 4 17 5 18 6 19 7 20 8 21 9 22 10 23 11
REMARK SMILES IDX 24 12 25 13 26 14 12 15 11 16 10 17 9 18 8 19 7 20 6 21 5 22
REMARK SMILES IDX 4 23 3 24 2 25 1 26
REMARK H PARENT
REMARK Flexibility Score: inf
ROOT
ATOM      1  C   UNL     1      22.090   7.331   7.643  1.00  0.00     0.000 C 
ENDROOT
BRANCH   1   2
ATOM      2  C   UNL     1      20.910   7.004   6.708  1.00  0.00     0.000 C 
BRANCH   2   3
ATOM      3  C   UNL     1      19.527   7.459   7.213  1.00  0.00     0.000 C 
BRANCH   3   4
ATOM      4  C   UNL     1      19.464   8.900   7.753  1.00  0.00     0.000 C 
BRANCH   4   5
ATOM      5  C   UNL     1      19.623   9.985   6.666  1.00  0.00     0.000 C 
BRANCH   5   6
ATOM      6  C   UNL     1      18.777   9.695   5.413  1.00  0.00     0.000 C 
BRANCH   6   7
ATOM      7  C   UNL     1      17.372  10.320   5.483  1.00  0.00     0.000 C 
BRANCH   7   8
ATOM      8  C   UNL     1      16.226   9.380   5.065  1.00  0.00     0.000 C 
BRANCH   8   9
ATOM      9  C   UNL     1      16.256   8.039   5.814  1.00  0.00     0.000 C 
BRANCH   9  10
ATOM     10  C   UNL     1      16.092   6.860   4.843  1.00  0.00     0.006 C 
BRANCH  10  11
ATOM     11  C   UNL     1      17.393   6.064   4.674  1.00  0.00     0.053 C 
BRANCH  11  12
ATOM     12  C   UNL     1      18.167   6.512   3.472  1.00  0.00     0.041 C 
ATOM     13  O   UNL     1      19.418   6.632   3.534  1.00  0.00    -0.550 OA
ATOM     14  O   UNL     1      17.503   6.830   2.294  1.00  0.00    -0.550 OA
ENDBRANCH  11  12
ENDBRANCH  10  11
ENDBRANCH   9  10
ENDBRANCH   8   9
ENDBRANCH   7   8
ENDBRANCH   6   7
ENDBRANCH   5   6
ENDBRANCH   4   5
ENDBRANCH   3   4
ENDBRANCH   2   3
ENDBRANCH   1   2
BRANCH   1  15
ATOM     15  C   UNL     1      23.411   6.688   7.187  1.00  0.00     0.000 C 
BRANCH  15  16
ATOM     16  C   UNL     1      23.317   6.084   5.775  1.00  0.00     0.000 C 
BRANCH  16  17
ATOM     17  C   UNL     1      23.614   4.575   5.757  1.00  0.00     0.000 C 
BRANCH  17  18
ATOM     18  C   UNL     1      24.246   4.107   4.433  1.00  0.00    -0.000 C 
BRANCH  18  19
ATOM     19  C   UNL     1      24.950   5.212   3.623  1.00  0.00    -0.000 C 
BRANCH  19  20
ATOM     20  C   UNL     1      25.251   4.791   2.173  1.00  0.00    -0.000 C 
BRANCH  20  21
ATOM     21  C   UNL     1      25.772   3.348   2.070  1.00  0.00    -0.000 C 
BRANCH  21  22
ATOM     22  C   UNL     1      27.307   3.272   2.115  1.00  0.00    -0.000 C 
BRANCH  22  23
ATOM     23  C   UNL     1      27.851   3.124   3.545  1.00  0.00    -0.000 C 
BRANCH  23  24
ATOM     24  C   UNL     1      28.847   4.236   3.920  1.00  0.00    -0.000 C 
BRANCH  24  25
ATOM     25  C   UNL     1      30.304   3.844   3.626  1.00  0.00    -0.003 C 
ATOM     26  C   UNL     1      30.873   4.554   2.398  1.00  0.00     0.004 C 
ENDBRANCH  24  25
ENDBRANCH  23  24
ENDBRANCH  22  23
ENDBRANCH  21  22
ENDBRANCH  20  21
ENDBRANCH  19  20
ENDBRANCH  18  19
ENDBRANCH  17  18
ENDBRANCH  16  17
ENDBRANCH  15  16
ENDBRANCH   1  15
TORSDOF 22
ENDMDL
MODEL 8
REMARK VINA RESULT:    -4.283      3.304      8.685
REMARK INTER + INTRA:         -12.654
REMARK INTER:                 -10.102
REMARK INTRA:                  -2.552
REMARK UNBOUND:                -2.863
REMARK SMILES CCCCCCCCCCCCCCCCCCCCCCCC(=O)[O-]
REMARK SMILES IDX 13 1 14 2 15 3 16 4 17 5 18 6 19 7 20 8 21 9 22 10 23 11
REMARK SMILES IDX 24 12 25 13 26 14 12 15 11 16 10 17 9 18 8 19 7 20 6 21 5 22
REMARK SMILES IDX 4 23 3 24 2 25 1 26
REMARK H PARENT
REMARK Flexibility Score: inf
ROOT
ATOM      1  C   UNL     1      23.376   6.217   7.058  1.00  0.00     0.000 C 
ENDROOT
BRANCH   1   2
ATOM      2  C   UNL     1      22.850   5.888   5.647  1.00  0.00     0.000 C 
BRANCH   2   3
ATOM      3  C   UNL     1      23.936   5.583   4.598  1.00  0.00     0.000 C 
BRANCH   3   4
ATOM      4  C   UNL     1      23.420   5.020   3.259  1.00  0.00     0.000 C 
BRANCH   4   5
ATOM      5  C   UNL     1      24.439   5.117   2.104  1.00  0.00     0.000 C 
BRANCH   5   6
ATOM      6  C   UNL     1      24.721   3.755   1.446  1.00  0.00     0.000 C 
BRANCH   6   7
ATOM      7  C   UNL     1      25.949   3.045   2.046  1.00  0.00     0.000 C 
BRANCH   7   8
ATOM      8  C   UNL     1      26.963   3.979   2.732  1.00  0.00     0.000 C 
BRANCH   8   9
ATOM      9  C   UNL     1      27.262   3.569   4.181  1.00  0.00     0.000 C 
BRANCH   9  10
ATOM     10  C   UNL     1      27.505   4.802   5.065  1.00  0.00     0.006 C 
BRANCH  10  11
ATOM     11  C   UNL     1      27.459   6.109   4.261  1.00  0.00     0.053 C 
BRANCH  11  12
ATOM     12  C   UNL     1      28.333   7.164   4.866  1.00  0.00     0.041 C 
ATOM     13  O   UNL     1      29.383   7.530   4.277  1.00  0.00    -0.550 OA
ATOM     14  O   UNL     1      28.005   7.720   6.096  1.00  0.00    -0.550 OA
ENDBRANCH  11  12
ENDBRANCH  10  11
ENDBRANCH   9  10
ENDBRANCH   8   9
ENDBRANCH   7   8
ENDBRANCH   6   7
ENDBRANCH   5   6
ENDBRANCH   4   5
ENDBRANCH   3   4
ENDBRANCH   2   3
ENDBRANCH   1   2
BRANCH   1  15
ATOM     15  C   UNL     1      22.368   7.016   7.901  1.00  0.00     0.000 C 
BRANCH  15  16
ATOM     16  C   UNL     1      20.923   6.863   7.395  1.00  0.00     0.000 C 
BRANCH  16  17
ATOM     17  C   UNL     1      20.330   8.189   6.887  1.00  0.00     0.000 C 
BRANCH  17  18
ATOM     18  C   UNL     1      20.487   9.339   7.899  1.00  0.00    -0.000 C 
BRANCH  18  19
ATOM     19  C   UNL     1      19.375  10.404   7.849  1.00  0.00    -0.000 C 
BRANCH  19  20
ATOM     20  C   UNL     1      19.267  11.092   6.476  1.00  0.00    -0.000 C 
BRANCH  20  21
ATOM     21  C   UNL     1      17.885  10.908   5.827  1.00  0.00    -0.000 C 
BRANCH  21  22
ATOM     22  C   UNL     1      17.044   9.829   6.531  1.00  0.00    -0.000 C 
BRANCH  22  23
ATOM     23  C   UNL     1      16.578   8.723   5.571  1.00  0.00    -0.000 C 
BRANCH  23  24
ATOM     24  C   UNL     1      17.506   8.561   4.354  1.00  0.00    -0.000 C 
BRANCH  24  25
ATOM     25  C   UNL     1      18.142   7.164   4.281  1.00  0.00    -0.003 C 
ATOM     26  C   UNL     1      17.309   6.096   4.989  1.00  0.00     0.004 C 
ENDBRANCH  24  25
ENDBRANCH  23  24
ENDBRANCH  22  23
ENDBRANCH  21  22
ENDBRANCH  20  21
ENDBRANCH  19  20
ENDBRANCH  18  19
ENDBRANCH  17  18
ENDBRANCH  16  17
ENDBRANCH  15  16
ENDBRANCH   1  15
TORSDOF 22
ENDMDL
MODEL 9
REMARK VINA RESULT:    -4.279      2.169      7.822
REMARK INTER + INTRA:         -12.645
REMARK INTER:                  -9.689
REMARK INTRA:                  -2.955
REMARK UNBOUND:                -2.863
REMARK SMILES CCCCCCCCCCCCCCCCCCCCCCCC(=O)[O-]
REMARK SMILES IDX 13 1 14 2 15 3 16 4 17 5 18 6 19 7 20 8 21 9 22 10 23 11
REMARK SMILES IDX 24 12 25 13 26 14 12 15 11 16 10 17 9 18 8 19 7 20 6 21 5 22
REMARK SMILES IDX 4 23 3 24 2 25 1 26
REMARK H PARENT
REMARK Flexibility Score: inf
ROOT
ATOM      1  C   UNL     1      22.190   6.265   6.666  1.00  0.00     0.000 C 
ENDROOT
BRANCH   1   2
ATOM      2  C   UNL     1      23.141   6.431   7.866  1.00  0.00     0.000 C 
BRANCH   2   3
ATOM      3  C   UNL     1      23.658   5.115   8.478  1.00  0.00     0.000 C 
BRANCH   3   4
ATOM      4  C   UNL     1      22.959   3.836   7.980  1.00  0.00     0.000 C 
BRANCH   4   5
ATOM      5  C   UNL     1      23.891   2.867   7.221  1.00  0.00     0.000 C 
BRANCH   5   6
ATOM      6  C   UNL     1      24.099   3.275   5.752  1.00  0.00     0.000 C 
BRANCH   6   7
ATOM      7  C   UNL     1      25.391   4.083   5.534  1.00  0.00     0.000 C 
BRANCH   7   8
ATOM      8  C   UNL     1      25.510   4.748   4.150  1.00  0.00     0.000 C 
BRANCH   8   9
ATOM      9  C   UNL     1      24.161   5.255   3.617  1.00  0.00     0.000 C 
BRANCH   9  10
ATOM     10  C   UNL     1      24.071   5.086   2.093  1.00  0.00     0.006 C 
BRANCH  10  11
ATOM     11  C   UNL     1      24.977   3.959   1.581  1.00  0.00     0.053 C 
BRANCH  11  12
ATOM     12  C   UNL     1      24.233   2.666   1.442  1.00  0.00     0.041 C 
ATOM     13  O   UNL     1      24.457   1.719   2.240  1.00  0.00    -0.550 OA
ATOM     14  O   UNL     1      23.316   2.497   0.412  1.00  0.00    -0.550 OA
ENDBRANCH  11  12
ENDBRANCH  10  11
ENDBRANCH   9  10
ENDBRANCH   8   9
ENDBRANCH   7   8
ENDBRANCH   6   7
ENDBRANCH   5   6
ENDBRANCH   4   5
ENDBRANCH   3   4
ENDBRANCH   2   3
ENDBRANCH   1   2
BRANCH   1  15
ATOM     15  C   UNL     1      21.040   7.288   6.668  1.00  0.00     0.000 C 
BRANCH  15  16
ATOM     16  C   UNL     1      21.146   8.292   7.829  1.00  0.00     0.000 C 
BRANCH  16  17
ATOM     17  C   UNL     1      19.869   9.134   8.001  1.00  0.00     0.000 C 
BRANCH  17  18
ATOM     18  C   UNL     1      20.076  10.614   7.633  1.00  0.00    -0.000 C 
BRANCH  18  19
ATOM     19  C   UNL     1      19.342  11.076   6.361  1.00  0.00    -0.000 C 
BRANCH  19  20
ATOM     20  C   UNL     1      17.967  10.405   6.186  1.00  0.00    -0.000 C 
BRANCH  20  21
ATOM     21  C   UNL     1      17.636  10.105   4.715  1.00  0.00    -0.000 C 
BRANCH  21  22
ATOM     22  C   UNL     1      18.506   8.978   4.134  1.00  0.00    -0.000 C 
BRANCH  22  23
ATOM     23  C   UNL     1      18.048   7.582   4.586  1.00  0.00    -0.000 C 
BRANCH  23  24
ATOM     24  C   UNL     1      16.520   7.481   4.742  1.00  0.00    -0.000 C 
BRANCH  24  25
ATOM     25  C   UNL     1      16.101   7.043   6.154  1.00  0.00    -0.003 C 
ATOM     26  C   UNL     1      17.289   6.639   7.027  1.00  0.00     0.004 C 
ENDBRANCH  24  25
ENDBRANCH  23  24
ENDBRANCH  22  23
ENDBRANCH  21  22
ENDBRANCH  20  21
ENDBRANCH  19  20
ENDBRANCH  18  19
ENDBRANCH  17  18
ENDBRANCH  16  17
ENDBRANCH  15  16
ENDBRANCH   1  15
TORSDOF 22
ENDMDL
