MODEL 1
REMARK VINA RESULT:    13.933      0.000      0.000
REMARK INTER + INTRA:          15.877
REMARK INTER:                  15.155
REMARK INTRA:                   0.722
REMARK UNBOUND:                 0.722
REMARK SMILES C[C@@H]1[C@@H](C)CC[C@@]2(C(=O)[O-])CC[C@@]3(C)C(=CC[C@@H]4[C@]5(C)CC[C@H](O)C(C)(C)[C@@H]5CC[C@@]43C)[C@@H]12
REMARK SMILES IDX 7 1 6 2 11 3 33 4 5 5 12 6 15 7 2 8 3 9 13 10 16 11 1 12
REMARK SMILES IDX 4 13 14 14 31 15 17 16 18 17 30 18 32 19 19 20 29 21 28 22
REMARK SMILES IDX 21 23 20 24 25 25 22 26 23 27 26 28 27 29 8 30 9 31 10 32
REMARK SMILES IDX 24 33
REMARK H PARENT 24 34
REMARK Flexibility Score: inf
ROOT
ATOM      1  C   UNL     1      22.316  11.403  -7.739  1.00  0.00     0.017 C 
ATOM      2  C   UNL     1      22.102  12.926  -7.978  1.00  0.00     0.014 C 
ATOM      3  C   UNL     1      22.297  10.640  -9.092  1.00  0.00     0.014 C 
ATOM      4  C   UNL     1      23.670  11.133  -7.004  1.00  0.00     0.030 C 
ATOM      5  C   UNL     1      23.334  13.641  -8.542  1.00  0.00     0.004 C 
ATOM      6  C   UNL     1      22.557   9.119  -8.944  1.00  0.00     0.013 C 
ATOM      7  C   UNL     1      23.907   9.610  -6.921  1.00  0.00    -0.063 C 
ATOM      8  C   UNL     1      24.898  11.947  -7.527  1.00  0.00    -0.003 C 
ATOM      9  C   UNL     1      24.547  13.456  -7.615  1.00  0.00    -0.011 C 
ATOM     10  C   UNL     1      23.879   8.724  -8.192  1.00  0.00    -0.006 C 
ATOM     11  C   UNL     1      23.824   9.081  -5.690  1.00  0.00    -0.027 C 
ATOM     12  C   UNL     1      26.125  11.709  -6.622  1.00  0.00     0.008 C 
ATOM     13  C   UNL     1      25.719  14.305  -8.135  1.00  0.00     0.008 C 
ATOM     14  C   UNL     1      25.079   9.086  -9.125  1.00  0.00     0.017 C 
ATOM     15  C   UNL     1      23.932   7.120  -7.872  1.00  0.00    -0.020 C 
ATOM     16  C   UNL     1      23.696   7.639  -5.390  1.00  0.00     0.032 C 
ATOM     17  C   UNL     1      23.146   6.770  -6.554  1.00  0.00     0.006 C 
ATOM     18  C   UNL     1      25.405   6.612  -7.665  1.00  0.00     0.008 C 
ATOM     19  C   UNL     1      23.318   6.381  -9.113  1.00  0.00     0.012 C 
ATOM     20  C   UNL     1      23.093   5.186  -6.188  1.00  0.00    -0.025 C 
ATOM     21  C   UNL     1      25.604   5.347  -6.780  1.00  0.00     0.005 C 
ATOM     22  C   UNL     1      24.380   4.397  -6.717  1.00  0.00     0.003 C 
ATOM     23  C   UNL     1      22.946   4.990  -4.635  1.00  0.00     0.010 C 
ATOM     24  C   UNL     1      21.797   4.611  -6.845  1.00  0.00     0.012 C 
ATOM     25  C   UNL     1      24.675   2.971  -6.051  1.00  0.00    -0.006 C 
ATOM     26  C   UNL     1      23.094   3.556  -4.128  1.00  0.00     0.033 C 
ATOM     27  C   UNL     1      24.459   2.978  -4.512  1.00  0.00     0.120 C 
ATOM     28  C   UNL     1      23.769   1.875  -6.691  1.00  0.00     0.014 C 
ATOM     29  C   UNL     1      26.125   2.481  -6.335  1.00  0.00     0.014 C 
ENDROOT
BRANCH   1  30
ATOM     30  C   UNL     1      21.144  10.943  -6.859  1.00  0.00     0.048 C 
ATOM     31  O   UNL     1      20.298  11.782  -6.441  1.00  0.00    -0.550 OA
ATOM     32  O   UNL     1      20.966   9.604  -6.540  1.00  0.00    -0.550 OA
ENDBRANCH   1  30
BRANCH  27  33
ATOM     33  O   UNL     1      25.481   3.709  -3.880  1.00  0.00    -0.393 OA
ATOM     34  H   UNL     1      26.309   3.581  -4.409  1.00  0.00     0.210 HD
ENDBRANCH  27  33
TORSDOF 2
ENDMDL
