MODEL 1
REMARK VINA RESULT:    -6.903      0.000      0.000
REMARK INTER + INTRA:          -8.780
REMARK INTER:                  -8.517
REMARK INTRA:                  -0.263
REMARK UNBOUND:                -0.263
REMARK SMILES Oc1cc(O)c2cc(O)c(-c3cc(O)c(O)c(O)c3)[o+]c2c1.[Cl-]
REMARK SMILES IDX 10 1 20 2 21 3 22 4 2 5 3 6 4 7 6 8 7 9 8 10 11 11 12 12
REMARK SMILES IDX 13 13 19 14 15 15 17 16 14 17 16 19 18 21 9 23 1 25 5 27
REMARK H PARENT 14 18 16 20 18 22 9 24 1 26 5 28
REMARK Flexibility Score: inf
ROOT
ATOM      1  C   UNL     1      27.676  13.175  65.586  1.00  0.00     0.402 A 
ATOM      2  O   UNL     1      27.077  13.910  64.652  1.00  0.00    -0.202 OA
ATOM      3  C   UNL     1      26.071  14.740  64.910  1.00  0.00     0.368 A 
ATOM      4  C   UNL     1      25.505  15.468  63.860  1.00  0.00     0.162 A 
ATOM      5  C   UNL     1      24.445  16.346  64.104  1.00  0.00     0.128 A 
ATOM      6  C   UNL     1      23.948  16.495  65.399  1.00  0.00     0.093 A 
ATOM      7  C   UNL     1      24.498  15.777  66.469  1.00  0.00     0.136 A 
ATOM      8  C   UNL     1      25.577  14.887  66.228  1.00  0.00     0.125 A 
ATOM      9  C   UNL     1      26.199  14.136  67.239  1.00  0.00     0.078 A 
ATOM     10  C   UNL     1      27.261  13.282  66.926  1.00  0.00     0.223 A 
ENDROOT
BRANCH   1  11
ATOM     11  C   UNL     1      28.781  12.280  65.172  1.00  0.00     0.091 A 
ATOM     12  C   UNL     1      28.545  11.150  64.373  1.00  0.00     0.068 A 
ATOM     13  C   UNL     1      29.606  10.328  63.974  1.00  0.00     0.162 A 
ATOM     14  C   UNL     1      30.098  12.596  65.534  1.00  0.00     0.068 A 
ATOM     15  C   UNL     1      30.920  10.634  64.357  1.00  0.00     0.200 A 
ATOM     16  C   UNL     1      31.168  11.784  65.142  1.00  0.00     0.162 A 
BRANCH  13  17
ATOM     17  O   UNL     1      29.363   9.203  63.187  1.00  0.00    -0.504 OA
ATOM     18  H   UNL     1      30.096   8.773  62.636  1.00  0.00     0.293 HD
ENDBRANCH  13  17
BRANCH  15  19
ATOM     19  O   UNL     1      31.941   9.776  63.937  1.00  0.00    -0.502 OA
ATOM     20  H   UNL     1      32.230   9.670  62.975  1.00  0.00     0.293 HD
ENDBRANCH  15  19
BRANCH  16  21
ATOM     21  O   UNL     1      32.450  12.157  65.551  1.00  0.00    -0.504 OA
ATOM     22  H   UNL     1      32.653  12.624  66.423  1.00  0.00     0.293 HD
ENDBRANCH  16  21
ENDBRANCH   1  11
BRANCH  10  23
ATOM     23  O   UNL     1      27.911  12.574  67.938  1.00  0.00    -0.500 OA
ATOM     24  H   UNL     1      27.872  11.564  67.990  1.00  0.00     0.294 HD
ENDBRANCH  10  23
BRANCH   5  25
ATOM     25  O   UNL     1      23.875  17.076  63.061  1.00  0.00    -0.507 OA
ATOM     26  H   UNL     1      22.876  17.068  62.894  1.00  0.00     0.293 HD
ENDBRANCH   5  25
BRANCH   7  27
ATOM     27  O   UNL     1      23.943  15.981  67.735  1.00  0.00    -0.507 OA
ATOM     28  H   UNL     1      24.036  15.338  68.509  1.00  0.00     0.293 HD
ENDBRANCH   7  27
TORSDOF 7
ENDMDL
MODEL 2
REMARK VINA RESULT:    -6.819      2.923      7.749
REMARK INTER + INTRA:          -8.677
REMARK INTER:                  -8.349
REMARK INTRA:                  -0.328
REMARK UNBOUND:                -0.263
REMARK SMILES Oc1cc(O)c2cc(O)c(-c3cc(O)c(O)c(O)c3)[o+]c2c1.[Cl-]
REMARK SMILES IDX 10 1 20 2 21 3 22 4 2 5 3 6 4 7 6 8 7 9 8 10 11 11 12 12
REMARK SMILES IDX 13 13 19 14 15 15 17 16 14 17 16 19 18 21 9 23 1 25 5 27
REMARK H PARENT 14 18 16 20 18 22 9 24 1 26 5 28
REMARK Flexibility Score: inf
ROOT
ATOM      1  C   UNL     1      30.291  10.834  64.093  1.00  0.00     0.402 A 
ATOM      2  O   UNL     1      31.460  11.378  63.766  1.00  0.00    -0.202 OA
ATOM      3  C   UNL     1      32.194  10.967  62.737  1.00  0.00     0.368 A 
ATOM      4  C   UNL     1      33.412  11.601  62.476  1.00  0.00     0.162 A 
ATOM      5  C   UNL     1      34.205  11.187  61.401  1.00  0.00     0.128 A 
ATOM      6  C   UNL     1      33.780  10.136  60.586  1.00  0.00     0.093 A 
ATOM      7  C   UNL     1      32.563   9.485  60.827  1.00  0.00     0.136 A 
ATOM      8  C   UNL     1      31.753   9.903  61.915  1.00  0.00     0.125 A 
ATOM      9  C   UNL     1      30.513   9.319  62.224  1.00  0.00     0.078 A 
ATOM     10  C   UNL     1      29.768   9.787  63.310  1.00  0.00     0.223 A 
ENDROOT
BRANCH   1  11
ATOM     11  C   UNL     1      29.570  11.374  65.269  1.00  0.00     0.091 A 
ATOM     12  C   UNL     1      28.465  12.226  65.121  1.00  0.00     0.068 A 
ATOM     13  C   UNL     1      27.783  12.708  66.245  1.00  0.00     0.162 A 
ATOM     14  C   UNL     1      29.961  10.981  66.557  1.00  0.00     0.068 A 
ATOM     15  C   UNL     1      28.191  12.332  67.534  1.00  0.00     0.200 A 
ATOM     16  C   UNL     1      29.289  11.455  67.690  1.00  0.00     0.162 A 
BRANCH  13  17
ATOM     17  O   UNL     1      26.691  13.560  66.090  1.00  0.00    -0.504 OA
ATOM     18  H   UNL     1      26.775  14.561  66.224  1.00  0.00     0.293 HD
ENDBRANCH  13  17
BRANCH  15  19
ATOM     19  O   UNL     1      27.479  12.847  68.622  1.00  0.00    -0.502 OA
ATOM     20  H   UNL     1      27.824  13.578  69.227  1.00  0.00     0.293 HD
ENDBRANCH  15  19
BRANCH  16  21
ATOM     21  O   UNL     1      29.743  11.029  68.940  1.00  0.00    -0.504 OA
ATOM     22  H   UNL     1      30.279  10.186  69.091  1.00  0.00     0.293 HD
ENDBRANCH  16  21
ENDBRANCH   1  11
BRANCH  10  23
ATOM     23  O   UNL     1      28.515   9.240  63.587  1.00  0.00    -0.500 OA
ATOM     24  H   UNL     1      27.675   9.579  63.134  1.00  0.00     0.294 HD
ENDBRANCH  10  23
BRANCH   5  25
ATOM     25  O   UNL     1      35.421  11.814  61.134  1.00  0.00    -0.507 OA
ATOM     26  H   UNL     1      35.774  11.905  60.189  1.00  0.00     0.293 HD
ENDBRANCH   5  25
BRANCH   7  27
ATOM     27  O   UNL     1      32.210   8.441  59.968  1.00  0.00    -0.507 OA
ATOM     28  H   UNL     1      32.853   7.972  59.345  1.00  0.00     0.293 HD
ENDBRANCH   7  27
TORSDOF 7
ENDMDL
MODEL 3
REMARK VINA RESULT:    -6.791      6.897      8.766
REMARK INTER + INTRA:          -8.641
REMARK INTER:                  -8.301
REMARK INTRA:                  -0.341
REMARK UNBOUND:                -0.263
REMARK SMILES Oc1cc(O)c2cc(O)c(-c3cc(O)c(O)c(O)c3)[o+]c2c1.[Cl-]
REMARK SMILES IDX 10 1 20 2 21 3 22 4 2 5 3 6 4 7 6 8 7 9 8 10 11 11 12 12
REMARK SMILES IDX 13 13 19 14 15 15 17 16 14 17 16 19 18 21 9 23 1 25 5 27
REMARK H PARENT 14 18 16 20 18 22 9 24 1 26 5 28
REMARK Flexibility Score: inf
ROOT
ATOM      1  C   UNL     1      34.236  12.193  63.585  1.00  0.00     0.402 A 
ATOM      2  O   UNL     1      35.324  12.813  63.135  1.00  0.00    -0.202 OA
ATOM      3  C   UNL     1      35.995  13.717  63.842  1.00  0.00     0.368 A 
ATOM      4  C   UNL     1      37.125  14.316  63.280  1.00  0.00     0.162 A 
ATOM      5  C   UNL     1      37.848  15.272  64.001  1.00  0.00     0.128 A 
ATOM      6  C   UNL     1      37.438  15.629  65.287  1.00  0.00     0.093 A 
ATOM      7  C   UNL     1      36.309  15.043  65.872  1.00  0.00     0.136 A 
ATOM      8  C   UNL     1      35.573  14.071  65.146  1.00  0.00     0.125 A 
ATOM      9  C   UNL     1      34.438  13.421  65.656  1.00  0.00     0.078 A 
ATOM     10  C   UNL     1      33.766  12.469  64.883  1.00  0.00     0.223 A 
ENDROOT
BRANCH   1  11
ATOM     11  C   UNL     1      33.570  11.212  62.698  1.00  0.00     0.091 A 
ATOM     12  C   UNL     1      33.764   9.831  62.860  1.00  0.00     0.068 A 
ATOM     13  C   UNL     1      33.108   8.918  62.026  1.00  0.00     0.162 A 
ATOM     14  C   UNL     1      32.681  11.664  61.713  1.00  0.00     0.068 A 
ATOM     15  C   UNL     1      32.237   9.375  61.025  1.00  0.00     0.200 A 
ATOM     16  C   UNL     1      32.019  10.764  60.871  1.00  0.00     0.162 A 
BRANCH  13  17
ATOM     17  O   UNL     1      33.312   7.548  62.188  1.00  0.00    -0.504 OA
ATOM     18  H   UNL     1      33.042   6.884  61.472  1.00  0.00     0.293 HD
ENDBRANCH  13  17
BRANCH  15  19
ATOM     19  O   UNL     1      31.613   8.421  60.215  1.00  0.00    -0.502 OA
ATOM     20  H   UNL     1      31.847   8.263  59.246  1.00  0.00     0.293 HD
ENDBRANCH  15  19
BRANCH  16  21
ATOM     21  O   UNL     1      31.158  11.290  59.906  1.00  0.00    -0.504 OA
ATOM     22  H   UNL     1      30.629  10.730  59.253  1.00  0.00     0.293 HD
ENDBRANCH  16  21
ENDBRANCH   1  11
BRANCH  10  23
ATOM     23  O   UNL     1      32.668  11.788  65.409  1.00  0.00    -0.500 OA
ATOM     24  H   UNL     1      32.056  12.214  66.094  1.00  0.00     0.294 HD
ENDBRANCH  10  23
BRANCH   5  25
ATOM     25  O   UNL     1      38.976  15.874  63.447  1.00  0.00    -0.507 OA
ATOM     26  H   UNL     1      38.981  16.854  63.190  1.00  0.00     0.293 HD
ENDBRANCH   5  25
BRANCH   7  27
ATOM     27  O   UNL     1      35.963  15.457  67.161  1.00  0.00    -0.507 OA
ATOM     28  H   UNL     1      36.512  15.267  67.988  1.00  0.00     0.293 HD
ENDBRANCH   7  27
TORSDOF 7
ENDMDL
MODEL 4
REMARK VINA RESULT:    -6.737      4.859      8.157
REMARK INTER + INTRA:          -8.575
REMARK INTER:                  -8.195
REMARK INTRA:                  -0.380
REMARK UNBOUND:                -0.263
REMARK SMILES Oc1cc(O)c2cc(O)c(-c3cc(O)c(O)c(O)c3)[o+]c2c1.[Cl-]
REMARK SMILES IDX 10 1 20 2 21 3 22 4 2 5 3 6 4 7 6 8 7 9 8 10 11 11 12 12
REMARK SMILES IDX 13 13 19 14 15 15 17 16 14 17 16 19 18 21 9 23 1 25 5 27
REMARK H PARENT 14 18 16 20 18 22 9 24 1 26 5 28
REMARK Flexibility Score: inf
ROOT
ATOM      1  C   UNL     1      33.174  11.397  65.301  1.00  0.00     0.402 A 
ATOM      2  O   UNL     1      33.463  12.652  64.968  1.00  0.00    -0.202 OA
ATOM      3  C   UNL     1      34.642  13.218  65.204  1.00  0.00     0.368 A 
ATOM      4  C   UNL     1      34.848  14.545  64.820  1.00  0.00     0.162 A 
ATOM      5  C   UNL     1      36.078  15.165  65.058  1.00  0.00     0.128 A 
ATOM      6  C   UNL     1      37.105  14.456  65.684  1.00  0.00     0.093 A 
ATOM      7  C   UNL     1      36.924  13.124  66.079  1.00  0.00     0.136 A 
ATOM      8  C   UNL     1      35.678  12.489  65.836  1.00  0.00     0.125 A 
ATOM      9  C   UNL     1      35.410  11.155  66.185  1.00  0.00     0.078 A 
ATOM     10  C   UNL     1      34.158  10.596  65.911  1.00  0.00     0.223 A 
ENDROOT
BRANCH   1  11
ATOM     11  C   UNL     1      31.820  10.883  64.994  1.00  0.00     0.091 A 
ATOM     12  C   UNL     1      31.538  10.249  63.773  1.00  0.00     0.068 A 
ATOM     13  C   UNL     1      30.257   9.750  63.511  1.00  0.00     0.162 A 
ATOM     14  C   UNL     1      30.810  10.977  65.962  1.00  0.00     0.068 A 
ATOM     15  C   UNL     1      29.241   9.867  64.472  1.00  0.00     0.200 A 
ATOM     16  C   UNL     1      29.524  10.483  65.713  1.00  0.00     0.162 A 
BRANCH  13  17
ATOM     17  O   UNL     1      29.982   9.128  62.293  1.00  0.00    -0.504 OA
ATOM     18  H   UNL     1      30.574   9.266  61.482  1.00  0.00     0.293 HD
ENDBRANCH  13  17
BRANCH  15  19
ATOM     19  O   UNL     1      27.978   9.358  64.156  1.00  0.00    -0.502 OA
ATOM     20  H   UNL     1      27.386   9.728  63.426  1.00  0.00     0.293 HD
ENDBRANCH  15  19
BRANCH  16  21
ATOM     21  O   UNL     1      28.568  10.624  66.721  1.00  0.00    -0.504 OA
ATOM     22  H   UNL     1      27.612  10.905  66.558  1.00  0.00     0.293 HD
ENDBRANCH  16  21
ENDBRANCH   1  11
BRANCH  10  23
ATOM     23  O   UNL     1      33.909   9.256  66.212  1.00  0.00    -0.500 OA
ATOM     24  H   UNL     1      32.980   8.928  66.447  1.00  0.00     0.294 HD
ENDBRANCH  10  23
BRANCH   5  25
ATOM     25  O   UNL     1      36.291  16.488  64.677  1.00  0.00    -0.507 OA
ATOM     26  H   UNL     1      36.062  17.260  65.293  1.00  0.00     0.293 HD
ENDBRANCH   5  25
BRANCH   7  27
ATOM     27  O   UNL     1      37.999  12.485  66.701  1.00  0.00    -0.507 OA
ATOM     28  H   UNL     1      38.703  11.947  66.215  1.00  0.00     0.293 HD
ENDBRANCH   7  27
TORSDOF 7
ENDMDL
MODEL 5
REMARK VINA RESULT:    -6.736      4.853      8.277
REMARK INTER + INTRA:          -8.574
REMARK INTER:                  -8.191
REMARK INTRA:                  -0.383
REMARK UNBOUND:                -0.263
REMARK SMILES Oc1cc(O)c2cc(O)c(-c3cc(O)c(O)c(O)c3)[o+]c2c1.[Cl-]
REMARK SMILES IDX 10 1 20 2 21 3 22 4 2 5 3 6 4 7 6 8 7 9 8 10 11 11 12 12
REMARK SMILES IDX 13 13 19 14 15 15 17 16 14 17 16 19 18 21 9 23 1 25 5 27
REMARK H PARENT 14 18 16 20 18 22 9 24 1 26 5 28
REMARK Flexibility Score: inf
ROOT
ATOM      1  C   UNL     1      33.175  11.284  65.249  1.00  0.00     0.402 A 
ATOM      2  O   UNL     1      33.461  12.541  64.922  1.00  0.00    -0.202 OA
ATOM      3  C   UNL     1      34.649  13.099  65.132  1.00  0.00     0.368 A 
ATOM      4  C   UNL     1      34.852  14.429  64.755  1.00  0.00     0.162 A 
ATOM      5  C   UNL     1      36.092  15.040  64.967  1.00  0.00     0.128 A 
ATOM      6  C   UNL     1      37.131  14.319  65.559  1.00  0.00     0.093 A 
ATOM      7  C   UNL     1      36.952  12.985  65.945  1.00  0.00     0.136 A 
ATOM      8  C   UNL     1      35.697  12.359  65.729  1.00  0.00     0.125 A 
ATOM      9  C   UNL     1      35.431  11.023  66.072  1.00  0.00     0.078 A 
ATOM     10  C   UNL     1      34.170  10.473  65.825  1.00  0.00     0.223 A 
ENDROOT
BRANCH   1  11
ATOM     11  C   UNL     1      31.810  10.781  64.973  1.00  0.00     0.091 A 
ATOM     12  C   UNL     1      30.776  10.915  65.913  1.00  0.00     0.068 A 
ATOM     13  C   UNL     1      29.487  10.453  65.624  1.00  0.00     0.162 A 
ATOM     14  C   UNL     1      31.525  10.210  63.724  1.00  0.00     0.068 A 
ATOM     15  C   UNL     1      29.210   9.860  64.383  1.00  0.00     0.200 A 
ATOM     16  C   UNL     1      30.241   9.743  63.421  1.00  0.00     0.162 A 
BRANCH  13  17
ATOM     17  O   UNL     1      28.468  10.583  66.567  1.00  0.00    -0.504 OA
ATOM     18  H   UNL     1      28.047  11.482  66.772  1.00  0.00     0.293 HD
ENDBRANCH  13  17
BRANCH  15  19
ATOM     19  O   UNL     1      27.908   9.409  64.149  1.00  0.00    -0.502 OA
ATOM     20  H   UNL     1      27.635   8.437  64.163  1.00  0.00     0.293 HD
ENDBRANCH  15  19
BRANCH  16  21
ATOM     21  O   UNL     1      30.036   9.175  62.162  1.00  0.00    -0.504 OA
ATOM     22  H   UNL     1      30.776   8.974  61.504  1.00  0.00     0.293 HD
ENDBRANCH  16  21
ENDBRANCH   1  11
BRANCH  10  23
ATOM     23  O   UNL     1      33.921   9.131  66.119  1.00  0.00    -0.500 OA
ATOM     24  H   UNL     1      34.616   8.413  65.955  1.00  0.00     0.294 HD
ENDBRANCH  10  23
BRANCH   5  25
ATOM     25  O   UNL     1      36.302  16.366  64.594  1.00  0.00    -0.507 OA
ATOM     26  H   UNL     1      35.913  17.134  65.128  1.00  0.00     0.293 HD
ENDBRANCH   5  25
BRANCH   7  27
ATOM     27  O   UNL     1      38.041  12.334  66.533  1.00  0.00    -0.507 OA
ATOM     28  H   UNL     1      38.001  11.833  67.409  1.00  0.00     0.293 HD
ENDBRANCH   7  27
TORSDOF 7
ENDMDL
MODEL 6
REMARK VINA RESULT:    -6.703      7.435     10.416
REMARK INTER + INTRA:          -8.533
REMARK INTER:                  -8.240
REMARK INTRA:                  -0.293
REMARK UNBOUND:                -0.263
REMARK SMILES Oc1cc(O)c2cc(O)c(-c3cc(O)c(O)c(O)c3)[o+]c2c1.[Cl-]
REMARK SMILES IDX 10 1 20 2 21 3 22 4 2 5 3 6 4 7 6 8 7 9 8 10 11 11 12 12
REMARK SMILES IDX 13 13 19 14 15 15 17 16 14 17 16 19 18 21 9 23 1 25 5 27
REMARK H PARENT 14 18 16 20 18 22 9 24 1 26 5 28
REMARK Flexibility Score: inf
ROOT
ATOM      1  C   UNL     1      35.636  13.287  62.063  1.00  0.00     0.402 A 
ATOM      2  O   UNL     1      35.769  12.276  61.209  1.00  0.00    -0.202 OA
ATOM      3  C   UNL     1      34.966  11.216  61.200  1.00  0.00     0.368 A 
ATOM      4  C   UNL     1      35.189  10.202  60.264  1.00  0.00     0.162 A 
ATOM      5  C   UNL     1      34.361   9.077  60.235  1.00  0.00     0.128 A 
ATOM      6  C   UNL     1      33.307   8.964  61.144  1.00  0.00     0.093 A 
ATOM      7  C   UNL     1      33.063   9.966  62.091  1.00  0.00     0.136 A 
ATOM      8  C   UNL     1      33.899  11.113  62.124  1.00  0.00     0.125 A 
ATOM      9  C   UNL     1      33.722  12.173  63.028  1.00  0.00     0.078 A 
ATOM     10  C   UNL     1      34.583  13.273  62.997  1.00  0.00     0.223 A 
ENDROOT
BRANCH   1  11
ATOM     11  C   UNL     1      36.601  14.407  61.979  1.00  0.00     0.091 A 
ATOM     12  C   UNL     1      37.540  14.641  62.996  1.00  0.00     0.068 A 
ATOM     13  C   UNL     1      38.458  15.692  62.888  1.00  0.00     0.162 A 
ATOM     14  C   UNL     1      36.619  15.219  60.836  1.00  0.00     0.068 A 
ATOM     15  C   UNL     1      38.459  16.517  61.754  1.00  0.00     0.200 A 
ATOM     16  C   UNL     1      37.531  16.273  60.714  1.00  0.00     0.162 A 
BRANCH  13  17
ATOM     17  O   UNL     1      39.383  15.922  63.906  1.00  0.00    -0.504 OA
ATOM     18  H   UNL     1      40.363  16.084  63.706  1.00  0.00     0.293 HD
ENDBRANCH  13  17
BRANCH  15  19
ATOM     19  O   UNL     1      39.393  17.556  61.700  1.00  0.00    -0.502 OA
ATOM     20  H   UNL     1      39.163  18.511  61.467  1.00  0.00     0.293 HD
ENDBRANCH  15  19
BRANCH  16  21
ATOM     21  O   UNL     1      37.481  17.045  59.552  1.00  0.00    -0.504 OA
ATOM     22  H   UNL     1      37.236  16.682  58.641  1.00  0.00     0.293 HD
ENDBRANCH  16  21
ENDBRANCH   1  11
BRANCH  10  23
ATOM     23  O   UNL     1      34.377  14.349  63.862  1.00  0.00    -0.500 OA
ATOM     24  H   UNL     1      34.903  15.210  63.775  1.00  0.00     0.294 HD
ENDBRANCH  10  23
BRANCH   5  25
ATOM     25  O   UNL     1      34.577   8.062  59.305  1.00  0.00    -0.507 OA
ATOM     26  H   UNL     1      34.262   8.146  58.346  1.00  0.00     0.293 HD
ENDBRANCH   5  25
BRANCH   7  27
ATOM     27  O   UNL     1      31.991   9.777  62.967  1.00  0.00    -0.507 OA
ATOM     28  H   UNL     1      31.727   8.885  63.362  1.00  0.00     0.293 HD
ENDBRANCH   7  27
TORSDOF 7
ENDMDL
MODEL 7
REMARK VINA RESULT:    -6.601      4.930      9.777
REMARK INTER + INTRA:          -8.408
REMARK INTER:                  -8.028
REMARK INTRA:                  -0.379
REMARK UNBOUND:                -0.263
REMARK SMILES Oc1cc(O)c2cc(O)c(-c3cc(O)c(O)c(O)c3)[o+]c2c1.[Cl-]
REMARK SMILES IDX 10 1 20 2 21 3 22 4 2 5 3 6 4 7 6 8 7 9 8 10 11 11 12 12
REMARK SMILES IDX 13 13 19 14 15 15 17 16 14 17 16 19 18 21 9 23 1 25 5 27
REMARK H PARENT 14 18 16 20 18 22 9 24 1 26 5 28
REMARK Flexibility Score: inf
ROOT
ATOM      1  C   UNL     1      32.616   9.902  62.556  1.00  0.00     0.402 A 
ATOM      2  O   UNL     1      33.436   8.862  62.678  1.00  0.00    -0.202 OA
ATOM      3  C   UNL     1      34.407   8.591  61.812  1.00  0.00     0.368 A 
ATOM      4  C   UNL     1      35.216   7.472  62.025  1.00  0.00     0.162 A 
ATOM      5  C   UNL     1      36.243   7.164  61.128  1.00  0.00     0.128 A 
ATOM      6  C   UNL     1      36.460   7.976  60.013  1.00  0.00     0.093 A 
ATOM      7  C   UNL     1      35.663   9.103  59.777  1.00  0.00     0.136 A 
ATOM      8  C   UNL     1      34.622   9.422  60.686  1.00  0.00     0.125 A 
ATOM      9  C   UNL     1      33.782  10.539  60.538  1.00  0.00     0.078 A 
ATOM     10  C   UNL     1      32.779  10.792  61.478  1.00  0.00     0.223 A 
ENDROOT
BRANCH   1  11
ATOM     11  C   UNL     1      31.566  10.091  63.583  1.00  0.00     0.091 A 
ATOM     12  C   UNL     1      30.251   9.645  63.375  1.00  0.00     0.068 A 
ATOM     13  C   UNL     1      29.278   9.814  64.367  1.00  0.00     0.162 A 
ATOM     14  C   UNL     1      31.901  10.675  64.813  1.00  0.00     0.068 A 
ATOM     15  C   UNL     1      29.610  10.420  65.588  1.00  0.00     0.200 A 
ATOM     16  C   UNL     1      30.938  10.851  65.813  1.00  0.00     0.162 A 
BRANCH  13  17
ATOM     17  O   UNL     1      27.972   9.375  64.150  1.00  0.00    -0.504 OA
ATOM     18  H   UNL     1      27.535   9.439  63.237  1.00  0.00     0.293 HD
ENDBRANCH  13  17
BRANCH  15  19
ATOM     19  O   UNL     1      28.598  10.570  66.541  1.00  0.00    -0.502 OA
ATOM     20  H   UNL     1      28.418  11.427  67.043  1.00  0.00     0.293 HD
ENDBRANCH  15  19
BRANCH  16  21
ATOM     21  O   UNL     1      31.344  11.451  67.007  1.00  0.00    -0.504 OA
ATOM     22  H   UNL     1      31.814  12.344  67.061  1.00  0.00     0.293 HD
ENDBRANCH  16  21
ENDBRANCH   1  11
BRANCH  10  23
ATOM     23  O   UNL     1      31.977  11.928  61.358  1.00  0.00    -0.500 OA
ATOM     24  H   UNL     1      31.779  12.346  60.457  1.00  0.00     0.294 HD
ENDBRANCH  10  23
BRANCH   5  25
ATOM     25  O   UNL     1      37.054   6.049  61.334  1.00  0.00    -0.507 OA
ATOM     26  H   UNL     1      37.468   5.545  60.559  1.00  0.00     0.293 HD
ENDBRANCH   5  25
BRANCH   7  27
ATOM     27  O   UNL     1      35.944   9.862  58.638  1.00  0.00    -0.507 OA
ATOM     28  H   UNL     1      36.241   9.476  57.753  1.00  0.00     0.293 HD
ENDBRANCH   7  27
TORSDOF 7
ENDMDL
MODEL 8
REMARK VINA RESULT:    -6.582      5.012      9.260
REMARK INTER + INTRA:          -8.384
REMARK INTER:                  -8.367
REMARK INTRA:                  -0.017
REMARK UNBOUND:                -0.263
REMARK SMILES Oc1cc(O)c2cc(O)c(-c3cc(O)c(O)c(O)c3)[o+]c2c1.[Cl-]
REMARK SMILES IDX 10 1 20 2 21 3 22 4 2 5 3 6 4 7 6 8 7 9 8 10 11 11 12 12
REMARK SMILES IDX 13 13 19 14 15 15 17 16 14 17 16 19 18 21 9 23 1 25 5 27
REMARK H PARENT 14 18 16 20 18 22 9 24 1 26 5 28
REMARK Flexibility Score: inf
ROOT
ATOM      1  C   UNL     1      32.558   9.937  62.715  1.00  0.00     0.402 A 
ATOM      2  O   UNL     1      33.409  10.945  62.546  1.00  0.00    -0.202 OA
ATOM      3  C   UNL     1      34.343  10.961  61.600  1.00  0.00     0.368 A 
ATOM      4  C   UNL     1      35.194  12.066  61.505  1.00  0.00     0.162 A 
ATOM      5  C   UNL     1      36.187  12.107  60.521  1.00  0.00     0.128 A 
ATOM      6  C   UNL     1      36.331  11.040  59.632  1.00  0.00     0.093 A 
ATOM      7  C   UNL     1      35.491   9.922  59.708  1.00  0.00     0.136 A 
ATOM      8  C   UNL     1      34.480   9.876  60.702  1.00  0.00     0.125 A 
ATOM      9  C   UNL     1      33.584   8.803  60.845  1.00  0.00     0.078 A 
ATOM     10  C   UNL     1      32.610   8.830  61.847  1.00  0.00     0.223 A 
ENDROOT
BRANCH   1  11
ATOM     11  C   UNL     1      31.566  10.033  63.811  1.00  0.00     0.091 A 
ATOM     12  C   UNL     1      31.948  10.401  65.111  1.00  0.00     0.068 A 
ATOM     13  C   UNL     1      30.992  10.507  66.129  1.00  0.00     0.162 A 
ATOM     14  C   UNL     1      30.210   9.809  63.536  1.00  0.00     0.068 A 
ATOM     15  C   UNL     1      29.638  10.260  65.856  1.00  0.00     0.200 A 
ATOM     16  C   UNL     1      29.244   9.912  64.543  1.00  0.00     0.162 A 
BRANCH  13  17
ATOM     17  O   UNL     1      31.379  10.865  67.420  1.00  0.00    -0.504 OA
ATOM     18  H   UNL     1      30.776  11.412  68.022  1.00  0.00     0.293 HD
ENDBRANCH  13  17
BRANCH  15  19
ATOM     19  O   UNL     1      28.727  10.373  66.910  1.00  0.00    -0.502 OA
ATOM     20  H   UNL     1      28.882   9.999  67.835  1.00  0.00     0.293 HD
ENDBRANCH  15  19
BRANCH  16  21
ATOM     21  O   UNL     1      27.914   9.663  64.196  1.00  0.00    -0.504 OA
ATOM     22  H   UNL     1      27.590   8.804  63.774  1.00  0.00     0.293 HD
ENDBRANCH  16  21
ENDBRANCH   1  11
BRANCH  10  23
ATOM     23  O   UNL     1      31.689   7.788  61.957  1.00  0.00    -0.500 OA
ATOM     24  H   UNL     1      31.736   7.113  62.711  1.00  0.00     0.294 HD
ENDBRANCH  10  23
BRANCH   5  25
ATOM     25  O   UNL     1      37.038  13.205  60.419  1.00  0.00    -0.507 OA
ATOM     26  H   UNL     1      36.679  14.152  60.378  1.00  0.00     0.293 HD
ENDBRANCH   5  25
BRANCH   7  27
ATOM     27  O   UNL     1      35.702   8.895  58.784  1.00  0.00    -0.507 OA
ATOM     28  H   UNL     1      36.534   8.796  58.220  1.00  0.00     0.293 HD
ENDBRANCH   7  27
TORSDOF 7
ENDMDL
MODEL 9
REMARK VINA RESULT:    -6.528      5.039      8.214
REMARK INTER + INTRA:          -8.317
REMARK INTER:                  -7.937
REMARK INTRA:                  -0.380
REMARK UNBOUND:                -0.263
REMARK SMILES Oc1cc(O)c2cc(O)c(-c3cc(O)c(O)c(O)c3)[o+]c2c1.[Cl-]
REMARK SMILES IDX 10 1 20 2 21 3 22 4 2 5 3 6 4 7 6 8 7 9 8 10 11 11 12 12
REMARK SMILES IDX 13 13 19 14 15 15 17 16 14 17 16 19 18 21 9 23 1 25 5 27
REMARK H PARENT 14 18 16 20 18 22 9 24 1 26 5 28
REMARK Flexibility Score: inf
ROOT
ATOM      1  C   UNL     1      33.169   9.601  61.725  1.00  0.00     0.402 A 
ATOM      2  O   UNL     1      33.099  10.199  62.911  1.00  0.00    -0.202 OA
ATOM      3  C   UNL     1      31.979  10.282  63.622  1.00  0.00     0.368 A 
ATOM      4  C   UNL     1      32.006  10.935  64.858  1.00  0.00     0.162 A 
ATOM      5  C   UNL     1      30.841  11.038  65.625  1.00  0.00     0.128 A 
ATOM      6  C   UNL     1      29.647  10.490  65.154  1.00  0.00     0.093 A 
ATOM      7  C   UNL     1      29.594   9.831  63.919  1.00  0.00     0.136 A 
ATOM      8  C   UNL     1      30.774   9.720  63.138  1.00  0.00     0.125 A 
ATOM      9  C   UNL     1      30.819   9.067  61.896  1.00  0.00     0.078 A 
ATOM     10  C   UNL     1      32.020   8.994  61.184  1.00  0.00     0.223 A 
ENDROOT
BRANCH   1  11
ATOM     11  C   UNL     1      34.474   9.582  61.025  1.00  0.00     0.091 A 
ATOM     12  C   UNL     1      35.383   8.527  61.201  1.00  0.00     0.068 A 
ATOM     13  C   UNL     1      36.601   8.516  60.512  1.00  0.00     0.162 A 
ATOM     14  C   UNL     1      34.787  10.608  60.122  1.00  0.00     0.068 A 
ATOM     15  C   UNL     1      36.923   9.556  59.627  1.00  0.00     0.200 A 
ATOM     16  C   UNL     1      36.002  10.611  59.427  1.00  0.00     0.162 A 
BRANCH  13  17
ATOM     17  O   UNL     1      37.502   7.468  60.698  1.00  0.00    -0.504 OA
ATOM     18  H   UNL     1      38.117   7.159  59.954  1.00  0.00     0.293 HD
ENDBRANCH  13  17
BRANCH  15  19
ATOM     19  O   UNL     1      38.156   9.500  58.971  1.00  0.00    -0.502 OA
ATOM     20  H   UNL     1      38.365   9.997  58.117  1.00  0.00     0.293 HD
ENDBRANCH  15  19
BRANCH  16  21
ATOM     21  O   UNL     1      36.249  11.672  58.554  1.00  0.00    -0.504 OA
ATOM     22  H   UNL     1      37.169  11.945  58.239  1.00  0.00     0.293 HD
ENDBRANCH  16  21
ENDBRANCH   1  11
BRANCH  10  23
ATOM     23  O   UNL     1      32.076   8.302  59.973  1.00  0.00    -0.500 OA
ATOM     24  H   UNL     1      31.706   8.696  59.117  1.00  0.00     0.294 HD
ENDBRANCH  10  23
BRANCH   5  25
ATOM     25  O   UNL     1      30.860  11.687  66.858  1.00  0.00    -0.507 OA
ATOM     26  H   UNL     1      30.602  12.663  66.947  1.00  0.00     0.293 HD
ENDBRANCH   5  25
BRANCH   7  27
ATOM     27  O   UNL     1      28.360   9.312  63.519  1.00  0.00    -0.507 OA
ATOM     28  H   UNL     1      27.881   8.554  63.984  1.00  0.00     0.293 HD
ENDBRANCH   7  27
TORSDOF 7
ENDMDL
