MODEL 1
REMARK VINA RESULT:    -6.469      0.000      0.000
REMARK INTER + INTRA:          -7.041
REMARK INTER:                  -7.037
REMARK INTRA:                  -0.004
REMARK UNBOUND:                -0.004
REMARK SMILES C[C@H]1[C@H](C)CC[C@@]2(C(=O)[O-])CC[C@]3(C)C(=CC[C@H]4[C@@]5(C)CC[C@H](O)C(C)(C)[C@@H]5CC[C@]43C)[C@@H]12
REMARK SMILES IDX 7 1 6 2 11 3 33 4 5 5 12 6 15 7 2 8 3 9 13 10 16 11 1 12
REMARK SMILES IDX 4 13 14 14 31 15 17 16 18 17 30 18 32 19 19 20 29 21 28 22
REMARK SMILES IDX 21 23 20 24 25 25 22 26 23 27 26 28 27 29 8 30 9 31 10 32
REMARK SMILES IDX 24 33
REMARK H PARENT 24 34
REMARK Flexibility Score: inf
ROOT
ATOM      1  C   UNL     1      28.726  35.315  22.755  1.00  0.00     0.017 C 
ATOM      2  C   UNL     1      28.184  33.868  22.901  1.00  0.00     0.014 C 
ATOM      3  C   UNL     1      30.274  35.331  22.946  1.00  0.00     0.014 C 
ATOM      4  C   UNL     1      28.300  35.855  21.346  1.00  0.00     0.030 C 
ATOM      5  C   UNL     1      26.649  33.822  22.843  1.00  0.00     0.004 C 
ATOM      6  C   UNL     1      31.113  34.883  21.731  1.00  0.00     0.013 C 
ATOM      7  C   UNL     1      29.225  35.269  20.245  1.00  0.00    -0.063 C 
ATOM      8  C   UNL     1      26.737  35.776  21.157  1.00  0.00    -0.003 C 
ATOM      9  C   UNL     1      26.083  34.402  21.531  1.00  0.00    -0.011 C 
ATOM     10  C   UNL     1      30.726  35.564  20.373  1.00  0.00    -0.006 C 
ATOM     11  C   UNL     1      28.802  34.263  19.468  1.00  0.00    -0.027 C 
ATOM     12  C   UNL     1      26.282  36.315  19.783  1.00  0.00     0.008 C 
ATOM     13  C   UNL     1      24.556  34.529  21.657  1.00  0.00     0.008 C 
ATOM     14  C   UNL     1      30.918  37.117  20.487  1.00  0.00     0.017 C 
ATOM     15  C   UNL     1      31.632  34.996  19.145  1.00  0.00    -0.020 C 
ATOM     16  C   UNL     1      29.628  33.492  18.507  1.00  0.00     0.032 C 
ATOM     17  C   UNL     1      31.167  33.546  18.693  1.00  0.00     0.006 C 
ATOM     18  C   UNL     1      31.541  35.928  17.891  1.00  0.00     0.008 C 
ATOM     19  C   UNL     1      33.123  34.978  19.630  1.00  0.00     0.012 C 
ATOM     20  C   UNL     1      31.919  32.958  17.392  1.00  0.00    -0.025 C 
ATOM     21  C   UNL     1      32.287  35.414  16.641  1.00  0.00     0.005 C 
ATOM     22  C   UNL     1      31.824  34.003  16.211  1.00  0.00     0.003 C 
ATOM     23  C   UNL     1      31.237  31.634  16.899  1.00  0.00     0.010 C 
ATOM     24  C   UNL     1      33.391  32.587  17.777  1.00  0.00     0.012 C 
ATOM     25  C   UNL     1      32.368  33.512  14.804  1.00  0.00    -0.006 C 
ATOM     26  C   UNL     1      31.783  31.105  15.560  1.00  0.00     0.033 C 
ATOM     27  C   UNL     1      31.677  32.156  14.443  1.00  0.00     0.120 C 
ATOM     28  C   UNL     1      31.965  34.535  13.704  1.00  0.00     0.014 C 
ATOM     29  C   UNL     1      33.913  33.376  14.744  1.00  0.00     0.014 C 
ENDROOT
BRANCH   1  30
ATOM     30  C   UNL     1      28.170  36.187  23.880  1.00  0.00     0.048 C 
ATOM     31  O   UNL     1      27.861  37.391  23.674  1.00  0.00    -0.550 OA
ATOM     32  O   UNL     1      28.121  35.701  25.182  1.00  0.00    -0.550 OA
ENDBRANCH   1  30
BRANCH  27  33
ATOM     33  O   UNL     1      32.220  31.630  13.257  1.00  0.00    -0.393 OA
ATOM     34  H   UNL     1      32.927  32.261  12.956  1.00  0.00     0.210 HD
ENDBRANCH  27  33
TORSDOF 2
ENDMDL
MODEL 2
REMARK VINA RESULT:    -6.229      1.496      7.926
REMARK INTER + INTRA:          -6.779
REMARK INTER:                  -6.812
REMARK INTRA:                   0.033
REMARK UNBOUND:                -0.004
REMARK SMILES C[C@H]1[C@H](C)CC[C@@]2(C(=O)[O-])CC[C@]3(C)C(=CC[C@H]4[C@@]5(C)CC[C@H](O)C(C)(C)[C@@H]5CC[C@]43C)[C@@H]12
REMARK SMILES IDX 7 1 6 2 11 3 33 4 5 5 12 6 15 7 2 8 3 9 13 10 16 11 1 12
REMARK SMILES IDX 4 13 14 14 31 15 17 16 18 17 30 18 32 19 19 20 29 21 28 22
REMARK SMILES IDX 21 23 20 24 25 25 22 26 23 27 26 28 27 29 8 30 9 31 10 32
REMARK SMILES IDX 24 33
REMARK H PARENT 24 34
REMARK Flexibility Score: inf
ROOT
ATOM      1  C   UNL     1      32.088  33.098  15.991  1.00  0.00     0.017 C 
ATOM      2  C   UNL     1      30.843  32.962  15.075  1.00  0.00     0.014 C 
ATOM      3  C   UNL     1      32.379  34.604  16.281  1.00  0.00     0.014 C 
ATOM      4  C   UNL     1      31.818  32.286  17.305  1.00  0.00     0.030 C 
ATOM      5  C   UNL     1      30.592  31.503  14.662  1.00  0.00     0.004 C 
ATOM      6  C   UNL     1      31.500  35.270  17.359  1.00  0.00     0.013 C 
ATOM      7  C   UNL     1      30.885  33.090  18.249  1.00  0.00    -0.063 C 
ATOM      8  C   UNL     1      31.471  30.783  16.981  1.00  0.00    -0.003 C 
ATOM      9  C   UNL     1      30.387  30.567  15.870  1.00  0.00    -0.011 C 
ATOM     10  C   UNL     1      31.381  34.470  18.702  1.00  0.00    -0.006 C 
ATOM     11  C   UNL     1      29.585  32.779  18.347  1.00  0.00    -0.027 C 
ATOM     12  C   UNL     1      31.214  29.950  18.255  1.00  0.00     0.008 C 
ATOM     13  C   UNL     1      30.377  29.109  15.379  1.00  0.00     0.008 C 
ATOM     14  C   UNL     1      32.803  34.300  19.343  1.00  0.00     0.017 C 
ATOM     15  C   UNL     1      30.400  35.227  19.758  1.00  0.00    -0.020 C 
ATOM     16  C   UNL     1      28.549  33.561  19.064  1.00  0.00     0.032 C 
ATOM     17  C   UNL     1      28.870  35.047  19.372  1.00  0.00     0.006 C 
ATOM     18  C   UNL     1      30.584  34.669  21.209  1.00  0.00     0.008 C 
ATOM     19  C   UNL     1      30.798  36.744  19.767  1.00  0.00     0.012 C 
ATOM     20  C   UNL     1      27.817  35.647  20.437  1.00  0.00    -0.025 C 
ATOM     21  C   UNL     1      29.620  35.256  22.261  1.00  0.00     0.005 C 
ATOM     22  C   UNL     1      28.134  35.072  21.874  1.00  0.00     0.003 C 
ATOM     23  C   UNL     1      26.349  35.222  20.079  1.00  0.00     0.010 C 
ATOM     24  C   UNL     1      27.858  37.211  20.370  1.00  0.00     0.012 C 
ATOM     25  C   UNL     1      27.089  35.431  23.012  1.00  0.00    -0.006 C 
ATOM     26  C   UNL     1      25.305  35.605  21.142  1.00  0.00     0.033 C 
ATOM     27  C   UNL     1      25.657  35.031  22.524  1.00  0.00     0.120 C 
ATOM     28  C   UNL     1      27.389  34.585  24.281  1.00  0.00     0.014 C 
ATOM     29  C   UNL     1      27.126  36.920  23.448  1.00  0.00     0.014 C 
ENDROOT
BRANCH   1  30
ATOM     30  C   UNL     1      33.324  32.581  15.257  1.00  0.00     0.048 C 
ATOM     31  O   UNL     1      34.125  31.785  15.817  1.00  0.00    -0.550 OA
ATOM     32  O   UNL     1      33.654  33.084  14.003  1.00  0.00    -0.550 OA
ENDBRANCH   1  30
BRANCH  27  33
ATOM     33  O   UNL     1      24.689  35.441  23.459  1.00  0.00    -0.393 OA
ATOM     34  H   UNL     1      23.839  35.567  22.960  1.00  0.00     0.210 HD
ENDBRANCH  27  33
TORSDOF 2
ENDMDL
MODEL 3
REMARK VINA RESULT:    -6.028      4.819      8.346
REMARK INTER + INTRA:          -6.560
REMARK INTER:                  -6.556
REMARK INTRA:                  -0.005
REMARK UNBOUND:                -0.004
REMARK SMILES C[C@H]1[C@H](C)CC[C@@]2(C(=O)[O-])CC[C@]3(C)C(=CC[C@H]4[C@@]5(C)CC[C@H](O)C(C)(C)[C@@H]5CC[C@]43C)[C@@H]12
REMARK SMILES IDX 7 1 6 2 11 3 33 4 5 5 12 6 15 7 2 8 3 9 13 10 16 11 1 12
REMARK SMILES IDX 4 13 14 14 31 15 17 16 18 17 30 18 32 19 19 20 29 21 28 22
REMARK SMILES IDX 21 23 20 24 25 25 22 26 23 27 26 28 27 29 8 30 9 31 10 32
REMARK SMILES IDX 24 33
REMARK H PARENT 24 34
REMARK Flexibility Score: inf
ROOT
ATOM      1  C   UNL     1      30.344  28.288  24.691  1.00  0.00     0.017 C 
ATOM      2  C   UNL     1      28.951  27.796  25.167  1.00  0.00     0.014 C 
ATOM      3  C   UNL     1      30.381  28.369  23.133  1.00  0.00     0.014 C 
ATOM      4  C   UNL     1      30.625  29.678  25.360  1.00  0.00     0.030 C 
ATOM      5  C   UNL     1      28.907  27.584  26.689  1.00  0.00     0.004 C 
ATOM      6  C   UNL     1      29.715  29.608  22.501  1.00  0.00     0.013 C 
ATOM      7  C   UNL     1      29.843  30.797  24.621  1.00  0.00    -0.063 C 
ATOM      8  C   UNL     1      30.526  29.582  26.930  1.00  0.00    -0.003 C 
ATOM      9  C   UNL     1      29.247  28.862  27.481  1.00  0.00    -0.011 C 
ATOM     10  C   UNL     1      30.144  30.980  23.126  1.00  0.00    -0.006 C 
ATOM     11  C   UNL     1      28.717  31.299  25.145  1.00  0.00    -0.027 C 
ATOM     12  C   UNL     1      30.813  30.932  27.622  1.00  0.00     0.008 C 
ATOM     13  C   UNL     1      29.408  28.504  28.968  1.00  0.00     0.008 C 
ATOM     14  C   UNL     1      31.691  31.180  22.954  1.00  0.00     0.017 C 
ATOM     15  C   UNL     1      29.358  32.223  22.428  1.00  0.00    -0.020 C 
ATOM     16  C   UNL     1      27.779  32.233  24.476  1.00  0.00     0.032 C 
ATOM     17  C   UNL     1      27.854  32.323  22.929  1.00  0.00     0.006 C 
ATOM     18  C   UNL     1      30.049  33.589  22.749  1.00  0.00     0.008 C 
ATOM     19  C   UNL     1      29.415  32.003  20.876  1.00  0.00     0.012 C 
ATOM     20  C   UNL     1      27.036  33.606  22.394  1.00  0.00    -0.025 C 
ATOM     21  C   UNL     1      29.314  34.835  22.213  1.00  0.00     0.005 C 
ATOM     22  C   UNL     1      27.852  34.921  22.710  1.00  0.00     0.003 C 
ATOM     23  C   UNL     1      25.650  33.733  23.120  1.00  0.00     0.010 C 
ATOM     24  C   UNL     1      26.728  33.417  20.870  1.00  0.00     0.012 C 
ATOM     25  C   UNL     1      27.112  36.290  22.400  1.00  0.00    -0.006 C 
ATOM     26  C   UNL     1      24.884  35.028  22.794  1.00  0.00     0.033 C 
ATOM     27  C   UNL     1      25.718  36.281  23.111  1.00  0.00     0.120 C 
ATOM     28  C   UNL     1      27.923  37.470  23.005  1.00  0.00     0.014 C 
ATOM     29  C   UNL     1      26.954  36.587  20.884  1.00  0.00     0.014 C 
ENDROOT
BRANCH   1  30
ATOM     30  C   UNL     1      31.408  27.259  25.069  1.00  0.00     0.048 C 
ATOM     31  O   UNL     1      32.566  27.620  25.412  1.00  0.00    -0.550 OA
ATOM     32  O   UNL     1      31.154  25.901  24.913  1.00  0.00    -0.550 OA
ENDBRANCH   1  30
BRANCH  27  33
ATOM     33  O   UNL     1      24.983  37.428  22.764  1.00  0.00    -0.393 OA
ATOM     34  H   UNL     1      25.629  38.181  22.708  1.00  0.00     0.210 HD
ENDBRANCH  27  33
TORSDOF 2
ENDMDL
MODEL 4
REMARK VINA RESULT:    -5.907      4.547      7.566
REMARK INTER + INTRA:          -6.429
REMARK INTER:                  -6.431
REMARK INTRA:                   0.002
REMARK UNBOUND:                -0.004
REMARK SMILES C[C@H]1[C@H](C)CC[C@@]2(C(=O)[O-])CC[C@]3(C)C(=CC[C@H]4[C@@]5(C)CC[C@H](O)C(C)(C)[C@@H]5CC[C@]43C)[C@@H]12
REMARK SMILES IDX 7 1 6 2 11 3 33 4 5 5 12 6 15 7 2 8 3 9 13 10 16 11 1 12
REMARK SMILES IDX 4 13 14 14 31 15 17 16 18 17 30 18 32 19 19 20 29 21 28 22
REMARK SMILES IDX 21 23 20 24 25 25 22 26 23 27 26 28 27 29 8 30 9 31 10 32
REMARK SMILES IDX 24 33
REMARK H PARENT 24 34
REMARK Flexibility Score: inf
ROOT
ATOM      1  C   UNL     1      29.265  30.228  27.644  1.00  0.00     0.017 C 
ATOM      2  C   UNL     1      27.752  30.378  27.957  1.00  0.00     0.014 C 
ATOM      3  C   UNL     1      29.463  29.403  26.334  1.00  0.00     0.014 C 
ATOM      4  C   UNL     1      29.885  31.665  27.536  1.00  0.00     0.030 C 
ATOM      5  C   UNL     1      27.512  31.077  29.304  1.00  0.00     0.004 C 
ATOM      6  C   UNL     1      29.254  30.169  25.011  1.00  0.00     0.013 C 
ATOM      7  C   UNL     1      29.539  32.295  26.160  1.00  0.00    -0.063 C 
ATOM      8  C   UNL     1      29.622  32.496  28.849  1.00  0.00    -0.003 C 
ATOM      9  C   UNL     1      28.143  32.483  29.369  1.00  0.00    -0.011 C 
ATOM     10  C   UNL     1      30.013  31.537  24.912  1.00  0.00    -0.006 C 
ATOM     11  C   UNL     1      28.570  33.216  26.059  1.00  0.00    -0.027 C 
ATOM     12  C   UNL     1      30.233  33.912  28.781  1.00  0.00     0.008 C 
ATOM     13  C   UNL     1      28.057  33.006  30.812  1.00  0.00     0.008 C 
ATOM     14  C   UNL     1      31.558  31.295  25.036  1.00  0.00     0.017 C 
ATOM     15  C   UNL     1      29.695  32.291  23.504  1.00  0.00    -0.020 C 
ATOM     16  C   UNL     1      28.015  33.768  24.800  1.00  0.00     0.032 C 
ATOM     17  C   UNL     1      28.250  32.950  23.503  1.00  0.00     0.006 C 
ATOM     18  C   UNL     1      30.729  33.431  23.221  1.00  0.00     0.008 C 
ATOM     19  C   UNL     1      29.823  31.225  22.361  1.00  0.00     0.012 C 
ATOM     20  C   UNL     1      27.900  33.836  22.201  1.00  0.00    -0.025 C 
ATOM     21  C   UNL     1      30.447  34.270  21.957  1.00  0.00     0.005 C 
ATOM     22  C   UNL     1      29.038  34.907  21.970  1.00  0.00     0.003 C 
ATOM     23  C   UNL     1      26.555  34.620  22.398  1.00  0.00     0.010 C 
ATOM     24  C   UNL     1      27.687  32.882  20.977  1.00  0.00     0.012 C 
ATOM     25  C   UNL     1      28.767  35.972  20.826  1.00  0.00    -0.006 C 
ATOM     26  C   UNL     1      26.240  35.623  21.274  1.00  0.00     0.033 C 
ATOM     27  C   UNL     1      27.376  36.641  21.080  1.00  0.00     0.120 C 
ATOM     28  C   UNL     1      29.834  37.101  20.902  1.00  0.00     0.014 C 
ATOM     29  C   UNL     1      28.841  35.383  19.392  1.00  0.00     0.014 C 
ENDROOT
BRANCH   1  30
ATOM     30  C   UNL     1      29.938  29.409  28.744  1.00  0.00     0.048 C 
ATOM     31  O   UNL     1      31.079  29.722  29.179  1.00  0.00    -0.550 OA
ATOM     32  O   UNL     1      29.358  28.227  29.190  1.00  0.00    -0.550 OA
ENDBRANCH   1  30
BRANCH  27  33
ATOM     33  O   UNL     1      27.048  37.508  20.022  1.00  0.00    -0.393 OA
ATOM     34  H   UNL     1      26.057  37.515  19.948  1.00  0.00     0.210 HD
ENDBRANCH  27  33
TORSDOF 2
ENDMDL
MODEL 5
REMARK VINA RESULT:    -5.892      2.110      3.409
REMARK INTER + INTRA:          -6.412
REMARK INTER:                  -6.413
REMARK INTRA:                   0.001
REMARK UNBOUND:                -0.004
REMARK SMILES C[C@H]1[C@H](C)CC[C@@]2(C(=O)[O-])CC[C@]3(C)C(=CC[C@H]4[C@@]5(C)CC[C@H](O)C(C)(C)[C@@H]5CC[C@]43C)[C@@H]12
REMARK SMILES IDX 7 1 6 2 11 3 33 4 5 5 12 6 15 7 2 8 3 9 13 10 16 11 1 12
REMARK SMILES IDX 4 13 14 14 31 15 17 16 18 17 30 18 32 19 19 20 29 21 28 22
REMARK SMILES IDX 21 23 20 24 25 25 22 26 23 27 26 28 27 29 8 30 9 31 10 32
REMARK SMILES IDX 24 33
REMARK H PARENT 24 34
REMARK Flexibility Score: inf
ROOT
ATOM      1  C   UNL     1      28.029  33.574  21.797  1.00  0.00     0.017 C 
ATOM      2  C   UNL     1      26.745  33.641  20.928  1.00  0.00     0.014 C 
ATOM      3  C   UNL     1      28.347  32.094  22.173  1.00  0.00     0.014 C 
ATOM      4  C   UNL     1      29.198  34.242  20.991  1.00  0.00     0.030 C 
ATOM      5  C   UNL     1      26.324  35.091  20.637  1.00  0.00     0.004 C 
ATOM      6  C   UNL     1      29.030  31.247  21.079  1.00  0.00     0.013 C 
ATOM      7  C   UNL     1      29.732  33.263  19.911  1.00  0.00    -0.063 C 
ATOM      8  C   UNL     1      28.830  35.717  20.575  1.00  0.00    -0.003 C 
ATOM      9  C   UNL     1      27.421  35.897  19.912  1.00  0.00    -0.011 C 
ATOM     10  C   UNL     1      30.278  31.917  20.407  1.00  0.00    -0.006 C 
ATOM     11  C   UNL     1      29.386  33.416  18.626  1.00  0.00    -0.027 C 
ATOM     12  C   UNL     1      29.966  36.409  19.793  1.00  0.00     0.008 C 
ATOM     13  C   UNL     1      27.011  37.379  19.872  1.00  0.00     0.008 C 
ATOM     14  C   UNL     1      31.376  32.196  21.492  1.00  0.00     0.017 C 
ATOM     15  C   UNL     1      30.901  30.970  19.238  1.00  0.00    -0.020 C 
ATOM     16  C   UNL     1      29.671  32.465  17.524  1.00  0.00     0.032 C 
ATOM     17  C   UNL     1      30.017  31.005  17.919  1.00  0.00     0.006 C 
ATOM     18  C   UNL     1      32.345  31.427  18.844  1.00  0.00     0.008 C 
ATOM     19  C   UNL     1      30.991  29.513  19.810  1.00  0.00     0.012 C 
ATOM     20  C   UNL     1      30.629  30.205  16.659  1.00  0.00    -0.025 C 
ATOM     21  C   UNL     1      32.977  30.650  17.669  1.00  0.00     0.005 C 
ATOM     22  C   UNL     1      32.107  30.694  16.392  1.00  0.00     0.003 C 
ATOM     23  C   UNL     1      29.802  30.488  15.356  1.00  0.00     0.010 C 
ATOM     24  C   UNL     1      30.524  28.667  16.931  1.00  0.00     0.012 C 
ATOM     25  C   UNL     1      32.800  30.128  15.082  1.00  0.00    -0.006 C 
ATOM     26  C   UNL     1      30.424  29.903  14.075  1.00  0.00     0.033 C 
ATOM     27  C   UNL     1      31.862  30.400  13.859  1.00  0.00     0.120 C 
ATOM     28  C   UNL     1      34.125  30.898  14.819  1.00  0.00     0.014 C 
ATOM     29  C   UNL     1      33.168  28.622  15.169  1.00  0.00     0.014 C 
ENDROOT
BRANCH   1  30
ATOM     30  C   UNL     1      27.787  34.287  23.126  1.00  0.00     0.048 C 
ATOM     31  O   UNL     1      28.683  35.001  23.651  1.00  0.00    -0.550 OA
ATOM     32  O   UNL     1      26.619  34.052  23.843  1.00  0.00    -0.550 OA
ENDBRANCH   1  30
BRANCH  27  33
ATOM     33  O   UNL     1      32.389  29.809  12.697  1.00  0.00    -0.393 OA
ATOM     34  H   UNL     1      32.392  30.508  11.990  1.00  0.00     0.210 HD
ENDBRANCH  27  33
TORSDOF 2
ENDMDL
MODEL 6
REMARK VINA RESULT:    -5.880      4.484      8.036
REMARK INTER + INTRA:          -6.399
REMARK INTER:                  -6.516
REMARK INTRA:                   0.117
REMARK UNBOUND:                -0.004
REMARK SMILES C[C@H]1[C@H](C)CC[C@@]2(C(=O)[O-])CC[C@]3(C)C(=CC[C@H]4[C@@]5(C)CC[C@H](O)C(C)(C)[C@@H]5CC[C@]43C)[C@@H]12
REMARK SMILES IDX 7 1 6 2 11 3 33 4 5 5 12 6 15 7 2 8 3 9 13 10 16 11 1 12
REMARK SMILES IDX 4 13 14 14 31 15 17 16 18 17 30 18 32 19 19 20 29 21 28 22
REMARK SMILES IDX 21 23 20 24 25 25 22 26 23 27 26 28 27 29 8 30 9 31 10 32
REMARK SMILES IDX 24 33
REMARK H PARENT 24 34
REMARK Flexibility Score: inf
ROOT
ATOM      1  C   UNL     1      27.887  35.899  22.274  1.00  0.00     0.017 C 
ATOM      2  C   UNL     1      26.899  36.338  23.388  1.00  0.00     0.014 C 
ATOM      3  C   UNL     1      29.358  36.141  22.736  1.00  0.00     0.014 C 
ATOM      4  C   UNL     1      27.612  34.390  21.947  1.00  0.00     0.030 C 
ATOM      5  C   UNL     1      25.436  36.233  22.930  1.00  0.00     0.004 C 
ATOM      6  C   UNL     1      29.951  35.087  23.693  1.00  0.00     0.013 C 
ATOM      7  C   UNL     1      28.245  33.482  23.035  1.00  0.00    -0.063 C 
ATOM      8  C   UNL     1      26.107  34.163  21.538  1.00  0.00    -0.003 C 
ATOM      9  C   UNL     1      25.046  34.806  22.497  1.00  0.00    -0.011 C 
ATOM     10  C   UNL     1      29.762  33.599  23.238  1.00  0.00    -0.006 C 
ATOM     11  C   UNL     1      27.481  32.929  23.987  1.00  0.00    -0.027 C 
ATOM     12  C   UNL     1      25.806  32.689  21.195  1.00  0.00     0.008 C 
ATOM     13  C   UNL     1      23.655  34.842  21.842  1.00  0.00     0.008 C 
ATOM     14  C   UNL     1      30.466  33.376  21.854  1.00  0.00     0.017 C 
ATOM     15  C   UNL     1      30.378  32.561  24.331  1.00  0.00    -0.020 C 
ATOM     16  C   UNL     1      27.964  32.193  25.180  1.00  0.00     0.032 C 
ATOM     17  C   UNL     1      29.439  32.421  25.604  1.00  0.00     0.006 C 
ATOM     18  C   UNL     1      30.557  31.130  23.723  1.00  0.00     0.008 C 
ATOM     19  C   UNL     1      31.796  33.095  24.740  1.00  0.00     0.012 C 
ATOM     20  C   UNL     1      29.900  31.312  26.680  1.00  0.00    -0.025 C 
ATOM     21  C   UNL     1      31.039  30.054  24.717  1.00  0.00     0.005 C 
ATOM     22  C   UNL     1      30.115  29.927  25.950  1.00  0.00     0.003 C 
ATOM     23  C   UNL     1      28.796  31.095  27.774  1.00  0.00     0.010 C 
ATOM     24  C   UNL     1      31.177  31.824  27.428  1.00  0.00     0.012 C 
ATOM     25  C   UNL     1      30.409  28.684  26.891  1.00  0.00    -0.006 C 
ATOM     26  C   UNL     1      29.083  29.927  28.736  1.00  0.00     0.033 C 
ATOM     27  C   UNL     1      29.291  28.604  27.983  1.00  0.00     0.120 C 
ATOM     28  C   UNL     1      30.329  27.372  26.061  1.00  0.00     0.014 C 
ATOM     29  C   UNL     1      31.816  28.714  27.546  1.00  0.00     0.014 C 
ENDROOT
BRANCH   1  30
ATOM     30  C   UNL     1      27.698  36.783  21.043  1.00  0.00     0.048 C 
ATOM     31  O   UNL     1      27.317  37.979  21.155  1.00  0.00    -0.550 OA
ATOM     32  O   UNL     1      27.819  36.240  19.768  1.00  0.00    -0.550 OA
ENDBRANCH   1  30
BRANCH  27  33
ATOM     33  O   UNL     1      29.581  27.584  28.907  1.00  0.00    -0.393 OA
ATOM     34  H   UNL     1      29.075  27.790  29.737  1.00  0.00     0.210 HD
ENDBRANCH  27  33
TORSDOF 2
ENDMDL
MODEL 7
REMARK VINA RESULT:    -5.873      2.028      8.103
REMARK INTER + INTRA:          -6.392
REMARK INTER:                  -6.562
REMARK INTRA:                   0.170
REMARK UNBOUND:                -0.004
REMARK SMILES C[C@H]1[C@H](C)CC[C@@]2(C(=O)[O-])CC[C@]3(C)C(=CC[C@H]4[C@@]5(C)CC[C@H](O)C(C)(C)[C@@H]5CC[C@]43C)[C@@H]12
REMARK SMILES IDX 7 1 6 2 11 3 33 4 5 5 12 6 15 7 2 8 3 9 13 10 16 11 1 12
REMARK SMILES IDX 4 13 14 14 31 15 17 16 18 17 30 18 32 19 19 20 29 21 28 22
REMARK SMILES IDX 21 23 20 24 25 25 22 26 23 27 26 28 27 29 8 30 9 31 10 32
REMARK SMILES IDX 24 33
REMARK H PARENT 24 34
REMARK Flexibility Score: inf
ROOT
ATOM      1  C   UNL     1      32.506  30.791  17.122  1.00  0.00     0.017 C 
ATOM      2  C   UNL     1      32.973  32.119  16.469  1.00  0.00     0.014 C 
ATOM      3  C   UNL     1      33.052  30.688  18.579  1.00  0.00     0.014 C 
ATOM      4  C   UNL     1      30.939  30.751  17.075  1.00  0.00     0.030 C 
ATOM      5  C   UNL     1      32.562  32.208  14.991  1.00  0.00     0.004 C 
ATOM      6  C   UNL     1      32.289  31.495  19.650  1.00  0.00     0.013 C 
ATOM      7  C   UNL     1      30.346  31.650  18.194  1.00  0.00    -0.063 C 
ATOM      8  C   UNL     1      30.410  30.914  15.599  1.00  0.00    -0.003 C 
ATOM      9  C   UNL     1      31.037  32.100  14.788  1.00  0.00    -0.011 C 
ATOM     10  C   UNL     1      30.734  31.304  19.638  1.00  0.00    -0.006 C 
ATOM     11  C   UNL     1      29.856  32.863  17.902  1.00  0.00    -0.027 C 
ATOM     12  C   UNL     1      28.870  30.864  15.516  1.00  0.00     0.008 C 
ATOM     13  C   UNL     1      30.739  31.964  13.285  1.00  0.00     0.008 C 
ATOM     14  C   UNL     1      30.384  29.797  19.897  1.00  0.00     0.017 C 
ATOM     15  C   UNL     1      30.014  32.228  20.769  1.00  0.00    -0.020 C 
ATOM     16  C   UNL     1      29.427  33.892  18.879  1.00  0.00     0.032 C 
ATOM     17  C   UNL     1      29.954  33.754  20.332  1.00  0.00     0.006 C 
ATOM     18  C   UNL     1      28.544  31.761  21.037  1.00  0.00     0.008 C 
ATOM     19  C   UNL     1      30.827  32.060  22.100  1.00  0.00     0.012 C 
ATOM     20  C   UNL     1      29.137  34.723  21.329  1.00  0.00    -0.025 C 
ATOM     21  C   UNL     1      27.748  32.644  22.021  1.00  0.00     0.005 C 
ATOM     22  C   UNL     1      27.697  34.126  21.582  1.00  0.00     0.003 C 
ATOM     23  C   UNL     1      28.946  36.148  20.698  1.00  0.00     0.010 C 
ATOM     24  C   UNL     1      29.967  34.923  22.642  1.00  0.00     0.012 C 
ATOM     25  C   UNL     1      26.700  35.042  22.409  1.00  0.00    -0.006 C 
ATOM     26  C   UNL     1      28.025  37.077  21.509  1.00  0.00     0.033 C 
ATOM     27  C   UNL     1      26.639  36.453  21.737  1.00  0.00     0.120 C 
ATOM     28  C   UNL     1      25.267  34.444  22.344  1.00  0.00     0.014 C 
ATOM     29  C   UNL     1      27.065  35.164  23.913  1.00  0.00     0.014 C 
ENDROOT
BRANCH   1  30
ATOM     30  C   UNL     1      33.118  29.608  16.374  1.00  0.00     0.048 C 
ATOM     31  O   UNL     1      34.125  29.762  15.631  1.00  0.00    -0.550 OA
ATOM     32  O   UNL     1      32.494  28.366  16.400  1.00  0.00    -0.550 OA
ENDBRANCH   1  30
BRANCH  27  33
ATOM     33  O   UNL     1      25.855  37.330  22.509  1.00  0.00    -0.393 OA
ATOM     34  H   UNL     1      25.347  37.901  21.874  1.00  0.00     0.210 HD
ENDBRANCH  27  33
TORSDOF 2
ENDMDL
MODEL 8
REMARK VINA RESULT:    -5.858      4.054      9.055
REMARK INTER + INTRA:          -6.376
REMARK INTER:                  -6.370
REMARK INTRA:                  -0.006
REMARK UNBOUND:                -0.004
REMARK SMILES C[C@H]1[C@H](C)CC[C@@]2(C(=O)[O-])CC[C@]3(C)C(=CC[C@H]4[C@@]5(C)CC[C@H](O)C(C)(C)[C@@H]5CC[C@]43C)[C@@H]12
REMARK SMILES IDX 7 1 6 2 11 3 33 4 5 5 12 6 15 7 2 8 3 9 13 10 16 11 1 12
REMARK SMILES IDX 4 13 14 14 31 15 17 16 18 17 30 18 32 19 19 20 29 21 28 22
REMARK SMILES IDX 21 23 20 24 25 25 22 26 23 27 26 28 27 29 8 30 9 31 10 32
REMARK SMILES IDX 24 33
REMARK H PARENT 24 34
REMARK Flexibility Score: inf
ROOT
ATOM      1  C   UNL     1      29.912  34.032  20.458  1.00  0.00     0.017 C 
ATOM      2  C   UNL     1      29.895  35.545  20.804  1.00  0.00     0.014 C 
ATOM      3  C   UNL     1      31.207  33.368  21.019  1.00  0.00     0.014 C 
ATOM      4  C   UNL     1      28.612  33.383  21.048  1.00  0.00     0.030 C 
ATOM      5  C   UNL     1      28.697  36.266  20.165  1.00  0.00     0.004 C 
ATOM      6  C   UNL     1      31.201  33.034  22.525  1.00  0.00     0.013 C 
ATOM      7  C   UNL     1      28.772  33.159  22.576  1.00  0.00    -0.063 C 
ATOM      8  C   UNL     1      27.321  34.108  20.509  1.00  0.00    -0.003 C 
ATOM      9  C   UNL     1      27.341  35.673  20.598  1.00  0.00    -0.011 C 
ATOM     10  C   UNL     1      29.933  32.261  23.026  1.00  0.00    -0.006 C 
ATOM     11  C   UNL     1      28.188  33.991  23.449  1.00  0.00    -0.027 C 
ATOM     12  C   UNL     1      26.021  33.482  21.060  1.00  0.00     0.008 C 
ATOM     13  C   UNL     1      26.225  36.293  19.741  1.00  0.00     0.008 C 
ATOM     14  C   UNL     1      29.819  30.889  22.275  1.00  0.00     0.017 C 
ATOM     15  C   UNL     1      29.996  31.995  24.631  1.00  0.00    -0.020 C 
ATOM     16  C   UNL     1      28.396  34.006  24.917  1.00  0.00     0.032 C 
ATOM     17  C   UNL     1      29.673  33.312  25.459  1.00  0.00     0.006 C 
ATOM     18  C   UNL     1      28.964  30.903  25.070  1.00  0.00     0.008 C 
ATOM     19  C   UNL     1      31.434  31.465  24.964  1.00  0.00     0.012 C 
ATOM     20  C   UNL     1      29.578  33.113  27.057  1.00  0.00    -0.025 C 
ATOM     21  C   UNL     1      28.880  30.658  26.591  1.00  0.00     0.005 C 
ATOM     22  C   UNL     1      28.564  31.947  27.384  1.00  0.00     0.003 C 
ATOM     23  C   UNL     1      29.037  34.411  27.755  1.00  0.00     0.010 C 
ATOM     24  C   UNL     1      31.015  32.864  27.627  1.00  0.00     0.012 C 
ATOM     25  C   UNL     1      28.225  31.731  28.919  1.00  0.00    -0.006 C 
ATOM     26  C   UNL     1      28.750  34.245  29.258  1.00  0.00     0.033 C 
ATOM     27  C   UNL     1      27.765  33.097  29.529  1.00  0.00     0.120 C 
ATOM     28  C   UNL     1      27.029  30.747  29.055  1.00  0.00     0.014 C 
ATOM     29  C   UNL     1      29.396  31.128  29.739  1.00  0.00     0.014 C 
ENDROOT
BRANCH   1  30
ATOM     30  C   UNL     1      29.989  33.854  18.942  1.00  0.00     0.048 C 
ATOM     31  O   UNL     1      29.403  32.894  18.372  1.00  0.00    -0.550 OA
ATOM     32  O   UNL     1      30.816  34.674  18.183  1.00  0.00    -0.550 OA
ENDBRANCH   1  30
BRANCH  27  33
ATOM     33  O   UNL     1      27.567  32.971  30.916  1.00  0.00    -0.393 OA
ATOM     34  H   UNL     1      27.095  32.110  31.066  1.00  0.00     0.210 HD
ENDBRANCH  27  33
TORSDOF 2
ENDMDL
MODEL 9
REMARK VINA RESULT:    -5.657      5.217      8.407
REMARK INTER + INTRA:          -6.157
REMARK INTER:                  -6.153
REMARK INTRA:                  -0.004
REMARK UNBOUND:                -0.004
REMARK SMILES C[C@H]1[C@H](C)CC[C@@]2(C(=O)[O-])CC[C@]3(C)C(=CC[C@H]4[C@@]5(C)CC[C@H](O)C(C)(C)[C@@H]5CC[C@]43C)[C@@H]12
REMARK SMILES IDX 7 1 6 2 11 3 33 4 5 5 12 6 15 7 2 8 3 9 13 10 16 11 1 12
REMARK SMILES IDX 4 13 14 14 31 15 17 16 18 17 30 18 32 19 19 20 29 21 28 22
REMARK SMILES IDX 21 23 20 24 25 25 22 26 23 27 26 28 27 29 8 30 9 31 10 32
REMARK SMILES IDX 24 33
REMARK H PARENT 24 34
REMARK Flexibility Score: inf
ROOT
ATOM      1  C   UNL     1      27.485  34.121  22.626  1.00  0.00     0.017 C 
ATOM      2  C   UNL     1      27.050  33.271  21.403  1.00  0.00     0.014 C 
ATOM      3  C   UNL     1      26.621  33.751  23.872  1.00  0.00     0.014 C 
ATOM      4  C   UNL     1      29.014  33.873  22.873  1.00  0.00     0.030 C 
ATOM      5  C   UNL     1      27.790  33.689  20.122  1.00  0.00     0.004 C 
ATOM      6  C   UNL     1      27.020  32.459  24.615  1.00  0.00     0.013 C 
ATOM      7  C   UNL     1      29.226  32.513  23.591  1.00  0.00    -0.063 C 
ATOM      8  C   UNL     1      29.858  34.201  21.583  1.00  0.00    -0.003 C 
ATOM      9  C   UNL     1      29.322  33.571  20.251  1.00  0.00    -0.011 C 
ATOM     10  C   UNL     1      28.545  32.335  24.955  1.00  0.00    -0.006 C 
ATOM     11  C   UNL     1      29.643  31.441  22.903  1.00  0.00    -0.027 C 
ATOM     12  C   UNL     1      31.370  33.981  21.798  1.00  0.00     0.008 C 
ATOM     13  C   UNL     1      29.981  34.223  19.024  1.00  0.00     0.008 C 
ATOM     14  C   UNL     1      28.978  33.523  25.883  1.00  0.00     0.017 C 
ATOM     15  C   UNL     1      28.875  30.923  25.694  1.00  0.00    -0.020 C 
ATOM     16  C   UNL     1      29.718  30.049  23.412  1.00  0.00     0.032 C 
ATOM     17  C   UNL     1      28.878  29.709  24.670  1.00  0.00     0.006 C 
ATOM     18  C   UNL     1      30.279  30.955  26.385  1.00  0.00     0.008 C 
ATOM     19  C   UNL     1      27.791  30.711  26.808  1.00  0.00     0.012 C 
ATOM     20  C   UNL     1      29.330  28.289  25.289  1.00  0.00    -0.025 C 
ATOM     21  C   UNL     1      30.722  29.622  27.025  1.00  0.00     0.005 C 
ATOM     22  C   UNL     1      30.722  28.450  26.017  1.00  0.00     0.003 C 
ATOM     23  C   UNL     1      29.516  27.216  24.159  1.00  0.00     0.010 C 
ATOM     24  C   UNL     1      28.196  27.757  26.228  1.00  0.00     0.012 C 
ATOM     25  C   UNL     1      31.393  27.110  26.538  1.00  0.00    -0.006 C 
ATOM     26  C   UNL     1      30.116  25.885  24.647  1.00  0.00     0.033 C 
ATOM     27  C   UNL     1      31.466  26.090  25.354  1.00  0.00     0.120 C 
ATOM     28  C   UNL     1      32.855  27.397  26.981  1.00  0.00     0.014 C 
ATOM     29  C   UNL     1      30.671  26.483  27.761  1.00  0.00     0.014 C 
ENDROOT
BRANCH   1  30
ATOM     30  C   UNL     1      27.194  35.596  22.356  1.00  0.00     0.048 C 
ATOM     31  O   UNL     1      27.964  36.498  22.783  1.00  0.00    -0.550 OA
ATOM     32  O   UNL     1      26.003  35.973  21.745  1.00  0.00    -0.550 OA
ENDBRANCH   1  30
BRANCH  27  33
ATOM     33  O   UNL     1      31.948  24.849  25.805  1.00  0.00    -0.393 OA
ATOM     34  H   UNL     1      31.549  24.690  26.701  1.00  0.00     0.210 HD
ENDBRANCH  27  33
TORSDOF 2
ENDMDL
