MODEL 1
REMARK VINA RESULT:    -5.537      0.000      0.000
REMARK INTER + INTRA:          -5.862
REMARK INTER:                  -6.023
REMARK INTRA:                   0.161
REMARK UNBOUND:                 0.161
REMARK SMILES C[C@H]1[C@H](C)CC[C@@]2(C(=O)[O-])CC[C@]3(C)C(=CC[C@@H]4[C@@]5(C)CC[C@H](O)C(C)(C)[C@@H]5CC[C@]43C)[C@H]12
REMARK SMILES IDX 7 1 6 2 11 3 33 4 5 5 12 6 15 7 2 8 3 9 13 10 16 11 1 12
REMARK SMILES IDX 4 13 14 14 31 15 17 16 18 17 30 18 32 19 19 20 29 21 28 22
REMARK SMILES IDX 21 23 20 24 25 25 22 26 23 27 26 28 27 29 8 30 9 31 10 32
REMARK SMILES IDX 24 33
REMARK H PARENT 24 34
REMARK Flexibility Score: inf
ROOT
ATOM      1  C   UNL     1     -10.042  10.299  17.818  1.00  0.00     0.017 C 
ATOM      2  C   UNL     1      -9.736  11.125  19.088  1.00  0.00     0.014 C 
ATOM      3  C   UNL     1     -11.097  11.102  16.959  1.00  0.00     0.014 C 
ATOM      4  C   UNL     1      -8.747  10.108  16.962  1.00  0.00     0.030 C 
ATOM      5  C   UNL     1      -8.620  10.502  19.918  1.00  0.00     0.004 C 
ATOM      6  C   UNL     1     -10.911  11.021  15.417  1.00  0.00     0.013 C 
ATOM      7  C   UNL     1      -9.119   9.238  15.737  1.00  0.00    -0.063 C 
ATOM      8  C   UNL     1      -7.461   9.693  17.771  1.00  0.00    -0.003 C 
ATOM      9  C   UNL     1      -7.312  10.478  19.117  1.00  0.00    -0.011 C 
ATOM     10  C   UNL     1     -10.334   9.658  14.902  1.00  0.00    -0.006 C 
ATOM     11  C   UNL     1      -8.390   8.165  15.322  1.00  0.00    -0.027 C 
ATOM     12  C   UNL     1      -6.188   9.941  16.921  1.00  0.00     0.008 C 
ATOM     13  C   UNL     1      -6.193   9.896  20.001  1.00  0.00     0.008 C 
ATOM     14  C   UNL     1     -11.467   8.592  15.134  1.00  0.00     0.017 C 
ATOM     15  C   UNL     1      -9.842   9.715  13.373  1.00  0.00    -0.020 C 
ATOM     16  C   UNL     1      -8.539   7.517  13.953  1.00  0.00     0.032 C 
ATOM     17  C   UNL     1      -9.509   8.233  12.945  1.00  0.00     0.006 C 
ATOM     18  C   UNL     1     -10.946  10.304  12.440  1.00  0.00     0.008 C 
ATOM     19  C   UNL     1      -8.566  10.625  13.256  1.00  0.00     0.012 C 
ATOM     20  C   UNL     1      -9.242   7.967  11.399  1.00  0.00    -0.025 C 
ATOM     21  C   UNL     1     -10.674  10.091  10.944  1.00  0.00     0.005 C 
ATOM     22  C   UNL     1     -10.457   8.593  10.604  1.00  0.00     0.003 C 
ATOM     23  C   UNL     1      -9.207   6.406  11.156  1.00  0.00     0.010 C 
ATOM     24  C   UNL     1      -7.880   8.555  10.918  1.00  0.00     0.012 C 
ATOM     25  C   UNL     1     -10.515   8.251   9.051  1.00  0.00    -0.006 C 
ATOM     26  C   UNL     1     -10.096   5.899  10.008  1.00  0.00     0.033 C 
ATOM     27  C   UNL     1     -10.005   6.786   8.770  1.00  0.00     0.120 C 
ATOM     28  C   UNL     1      -9.741   9.280   8.180  1.00  0.00     0.014 C 
ATOM     29  C   UNL     1     -11.999   8.321   8.591  1.00  0.00     0.014 C 
ENDROOT
BRANCH   1  30
ATOM     30  C   UNL     1     -10.638   8.962  18.277  1.00  0.00     0.048 C 
ATOM     31  O   UNL     1     -11.880   8.838  18.431  1.00  0.00    -0.550 OA
ATOM     32  O   UNL     1      -9.825   7.850  18.494  1.00  0.00    -0.550 OA
ENDBRANCH   1  30
BRANCH  27  33
ATOM     33  O   UNL     1      -8.680   6.761   8.296  1.00  0.00    -0.393 OA
ATOM     34  H   UNL     1      -8.703   6.428   7.362  1.00  0.00     0.210 HD
ENDBRANCH  27  33
TORSDOF 2
ENDMDL
MODEL 2
REMARK VINA RESULT:    -5.336      2.533      4.283
REMARK INTER + INTRA:          -5.642
REMARK INTER:                  -5.799
REMARK INTRA:                   0.157
REMARK UNBOUND:                 0.161
REMARK SMILES C[C@H]1[C@H](C)CC[C@@]2(C(=O)[O-])CC[C@]3(C)C(=CC[C@@H]4[C@@]5(C)CC[C@H](O)C(C)(C)[C@@H]5CC[C@]43C)[C@H]12
REMARK SMILES IDX 7 1 6 2 11 3 33 4 5 5 12 6 15 7 2 8 3 9 13 10 16 11 1 12
REMARK SMILES IDX 4 13 14 14 31 15 17 16 18 17 30 18 32 19 19 20 29 21 28 22
REMARK SMILES IDX 21 23 20 24 25 25 22 26 23 27 26 28 27 29 8 30 9 31 10 32
REMARK SMILES IDX 24 33
REMARK H PARENT 24 34
REMARK Flexibility Score: inf
ROOT
ATOM      1  C   UNL     1     -10.788   7.289  15.724  1.00  0.00     0.017 C 
ATOM      2  C   UNL     1     -12.021   7.389  16.650  1.00  0.00     0.014 C 
ATOM      3  C   UNL     1     -11.012   6.071  14.744  1.00  0.00     0.014 C 
ATOM      4  C   UNL     1     -10.635   8.592  14.871  1.00  0.00     0.030 C 
ATOM      5  C   UNL     1     -11.966   8.623  17.543  1.00  0.00     0.004 C 
ATOM      6  C   UNL     1     -10.491   6.271  13.292  1.00  0.00     0.013 C 
ATOM      7  C   UNL     1      -9.361   8.439  14.006  1.00  0.00    -0.063 C 
ATOM      8  C   UNL     1     -10.804   9.941  15.666  1.00  0.00    -0.003 C 
ATOM      9  C   UNL     1     -11.988   9.897  16.690  1.00  0.00    -0.011 C 
ATOM     10  C   UNL     1      -9.204   7.158  13.179  1.00  0.00    -0.006 C 
ATOM     11  C   UNL     1      -8.408   9.405  13.887  1.00  0.00    -0.027 C 
ATOM     12  C   UNL     1     -11.053  11.116  14.685  1.00  0.00     0.008 C 
ATOM     13  C   UNL     1     -11.988  11.125  17.620  1.00  0.00     0.008 C 
ATOM     14  C   UNL     1      -8.039   6.316  13.815  1.00  0.00     0.017 C 
ATOM     15  C   UNL     1      -8.884   7.621  11.673  1.00  0.00    -0.020 C 
ATOM     16  C   UNL     1      -7.342   9.416  12.799  1.00  0.00     0.032 C 
ATOM     17  C   UNL     1      -7.460   8.301  11.698  1.00  0.00     0.006 C 
ATOM     18  C   UNL     1      -8.877   6.407  10.693  1.00  0.00     0.008 C 
ATOM     19  C   UNL     1      -9.976   8.640  11.184  1.00  0.00     0.012 C 
ATOM     20  C   UNL     1      -6.785   8.623  10.293  1.00  0.00    -0.025 C 
ATOM     21  C   UNL     1      -8.269   6.721   9.319  1.00  0.00     0.005 C 
ATOM     22  C   UNL     1      -6.832   7.292   9.441  1.00  0.00     0.003 C 
ATOM     23  C   UNL     1      -5.280   9.033  10.542  1.00  0.00     0.010 C 
ATOM     24  C   UNL     1      -7.485   9.803   9.551  1.00  0.00     0.012 C 
ATOM     25  C   UNL     1      -6.011   7.317   8.078  1.00  0.00    -0.006 C 
ATOM     26  C   UNL     1      -4.246   8.291   9.678  1.00  0.00     0.033 C 
ATOM     27  C   UNL     1      -4.689   8.164   8.223  1.00  0.00     0.120 C 
ATOM     28  C   UNL     1      -6.857   7.819   6.875  1.00  0.00     0.014 C 
ATOM     29  C   UNL     1      -5.590   5.859   7.735  1.00  0.00     0.014 C 
ENDROOT
BRANCH   1  30
ATOM     30  C   UNL     1      -9.567   7.034  16.617  1.00  0.00     0.048 C 
ATOM     31  O   UNL     1      -9.272   5.864  16.973  1.00  0.00    -0.550 OA
ATOM     32  O   UNL     1      -8.739   8.082  17.019  1.00  0.00    -0.550 OA
ENDBRANCH   1  30
BRANCH  27  33
ATOM     33  O   UNL     1      -4.818   9.456   7.679  1.00  0.00    -0.393 OA
ATOM     34  H   UNL     1      -5.395   9.982   8.290  1.00  0.00     0.210 HD
ENDBRANCH  27  33
TORSDOF 2
ENDMDL
MODEL 3
REMARK VINA RESULT:    -4.693      1.645      8.221
REMARK INTER + INTRA:          -4.943
REMARK INTER:                  -5.105
REMARK INTRA:                   0.162
REMARK UNBOUND:                 0.161
REMARK SMILES C[C@H]1[C@H](C)CC[C@@]2(C(=O)[O-])CC[C@]3(C)C(=CC[C@@H]4[C@@]5(C)CC[C@H](O)C(C)(C)[C@@H]5CC[C@]43C)[C@H]12
REMARK SMILES IDX 7 1 6 2 11 3 33 4 5 5 12 6 15 7 2 8 3 9 13 10 16 11 1 12
REMARK SMILES IDX 4 13 14 14 31 15 17 16 18 17 30 18 32 19 19 20 29 21 28 22
REMARK SMILES IDX 21 23 20 24 25 25 22 26 23 27 26 28 27 29 8 30 9 31 10 32
REMARK SMILES IDX 24 33
REMARK H PARENT 24 34
REMARK Flexibility Score: inf
ROOT
ATOM      1  C   UNL     1      -7.036   9.070   9.672  1.00  0.00     0.017 C 
ATOM      2  C   UNL     1      -6.877   9.553   8.213  1.00  0.00     0.014 C 
ATOM      3  C   UNL     1      -5.874   9.712  10.527  1.00  0.00     0.014 C 
ATOM      4  C   UNL     1      -8.407   9.544  10.261  1.00  0.00     0.030 C 
ATOM      5  C   UNL     1      -8.035   9.100   7.332  1.00  0.00     0.004 C 
ATOM      6  C   UNL     1      -6.258  10.136  11.974  1.00  0.00     0.013 C 
ATOM      7  C   UNL     1      -8.515   8.988  11.701  1.00  0.00    -0.063 C 
ATOM      8  C   UNL     1      -9.650   9.339   9.317  1.00  0.00    -0.003 C 
ATOM      9  C   UNL     1      -9.350   9.713   7.827  1.00  0.00    -0.011 C 
ATOM     10  C   UNL     1      -7.338   9.226  12.653  1.00  0.00    -0.006 C 
ATOM     11  C   UNL     1      -9.622   8.361  12.187  1.00  0.00    -0.027 C 
ATOM     12  C   UNL     1     -10.843  10.203   9.805  1.00  0.00     0.008 C 
ATOM     13  C   UNL     1     -10.491   9.284   6.886  1.00  0.00     0.008 C 
ATOM     14  C   UNL     1      -6.640   7.841  12.910  1.00  0.00     0.017 C 
ATOM     15  C   UNL     1      -7.954   9.868  13.992  1.00  0.00    -0.020 C 
ATOM     16  C   UNL     1      -9.876   8.116  13.668  1.00  0.00     0.032 C 
ATOM     17  C   UNL     1      -8.842   8.750  14.667  1.00  0.00     0.006 C 
ATOM     18  C   UNL     1      -6.832  10.322  14.976  1.00  0.00     0.008 C 
ATOM     19  C   UNL     1      -8.827  11.123  13.631  1.00  0.00     0.012 C 
ATOM     20  C   UNL     1      -9.366   9.031  16.142  1.00  0.00    -0.025 C 
ATOM     21  C   UNL     1      -7.336  10.640  16.391  1.00  0.00     0.005 C 
ATOM     22  C   UNL     1      -8.110   9.446  17.009  1.00  0.00     0.003 C 
ATOM     23  C   UNL     1      -9.983   7.696  16.720  1.00  0.00     0.010 C 
ATOM     24  C   UNL     1     -10.476  10.127  16.182  1.00  0.00     0.012 C 
ATOM     25  C   UNL     1      -8.362   9.560  18.576  1.00  0.00    -0.006 C 
ATOM     26  C   UNL     1      -9.475   7.286  18.112  1.00  0.00     0.033 C 
ATOM     27  C   UNL     1      -9.389   8.471  19.070  1.00  0.00     0.120 C 
ATOM     28  C   UNL     1      -8.815  10.982  19.011  1.00  0.00     0.014 C 
ATOM     29  C   UNL     1      -7.015   9.291  19.307  1.00  0.00     0.014 C 
ENDROOT
BRANCH   1  30
ATOM     30  C   UNL     1      -6.906   7.541   9.663  1.00  0.00     0.048 C 
ATOM     31  O   UNL     1      -5.772   6.999   9.685  1.00  0.00    -0.550 OA
ATOM     32  O   UNL     1      -8.036   6.723   9.670  1.00  0.00    -0.550 OA
ENDBRANCH   1  30
BRANCH  27  33
ATOM     33  O   UNL     1     -10.683   8.996  19.251  1.00  0.00    -0.393 OA
ATOM     34  H   UNL     1     -11.274   8.571  18.579  1.00  0.00     0.210 HD
ENDBRANCH  27  33
TORSDOF 2
ENDMDL
MODEL 4
REMARK VINA RESULT:    -4.282      3.266      5.441
REMARK INTER + INTRA:          -4.496
REMARK INTER:                  -5.391
REMARK INTRA:                   0.895
REMARK UNBOUND:                 0.161
REMARK SMILES C[C@H]1[C@H](C)CC[C@@]2(C(=O)[O-])CC[C@]3(C)C(=CC[C@@H]4[C@@]5(C)CC[C@H](O)C(C)(C)[C@@H]5CC[C@]43C)[C@H]12
REMARK SMILES IDX 7 1 6 2 11 3 33 4 5 5 12 6 15 7 2 8 3 9 13 10 16 11 1 12
REMARK SMILES IDX 4 13 14 14 31 15 17 16 18 17 30 18 32 19 19 20 29 21 28 22
REMARK SMILES IDX 21 23 20 24 25 25 22 26 23 27 26 28 27 29 8 30 9 31 10 32
REMARK SMILES IDX 24 33
REMARK H PARENT 24 34
REMARK Flexibility Score: inf
ROOT
ATOM      1  C   UNL     1     -10.146   7.126  14.113  1.00  0.00     0.017 C 
ATOM      2  C   UNL     1     -11.552   7.050  14.751  1.00  0.00     0.014 C 
ATOM      3  C   UNL     1     -10.177   6.301  12.767  1.00  0.00     0.014 C 
ATOM      4  C   UNL     1      -9.775   8.609  13.778  1.00  0.00     0.030 C 
ATOM      5  C   UNL     1     -11.667   7.935  15.987  1.00  0.00     0.004 C 
ATOM      6  C   UNL     1      -9.340   6.890  11.596  1.00  0.00     0.013 C 
ATOM      7  C   UNL     1      -8.345   8.612  13.188  1.00  0.00    -0.063 C 
ATOM      8  C   UNL     1     -10.084   9.653  14.916  1.00  0.00    -0.003 C 
ATOM      9  C   UNL     1     -11.466   9.407  15.607  1.00  0.00    -0.011 C 
ATOM     10  C   UNL     1      -8.039   7.642  12.041  1.00  0.00    -0.006 C 
ATOM     11  C   UNL     1      -7.365   9.472  13.584  1.00  0.00    -0.027 C 
ATOM     12  C   UNL     1     -10.079  11.093  14.339  1.00  0.00     0.008 C 
ATOM     13  C   UNL     1     -11.644  10.278  16.864  1.00  0.00     0.008 C 
ATOM     14  C   UNL     1      -7.066   6.537  12.592  1.00  0.00     0.017 C 
ATOM     15  C   UNL     1      -7.381   8.517  10.864  1.00  0.00    -0.020 C 
ATOM     16  C   UNL     1      -6.084   9.718  12.799  1.00  0.00     0.032 C 
ATOM     17  C   UNL     1      -5.982   9.018  11.396  1.00  0.00     0.006 C 
ATOM     18  C   UNL     1      -7.186   7.673   9.567  1.00  0.00     0.008 C 
ATOM     19  C   UNL     1      -8.310   9.737  10.521  1.00  0.00     0.012 C 
ATOM     20  C   UNL     1      -5.002   9.694  10.340  1.00  0.00    -0.025 C 
ATOM     21  C   UNL     1      -6.279   8.339   8.522  1.00  0.00     0.005 C 
ATOM     22  C   UNL     1      -4.891   8.705   9.112  1.00  0.00     0.003 C 
ATOM     23  C   UNL     1      -3.581   9.861  11.008  1.00  0.00     0.010 C 
ATOM     24  C   UNL     1      -5.490  11.107   9.894  1.00  0.00     0.012 C 
ATOM     25  C   UNL     1      -3.787   9.074   8.027  1.00  0.00    -0.006 C 
ATOM     26  C   UNL     1      -2.399   9.330  10.179  1.00  0.00     0.033 C 
ATOM     27  C   UNL     1      -2.510   9.704   8.704  1.00  0.00     0.120 C 
ATOM     28  C   UNL     1      -4.331  10.003   6.906  1.00  0.00     0.014 C 
ATOM     29  C   UNL     1      -3.337   7.762   7.323  1.00  0.00     0.014 C 
ENDROOT
BRANCH   1  30
ATOM     30  C   UNL     1      -9.162   6.491  15.104  1.00  0.00     0.048 C 
ATOM     31  O   UNL     1      -9.056   6.941  16.273  1.00  0.00    -0.550 OA
ATOM     32  O   UNL     1      -8.397   5.382  14.745  1.00  0.00    -0.550 OA
ENDBRANCH   1  30
BRANCH  27  33
ATOM     33  O   UNL     1      -2.482  11.108   8.594  1.00  0.00    -0.393 OA
ATOM     34  H   UNL     1      -2.969  11.352   7.766  1.00  0.00     0.210 HD
ENDBRANCH  27  33
TORSDOF 2
ENDMDL
MODEL 5
REMARK VINA RESULT:    -4.157      2.597      8.196
REMARK INTER + INTRA:          -4.360
REMARK INTER:                  -4.521
REMARK INTRA:                   0.161
REMARK UNBOUND:                 0.161
REMARK SMILES C[C@H]1[C@H](C)CC[C@@]2(C(=O)[O-])CC[C@]3(C)C(=CC[C@@H]4[C@@]5(C)CC[C@H](O)C(C)(C)[C@@H]5CC[C@]43C)[C@H]12
REMARK SMILES IDX 7 1 6 2 11 3 33 4 5 5 12 6 15 7 2 8 3 9 13 10 16 11 1 12
REMARK SMILES IDX 4 13 14 14 31 15 17 16 18 17 30 18 32 19 19 20 29 21 28 22
REMARK SMILES IDX 21 23 20 24 25 25 22 26 23 27 26 28 27 29 8 30 9 31 10 32
REMARK SMILES IDX 24 33
REMARK H PARENT 24 34
REMARK Flexibility Score: inf
ROOT
ATOM      1  C   UNL     1      -6.735   7.759   8.450  1.00  0.00     0.017 C 
ATOM      2  C   UNL     1      -5.759   7.266   7.359  1.00  0.00     0.014 C 
ATOM      3  C   UNL     1      -7.538   6.509   8.986  1.00  0.00     0.014 C 
ATOM      4  C   UNL     1      -5.948   8.393   9.645  1.00  0.00     0.030 C 
ATOM      5  C   UNL     1      -4.834   8.377   6.875  1.00  0.00     0.004 C 
ATOM      6  C   UNL     1      -7.849   6.511  10.510  1.00  0.00     0.013 C 
ATOM      7  C   UNL     1      -6.987   8.903  10.672  1.00  0.00    -0.063 C 
ATOM      8  C   UNL     1      -4.794   9.385   9.239  1.00  0.00    -0.003 C 
ATOM      9  C   UNL     1      -3.950   8.870   8.026  1.00  0.00    -0.011 C 
ATOM     10  C   UNL     1      -8.085   7.934  11.124  1.00  0.00    -0.006 C 
ATOM     11  C   UNL     1      -6.939  10.137  11.246  1.00  0.00    -0.027 C 
ATOM     12  C   UNL     1      -3.835   9.613  10.437  1.00  0.00     0.008 C 
ATOM     13  C   UNL     1      -2.989   9.951   7.495  1.00  0.00     0.008 C 
ATOM     14  C   UNL     1      -9.449   8.442  10.528  1.00  0.00     0.017 C 
ATOM     15  C   UNL     1      -8.070   7.940  12.731  1.00  0.00    -0.020 C 
ATOM     16  C   UNL     1      -7.732  10.527  12.486  1.00  0.00     0.032 C 
ATOM     17  C   UNL     1      -8.541   9.376  13.186  1.00  0.00     0.006 C 
ATOM     18  C   UNL     1      -9.028   6.856  13.315  1.00  0.00     0.008 C 
ATOM     19  C   UNL     1      -6.618   7.644  13.253  1.00  0.00     0.012 C 
ATOM     20  C   UNL     1      -8.864   9.579  14.731  1.00  0.00    -0.025 C 
ATOM     21  C   UNL     1      -9.308   7.017  14.816  1.00  0.00     0.005 C 
ATOM     22  C   UNL     1      -9.861   8.427  15.151  1.00  0.00     0.003 C 
ATOM     23  C   UNL     1      -9.572  10.979  14.917  1.00  0.00     0.010 C 
ATOM     24  C   UNL     1      -7.578   9.573  15.615  1.00  0.00     0.012 C 
ATOM     25  C   UNL     1     -10.497   8.561  16.604  1.00  0.00    -0.006 C 
ATOM     26  C   UNL     1     -10.877  10.952  15.731  1.00  0.00     0.033 C 
ATOM     27  C   UNL     1     -10.768  10.069  16.972  1.00  0.00     0.120 C 
ATOM     28  C   UNL     1      -9.638   7.873  17.702  1.00  0.00     0.014 C 
ATOM     29  C   UNL     1     -11.870   7.830  16.606  1.00  0.00     0.014 C 
ENDROOT
BRANCH   1  30
ATOM     30  C   UNL     1      -7.690   8.760   7.788  1.00  0.00     0.048 C 
ATOM     31  O   UNL     1      -8.770   8.367   7.276  1.00  0.00    -0.550 OA
ATOM     32  O   UNL     1      -7.404  10.125   7.774  1.00  0.00    -0.550 OA
ENDBRANCH   1  30
BRANCH  27  33
ATOM     33  O   UNL     1      -9.776  10.603  17.816  1.00  0.00    -0.393 OA
ATOM     34  H   UNL     1      -9.169   9.861  18.069  1.00  0.00     0.210 HD
ENDBRANCH  27  33
TORSDOF 2
ENDMDL
MODEL 6
REMARK VINA RESULT:    -4.025      1.586      8.111
REMARK INTER + INTRA:          -4.217
REMARK INTER:                  -4.372
REMARK INTRA:                   0.156
REMARK UNBOUND:                 0.161
REMARK SMILES C[C@H]1[C@H](C)CC[C@@]2(C(=O)[O-])CC[C@]3(C)C(=CC[C@@H]4[C@@]5(C)CC[C@H](O)C(C)(C)[C@@H]5CC[C@]43C)[C@H]12
REMARK SMILES IDX 7 1 6 2 11 3 33 4 5 5 12 6 15 7 2 8 3 9 13 10 16 11 1 12
REMARK SMILES IDX 4 13 14 14 31 15 17 16 18 17 30 18 32 19 19 20 29 21 28 22
REMARK SMILES IDX 21 23 20 24 25 25 22 26 23 27 26 28 27 29 8 30 9 31 10 32
REMARK SMILES IDX 24 33
REMARK H PARENT 24 34
REMARK Flexibility Score: inf
ROOT
ATOM      1  C   UNL     1      -8.548   8.357  10.291  1.00  0.00     0.017 C 
ATOM      2  C   UNL     1      -8.820   8.415   8.771  1.00  0.00     0.014 C 
ATOM      3  C   UNL     1      -8.076   9.791  10.756  1.00  0.00     0.014 C 
ATOM      4  C   UNL     1      -9.855   7.988  11.068  1.00  0.00     0.030 C 
ATOM      5  C   UNL     1      -9.417   7.114   8.247  1.00  0.00     0.004 C 
ATOM      6  C   UNL     1      -8.577  10.243  12.157  1.00  0.00     0.013 C 
ATOM      7  C   UNL     1      -9.497   7.904  12.571  1.00  0.00    -0.063 C 
ATOM      8  C   UNL     1     -10.684   6.795  10.461  1.00  0.00    -0.003 C 
ATOM      9  C   UNL     1     -10.781   6.856   8.900  1.00  0.00    -0.011 C 
ATOM     10  C   UNL     1      -8.739   9.081  13.196  1.00  0.00    -0.006 C 
ATOM     11  C   UNL     1      -9.877   6.878  13.383  1.00  0.00    -0.027 C 
ATOM     12  C   UNL     1     -12.125   6.794  11.037  1.00  0.00     0.008 C 
ATOM     13  C   UNL     1     -11.383   5.566   8.311  1.00  0.00     0.008 C 
ATOM     14  C   UNL     1      -7.283   8.591  13.530  1.00  0.00     0.017 C 
ATOM     15  C   UNL     1      -9.564   9.514  14.506  1.00  0.00    -0.020 C 
ATOM     16  C   UNL     1      -9.834   6.938  14.903  1.00  0.00     0.032 C 
ATOM     17  C   UNL     1      -9.444   8.323  15.535  1.00  0.00     0.006 C 
ATOM     18  C   UNL     1      -8.989  10.821  15.135  1.00  0.00     0.008 C 
ATOM     19  C   UNL     1     -11.068   9.771  14.131  1.00  0.00     0.012 C 
ATOM     20  C   UNL     1      -9.953   8.591  17.018  1.00  0.00    -0.025 C 
ATOM     21  C   UNL     1      -9.511  11.112  16.550  1.00  0.00     0.005 C 
ATOM     22  C   UNL     1      -9.259   9.922  17.513  1.00  0.00     0.003 C 
ATOM     23  C   UNL     1      -9.492   7.388  17.933  1.00  0.00     0.010 C 
ATOM     24  C   UNL     1     -11.507   8.689  17.107  1.00  0.00     0.012 C 
ATOM     25  C   UNL     1      -9.449  10.267  19.055  1.00  0.00    -0.006 C 
ATOM     26  C   UNL     1      -8.776   7.789  19.234  1.00  0.00     0.033 C 
ATOM     27  C   UNL     1      -9.461   8.959  19.936  1.00  0.00     0.120 C 
ATOM     28  C   UNL     1     -10.717  11.125  19.327  1.00  0.00     0.014 C 
ATOM     29  C   UNL     1      -8.237  11.125  19.517  1.00  0.00     0.014 C 
ENDROOT
BRANCH   1  30
ATOM     30  C   UNL     1      -7.430   7.331  10.515  1.00  0.00     0.048 C 
ATOM     31  O   UNL     1      -6.223   7.682  10.459  1.00  0.00    -0.550 OA
ATOM     32  O   UNL     1      -7.724   6.003  10.822  1.00  0.00    -0.550 OA
ENDBRANCH   1  30
BRANCH  27  33
ATOM     33  O   UNL     1     -10.764   8.566  20.296  1.00  0.00    -0.393 OA
ATOM     34  H   UNL     1     -10.749   7.587  20.447  1.00  0.00     0.210 HD
ENDBRANCH  27  33
TORSDOF 2
ENDMDL
MODEL 7
REMARK VINA RESULT:    -3.283      1.625      8.156
REMARK INTER + INTRA:          -3.409
REMARK INTER:                  -3.683
REMARK INTRA:                   0.274
REMARK UNBOUND:                 0.161
REMARK SMILES C[C@H]1[C@H](C)CC[C@@]2(C(=O)[O-])CC[C@]3(C)C(=CC[C@@H]4[C@@]5(C)CC[C@H](O)C(C)(C)[C@@H]5CC[C@]43C)[C@H]12
REMARK SMILES IDX 7 1 6 2 11 3 33 4 5 5 12 6 15 7 2 8 3 9 13 10 16 11 1 12
REMARK SMILES IDX 4 13 14 14 31 15 17 16 18 17 30 18 32 19 19 20 29 21 28 22
REMARK SMILES IDX 21 23 20 24 25 25 22 26 23 27 26 28 27 29 8 30 9 31 10 32
REMARK SMILES IDX 24 33
REMARK H PARENT 24 34
REMARK Flexibility Score: inf
ROOT
ATOM      1  C   UNL     1      -9.259   7.173   9.893  1.00  0.00     0.017 C 
ATOM      2  C   UNL     1      -8.704   7.128   8.452  1.00  0.00     0.014 C 
ATOM      3  C   UNL     1      -8.249   6.400  10.828  1.00  0.00     0.014 C 
ATOM      4  C   UNL     1      -9.368   8.652  10.393  1.00  0.00     0.030 C 
ATOM      5  C   UNL     1      -9.537   7.970   7.491  1.00  0.00     0.004 C 
ATOM      6  C   UNL     1      -8.054   7.000  12.250  1.00  0.00     0.013 C 
ATOM      7  C   UNL     1      -9.971   8.621  11.818  1.00  0.00    -0.063 C 
ATOM      8  C   UNL     1     -10.003   9.664   9.367  1.00  0.00    -0.003 C 
ATOM      9  C   UNL     1      -9.492   9.446   7.904  1.00  0.00    -0.011 C 
ATOM     10  C   UNL     1      -9.331   7.684  12.848  1.00  0.00    -0.006 C 
ATOM     11  C   UNL     1     -10.991   9.426  12.225  1.00  0.00    -0.027 C 
ATOM     12  C   UNL     1      -9.680  11.124   9.783  1.00  0.00     0.008 C 
ATOM     13  C   UNL     1     -10.295  10.276   6.885  1.00  0.00     0.008 C 
ATOM     14  C   UNL     1     -10.349   6.522  13.138  1.00  0.00     0.017 C 
ATOM     15  C   UNL     1      -9.021   8.576  14.149  1.00  0.00    -0.020 C 
ATOM     16  C   UNL     1     -11.364   9.652  13.683  1.00  0.00     0.032 C 
ATOM     17  C   UNL     1     -10.416   9.001  14.753  1.00  0.00     0.006 C 
ATOM     18  C   UNL     1      -8.204   7.774  15.209  1.00  0.00     0.008 C 
ATOM     19  C   UNL     1      -8.186   9.843  13.742  1.00  0.00     0.012 C 
ATOM     20  C   UNL     1     -10.407   9.677  16.194  1.00  0.00    -0.025 C 
ATOM     21  C   UNL     1      -8.152   8.442  16.590  1.00  0.00     0.005 C 
ATOM     22  C   UNL     1      -9.571   8.731  17.145  1.00  0.00     0.003 C 
ATOM     23  C   UNL     1     -11.895   9.764  16.717  1.00  0.00     0.010 C 
ATOM     24  C   UNL     1      -9.824  11.124  16.170  1.00  0.00     0.012 C 
ATOM     25  C   UNL     1      -9.615   9.097  18.693  1.00  0.00    -0.006 C 
ATOM     26  C   UNL     1     -12.125   9.218  18.136  1.00  0.00     0.033 C 
ATOM     27  C   UNL     1     -11.031   9.651  19.109  1.00  0.00     0.120 C 
ATOM     28  C   UNL     1      -8.492  10.088  19.109  1.00  0.00     0.014 C 
ATOM     29  C   UNL     1      -9.370   7.796  19.509  1.00  0.00     0.014 C 
ENDROOT
BRANCH   1  30
ATOM     30  C   UNL     1     -10.619   6.464   9.878  1.00  0.00     0.048 C 
ATOM     31  O   UNL     1     -10.683   5.212   9.775  1.00  0.00    -0.550 OA
ATOM     32  O   UNL     1     -11.806   7.182  10.019  1.00  0.00    -0.550 OA
ENDBRANCH   1  30
BRANCH  27  33
ATOM     33  O   UNL     1     -11.049  11.056  19.208  1.00  0.00    -0.393 OA
ATOM     34  H   UNL     1     -11.897  11.372  18.804  1.00  0.00     0.210 HD
ENDBRANCH  27  33
TORSDOF 2
ENDMDL
MODEL 8
REMARK VINA RESULT:    -3.145      1.888      8.186
REMARK INTER + INTRA:          -3.259
REMARK INTER:                  -3.517
REMARK INTRA:                   0.258
REMARK UNBOUND:                 0.161
REMARK SMILES C[C@H]1[C@H](C)CC[C@@]2(C(=O)[O-])CC[C@]3(C)C(=CC[C@@H]4[C@@]5(C)CC[C@H](O)C(C)(C)[C@@H]5CC[C@]43C)[C@H]12
REMARK SMILES IDX 7 1 6 2 11 3 33 4 5 5 12 6 15 7 2 8 3 9 13 10 16 11 1 12
REMARK SMILES IDX 4 13 14 14 31 15 17 16 18 17 30 18 32 19 19 20 29 21 28 22
REMARK SMILES IDX 21 23 20 24 25 25 22 26 23 27 26 28 27 29 8 30 9 31 10 32
REMARK SMILES IDX 24 33
REMARK H PARENT 24 34
REMARK Flexibility Score: inf
ROOT
ATOM      1  C   UNL     1      -9.331   6.344   8.960  1.00  0.00     0.017 C 
ATOM      2  C   UNL     1      -8.820   5.507   7.766  1.00  0.00     0.014 C 
ATOM      3  C   UNL     1     -10.292   5.431   9.819  1.00  0.00     0.014 C 
ATOM      4  C   UNL     1      -8.136   6.796   9.864  1.00  0.00     0.030 C 
ATOM      5  C   UNL     1      -7.771   6.255   6.951  1.00  0.00     0.004 C 
ATOM      6  C   UNL     1     -10.213   5.632  11.359  1.00  0.00     0.013 C 
ATOM      7  C   UNL     1      -8.716   7.662  11.008  1.00  0.00    -0.063 C 
ATOM      8  C   UNL     1      -6.888   7.368   9.093  1.00  0.00    -0.003 C 
ATOM      9  C   UNL     1      -6.535   6.541   7.812  1.00  0.00    -0.011 C 
ATOM     10  C   UNL     1      -9.895   7.099  11.809  1.00  0.00    -0.006 C 
ATOM     11  C   UNL     1      -8.195   8.863  11.385  1.00  0.00    -0.027 C 
ATOM     12  C   UNL     1      -5.644   7.383  10.020  1.00  0.00     0.008 C 
ATOM     13  C   UNL     1      -5.473   7.247   6.947  1.00  0.00     0.008 C 
ATOM     14  C   UNL     1     -11.169   7.948  11.450  1.00  0.00     0.017 C 
ATOM     15  C   UNL     1      -9.491   7.212  13.360  1.00  0.00    -0.020 C 
ATOM     16  C   UNL     1      -8.527   9.557  12.698  1.00  0.00     0.032 C 
ATOM     17  C   UNL     1      -9.427   8.751  13.703  1.00  0.00     0.006 C 
ATOM     18  C   UNL     1     -10.539   6.506  14.275  1.00  0.00     0.008 C 
ATOM     19  C   UNL     1      -8.095   6.533  13.600  1.00  0.00     0.012 C 
ATOM     20  C   UNL     1      -9.299   9.148  15.239  1.00  0.00    -0.025 C 
ATOM     21  C   UNL     1     -10.395   6.848  15.765  1.00  0.00     0.005 C 
ATOM     22  C   UNL     1     -10.442   8.378  16.013  1.00  0.00     0.003 C 
ATOM     23  C   UNL     1      -9.530  10.705  15.377  1.00  0.00     0.010 C 
ATOM     24  C   UNL     1      -7.891   8.821  15.825  1.00  0.00     0.012 C 
ATOM     25  C   UNL     1     -10.647   8.796  17.535  1.00  0.00    -0.006 C 
ATOM     26  C   UNL     1     -10.556  11.125  16.443  1.00  0.00     0.033 C 
ATOM     27  C   UNL     1     -10.397  10.339  17.742  1.00  0.00     0.120 C 
ATOM     28  C   UNL     1      -9.771   7.962  18.511  1.00  0.00     0.014 C 
ATOM     29  C   UNL     1     -12.125   8.510  17.926  1.00  0.00     0.014 C 
ENDROOT
BRANCH   1  30
ATOM     30  C   UNL     1     -10.105   7.536   8.383  1.00  0.00     0.048 C 
ATOM     31  O   UNL     1     -11.360   7.502   8.306  1.00  0.00    -0.550 OA
ATOM     32  O   UNL     1      -9.443   8.692   7.971  1.00  0.00    -0.550 OA
ENDBRANCH   1  30
BRANCH  27  33
ATOM     33  O   UNL     1      -9.124  10.610  18.278  1.00  0.00    -0.393 OA
ATOM     34  H   UNL     1      -8.552   9.820  18.101  1.00  0.00     0.210 HD
ENDBRANCH  27  33
TORSDOF 2
ENDMDL
