MODEL 1
REMARK VINA RESULT:    -3.817      0.000      0.000
REMARK INTER + INTRA:          -4.968
REMARK INTER:                  -4.598
REMARK INTRA:                  -0.370
REMARK UNBOUND:                -0.370
REMARK SMILES O=c1c(O)c(-c2ccc(O)cc2O)oc2cc(O)cc(O)c12
REMARK SMILES IDX 5 1 3 2 2 3 1 4 22 5 20 6 19 7 17 8 16 9 15 10 14 11 6 12
REMARK SMILES IDX 8 13 7 14 9 15 11 16 12 17 10 18 13 20 4 22 21 24 18 26
REMARK H PARENT 10 19 13 21 4 23 21 25 18 27
REMARK Flexibility Score: inf
ROOT
ATOM      1  C   UNL     1      19.493  34.701  43.957  1.00  0.00     0.184 A 
ATOM      2  C   UNL     1      20.003  35.851  44.577  1.00  0.00     0.208 A 
ATOM      3  C   UNL     1      21.280  35.800  45.159  1.00  0.00     0.238 A 
ATOM      4  O   UNL     1      21.707  36.816  45.768  1.00  0.00    -0.285 OA
ATOM      5  C   UNL     1      22.040  34.607  45.085  1.00  0.00     0.111 A 
ATOM      6  C   UNL     1      23.361  34.455  45.603  1.00  0.00     0.134 A 
ATOM      7  C   UNL     1      23.970  33.193  45.582  1.00  0.00     0.093 A 
ATOM      8  C   UNL     1      23.330  32.096  45.002  1.00  0.00     0.123 A 
ATOM      9  C   UNL     1      22.065  32.247  44.441  1.00  0.00     0.094 A 
ATOM     10  C   UNL     1      21.417  33.485  44.480  1.00  0.00     0.146 A 
ATOM     11  O   UNL     1      20.206  33.582  43.946  1.00  0.00    -0.451 OA
ENDROOT
BRANCH   1  12
ATOM     12  C   UNL     1      18.164  34.703  43.308  1.00  0.00     0.063 A 
ATOM     13  C   UNL     1      15.740  34.751  43.521  1.00  0.00     0.047 A 
ATOM     14  C   UNL     1      17.006  34.694  44.107  1.00  0.00     0.020 A 
ATOM     15  C   UNL     1      15.611  34.826  42.130  1.00  0.00     0.119 A 
ATOM     16  C   UNL     1      16.755  34.839  41.327  1.00  0.00     0.093 A 
ATOM     17  C   UNL     1      18.031  34.771  41.901  1.00  0.00     0.130 A 
BRANCH  15  18
ATOM     18  O   UNL     1      14.353  34.890  41.536  1.00  0.00    -0.508 OA
ATOM     19  H   UNL     1      13.505  34.767  42.076  1.00  0.00     0.293 HD
ENDBRANCH  15  18
BRANCH  17  20
ATOM     20  O   UNL     1      19.136  34.750  41.049  1.00  0.00    -0.507 OA
ATOM     21  H   UNL     1      19.243  35.383  40.267  1.00  0.00     0.293 HD
ENDBRANCH  17  20
ENDBRANCH   1  12
BRANCH   2  22
ATOM     22  O   UNL     1      19.231  37.015  44.632  1.00  0.00    -0.502 OA
ATOM     23  H   UNL     1      18.226  36.995  44.756  1.00  0.00     0.293 HD
ENDBRANCH   2  22
BRANCH   6  24
ATOM     24  O   UNL     1      24.123  35.506  46.123  1.00  0.00    -0.507 OA
ATOM     25  H   UNL     1      23.745  36.371  46.477  1.00  0.00     0.293 HD
ENDBRANCH   6  24
BRANCH   8  26
ATOM     26  O   UNL     1      23.950  30.848  44.970  1.00  0.00    -0.508 OA
ATOM     27  H   UNL     1      23.532  30.060  44.488  1.00  0.00     0.293 HD
ENDBRANCH   8  26
TORSDOF 6
ENDMDL
MODEL 2
REMARK VINA RESULT:    -3.760      1.555      3.342
REMARK INTER + INTRA:          -4.900
REMARK INTER:                  -4.487
REMARK INTRA:                  -0.413
REMARK UNBOUND:                -0.370
REMARK SMILES O=c1c(O)c(-c2ccc(O)cc2O)oc2cc(O)cc(O)c12
REMARK SMILES IDX 5 1 3 2 2 3 1 4 22 5 20 6 19 7 17 8 16 9 15 10 14 11 6 12
REMARK SMILES IDX 8 13 7 14 9 15 11 16 12 17 10 18 13 20 4 22 21 24 18 26
REMARK H PARENT 10 19 13 21 4 23 21 25 18 27
REMARK Flexibility Score: inf
ROOT
ATOM      1  C   UNL     1      17.865  34.571  43.105  1.00  0.00     0.184 A 
ATOM      2  C   UNL     1      18.371  33.264  43.053  1.00  0.00     0.208 A 
ATOM      3  C   UNL     1      19.594  32.982  43.681  1.00  0.00     0.238 A 
ATOM      4  O   UNL     1      20.073  31.822  43.578  1.00  0.00    -0.285 OA
ATOM      5  C   UNL     1      20.280  34.007  44.378  1.00  0.00     0.111 A 
ATOM      6  C   UNL     1      21.506  33.825  45.085  1.00  0.00     0.134 A 
ATOM      7  C   UNL     1      22.158  34.936  45.635  1.00  0.00     0.093 A 
ATOM      8  C   UNL     1      21.593  36.211  45.560  1.00  0.00     0.123 A 
ATOM      9  C   UNL     1      20.368  36.390  44.923  1.00  0.00     0.094 A 
ATOM     10  C   UNL     1      19.712  35.306  44.332  1.00  0.00     0.146 A 
ATOM     11  O   UNL     1      18.553  35.524  43.723  1.00  0.00    -0.451 OA
ENDROOT
BRANCH   1  12
ATOM     12  C   UNL     1      16.571  34.921  42.482  1.00  0.00     0.063 A 
ATOM     13  C   UNL     1      14.158  35.169  42.686  1.00  0.00     0.047 A 
ATOM     14  C   UNL     1      15.387  34.794  43.232  1.00  0.00     0.020 A 
ATOM     15  C   UNL     1      14.093  35.685  41.387  1.00  0.00     0.119 A 
ATOM     16  C   UNL     1      15.263  35.818  40.634  1.00  0.00     0.093 A 
ATOM     17  C   UNL     1      16.501  35.434  41.165  1.00  0.00     0.130 A 
BRANCH  15  18
ATOM     18  O   UNL     1      12.873  36.068  40.836  1.00  0.00    -0.508 OA
ATOM     19  H   UNL     1      12.175  35.385  40.567  1.00  0.00     0.293 HD
ENDBRANCH  15  18
BRANCH  17  20
ATOM     20  O   UNL     1      17.632  35.555  40.355  1.00  0.00    -0.507 OA
ATOM     21  H   UNL     1      17.595  35.510  39.345  1.00  0.00     0.293 HD
ENDBRANCH  17  20
ENDBRANCH   1  12
BRANCH   2  22
ATOM     22  O   UNL     1      17.671  32.272  42.360  1.00  0.00    -0.502 OA
ATOM     23  H   UNL     1      16.659  32.252  42.315  1.00  0.00     0.293 HD
ENDBRANCH   2  22
BRANCH   6  24
ATOM     24  O   UNL     1      22.110  32.581  45.297  1.00  0.00    -0.507 OA
ATOM     25  H   UNL     1      23.093  32.392  45.183  1.00  0.00     0.293 HD
ENDBRANCH   6  24
BRANCH   8  26
ATOM     26  O   UNL     1      22.239  37.309  46.125  1.00  0.00    -0.508 OA
ATOM     27  H   UNL     1      23.210  37.516  45.920  1.00  0.00     0.293 HD
ENDBRANCH   8  26
TORSDOF 6
ENDMDL
MODEL 3
REMARK VINA RESULT:    -3.591      2.428      7.388
REMARK INTER + INTRA:          -4.696
REMARK INTER:                  -4.294
REMARK INTRA:                  -0.402
REMARK UNBOUND:                -0.370
REMARK SMILES O=c1c(O)c(-c2ccc(O)cc2O)oc2cc(O)cc(O)c12
REMARK SMILES IDX 5 1 3 2 2 3 1 4 22 5 20 6 19 7 17 8 16 9 15 10 14 11 6 12
REMARK SMILES IDX 8 13 7 14 9 15 11 16 12 17 10 18 13 20 4 22 21 24 18 26
REMARK H PARENT 10 19 13 21 4 23 21 25 18 27
REMARK Flexibility Score: inf
ROOT
ATOM      1  C   UNL     1      19.881  34.076  41.163  1.00  0.00     0.184 A 
ATOM      2  C   UNL     1      19.965  34.337  39.788  1.00  0.00     0.208 A 
ATOM      3  C   UNL     1      18.859  34.902  39.134  1.00  0.00     0.238 A 
ATOM      4  O   UNL     1      18.918  35.077  37.888  1.00  0.00    -0.285 OA
ATOM      5  C   UNL     1      17.695  35.226  39.872  1.00  0.00     0.111 A 
ATOM      6  C   UNL     1      16.530  35.839  39.320  1.00  0.00     0.134 A 
ATOM      7  C   UNL     1      15.391  36.001  40.119  1.00  0.00     0.093 A 
ATOM      8  C   UNL     1      15.398  35.632  41.466  1.00  0.00     0.123 A 
ATOM      9  C   UNL     1      16.548  35.087  42.029  1.00  0.00     0.094 A 
ATOM     10  C   UNL     1      17.689  34.878  41.248  1.00  0.00     0.146 A 
ATOM     11  O   UNL     1      18.759  34.343  41.821  1.00  0.00    -0.451 OA
ENDROOT
BRANCH   1  12
ATOM     12  C   UNL     1      21.022  33.503  41.909  1.00  0.00     0.063 A 
ATOM     13  C   UNL     1      22.243  31.538  42.664  1.00  0.00     0.047 A 
ATOM     14  C   UNL     1      21.146  32.106  42.013  1.00  0.00     0.020 A 
ATOM     15  C   UNL     1      23.236  32.356  43.213  1.00  0.00     0.119 A 
ATOM     16  C   UNL     1      23.124  33.746  43.113  1.00  0.00     0.093 A 
ATOM     17  C   UNL     1      22.023  34.329  42.473  1.00  0.00     0.130 A 
BRANCH  15  18
ATOM     18  O   UNL     1      24.338  31.799  43.859  1.00  0.00    -0.508 OA
ATOM     19  H   UNL     1      25.285  32.065  43.616  1.00  0.00     0.293 HD
ENDBRANCH  15  18
BRANCH  17  20
ATOM     20  O   UNL     1      21.945  35.722  42.435  1.00  0.00    -0.507 OA
ATOM     21  H   UNL     1      21.437  36.265  43.121  1.00  0.00     0.293 HD
ENDBRANCH  17  20
ENDBRANCH   1  12
BRANCH   2  22
ATOM     22  O   UNL     1      21.128  34.010  39.085  1.00  0.00    -0.502 OA
ATOM     23  H   UNL     1      21.117  33.422  38.260  1.00  0.00     0.293 HD
ENDBRANCH   2  22
BRANCH   6  24
ATOM     24  O   UNL     1      16.448  36.327  38.012  1.00  0.00    -0.507 OA
ATOM     25  H   UNL     1      15.677  36.162  37.384  1.00  0.00     0.293 HD
ENDBRANCH   6  24
BRANCH   8  26
ATOM     26  O   UNL     1      14.265  35.813  42.258  1.00  0.00    -0.508 OA
ATOM     27  H   UNL     1      13.400  36.171  41.871  1.00  0.00     0.293 HD
ENDBRANCH   8  26
TORSDOF 6
ENDMDL
MODEL 4
REMARK VINA RESULT:    -3.573      5.208      6.889
REMARK INTER + INTRA:          -4.674
REMARK INTER:                  -4.301
REMARK INTRA:                  -0.373
REMARK UNBOUND:                -0.370
REMARK SMILES O=c1c(O)c(-c2ccc(O)cc2O)oc2cc(O)cc(O)c12
REMARK SMILES IDX 5 1 3 2 2 3 1 4 22 5 20 6 19 7 17 8 16 9 15 10 14 11 6 12
REMARK SMILES IDX 8 13 7 14 9 15 11 16 12 17 10 18 13 20 4 22 21 24 18 26
REMARK H PARENT 10 19 13 21 4 23 21 25 18 27
REMARK Flexibility Score: inf
ROOT
ATOM      1  C   UNL     1      17.566  35.367  38.698  1.00  0.00     0.184 A 
ATOM      2  C   UNL     1      18.502  35.079  39.702  1.00  0.00     0.208 A 
ATOM      3  C   UNL     1      19.816  34.747  39.332  1.00  0.00     0.238 A 
ATOM      4  O   UNL     1      20.635  34.429  40.234  1.00  0.00    -0.285 OA
ATOM      5  C   UNL     1      20.181  34.738  37.964  1.00  0.00     0.111 A 
ATOM      6  C   UNL     1      21.492  34.456  37.477  1.00  0.00     0.134 A 
ATOM      7  C   UNL     1      21.710  34.355  36.097  1.00  0.00     0.093 A 
ATOM      8  C   UNL     1      20.677  34.590  35.187  1.00  0.00     0.123 A 
ATOM      9  C   UNL     1      19.407  34.923  35.650  1.00  0.00     0.094 A 
ATOM     10  C   UNL     1      19.150  34.995  37.023  1.00  0.00     0.146 A 
ATOM     11  O   UNL     1      17.922  35.302  37.421  1.00  0.00    -0.451 OA
ENDROOT
BRANCH   1  12
ATOM     12  C   UNL     1      16.176  35.745  39.029  1.00  0.00     0.063 A 
ATOM     13  C   UNL     1      13.967  35.087  39.813  1.00  0.00     0.047 A 
ATOM     14  C   UNL     1      15.270  34.750  39.442  1.00  0.00     0.020 A 
ATOM     15  C   UNL     1      13.551  36.423  39.786  1.00  0.00     0.119 A 
ATOM     16  C   UNL     1      14.444  37.420  39.381  1.00  0.00     0.093 A 
ATOM     17  C   UNL     1      15.750  37.094  38.995  1.00  0.00     0.130 A 
BRANCH  15  18
ATOM     18  O   UNL     1      12.255  36.771  40.161  1.00  0.00    -0.508 OA
ATOM     19  H   UNL     1      12.079  37.456  40.886  1.00  0.00     0.293 HD
ENDBRANCH  15  18
BRANCH  17  20
ATOM     20  O   UNL     1      16.587  38.125  38.565  1.00  0.00    -0.507 OA
ATOM     21  H   UNL     1      17.439  37.964  38.044  1.00  0.00     0.293 HD
ENDBRANCH  17  20
ENDBRANCH   1  12
BRANCH   2  22
ATOM     22  O   UNL     1      18.115  35.098  41.045  1.00  0.00    -0.502 OA
ATOM     23  H   UNL     1      17.232  35.490  41.349  1.00  0.00     0.293 HD
ENDBRANCH   2  22
BRANCH   6  24
ATOM     24  O   UNL     1      22.613  34.294  38.298  1.00  0.00    -0.507 OA
ATOM     25  H   UNL     1      22.611  33.816  39.186  1.00  0.00     0.293 HD
ENDBRANCH   6  24
BRANCH   8  26
ATOM     26  O   UNL     1      20.906  34.504  33.815  1.00  0.00    -0.508 OA
ATOM     27  H   UNL     1      21.177  33.631  33.376  1.00  0.00     0.293 HD
ENDBRANCH   8  26
TORSDOF 6
ENDMDL
MODEL 5
REMARK VINA RESULT:    -3.490      3.335      4.658
REMARK INTER + INTRA:          -4.574
REMARK INTER:                  -4.186
REMARK INTRA:                  -0.388
REMARK UNBOUND:                -0.370
REMARK SMILES O=c1c(O)c(-c2ccc(O)cc2O)oc2cc(O)cc(O)c12
REMARK SMILES IDX 5 1 3 2 2 3 1 4 22 5 20 6 19 7 17 8 16 9 15 10 14 11 6 12
REMARK SMILES IDX 8 13 7 14 9 15 11 16 12 17 10 18 13 20 4 22 21 24 18 26
REMARK H PARENT 10 19 13 21 4 23 21 25 18 27
REMARK Flexibility Score: inf
ROOT
ATOM      1  C   UNL     1      21.174  34.041  42.195  1.00  0.00     0.184 A 
ATOM      2  C   UNL     1      20.939  34.187  40.820  1.00  0.00     0.208 A 
ATOM      3  C   UNL     1      21.955  33.838  39.916  1.00  0.00     0.238 A 
ATOM      4  O   UNL     1      21.761  34.030  38.686  1.00  0.00    -0.285 OA
ATOM      5  C   UNL     1      23.181  33.320  40.400  1.00  0.00     0.111 A 
ATOM      6  C   UNL     1      24.264  32.896  39.573  1.00  0.00     0.134 A 
ATOM      7  C   UNL     1      25.476  32.515  40.164  1.00  0.00     0.093 A 
ATOM      8  C   UNL     1      25.619  32.480  41.553  1.00  0.00     0.123 A 
ATOM      9  C   UNL     1      24.549  32.836  42.369  1.00  0.00     0.094 A 
ATOM     10  C   UNL     1      23.340  33.257  41.808  1.00  0.00     0.146 A 
ATOM     11  O   UNL     1      22.350  33.600  42.624  1.00  0.00    -0.451 OA
ENDROOT
BRANCH   1  12
ATOM     12  C   UNL     1      20.133  34.370  43.192  1.00  0.00     0.063 A 
ATOM     13  C   UNL     1      18.012  33.820  44.251  1.00  0.00     0.047 A 
ATOM     14  C   UNL     1      18.984  33.564  43.282  1.00  0.00     0.020 A 
ATOM     15  C   UNL     1      18.177  34.879  45.150  1.00  0.00     0.119 A 
ATOM     16  C   UNL     1      19.316  35.686  45.071  1.00  0.00     0.093 A 
ATOM     17  C   UNL     1      20.293  35.447  44.097  1.00  0.00     0.130 A 
BRANCH  15  18
ATOM     18  O   UNL     1      17.216  35.139  46.125  1.00  0.00    -0.508 OA
ATOM     19  H   UNL     1      17.420  35.034  47.111  1.00  0.00     0.293 HD
ENDBRANCH  15  18
BRANCH  17  20
ATOM     20  O   UNL     1      21.392  36.306  44.041  1.00  0.00    -0.507 OA
ATOM     21  H   UNL     1      22.302  36.064  44.411  1.00  0.00     0.293 HD
ENDBRANCH  17  20
ENDBRANCH   1  12
BRANCH   2  22
ATOM     22  O   UNL     1      19.718  34.698  40.371  1.00  0.00    -0.502 OA
ATOM     23  H   UNL     1      18.835  34.240  40.561  1.00  0.00     0.293 HD
ENDBRANCH   2  22
BRANCH   6  24
ATOM     24  O   UNL     1      24.195  32.807  38.179  1.00  0.00    -0.507 OA
ATOM     25  H   UNL     1      23.883  33.546  37.570  1.00  0.00     0.293 HD
ENDBRANCH   6  24
BRANCH   8  26
ATOM     26  O   UNL     1      26.823  32.083  42.133  1.00  0.00    -0.508 OA
ATOM     27  H   UNL     1      27.386  31.342  41.731  1.00  0.00     0.293 HD
ENDBRANCH   8  26
TORSDOF 6
ENDMDL
MODEL 6
REMARK VINA RESULT:    -3.433      4.299      6.245
REMARK INTER + INTRA:          -4.506
REMARK INTER:                  -4.208
REMARK INTRA:                  -0.298
REMARK UNBOUND:                -0.370
REMARK SMILES O=c1c(O)c(-c2ccc(O)cc2O)oc2cc(O)cc(O)c12
REMARK SMILES IDX 5 1 3 2 2 3 1 4 22 5 20 6 19 7 17 8 16 9 15 10 14 11 6 12
REMARK SMILES IDX 8 13 7 14 9 15 11 16 12 17 10 18 13 20 4 22 21 24 18 26
REMARK H PARENT 10 19 13 21 4 23 21 25 18 27
REMARK Flexibility Score: inf
ROOT
ATOM      1  C   UNL     1      17.606  35.426  38.820  1.00  0.00     0.184 A 
ATOM      2  C   UNL     1      17.930  35.305  37.460  1.00  0.00     0.208 A 
ATOM      3  C   UNL     1      19.206  34.840  37.103  1.00  0.00     0.238 A 
ATOM      4  O   UNL     1      19.512  34.793  35.883  1.00  0.00    -0.285 OA
ATOM      5  C   UNL     1      20.129  34.474  38.113  1.00  0.00     0.111 A 
ATOM      6  C   UNL     1      21.435  33.952  37.866  1.00  0.00     0.134 A 
ATOM      7  C   UNL     1      22.308  33.739  38.941  1.00  0.00     0.093 A 
ATOM      8  C   UNL     1      21.898  33.967  40.256  1.00  0.00     0.123 A 
ATOM      9  C   UNL     1      20.607  34.421  40.512  1.00  0.00     0.094 A 
ATOM     10  C   UNL     1      19.725  34.678  39.458  1.00  0.00     0.146 A 
ATOM     11  O   UNL     1      18.508  35.123  39.745  1.00  0.00    -0.451 OA
ENDROOT
BRANCH   1  12
ATOM     12  C   UNL     1      16.271  35.888  39.254  1.00  0.00     0.063 A 
ATOM     13  C   UNL     1      14.193  35.438  40.440  1.00  0.00     0.047 A 
ATOM     14  C   UNL     1      15.436  35.010  39.970  1.00  0.00     0.020 A 
ATOM     15  C   UNL     1      13.769  36.752  40.210  1.00  0.00     0.119 A 
ATOM     16  C   UNL     1      14.591  37.633  39.502  1.00  0.00     0.093 A 
ATOM     17  C   UNL     1      15.836  37.213  39.016  1.00  0.00     0.130 A 
BRANCH  15  18
ATOM     18  O   UNL     1      12.533  37.191  40.680  1.00  0.00    -0.508 OA
ATOM     19  H   UNL     1      11.980  37.866  40.166  1.00  0.00     0.293 HD
ENDBRANCH  15  18
BRANCH  17  20
ATOM     20  O   UNL     1      16.599  38.124  38.285  1.00  0.00    -0.507 OA
ATOM     21  H   UNL     1      17.400  37.854  37.729  1.00  0.00     0.293 HD
ENDBRANCH  17  20
ENDBRANCH   1  12
BRANCH   2  22
ATOM     22  O   UNL     1      16.997  35.672  36.486  1.00  0.00    -0.502 OA
ATOM     23  H   UNL     1      17.152  36.446  35.851  1.00  0.00     0.293 HD
ENDBRANCH   2  22
BRANCH   6  24
ATOM     24  O   UNL     1      21.911  33.604  36.598  1.00  0.00    -0.507 OA
ATOM     25  H   UNL     1      22.784  33.134  36.420  1.00  0.00     0.293 HD
ENDBRANCH   6  24
BRANCH   8  26
ATOM     26  O   UNL     1      22.768  33.737  41.321  1.00  0.00    -0.508 OA
ATOM     27  H   UNL     1      23.561  34.342  41.498  1.00  0.00     0.293 HD
ENDBRANCH   8  26
TORSDOF 6
ENDMDL
MODEL 7
REMARK VINA RESULT:    -3.410      4.204      8.051
REMARK INTER + INTRA:          -4.478
REMARK INTER:                  -4.157
REMARK INTRA:                  -0.321
REMARK UNBOUND:                -0.370
REMARK SMILES O=c1c(O)c(-c2ccc(O)cc2O)oc2cc(O)cc(O)c12
REMARK SMILES IDX 5 1 3 2 2 3 1 4 22 5 20 6 19 7 17 8 16 9 15 10 14 11 6 12
REMARK SMILES IDX 8 13 7 14 9 15 11 16 12 17 10 18 13 20 4 22 21 24 18 26
REMARK H PARENT 10 19 13 21 4 23 21 25 18 27
REMARK Flexibility Score: inf
ROOT
ATOM      1  C   UNL     1      18.934  34.502  39.693  1.00  0.00     0.184 A 
ATOM      2  C   UNL     1      18.352  34.351  40.960  1.00  0.00     0.208 A 
ATOM      3  C   UNL     1      17.121  34.973  41.222  1.00  0.00     0.238 A 
ATOM      4  O   UNL     1      16.635  34.886  42.380  1.00  0.00    -0.285 OA
ATOM      5  C   UNL     1      16.475  35.713  40.202  1.00  0.00     0.111 A 
ATOM      6  C   UNL     1      15.206  36.352  40.343  1.00  0.00     0.134 A 
ATOM      7  C   UNL     1      14.720  37.159  39.307  1.00  0.00     0.093 A 
ATOM      8  C   UNL     1      15.427  37.296  38.110  1.00  0.00     0.123 A 
ATOM      9  C   UNL     1      16.638  36.631  37.939  1.00  0.00     0.094 A 
ATOM     10  C   UNL     1      17.167  35.848  38.970  1.00  0.00     0.146 A 
ATOM     11  O   UNL     1      18.331  35.242  38.770  1.00  0.00    -0.451 OA
ENDROOT
BRANCH   1  12
ATOM     12  C   UNL     1      20.216  33.851  39.353  1.00  0.00     0.063 A 
ATOM     13  C   UNL     1      21.444  32.241  38.001  1.00  0.00     0.047 A 
ATOM     14  C   UNL     1      20.238  32.834  38.380  1.00  0.00     0.020 A 
ATOM     15  C   UNL     1      22.647  32.659  38.580  1.00  0.00     0.119 A 
ATOM     16  C   UNL     1      22.637  33.670  39.545  1.00  0.00     0.093 A 
ATOM     17  C   UNL     1      21.433  34.266  39.943  1.00  0.00     0.130 A 
BRANCH  15  18
ATOM     18  O   UNL     1      23.856  32.078  38.204  1.00  0.00    -0.508 OA
ATOM     19  H   UNL     1      23.937  31.521  37.362  1.00  0.00     0.293 HD
ENDBRANCH  15  18
BRANCH  17  20
ATOM     20  O   UNL     1      21.480  35.245  40.937  1.00  0.00    -0.507 OA
ATOM     21  H   UNL     1      21.638  36.225  40.741  1.00  0.00     0.293 HD
ENDBRANCH  17  20
ENDBRANCH   1  12
BRANCH   2  22
ATOM     22  O   UNL     1      19.011  33.613  41.947  1.00  0.00    -0.502 OA
ATOM     23  H   UNL     1      19.999  33.393  41.892  1.00  0.00     0.293 HD
ENDBRANCH   2  22
BRANCH   6  24
ATOM     24  O   UNL     1      14.379  36.206  41.461  1.00  0.00    -0.507 OA
ATOM     25  H   UNL     1      13.567  35.610  41.502  1.00  0.00     0.293 HD
ENDBRANCH   6  24
BRANCH   8  26
ATOM     26  O   UNL     1      14.928  38.088  37.077  1.00  0.00    -0.508 OA
ATOM     27  H   UNL     1      15.353  38.090  36.157  1.00  0.00     0.293 HD
ENDBRANCH   8  26
TORSDOF 6
ENDMDL
MODEL 8
REMARK VINA RESULT:    -3.397      3.648      7.519
REMARK INTER + INTRA:          -4.462
REMARK INTER:                  -4.111
REMARK INTRA:                  -0.351
REMARK UNBOUND:                -0.370
REMARK SMILES O=c1c(O)c(-c2ccc(O)cc2O)oc2cc(O)cc(O)c12
REMARK SMILES IDX 5 1 3 2 2 3 1 4 22 5 20 6 19 7 17 8 16 9 15 10 14 11 6 12
REMARK SMILES IDX 8 13 7 14 9 15 11 16 12 17 10 18 13 20 4 22 21 24 18 26
REMARK H PARENT 10 19 13 21 4 23 21 25 18 27
REMARK Flexibility Score: inf
ROOT
ATOM      1  C   UNL     1      21.553  33.772  40.841  1.00  0.00     0.184 A 
ATOM      2  C   UNL     1      22.436  33.638  39.760  1.00  0.00     0.208 A 
ATOM      3  C   UNL     1      21.984  33.958  38.469  1.00  0.00     0.238 A 
ATOM      4  O   UNL     1      22.761  33.776  37.495  1.00  0.00    -0.285 OA
ATOM      5  C   UNL     1      20.664  34.435  38.284  1.00  0.00     0.111 A 
ATOM      6  C   UNL     1      20.113  34.828  37.027  1.00  0.00     0.134 A 
ATOM      7  C   UNL     1      18.757  35.169  36.943  1.00  0.00     0.093 A 
ATOM      8  C   UNL     1      17.950  35.195  38.083  1.00  0.00     0.123 A 
ATOM      9  C   UNL     1      18.492  34.870  39.323  1.00  0.00     0.094 A 
ATOM     10  C   UNL     1      19.833  34.489  39.433  1.00  0.00     0.146 A 
ATOM     11  O   UNL     1      20.305  34.174  40.632  1.00  0.00    -0.451 OA
ENDROOT
BRANCH   1  12
ATOM     12  C   UNL     1      21.980  33.472  42.224  1.00  0.00     0.063 A 
ATOM     13  C   UNL     1      22.724  31.839  43.868  1.00  0.00     0.047 A 
ATOM     14  C   UNL     1      22.266  32.142  42.585  1.00  0.00     0.020 A 
ATOM     15  C   UNL     1      22.911  32.858  44.808  1.00  0.00     0.119 A 
ATOM     16  C   UNL     1      22.633  34.183  44.460  1.00  0.00     0.093 A 
ATOM     17  C   UNL     1      22.162  34.500  43.179  1.00  0.00     0.130 A 
BRANCH  15  18
ATOM     18  O   UNL     1      23.374  32.567  46.089  1.00  0.00    -0.508 OA
ATOM     19  H   UNL     1      23.935  33.227  46.614  1.00  0.00     0.293 HD
ENDBRANCH  15  18
BRANCH  17  20
ATOM     20  O   UNL     1      21.866  35.835  42.898  1.00  0.00    -0.507 OA
ATOM     21  H   UNL     1      21.512  36.145  42.002  1.00  0.00     0.293 HD
ENDBRANCH  17  20
ENDBRANCH   1  12
BRANCH   2  22
ATOM     22  O   UNL     1      23.734  33.166  39.973  1.00  0.00    -0.502 OA
ATOM     23  H   UNL     1      24.075  32.912  40.892  1.00  0.00     0.293 HD
ENDBRANCH   2  22
BRANCH   6  24
ATOM     24  O   UNL     1      20.854  34.924  35.845  1.00  0.00    -0.507 OA
ATOM     25  H   UNL     1      21.187  35.787  35.443  1.00  0.00     0.293 HD
ENDBRANCH   6  24
BRANCH   8  26
ATOM     26  O   UNL     1      16.606  35.552  37.993  1.00  0.00    -0.508 OA
ATOM     27  H   UNL     1      15.869  34.856  38.022  1.00  0.00     0.293 HD
ENDBRANCH   8  26
TORSDOF 6
ENDMDL
MODEL 9
REMARK VINA RESULT:    -3.391      1.901      1.968
REMARK INTER + INTRA:          -4.455
REMARK INTER:                  -4.058
REMARK INTRA:                  -0.397
REMARK UNBOUND:                -0.370
REMARK SMILES O=c1c(O)c(-c2ccc(O)cc2O)oc2cc(O)cc(O)c12
REMARK SMILES IDX 5 1 3 2 2 3 1 4 22 5 20 6 19 7 17 8 16 9 15 10 14 11 6 12
REMARK SMILES IDX 8 13 7 14 9 15 11 16 12 17 10 18 13 20 4 22 21 24 18 26
REMARK H PARENT 10 19 13 21 4 23 21 25 18 27
REMARK Flexibility Score: inf
ROOT
ATOM      1  C   UNL     1      20.492  33.789  42.858  1.00  0.00     0.184 A 
ATOM      2  C   UNL     1      20.440  34.848  43.776  1.00  0.00     0.208 A 
ATOM      3  C   UNL     1      21.544  35.077  44.612  1.00  0.00     0.238 A 
ATOM      4  O   UNL     1      21.468  35.990  45.477  1.00  0.00    -0.285 OA
ATOM      5  C   UNL     1      22.696  34.262  44.497  1.00  0.00     0.111 A 
ATOM      6  C   UNL     1      23.888  34.429  45.264  1.00  0.00     0.134 A 
ATOM      7  C   UNL     1      24.919  33.488  45.152  1.00  0.00     0.093 A 
ATOM      8  C   UNL     1      24.828  32.424  44.252  1.00  0.00     0.123 A 
ATOM      9  C   UNL     1      23.694  32.285  43.456  1.00  0.00     0.094 A 
ATOM     10  C   UNL     1      22.632  33.187  43.573  1.00  0.00     0.146 A 
ATOM     11  O   UNL     1      21.564  33.009  42.805  1.00  0.00    -0.451 OA
ENDROOT
BRANCH   1  12
ATOM     12  C   UNL     1      19.369  33.515  41.936  1.00  0.00     0.063 A 
ATOM     13  C   UNL     1      17.219  32.449  41.529  1.00  0.00     0.047 A 
ATOM     14  C   UNL     1      18.318  32.680  42.358  1.00  0.00     0.020 A 
ATOM     15  C   UNL     1      17.148  33.055  40.270  1.00  0.00     0.119 A 
ATOM     16  C   UNL     1      18.185  33.888  39.841  1.00  0.00     0.093 A 
ATOM     17  C   UNL     1      19.299  34.120  40.659  1.00  0.00     0.130 A 
BRANCH  15  18
ATOM     18  O   UNL     1      16.053  32.835  39.437  1.00  0.00    -0.508 OA
ATOM     19  H   UNL     1      16.166  32.670  38.445  1.00  0.00     0.293 HD
ENDBRANCH  15  18
BRANCH  17  20
ATOM     20  O   UNL     1      20.321  34.932  40.165  1.00  0.00    -0.507 OA
ATOM     21  H   UNL     1      21.140  34.566  39.696  1.00  0.00     0.293 HD
ENDBRANCH  17  20
ENDBRANCH   1  12
BRANCH   2  22
ATOM     22  O   UNL     1      19.291  35.639  43.866  1.00  0.00    -0.502 OA
ATOM     23  H   UNL     1      19.317  36.647  43.771  1.00  0.00     0.293 HD
ENDBRANCH   2  22
BRANCH   6  24
ATOM     24  O   UNL     1      24.119  35.507  46.125  1.00  0.00    -0.507 OA
ATOM     25  H   UNL     1      24.684  36.311  45.902  1.00  0.00     0.293 HD
ENDBRANCH   6  24
BRANCH   8  26
ATOM     26  O   UNL     1      25.866  31.501  44.135  1.00  0.00    -0.508 OA
ATOM     27  H   UNL     1      26.680  31.689  43.561  1.00  0.00     0.293 HD
ENDBRANCH   8  26
TORSDOF 6
ENDMDL
