MODEL 1
REMARK VINA RESULT:     9.592      0.000      0.000
REMARK INTER + INTRA:          20.342
REMARK INTER:                  21.928
REMARK INTRA:                  -1.586
REMARK UNBOUND:                -1.586
REMARK SMILES CCCCCCCCCCCCCCCCCCCCCCCC(=O)[O-]
REMARK SMILES IDX 13 1 14 2 15 3 16 4 17 5 18 6 19 7 20 8 21 9 22 10 23 11
REMARK SMILES IDX 24 12 25 13 26 14 12 15 11 16 10 17 9 18 8 19 7 20 6 21 5 22
REMARK SMILES IDX 4 23 3 24 2 25 1 26
REMARK H PARENT
REMARK Flexibility Score: inf
ROOT
ATOM      1  C   UNL     1      15.308   9.443  23.056  1.00  0.00     0.000 C 
ENDROOT
BRANCH   1   2
ATOM      2  C   UNL     1      14.357   8.300  22.664  1.00  0.00     0.000 C 
BRANCH   2   3
ATOM      3  C   UNL     1      13.995   7.383  23.846  1.00  0.00     0.000 C 
BRANCH   3   4
ATOM      4  C   UNL     1      13.022   6.233  23.523  1.00  0.00     0.000 C 
BRANCH   4   5
ATOM      5  C   UNL     1      13.720   4.998  22.931  1.00  0.00     0.000 C 
BRANCH   5   6
ATOM      6  C   UNL     1      12.910   3.704  23.125  1.00  0.00     0.000 C 
BRANCH   6   7
ATOM      7  C   UNL     1      13.551   2.715  24.123  1.00  0.00     0.000 C 
BRANCH   7   8
ATOM      8  C   UNL     1      14.643   3.380  24.979  1.00  0.00     0.000 C 
BRANCH   8   9
ATOM      9  C   UNL     1      15.814   2.434  25.285  1.00  0.00     0.000 C 
BRANCH   9  10
ATOM     10  C   UNL     1      17.126   3.190  25.565  1.00  0.00     0.006 C 
BRANCH  10  11
ATOM     11  C   UNL     1      18.349   2.449  25.010  1.00  0.00     0.053 C 
BRANCH  11  12
ATOM     12  C   UNL     1      19.111   1.744  26.090  1.00  0.00     0.041 C 
ATOM     13  O   UNL     1      18.788   1.898  27.297  1.00  0.00    -0.550 OA
ATOM     14  O   UNL     1      20.163   0.898  25.761  1.00  0.00    -0.550 OA
ENDBRANCH  11  12
ENDBRANCH  10  11
ENDBRANCH   9  10
ENDBRANCH   8   9
ENDBRANCH   7   8
ENDBRANCH   6   7
ENDBRANCH   5   6
ENDBRANCH   4   5
ENDBRANCH   3   4
ENDBRANCH   2   3
ENDBRANCH   1   2
BRANCH   1  15
ATOM     15  C   UNL     1      14.555  10.711  23.501  1.00  0.00     0.000 C 
BRANCH  15  16
ATOM     16  C   UNL     1      13.164  10.889  22.865  1.00  0.00     0.000 C 
BRANCH  16  17
ATOM     17  C   UNL     1      12.817  12.362  22.595  1.00  0.00     0.000 C 
BRANCH  17  18
ATOM     18  C   UNL     1      11.328  12.526  22.271  1.00  0.00    -0.000 C 
BRANCH  18  19
ATOM     19  C   UNL     1      11.114  13.588  21.184  1.00  0.00    -0.000 C 
BRANCH  19  20
ATOM     20  C   UNL     1      12.389  14.410  20.959  1.00  0.00    -0.000 C 
BRANCH  20  21
ATOM     21  C   UNL     1      12.054  15.879  20.672  1.00  0.00    -0.000 C 
BRANCH  21  22
ATOM     22  C   UNL     1      10.876  16.354  21.535  1.00  0.00    -0.000 C 
BRANCH  22  23
ATOM     23  C   UNL     1      11.096  17.763  22.109  1.00  0.00    -0.000 C 
BRANCH  23  24
ATOM     24  C   UNL     1      11.421  17.745  23.612  1.00  0.00    -0.000 C 
BRANCH  24  25
ATOM     25  C   UNL     1      11.045  16.415  24.281  1.00  0.00    -0.003 C 
ATOM     26  C   UNL     1      12.052  15.987  25.349  1.00  0.00     0.004 C 
ENDBRANCH  24  25
ENDBRANCH  23  24
ENDBRANCH  22  23
ENDBRANCH  21  22
ENDBRANCH  20  21
ENDBRANCH  19  20
ENDBRANCH  18  19
ENDBRANCH  17  18
ENDBRANCH  16  17
ENDBRANCH  15  16
ENDBRANCH   1  15
TORSDOF 22
ENDMDL
MODEL 2
REMARK VINA RESULT:    10.334      2.554      6.297
REMARK INTER + INTRA:          22.038
REMARK INTER:                  23.665
REMARK INTRA:                  -1.627
REMARK UNBOUND:                -1.586
REMARK SMILES CCCCCCCCCCCCCCCCCCCCCCCC(=O)[O-]
REMARK SMILES IDX 13 1 14 2 15 3 16 4 17 5 18 6 19 7 20 8 21 9 22 10 23 11
REMARK SMILES IDX 24 12 25 13 26 14 12 15 11 16 10 17 9 18 8 19 7 20 6 21 5 22
REMARK SMILES IDX 4 23 3 24 2 25 1 26
REMARK H PARENT
REMARK Flexibility Score: inf
ROOT
ATOM      1  C   UNL     1      14.269   2.367  25.407  1.00  0.00     0.000 C 
ENDROOT
BRANCH   1   2
ATOM      2  C   UNL     1      15.061   3.555  25.977  1.00  0.00     0.000 C 
BRANCH   2   3
ATOM      3  C   UNL     1      16.577   3.297  26.040  1.00  0.00     0.000 C 
BRANCH   3   4
ATOM      4  C   UNL     1      17.212   2.741  24.752  1.00  0.00     0.000 C 
BRANCH   4   5
ATOM      5  C   UNL     1      17.811   1.336  24.929  1.00  0.00     0.000 C 
BRANCH   5   6
ATOM      6  C   UNL     1      19.348   1.328  24.858  1.00  0.00     0.000 C 
BRANCH   6   7
ATOM      7  C   UNL     1      20.028   0.900  26.176  1.00  0.00     0.000 C 
BRANCH   7   8
ATOM      8  C   UNL     1      19.165   1.227  27.407  1.00  0.00     0.000 C 
BRANCH   8   9
ATOM      9  C   UNL     1      19.857   0.863  28.729  1.00  0.00     0.000 C 
BRANCH   9  10
ATOM     10  C   UNL     1      19.898   2.041  29.719  1.00  0.00     0.006 C 
BRANCH  10  11
ATOM     11  C   UNL     1      18.878   3.131  29.365  1.00  0.00     0.053 C 
BRANCH  11  12
ATOM     12  C   UNL     1      18.457   3.914  30.571  1.00  0.00     0.041 C 
ATOM     13  O   UNL     1      19.203   3.969  31.582  1.00  0.00    -0.550 OA
ATOM     14  O   UNL     1      17.250   4.603  30.566  1.00  0.00    -0.550 OA
ENDBRANCH  11  12
ENDBRANCH  10  11
ENDBRANCH   9  10
ENDBRANCH   8   9
ENDBRANCH   7   8
ENDBRANCH   6   7
ENDBRANCH   5   6
ENDBRANCH   4   5
ENDBRANCH   3   4
ENDBRANCH   2   3
ENDBRANCH   1   2
BRANCH   1  15
ATOM     15  C   UNL     1      13.226   2.799  24.361  1.00  0.00     0.000 C 
BRANCH  15  16
ATOM     16  C   UNL     1      13.809   3.510  23.126  1.00  0.00     0.000 C 
BRANCH  16  17
ATOM     17  C   UNL     1      12.981   4.730  22.694  1.00  0.00     0.000 C 
BRANCH  17  18
ATOM     18  C   UNL     1      13.349   5.967  23.520  1.00  0.00    -0.000 C 
BRANCH  18  19
ATOM     19  C   UNL     1      13.756   7.135  22.612  1.00  0.00    -0.000 C 
BRANCH  19  20
ATOM     20  C   UNL     1      14.186   8.353  23.439  1.00  0.00    -0.000 C 
BRANCH  20  21
ATOM     21  C   UNL     1      14.588   9.522  22.531  1.00  0.00    -0.000 C 
BRANCH  21  22
ATOM     22  C   UNL     1      14.527  10.855  23.291  1.00  0.00    -0.000 C 
BRANCH  22  23
ATOM     23  C   UNL     1      13.543  11.851  22.655  1.00  0.00    -0.000 C 
BRANCH  23  24
ATOM     24  C   UNL     1      12.268  11.170  22.132  1.00  0.00    -0.000 C 
BRANCH  24  25
ATOM     25  C   UNL     1      11.138  12.172  21.848  1.00  0.00    -0.003 C 
ATOM     26  C   UNL     1      11.265  13.453  22.672  1.00  0.00     0.004 C 
ENDBRANCH  24  25
ENDBRANCH  23  24
ENDBRANCH  22  23
ENDBRANCH  21  22
ENDBRANCH  20  21
ENDBRANCH  19  20
ENDBRANCH  18  19
ENDBRANCH  17  18
ENDBRANCH  16  17
ENDBRANCH  15  16
ENDBRANCH   1  15
TORSDOF 22
ENDMDL
MODEL 3
REMARK VINA RESULT:    10.515      1.270      2.203
REMARK INTER + INTRA:          22.453
REMARK INTER:                  22.474
REMARK INTRA:                  -0.021
REMARK UNBOUND:                -1.586
REMARK SMILES CCCCCCCCCCCCCCCCCCCCCCCC(=O)[O-]
REMARK SMILES IDX 13 1 14 2 15 3 16 4 17 5 18 6 19 7 20 8 21 9 22 10 23 11
REMARK SMILES IDX 24 12 25 13 26 14 12 15 11 16 10 17 9 18 8 19 7 20 6 21 5 22
REMARK SMILES IDX 4 23 3 24 2 25 1 26
REMARK H PARENT
REMARK Flexibility Score: inf
ROOT
ATOM      1  C   UNL     1      14.206   8.118  23.224  1.00  0.00     0.000 C 
ENDROOT
BRANCH   1   2
ATOM      2  C   UNL     1      14.143   6.831  22.384  1.00  0.00     0.000 C 
BRANCH   2   3
ATOM      3  C   UNL     1      12.986   5.900  22.790  1.00  0.00     0.000 C 
BRANCH   3   4
ATOM      4  C   UNL     1      13.198   5.103  24.090  1.00  0.00     0.000 C 
BRANCH   4   5
ATOM      5  C   UNL     1      13.735   3.683  23.849  1.00  0.00     0.000 C 
BRANCH   5   6
ATOM      6  C   UNL     1      14.010   2.918  25.156  1.00  0.00     0.000 C 
BRANCH   6   7
ATOM      7  C   UNL     1      15.139   1.872  25.035  1.00  0.00     0.000 C 
BRANCH   7   8
ATOM      8  C   UNL     1      16.528   2.526  24.925  1.00  0.00     0.000 C 
BRANCH   8   9
ATOM      9  C   UNL     1      17.645   1.645  25.503  1.00  0.00     0.000 C 
BRANCH   9  10
ATOM     10  C   UNL     1      18.685   2.456  26.298  1.00  0.00     0.006 C 
BRANCH  10  11
ATOM     11  C   UNL     1      19.720   1.555  26.984  1.00  0.00     0.053 C 
BRANCH  11  12
ATOM     12  C   UNL     1      20.676   0.954  25.999  1.00  0.00     0.041 C 
ATOM     13  O   UNL     1      20.244   0.398  24.956  1.00  0.00    -0.550 OA
ATOM     14  O   UNL     1      22.045   1.031  26.223  1.00  0.00    -0.550 OA
ENDBRANCH  11  12
ENDBRANCH  10  11
ENDBRANCH   9  10
ENDBRANCH   8   9
ENDBRANCH   7   8
ENDBRANCH   6   7
ENDBRANCH   5   6
ENDBRANCH   4   5
ENDBRANCH   3   4
ENDBRANCH   2   3
ENDBRANCH   1   2
BRANCH   1  15
ATOM     15  C   UNL     1      14.557   9.357  22.380  1.00  0.00     0.000 C 
BRANCH  15  16
ATOM     16  C   UNL     1      14.194  10.704  23.033  1.00  0.00     0.000 C 
BRANCH  16  17
ATOM     17  C   UNL     1      13.147  11.492  22.230  1.00  0.00     0.000 C 
BRANCH  17  18
ATOM     18  C   UNL     1      12.351  12.434  23.140  1.00  0.00    -0.000 C 
BRANCH  18  19
ATOM     19  C   UNL     1      11.055  12.893  22.458  1.00  0.00    -0.000 C 
BRANCH  19  20
ATOM     20  C   UNL     1      11.355  13.664  21.166  1.00  0.00    -0.000 C 
BRANCH  20  21
ATOM     21  C   UNL     1      10.934  15.134  21.292  1.00  0.00    -0.000 C 
BRANCH  21  22
ATOM     22  C   UNL     1      11.046  15.616  22.746  1.00  0.00    -0.000 C 
BRANCH  22  23
ATOM     23  C   UNL     1      10.961  17.146  22.867  1.00  0.00    -0.000 C 
BRANCH  23  24
ATOM     24  C   UNL     1      12.158  17.859  22.218  1.00  0.00    -0.000 C 
BRANCH  24  25
ATOM     25  C   UNL     1      12.135  17.772  20.684  1.00  0.00    -0.003 C 
ATOM     26  C   UNL     1      13.533  17.646  20.079  1.00  0.00     0.004 C 
ENDBRANCH  24  25
ENDBRANCH  23  24
ENDBRANCH  22  23
ENDBRANCH  21  22
ENDBRANCH  20  21
ENDBRANCH  19  20
ENDBRANCH  18  19
ENDBRANCH  17  18
ENDBRANCH  16  17
ENDBRANCH  15  16
ENDBRANCH   1  15
TORSDOF 22
ENDMDL
MODEL 4
REMARK VINA RESULT:    10.814      5.053     11.402
REMARK INTER + INTRA:          23.135
REMARK INTER:                  25.132
REMARK INTRA:                  -1.997
REMARK UNBOUND:                -1.586
REMARK SMILES CCCCCCCCCCCCCCCCCCCCCCCC(=O)[O-]
REMARK SMILES IDX 13 1 14 2 15 3 16 4 17 5 18 6 19 7 20 8 21 9 22 10 23 11
REMARK SMILES IDX 24 12 25 13 26 14 12 15 11 16 10 17 9 18 8 19 7 20 6 21 5 22
REMARK SMILES IDX 4 23 3 24 2 25 1 26
REMARK H PARENT
REMARK Flexibility Score: inf
ROOT
ATOM      1  C   UNL     1      16.767   3.240  25.992  1.00  0.00     0.000 C 
ENDROOT
BRANCH   1   2
ATOM      2  C   UNL     1      15.263   3.551  26.063  1.00  0.00     0.000 C 
BRANCH   2   3
ATOM      3  C   UNL     1      14.378   2.314  25.825  1.00  0.00     0.000 C 
BRANCH   3   4
ATOM      4  C   UNL     1      13.300   2.466  24.735  1.00  0.00     0.000 C 
BRANCH   4   5
ATOM      5  C   UNL     1      13.862   2.957  23.391  1.00  0.00     0.000 C 
BRANCH   5   6
ATOM      6  C   UNL     1      13.029   4.095  22.775  1.00  0.00     0.000 C 
BRANCH   6   7
ATOM      7  C   UNL     1      13.138   5.429  23.545  1.00  0.00     0.000 C 
BRANCH   7   8
ATOM      8  C   UNL     1      13.411   6.619  22.608  1.00  0.00     0.000 C 
BRANCH   8   9
ATOM      9  C   UNL     1      13.974   7.840  23.351  1.00  0.00     0.000 C 
BRANCH   9  10
ATOM     10  C   UNL     1      14.741   8.796  22.419  1.00  0.00     0.006 C 
BRANCH  10  11
ATOM     11  C   UNL     1      15.724   9.688  23.188  1.00  0.00     0.053 C 
BRANCH  11  12
ATOM     12  C   UNL     1      15.285  11.121  23.200  1.00  0.00     0.041 C 
ATOM     13  O   UNL     1      16.140  12.045  23.207  1.00  0.00    -0.550 OA
ATOM     14  O   UNL     1      13.932  11.434  23.179  1.00  0.00    -0.550 OA
ENDBRANCH  11  12
ENDBRANCH  10  11
ENDBRANCH   9  10
ENDBRANCH   8   9
ENDBRANCH   7   8
ENDBRANCH   6   7
ENDBRANCH   5   6
ENDBRANCH   4   5
ENDBRANCH   3   4
ENDBRANCH   2   3
ENDBRANCH   1   2
BRANCH   1  15
ATOM     15  C   UNL     1      17.137   2.385  24.766  1.00  0.00     0.000 C 
BRANCH  15  16
ATOM     16  C   UNL     1      18.186   1.291  25.038  1.00  0.00     0.000 C 
BRANCH  16  17
ATOM     17  C   UNL     1      19.592   1.862  25.285  1.00  0.00     0.000 C 
BRANCH  17  18
ATOM     18  C   UNL     1      20.321   1.074  26.379  1.00  0.00    -0.000 C 
BRANCH  18  19
ATOM     19  C   UNL     1      19.388   0.779  27.561  1.00  0.00    -0.000 C 
BRANCH  19  20
ATOM     20  C   UNL     1      19.089   2.054  28.358  1.00  0.00    -0.000 C 
BRANCH  20  21
ATOM     21  C   UNL     1      19.904   2.095  29.658  1.00  0.00    -0.000 C 
BRANCH  21  22
ATOM     22  C   UNL     1      19.165   2.887  30.746  1.00  0.00    -0.000 C 
BRANCH  22  23
ATOM     23  C   UNL     1      18.760   4.294  30.279  1.00  0.00    -0.000 C 
BRANCH  23  24
ATOM     24  C   UNL     1      17.294   4.626  30.602  1.00  0.00    -0.000 C 
BRANCH  24  25
ATOM     25  C   UNL     1      16.407   4.656  29.348  1.00  0.00    -0.003 C 
ATOM     26  C   UNL     1      15.062   5.342  29.593  1.00  0.00     0.004 C 
ENDBRANCH  24  25
ENDBRANCH  23  24
ENDBRANCH  22  23
ENDBRANCH  21  22
ENDBRANCH  20  21
ENDBRANCH  19  20
ENDBRANCH  18  19
ENDBRANCH  17  18
ENDBRANCH  16  17
ENDBRANCH  15  16
ENDBRANCH   1  15
TORSDOF 22
ENDMDL
MODEL 5
REMARK VINA RESULT:    10.942      4.652     12.202
REMARK INTER + INTRA:          23.429
REMARK INTER:                  25.251
REMARK INTRA:                  -1.822
REMARK UNBOUND:                -1.586
REMARK SMILES CCCCCCCCCCCCCCCCCCCCCCCC(=O)[O-]
REMARK SMILES IDX 13 1 14 2 15 3 16 4 17 5 18 6 19 7 20 8 21 9 22 10 23 11
REMARK SMILES IDX 24 12 25 13 26 14 12 15 11 16 10 17 9 18 8 19 7 20 6 21 5 22
REMARK SMILES IDX 4 23 3 24 2 25 1 26
REMARK H PARENT
REMARK Flexibility Score: inf
ROOT
ATOM      1  C   UNL     1      14.358   2.401  25.337  1.00  0.00     0.000 C 
ENDROOT
BRANCH   1   2
ATOM      2  C   UNL     1      13.314   2.890  24.321  1.00  0.00     0.000 C 
BRANCH   2   3
ATOM      3  C   UNL     1      13.857   3.968  23.367  1.00  0.00     0.000 C 
BRANCH   3   4
ATOM      4  C   UNL     1      12.883   5.114  23.032  1.00  0.00     0.000 C 
BRANCH   4   5
ATOM      5  C   UNL     1      13.436   6.503  23.391  1.00  0.00     0.000 C 
BRANCH   5   6
ATOM      6  C   UNL     1      14.245   7.138  22.247  1.00  0.00     0.000 C 
BRANCH   6   7
ATOM      7  C   UNL     1      13.878   8.612  21.971  1.00  0.00     0.000 C 
BRANCH   7   8
ATOM      8  C   UNL     1      14.903   9.588  22.573  1.00  0.00     0.000 C 
BRANCH   8   9
ATOM      9  C   UNL     1      14.242  10.789  23.266  1.00  0.00     0.000 C 
BRANCH   9  10
ATOM     10  C   UNL     1      12.879  11.150  22.648  1.00  0.00     0.006 C 
BRANCH  10  11
ATOM     11  C   UNL     1      12.558  12.644  22.787  1.00  0.00     0.053 C 
BRANCH  11  12
ATOM     12  C   UNL     1      11.401  13.049  21.926  1.00  0.00     0.041 C 
ATOM     13  O   UNL     1      10.875  12.218  21.140  1.00  0.00    -0.550 OA
ATOM     14  O   UNL     1      10.889  14.337  22.010  1.00  0.00    -0.550 OA
ENDBRANCH  11  12
ENDBRANCH  10  11
ENDBRANCH   9  10
ENDBRANCH   8   9
ENDBRANCH   7   8
ENDBRANCH   6   7
ENDBRANCH   5   6
ENDBRANCH   4   5
ENDBRANCH   3   4
ENDBRANCH   2   3
ENDBRANCH   1   2
BRANCH   1  15
ATOM     15  C   UNL     1      15.106   3.560  26.021  1.00  0.00     0.000 C 
BRANCH  15  16
ATOM     16  C   UNL     1      16.640   3.427  26.015  1.00  0.00     0.000 C 
BRANCH  16  17
ATOM     17  C   UNL     1      17.165   2.626  24.813  1.00  0.00     0.000 C 
BRANCH  17  18
ATOM     18  C   UNL     1      17.896   1.359  25.274  1.00  0.00    -0.000 C 
BRANCH  18  19
ATOM     19  C   UNL     1      19.417   1.565  25.256  1.00  0.00    -0.000 C 
BRANCH  19  20
ATOM     20  C   UNL     1      20.057   1.056  26.554  1.00  0.00    -0.000 C 
BRANCH  20  21
ATOM     21  C   UNL     1      19.006   0.899  27.661  1.00  0.00    -0.000 C 
BRANCH  21  22
ATOM     22  C   UNL     1      19.498   1.519  28.977  1.00  0.00    -0.000 C 
BRANCH  22  23
ATOM     23  C   UNL     1      19.280   3.039  29.031  1.00  0.00    -0.000 C 
BRANCH  23  24
ATOM     24  C   UNL     1      19.357   3.598  30.461  1.00  0.00    -0.000 C 
BRANCH  24  25
ATOM     25  C   UNL     1      17.983   4.015  31.006  1.00  0.00    -0.003 C 
ATOM     26  C   UNL     1      17.033   4.495  29.908  1.00  0.00     0.004 C 
ENDBRANCH  24  25
ENDBRANCH  23  24
ENDBRANCH  22  23
ENDBRANCH  21  22
ENDBRANCH  20  21
ENDBRANCH  19  20
ENDBRANCH  18  19
ENDBRANCH  17  18
ENDBRANCH  16  17
ENDBRANCH  15  16
ENDBRANCH   1  15
TORSDOF 22
ENDMDL
MODEL 6
REMARK VINA RESULT:    11.003      5.010     11.767
REMARK INTER + INTRA:          23.569
REMARK INTER:                  24.992
REMARK INTRA:                  -1.423
REMARK UNBOUND:                -1.586
REMARK SMILES CCCCCCCCCCCCCCCCCCCCCCCC(=O)[O-]
REMARK SMILES IDX 13 1 14 2 15 3 16 4 17 5 18 6 19 7 20 8 21 9 22 10 23 11
REMARK SMILES IDX 24 12 25 13 26 14 12 15 11 16 10 17 9 18 8 19 7 20 6 21 5 22
REMARK SMILES IDX 4 23 3 24 2 25 1 26
REMARK H PARENT
REMARK Flexibility Score: inf
ROOT
ATOM      1  C   UNL     1      16.611   3.213  25.792  1.00  0.00     0.000 C 
ENDROOT
BRANCH   1   2
ATOM      2  C   UNL     1      15.117   3.547  25.934  1.00  0.00     0.000 C 
BRANCH   2   3
ATOM      3  C   UNL     1      14.201   2.336  25.687  1.00  0.00     0.000 C 
BRANCH   3   4
ATOM      4  C   UNL     1      13.263   2.447  24.470  1.00  0.00     0.000 C 
BRANCH   4   5
ATOM      5  C   UNL     1      13.826   3.340  23.352  1.00  0.00     0.000 C 
BRANCH   5   6
ATOM      6  C   UNL     1      12.798   4.360  22.829  1.00  0.00     0.000 C 
BRANCH   6   7
ATOM      7  C   UNL     1      13.352   5.797  22.719  1.00  0.00     0.000 C 
BRANCH   7   8
ATOM      8  C   UNL     1      13.200   6.580  24.036  1.00  0.00     0.000 C 
BRANCH   8   9
ATOM      9  C   UNL     1      14.253   7.687  24.191  1.00  0.00     0.000 C 
BRANCH   9  10
ATOM     10  C   UNL     1      14.350   8.589  22.947  1.00  0.00     0.006 C 
BRANCH  10  11
ATOM     11  C   UNL     1      15.541   9.552  23.021  1.00  0.00     0.053 C 
BRANCH  11  12
ATOM     12  C   UNL     1      15.105  10.984  22.964  1.00  0.00     0.041 C 
ATOM     13  O   UNL     1      15.869  11.896  23.375  1.00  0.00    -0.550 OA
ATOM     14  O   UNL     1      13.864  11.313  22.432  1.00  0.00    -0.550 OA
ENDBRANCH  11  12
ENDBRANCH  10  11
ENDBRANCH   9  10
ENDBRANCH   8   9
ENDBRANCH   7   8
ENDBRANCH   6   7
ENDBRANCH   5   6
ENDBRANCH   4   5
ENDBRANCH   3   4
ENDBRANCH   2   3
ENDBRANCH   1   2
BRANCH   1  15
ATOM     15  C   UNL     1      16.854   1.745  25.399  1.00  0.00     0.000 C 
BRANCH  15  16
ATOM     16  C   UNL     1      18.296   1.426  24.961  1.00  0.00     0.000 C 
BRANCH  16  17
ATOM     17  C   UNL     1      19.193   2.672  24.914  1.00  0.00     0.000 C 
BRANCH  17  18
ATOM     18  C   UNL     1      20.594   2.362  25.455  1.00  0.00    -0.000 C 
BRANCH  18  19
ATOM     19  C   UNL     1      20.856   0.849  25.470  1.00  0.00    -0.000 C 
BRANCH  19  20
ATOM     20  C   UNL     1      20.834   0.300  26.902  1.00  0.00    -0.000 C 
BRANCH  20  21
ATOM     21  C   UNL     1      19.486   0.581  27.578  1.00  0.00    -0.000 C 
BRANCH  21  22
ATOM     22  C   UNL     1      19.687   1.192  28.973  1.00  0.00    -0.000 C 
BRANCH  22  23
ATOM     23  C   UNL     1      19.024   2.572  29.113  1.00  0.00    -0.000 C 
BRANCH  23  24
ATOM     24  C   UNL     1      19.359   3.257  30.448  1.00  0.00    -0.000 C 
BRANCH  24  25
ATOM     25  C   UNL     1      18.605   4.581  30.637  1.00  0.00    -0.003 C 
ATOM     26  C   UNL     1      17.096   4.435  30.436  1.00  0.00     0.004 C 
ENDBRANCH  24  25
ENDBRANCH  23  24
ENDBRANCH  22  23
ENDBRANCH  21  22
ENDBRANCH  20  21
ENDBRANCH  19  20
ENDBRANCH  18  19
ENDBRANCH  17  18
ENDBRANCH  16  17
ENDBRANCH  15  16
ENDBRANCH   1  15
TORSDOF 22
ENDMDL
MODEL 7
REMARK VINA RESULT:    11.007      1.365      2.653
REMARK INTER + INTRA:          23.577
REMARK INTER:                  24.397
REMARK INTRA:                  -0.819
REMARK UNBOUND:                -1.586
REMARK SMILES CCCCCCCCCCCCCCCCCCCCCCCC(=O)[O-]
REMARK SMILES IDX 13 1 14 2 15 3 16 4 17 5 18 6 19 7 20 8 21 9 22 10 23 11
REMARK SMILES IDX 24 12 25 13 26 14 12 15 11 16 10 17 9 18 8 19 7 20 6 21 5 22
REMARK SMILES IDX 4 23 3 24 2 25 1 26
REMARK H PARENT
REMARK Flexibility Score: inf
ROOT
ATOM      1  C   UNL     1      13.819   6.840  23.141  1.00  0.00     0.000 C 
ENDROOT
BRANCH   1   2
ATOM      2  C   UNL     1      13.969   5.557  22.308  1.00  0.00     0.000 C 
BRANCH   2   3
ATOM      3  C   UNL     1      12.982   4.450  22.719  1.00  0.00     0.000 C 
BRANCH   3   4
ATOM      4  C   UNL     1      13.043   4.018  24.196  1.00  0.00     0.000 C 
BRANCH   4   5
ATOM      5  C   UNL     1      13.805   2.700  24.411  1.00  0.00     0.000 C 
BRANCH   5   6
ATOM      6  C   UNL     1      14.903   2.813  25.484  1.00  0.00     0.000 C 
BRANCH   6   7
ATOM      7  C   UNL     1      16.333   2.654  24.926  1.00  0.00     0.000 C 
BRANCH   7   8
ATOM      8  C   UNL     1      17.249   1.877  25.889  1.00  0.00     0.000 C 
BRANCH   8   9
ATOM      9  C   UNL     1      18.710   2.347  25.826  1.00  0.00     0.000 C 
BRANCH   9  10
ATOM     10  C   UNL     1      19.649   1.471  26.675  1.00  0.00     0.006 C 
BRANCH  10  11
ATOM     11  C   UNL     1      19.085   1.209  28.077  1.00  0.00     0.053 C 
BRANCH  11  12
ATOM     12  C   UNL     1      19.792   2.017  29.122  1.00  0.00     0.041 C 
ATOM     13  O   UNL     1      20.895   1.627  29.586  1.00  0.00    -0.550 OA
ATOM     14  O   UNL     1      19.243   3.214  29.565  1.00  0.00    -0.550 OA
ENDBRANCH  11  12
ENDBRANCH  10  11
ENDBRANCH   9  10
ENDBRANCH   8   9
ENDBRANCH   7   8
ENDBRANCH   6   7
ENDBRANCH   5   6
ENDBRANCH   4   5
ENDBRANCH   3   4
ENDBRANCH   2   3
ENDBRANCH   1   2
BRANCH   1  15
ATOM     15  C   UNL     1      13.975   8.116  22.295  1.00  0.00     0.000 C 
BRANCH  15  16
ATOM     16  C   UNL     1      14.490   9.343  23.069  1.00  0.00     0.000 C 
BRANCH  16  17
ATOM     17  C   UNL     1      14.161  10.671  22.369  1.00  0.00     0.000 C 
BRANCH  17  18
ATOM     18  C   UNL     1      13.249  11.542  23.241  1.00  0.00    -0.000 C 
BRANCH  18  19
ATOM     19  C   UNL     1      12.014  12.003  22.456  1.00  0.00    -0.000 C 
BRANCH  19  20
ATOM     20  C   UNL     1      12.222  13.407  21.876  1.00  0.00    -0.000 C 
BRANCH  20  21
ATOM     21  C   UNL     1      10.877  14.084  21.577  1.00  0.00    -0.000 C 
BRANCH  21  22
ATOM     22  C   UNL     1      11.086  15.441  20.887  1.00  0.00    -0.000 C 
BRANCH  22  23
ATOM     23  C   UNL     1      10.875  16.626  21.843  1.00  0.00    -0.000 C 
BRANCH  23  24
ATOM     24  C   UNL     1      11.124  16.251  23.313  1.00  0.00    -0.000 C 
BRANCH  24  25
ATOM     25  C   UNL     1      11.818  17.375  24.098  1.00  0.00    -0.003 C 
ATOM     26  C   UNL     1      12.178  16.962  25.526  1.00  0.00     0.004 C 
ENDBRANCH  24  25
ENDBRANCH  23  24
ENDBRANCH  22  23
ENDBRANCH  21  22
ENDBRANCH  20  21
ENDBRANCH  19  20
ENDBRANCH  18  19
ENDBRANCH  17  18
ENDBRANCH  16  17
ENDBRANCH  15  16
ENDBRANCH   1  15
TORSDOF 22
ENDMDL
MODEL 8
REMARK VINA RESULT:    11.010      1.180      2.121
REMARK INTER + INTRA:          23.583
REMARK INTER:                  24.537
REMARK INTRA:                  -0.954
REMARK UNBOUND:                -1.586
REMARK SMILES CCCCCCCCCCCCCCCCCCCCCCCC(=O)[O-]
REMARK SMILES IDX 13 1 14 2 15 3 16 4 17 5 18 6 19 7 20 8 21 9 22 10 23 11
REMARK SMILES IDX 24 12 25 13 26 14 12 15 11 16 10 17 9 18 8 19 7 20 6 21 5 22
REMARK SMILES IDX 4 23 3 24 2 25 1 26
REMARK H PARENT
REMARK Flexibility Score: inf
ROOT
ATOM      1  C   UNL     1      15.339   9.479  23.392  1.00  0.00     0.000 C 
ENDROOT
BRANCH   1   2
ATOM      2  C   UNL     1      15.016   8.477  22.270  1.00  0.00     0.000 C 
BRANCH   2   3
ATOM      3  C   UNL     1      13.599   7.886  22.376  1.00  0.00     0.000 C 
BRANCH   3   4
ATOM      4  C   UNL     1      13.386   6.870  23.514  1.00  0.00     0.000 C 
BRANCH   4   5
ATOM      5  C   UNL     1      13.991   5.489  23.214  1.00  0.00     0.000 C 
BRANCH   5   6
ATOM      6  C   UNL     1      12.946   4.473  22.720  1.00  0.00     0.000 C 
BRANCH   6   7
ATOM      7  C   UNL     1      13.072   3.083  23.381  1.00  0.00     0.000 C 
BRANCH   7   8
ATOM      8  C   UNL     1      13.683   3.165  24.792  1.00  0.00     0.000 C 
BRANCH   8   9
ATOM      9  C   UNL     1      14.981   2.355  24.922  1.00  0.00     0.000 C 
BRANCH   9  10
ATOM     10  C   UNL     1      15.999   3.018  25.868  1.00  0.00     0.006 C 
BRANCH  10  11
ATOM     11  C   UNL     1      17.401   3.091  25.249  1.00  0.00     0.053 C 
BRANCH  11  12
ATOM     12  C   UNL     1      18.282   1.981  25.733  1.00  0.00     0.041 C 
ATOM     13  O   UNL     1      19.223   2.222  26.535  1.00  0.00    -0.550 OA
ATOM     14  O   UNL     1      18.049   0.675  25.319  1.00  0.00    -0.550 OA
ENDBRANCH  11  12
ENDBRANCH  10  11
ENDBRANCH   9  10
ENDBRANCH   8   9
ENDBRANCH   7   8
ENDBRANCH   6   7
ENDBRANCH   5   6
ENDBRANCH   4   5
ENDBRANCH   3   4
ENDBRANCH   2   3
ENDBRANCH   1   2
BRANCH   1  15
ATOM     15  C   UNL     1      14.857  10.904  23.068  1.00  0.00     0.000 C 
BRANCH  15  16
ATOM     16  C   UNL     1      13.420  10.989  22.519  1.00  0.00     0.000 C 
BRANCH  16  17
ATOM     17  C   UNL     1      12.791  12.378  22.707  1.00  0.00     0.000 C 
BRANCH  17  18
ATOM     18  C   UNL     1      11.444  12.475  21.981  1.00  0.00    -0.000 C 
BRANCH  18  19
ATOM     19  C   UNL     1      10.875  13.898  22.065  1.00  0.00    -0.000 C 
BRANCH  19  20
ATOM     20  C   UNL     1      10.875  14.407  23.512  1.00  0.00    -0.000 C 
BRANCH  20  21
ATOM     21  C   UNL     1      10.885  15.940  23.556  1.00  0.00    -0.000 C 
BRANCH  21  22
ATOM     22  C   UNL     1      11.089  16.530  22.152  1.00  0.00    -0.000 C 
BRANCH  22  23
ATOM     23  C   UNL     1      12.157  17.635  22.127  1.00  0.00    -0.000 C 
BRANCH  23  24
ATOM     24  C   UNL     1      12.529  18.065  20.699  1.00  0.00    -0.000 C 
BRANCH  24  25
ATOM     25  C   UNL     1      11.326  18.046  19.745  1.00  0.00    -0.003 C 
ATOM     26  C   UNL     1      11.402  16.912  18.722  1.00  0.00     0.004 C 
ENDBRANCH  24  25
ENDBRANCH  23  24
ENDBRANCH  22  23
ENDBRANCH  21  22
ENDBRANCH  20  21
ENDBRANCH  19  20
ENDBRANCH  18  19
ENDBRANCH  17  18
ENDBRANCH  16  17
ENDBRANCH  15  16
ENDBRANCH   1  15
TORSDOF 22
ENDMDL
MODEL 9
REMARK VINA RESULT:    11.108      3.674      7.752
REMARK INTER + INTRA:          23.808
REMARK INTER:                  25.400
REMARK INTRA:                  -1.592
REMARK UNBOUND:                -1.586
REMARK SMILES CCCCCCCCCCCCCCCCCCCCCCCC(=O)[O-]
REMARK SMILES IDX 13 1 14 2 15 3 16 4 17 5 18 6 19 7 20 8 21 9 22 10 23 11
REMARK SMILES IDX 24 12 25 13 26 14 12 15 11 16 10 17 9 18 8 19 7 20 6 21 5 22
REMARK SMILES IDX 4 23 3 24 2 25 1 26
REMARK H PARENT
REMARK Flexibility Score: inf
ROOT
ATOM      1  C   UNL     1      16.592   3.575  26.187  1.00  0.00     0.000 C 
ENDROOT
BRANCH   1   2
ATOM      2  C   UNL     1      17.347   2.954  25.000  1.00  0.00     0.000 C 
BRANCH   2   3
ATOM      3  C   UNL     1      17.464   1.422  25.093  1.00  0.00     0.000 C 
BRANCH   3   4
ATOM      4  C   UNL     1      18.773   0.821  24.547  1.00  0.00     0.000 C 
BRANCH   4   5
ATOM      5  C   UNL     1      20.026   1.587  25.000  1.00  0.00     0.000 C 
BRANCH   5   6
ATOM      6  C   UNL     1      21.043   0.692  25.730  1.00  0.00     0.000 C 
BRANCH   6   7
ATOM      7  C   UNL     1      20.949   0.775  27.268  1.00  0.00     0.000 C 
BRANCH   7   8
ATOM      8  C   UNL     1      19.491   0.786  27.761  1.00  0.00     0.000 C 
BRANCH   8   9
ATOM      9  C   UNL     1      19.064   2.153  28.316  1.00  0.00     0.000 C 
BRANCH   9  10
ATOM     10  C   UNL     1      19.507   2.363  29.775  1.00  0.00     0.006 C 
BRANCH  10  11
ATOM     11  C   UNL     1      19.349   3.822  30.224  1.00  0.00     0.053 C 
BRANCH  11  12
ATOM     12  C   UNL     1      17.926   4.151  30.559  1.00  0.00     0.041 C 
ATOM     13  O   UNL     1      17.490   3.962  31.724  1.00  0.00    -0.550 OA
ATOM     14  O   UNL     1      17.090   4.690  29.589  1.00  0.00    -0.550 OA
ENDBRANCH  11  12
ENDBRANCH  10  11
ENDBRANCH   9  10
ENDBRANCH   8   9
ENDBRANCH   7   8
ENDBRANCH   6   7
ENDBRANCH   5   6
ENDBRANCH   4   5
ENDBRANCH   3   4
ENDBRANCH   2   3
ENDBRANCH   1   2
BRANCH   1  15
ATOM     15  C   UNL     1      15.092   3.768  25.898  1.00  0.00     0.000 C 
BRANCH  15  16
ATOM     16  C   UNL     1      14.279   2.463  25.815  1.00  0.00     0.000 C 
BRANCH  16  17
ATOM     17  C   UNL     1      13.391   2.393  24.564  1.00  0.00     0.000 C 
BRANCH  17  18
ATOM     18  C   UNL     1      14.010   3.183  23.404  1.00  0.00    -0.000 C 
BRANCH  18  19
ATOM     19  C   UNL     1      12.949   4.028  22.685  1.00  0.00    -0.000 C 
BRANCH  19  20
ATOM     20  C   UNL     1      12.865   5.435  23.288  1.00  0.00    -0.000 C 
BRANCH  20  21
ATOM     21  C   UNL     1      13.663   6.442  22.449  1.00  0.00    -0.000 C 
BRANCH  21  22
ATOM     22  C   UNL     1      14.009   7.692  23.273  1.00  0.00    -0.000 C 
BRANCH  22  23
ATOM     23  C   UNL     1      14.651   8.799  22.421  1.00  0.00    -0.000 C 
BRANCH  23  24
ATOM     24  C   UNL     1      15.668   9.638  23.212  1.00  0.00    -0.000 C 
BRANCH  24  25
ATOM     25  C   UNL     1      15.423  11.148  23.071  1.00  0.00    -0.003 C 
ATOM     26  C   UNL     1      14.199  11.622  23.854  1.00  0.00     0.004 C 
ENDBRANCH  24  25
ENDBRANCH  23  24
ENDBRANCH  22  23
ENDBRANCH  21  22
ENDBRANCH  20  21
ENDBRANCH  19  20
ENDBRANCH  18  19
ENDBRANCH  17  18
ENDBRANCH  16  17
ENDBRANCH  15  16
ENDBRANCH   1  15
TORSDOF 22
ENDMDL
