MODEL 1
REMARK VINA RESULT:    -4.485      0.000      0.000
REMARK INTER + INTRA:          -9.191
REMARK INTER:                  -8.156
REMARK INTRA:                  -1.035
REMARK UNBOUND:                -1.035
REMARK SMILES CCCCCCCCCCCCCCCC(=O)[O-]
REMARK SMILES IDX 9 1 10 2 11 3 12 4 13 5 14 6 15 7 16 8 17 9 18 10 8 11 7 12
REMARK SMILES IDX 6 13 5 14 4 15 3 16 2 17 1 18
REMARK H PARENT
REMARK Flexibility Score: inf
ROOT
ATOM      1  C   UNL     1      -7.270 -39.906 -13.424  1.00  0.00     0.000 C 
ENDROOT
BRANCH   1   2
ATOM      2  C   UNL     1      -6.502 -41.238 -13.513  1.00  0.00     0.000 C 
BRANCH   2   3
ATOM      3  C   UNL     1      -5.790 -41.496 -14.858  1.00  0.00     0.000 C 
BRANCH   3   4
ATOM      4  C   UNL     1      -6.717 -41.578 -16.083  1.00  0.00     0.000 C 
BRANCH   4   5
ATOM      5  C   UNL     1      -6.654 -40.361 -17.025  1.00  0.00     0.000 C 
BRANCH   5   6
ATOM      6  C   UNL     1      -8.018 -39.662 -17.230  1.00  0.00     0.006 C 
BRANCH   6   7
ATOM      7  C   UNL     1      -8.101 -38.268 -16.585  1.00  0.00     0.053 C 
BRANCH   7   8
ATOM      8  C   UNL     1      -8.112 -37.177 -17.611  1.00  0.00     0.041 C 
ATOM      9  O   UNL     1      -7.105 -36.984 -18.341  1.00  0.00    -0.550 OA
ATOM     10  O   UNL     1      -9.226 -36.357 -17.744  1.00  0.00    -0.550 OA
ENDBRANCH   7   8
ENDBRANCH   6   7
ENDBRANCH   5   6
ENDBRANCH   4   5
ENDBRANCH   3   4
ENDBRANCH   2   3
ENDBRANCH   1   2
BRANCH   1  11
ATOM     11  C   UNL     1      -7.388 -39.379 -11.987  1.00  0.00     0.000 C 
BRANCH  11  12
ATOM     12  C   UNL     1      -6.366 -40.056 -11.067  1.00  0.00    -0.000 C 
BRANCH  12  13
ATOM     13  C   UNL     1      -5.518 -39.013 -10.324  1.00  0.00    -0.000 C 
BRANCH  13  14
ATOM     14  C   UNL     1      -6.332 -38.208  -9.298  1.00  0.00    -0.000 C 
BRANCH  14  15
ATOM     15  C   UNL     1      -6.378 -36.708  -9.625  1.00  0.00    -0.000 C 
BRANCH  15  16
ATOM     16  C   UNL     1      -4.963 -36.124  -9.716  1.00  0.00    -0.000 C 
BRANCH  16  17
ATOM     17  C   UNL     1      -4.539 -35.498  -8.382  1.00  0.00    -0.003 C 
ATOM     18  C   UNL     1      -3.054 -35.725  -8.113  1.00  0.00     0.004 C 
ENDBRANCH  16  17
ENDBRANCH  15  16
ENDBRANCH  14  15
ENDBRANCH  13  14
ENDBRANCH  12  13
ENDBRANCH  11  12
ENDBRANCH   1  11
TORSDOF 14
ENDMDL
MODEL 2
REMARK VINA RESULT:    -4.426      2.360      4.086
REMARK INTER + INTRA:          -9.084
REMARK INTER:                  -7.442
REMARK INTRA:                  -1.642
REMARK UNBOUND:                -1.035
REMARK SMILES CCCCCCCCCCCCCCCC(=O)[O-]
REMARK SMILES IDX 9 1 10 2 11 3 12 4 13 5 14 6 15 7 16 8 17 9 18 10 8 11 7 12
REMARK SMILES IDX 6 13 5 14 4 15 3 16 2 17 1 18
REMARK H PARENT
REMARK Flexibility Score: inf
ROOT
ATOM      1  C   UNL     1      -7.489 -38.890  -8.793  1.00  0.00     0.000 C 
ENDROOT
BRANCH   1   2
ATOM      2  C   UNL     1      -6.166 -38.426  -9.428  1.00  0.00     0.000 C 
BRANCH   2   3
ATOM      3  C   UNL     1      -5.578 -39.379 -10.490  1.00  0.00     0.000 C 
BRANCH   3   4
ATOM      4  C   UNL     1      -6.616 -40.182 -11.294  1.00  0.00     0.000 C 
BRANCH   4   5
ATOM      5  C   UNL     1      -7.130 -39.483 -12.566  1.00  0.00     0.000 C 
BRANCH   5   6
ATOM      6  C   UNL     1      -7.685 -40.458 -13.631  1.00  0.00     0.006 C 
BRANCH   6   7
ATOM      7  C   UNL     1      -7.371 -40.039 -15.077  1.00  0.00     0.053 C 
BRANCH   7   8
ATOM      8  C   UNL     1      -6.297 -40.888 -15.685  1.00  0.00     0.041 C 
ATOM      9  O   UNL     1      -6.121 -40.889 -16.931  1.00  0.00    -0.550 OA
ATOM     10  O   UNL     1      -5.507 -41.696 -14.877  1.00  0.00    -0.550 OA
ENDBRANCH   7   8
ENDBRANCH   6   7
ENDBRANCH   5   6
ENDBRANCH   4   5
ENDBRANCH   3   4
ENDBRANCH   2   3
ENDBRANCH   1   2
BRANCH   1  11
ATOM     11  C   UNL     1      -8.573 -37.802  -8.806  1.00  0.00     0.000 C 
BRANCH  11  12
ATOM     12  C   UNL     1      -9.050 -37.517 -10.234  1.00  0.00    -0.000 C 
BRANCH  12  13
ATOM     13  C   UNL     1      -9.126 -36.005 -10.498  1.00  0.00    -0.000 C 
BRANCH  13  14
ATOM     14  C   UNL     1      -8.194 -35.196  -9.581  1.00  0.00    -0.000 C 
BRANCH  14  15
ATOM     15  C   UNL     1      -6.881 -34.801 -10.273  1.00  0.00    -0.000 C 
BRANCH  15  16
ATOM     16  C   UNL     1      -5.935 -34.097  -9.292  1.00  0.00    -0.000 C 
BRANCH  16  17
ATOM     17  C   UNL     1      -5.415 -35.075  -8.232  1.00  0.00    -0.003 C 
ATOM     18  C   UNL     1      -4.011 -35.566  -8.575  1.00  0.00     0.004 C 
ENDBRANCH  16  17
ENDBRANCH  15  16
ENDBRANCH  14  15
ENDBRANCH  13  14
ENDBRANCH  12  13
ENDBRANCH  11  12
ENDBRANCH   1  11
TORSDOF 14
ENDMDL
MODEL 3
REMARK VINA RESULT:    -4.415      1.786      3.469
REMARK INTER + INTRA:          -9.062
REMARK INTER:                  -7.591
REMARK INTRA:                  -1.471
REMARK UNBOUND:                -1.035
REMARK SMILES CCCCCCCCCCCCCCCC(=O)[O-]
REMARK SMILES IDX 9 1 10 2 11 3 12 4 13 5 14 6 15 7 16 8 17 9 18 10 8 11 7 12
REMARK SMILES IDX 6 13 5 14 4 15 3 16 2 17 1 18
REMARK H PARENT
REMARK Flexibility Score: inf
ROOT
ATOM      1  C   UNL     1      -7.586 -38.371  -9.174  1.00  0.00     0.000 C 
ENDROOT
BRANCH   1   2
ATOM      2  C   UNL     1      -6.865 -39.657  -9.618  1.00  0.00     0.000 C 
BRANCH   2   3
ATOM      3  C   UNL     1      -5.996 -39.519 -10.886  1.00  0.00     0.000 C 
BRANCH   3   4
ATOM      4  C   UNL     1      -6.359 -40.478 -12.034  1.00  0.00     0.000 C 
BRANCH   4   5
ATOM      5  C   UNL     1      -7.766 -40.272 -12.627  1.00  0.00     0.000 C 
BRANCH   5   6
ATOM      6  C   UNL     1      -7.778 -39.423 -13.919  1.00  0.00     0.006 C 
BRANCH   6   7
ATOM      7  C   UNL     1      -7.102 -40.110 -15.117  1.00  0.00     0.053 C 
BRANCH   7   8
ATOM      8  C   UNL     1      -7.481 -39.469 -16.417  1.00  0.00     0.041 C 
ATOM      9  O   UNL     1      -7.335 -40.097 -17.499  1.00  0.00    -0.550 OA
ATOM     10  O   UNL     1      -7.975 -38.171 -16.436  1.00  0.00    -0.550 OA
ENDBRANCH   7   8
ENDBRANCH   6   7
ENDBRANCH   5   6
ENDBRANCH   4   5
ENDBRANCH   3   4
ENDBRANCH   2   3
ENDBRANCH   1   2
BRANCH   1  11
ATOM     11  C   UNL     1      -7.895 -37.425 -10.343  1.00  0.00     0.000 C 
BRANCH  11  12
ATOM     12  C   UNL     1      -8.959 -36.394  -9.950  1.00  0.00    -0.000 C 
BRANCH  12  13
ATOM     13  C   UNL     1      -8.326 -35.202  -9.217  1.00  0.00    -0.000 C 
BRANCH  13  14
ATOM     14  C   UNL     1      -7.319 -34.436 -10.090  1.00  0.00    -0.000 C 
BRANCH  14  15
ATOM     15  C   UNL     1      -6.010 -34.124  -9.349  1.00  0.00    -0.000 C 
BRANCH  15  16
ATOM     16  C   UNL     1      -5.683 -35.222  -8.330  1.00  0.00    -0.000 C 
BRANCH  16  17
ATOM     17  C   UNL     1      -4.574 -36.145  -8.851  1.00  0.00    -0.003 C 
ATOM     18  C   UNL     1      -3.199 -35.669  -8.391  1.00  0.00     0.004 C 
ENDBRANCH  16  17
ENDBRANCH  15  16
ENDBRANCH  14  15
ENDBRANCH  13  14
ENDBRANCH  12  13
ENDBRANCH  11  12
ENDBRANCH   1  11
TORSDOF 14
ENDMDL
MODEL 4
REMARK VINA RESULT:    -4.400      1.535      3.089
REMARK INTER + INTRA:          -9.036
REMARK INTER:                  -7.652
REMARK INTRA:                  -1.385
REMARK UNBOUND:                -1.035
REMARK SMILES CCCCCCCCCCCCCCCC(=O)[O-]
REMARK SMILES IDX 9 1 10 2 11 3 12 4 13 5 14 6 15 7 16 8 17 9 18 10 8 11 7 12
REMARK SMILES IDX 6 13 5 14 4 15 3 16 2 17 1 18
REMARK H PARENT
REMARK Flexibility Score: inf
ROOT
ATOM      1  C   UNL     1      -6.717 -39.112 -10.131  1.00  0.00     0.000 C 
ENDROOT
BRANCH   1   2
ATOM      2  C   UNL     1      -7.494 -38.932 -11.448  1.00  0.00     0.000 C 
BRANCH   2   3
ATOM      3  C   UNL     1      -7.693 -40.220 -12.275  1.00  0.00     0.000 C 
BRANCH   3   4
ATOM      4  C   UNL     1      -6.500 -40.617 -13.162  1.00  0.00     0.000 C 
BRANCH   4   5
ATOM      5  C   UNL     1      -6.744 -40.471 -14.676  1.00  0.00     0.000 C 
BRANCH   5   6
ATOM      6  C   UNL     1      -7.749 -39.353 -15.039  1.00  0.00     0.006 C 
BRANCH   6   7
ATOM      7  C   UNL     1      -8.111 -39.308 -16.533  1.00  0.00     0.053 C 
BRANCH   7   8
ATOM      8  C   UNL     1      -8.300 -37.904 -17.021  1.00  0.00     0.041 C 
ATOM      9  O   UNL     1      -7.441 -37.374 -17.773  1.00  0.00    -0.550 OA
ATOM     10  O   UNL     1      -9.413 -37.173 -16.625  1.00  0.00    -0.550 OA
ENDBRANCH   7   8
ENDBRANCH   6   7
ENDBRANCH   5   6
ENDBRANCH   4   5
ENDBRANCH   3   4
ENDBRANCH   2   3
ENDBRANCH   1   2
BRANCH   1  11
ATOM     11  C   UNL     1      -5.335 -38.444 -10.156  1.00  0.00     0.000 C 
BRANCH  11  12
ATOM     12  C   UNL     1      -5.238 -37.342  -9.095  1.00  0.00    -0.000 C 
BRANCH  12  13
ATOM     13  C   UNL     1      -4.967 -35.976  -9.745  1.00  0.00    -0.000 C 
BRANCH  13  14
ATOM     14  C   UNL     1      -5.289 -34.800  -8.809  1.00  0.00    -0.000 C 
BRANCH  14  15
ATOM     15  C   UNL     1      -6.640 -34.142  -9.128  1.00  0.00    -0.000 C 
BRANCH  15  16
ATOM     16  C   UNL     1      -7.165 -34.603 -10.493  1.00  0.00    -0.000 C 
BRANCH  16  17
ATOM     17  C   UNL     1      -8.605 -35.116 -10.384  1.00  0.00    -0.003 C 
ATOM     18  C   UNL     1      -8.749 -36.117  -9.241  1.00  0.00     0.004 C 
ENDBRANCH  16  17
ENDBRANCH  15  16
ENDBRANCH  14  15
ENDBRANCH  13  14
ENDBRANCH  12  13
ENDBRANCH  11  12
ENDBRANCH   1  11
TORSDOF 14
ENDMDL
MODEL 5
REMARK VINA RESULT:    -4.325      3.088      7.708
REMARK INTER + INTRA:          -8.900
REMARK INTER:                  -7.928
REMARK INTRA:                  -0.973
REMARK UNBOUND:                -1.035
REMARK SMILES CCCCCCCCCCCCCCCC(=O)[O-]
REMARK SMILES IDX 9 1 10 2 11 3 12 4 13 5 14 6 15 7 16 8 17 9 18 10 8 11 7 12
REMARK SMILES IDX 6 13 5 14 4 15 3 16 2 17 1 18
REMARK H PARENT
REMARK Flexibility Score: inf
ROOT
ATOM      1  C   UNL     1      -7.881 -39.665 -13.415  1.00  0.00     0.000 C 
ENDROOT
BRANCH   1   2
ATOM      2  C   UNL     1      -6.609 -40.128 -12.683  1.00  0.00     0.000 C 
BRANCH   2   3
ATOM      3  C   UNL     1      -6.692 -40.100 -11.141  1.00  0.00     0.000 C 
BRANCH   3   4
ATOM      4  C   UNL     1      -5.548 -39.346 -10.440  1.00  0.00     0.000 C 
BRANCH   4   5
ATOM      5  C   UNL     1      -6.003 -38.241  -9.468  1.00  0.00     0.000 C 
BRANCH   5   6
ATOM      6  C   UNL     1      -5.166 -36.944  -9.563  1.00  0.00     0.006 C 
BRANCH   6   7
ATOM      7  C   UNL     1      -5.701 -35.797  -8.690  1.00  0.00     0.053 C 
BRANCH   7   8
ATOM      8  C   UNL     1      -6.278 -34.689  -9.515  1.00  0.00     0.041 C 
ATOM      9  O   UNL     1      -6.319 -34.788 -10.770  1.00  0.00    -0.550 OA
ATOM     10  O   UNL     1      -6.750 -33.536  -8.901  1.00  0.00    -0.550 OA
ENDBRANCH   7   8
ENDBRANCH   6   7
ENDBRANCH   5   6
ENDBRANCH   4   5
ENDBRANCH   3   4
ENDBRANCH   2   3
ENDBRANCH   1   2
BRANCH   1  11
ATOM     11  C   UNL     1      -7.667 -39.472 -14.923  1.00  0.00     0.000 C 
BRANCH  11  12
ATOM     12  C   UNL     1      -6.676 -40.504 -15.474  1.00  0.00    -0.000 C 
BRANCH  12  13
ATOM     13  C   UNL     1      -6.544 -40.379 -17.000  1.00  0.00    -0.000 C 
BRANCH  13  14
ATOM     14  C   UNL     1      -7.904 -40.393 -17.716  1.00  0.00    -0.000 C 
BRANCH  14  15
ATOM     15  C   UNL     1      -8.011 -39.315 -18.804  1.00  0.00    -0.000 C 
BRANCH  15  16
ATOM     16  C   UNL     1      -7.247 -38.049 -18.398  1.00  0.00    -0.000 C 
BRANCH  16  17
ATOM     17  C   UNL     1      -8.175 -36.829 -18.379  1.00  0.00    -0.003 C 
ATOM     18  C   UNL     1      -9.257 -36.976 -17.313  1.00  0.00     0.004 C 
ENDBRANCH  16  17
ENDBRANCH  15  16
ENDBRANCH  14  15
ENDBRANCH  13  14
ENDBRANCH  12  13
ENDBRANCH  11  12
ENDBRANCH   1  11
TORSDOF 14
ENDMDL
MODEL 6
REMARK VINA RESULT:    -4.286      3.052      7.594
REMARK INTER + INTRA:          -8.828
REMARK INTER:                  -7.810
REMARK INTRA:                  -1.018
REMARK UNBOUND:                -1.035
REMARK SMILES CCCCCCCCCCCCCCCC(=O)[O-]
REMARK SMILES IDX 9 1 10 2 11 3 12 4 13 5 14 6 15 7 16 8 17 9 18 10 8 11 7 12
REMARK SMILES IDX 6 13 5 14 4 15 3 16 2 17 1 18
REMARK H PARENT
REMARK Flexibility Score: inf
ROOT
ATOM      1  C   UNL     1      -7.406 -39.350 -11.953  1.00  0.00     0.000 C 
ENDROOT
BRANCH   1   2
ATOM      2  C   UNL     1      -7.131 -38.907 -10.505  1.00  0.00     0.000 C 
BRANCH   2   3
ATOM      3  C   UNL     1      -5.648 -38.947 -10.077  1.00  0.00     0.000 C 
BRANCH   3   4
ATOM      4  C   UNL     1      -5.033 -37.580  -9.728  1.00  0.00     0.000 C 
BRANCH   4   5
ATOM      5  C   UNL     1      -6.052 -36.490  -9.349  1.00  0.00     0.000 C 
BRANCH   5   6
ATOM      6  C   UNL     1      -6.187 -35.369 -10.406  1.00  0.00     0.006 C 
BRANCH   6   7
ATOM      7  C   UNL     1      -7.439 -34.495 -10.225  1.00  0.00     0.053 C 
BRANCH   7   8
ATOM      8  C   UNL     1      -8.682 -35.320 -10.093  1.00  0.00     0.041 C 
ATOM      9  O   UNL     1      -9.165 -35.903 -11.099  1.00  0.00    -0.550 OA
ATOM     10  O   UNL     1      -9.321 -35.425  -8.864  1.00  0.00    -0.550 OA
ENDBRANCH   7   8
ENDBRANCH   6   7
ENDBRANCH   5   6
ENDBRANCH   4   5
ENDBRANCH   3   4
ENDBRANCH   2   3
ENDBRANCH   1   2
BRANCH   1  11
ATOM     11  C   UNL     1      -6.506 -40.508 -12.407  1.00  0.00     0.000 C 
BRANCH  11  12
ATOM     12  C   UNL     1      -6.529 -40.658 -13.932  1.00  0.00    -0.000 C 
BRANCH  12  13
ATOM     13  C   UNL     1      -7.558 -39.707 -14.562  1.00  0.00    -0.000 C 
BRANCH  13  14
ATOM     14  C   UNL     1      -7.338 -39.512 -16.072  1.00  0.00    -0.000 C 
BRANCH  14  15
ATOM     15  C   UNL     1      -7.237 -40.843 -16.832  1.00  0.00    -0.000 C 
BRANCH  15  16
ATOM     16  C   UNL     1      -6.165 -40.768 -17.926  1.00  0.00    -0.000 C 
BRANCH  16  17
ATOM     17  C   UNL     1      -6.426 -39.590 -18.872  1.00  0.00    -0.003 C 
ATOM     18  C   UNL     1      -5.479 -39.624 -20.068  1.00  0.00     0.004 C 
ENDBRANCH  16  17
ENDBRANCH  15  16
ENDBRANCH  14  15
ENDBRANCH  13  14
ENDBRANCH  12  13
ENDBRANCH  11  12
ENDBRANCH   1  11
TORSDOF 14
ENDMDL
MODEL 7
REMARK VINA RESULT:    -4.282      2.983      7.366
REMARK INTER + INTRA:          -8.822
REMARK INTER:                  -7.589
REMARK INTRA:                  -1.233
REMARK UNBOUND:                -1.035
REMARK SMILES CCCCCCCCCCCCCCCC(=O)[O-]
REMARK SMILES IDX 9 1 10 2 11 3 12 4 13 5 14 6 15 7 16 8 17 9 18 10 8 11 7 12
REMARK SMILES IDX 6 13 5 14 4 15 3 16 2 17 1 18
REMARK H PARENT
REMARK Flexibility Score: inf
ROOT
ATOM      1  C   UNL     1      -7.034 -40.418 -14.984  1.00  0.00     0.000 C 
ENDROOT
BRANCH   1   2
ATOM      2  C   UNL     1      -6.384 -40.904 -13.676  1.00  0.00     0.000 C 
BRANCH   2   3
ATOM      3  C   UNL     1      -6.669 -40.030 -12.437  1.00  0.00     0.000 C 
BRANCH   3   4
ATOM      4  C   UNL     1      -6.743 -40.793 -11.102  1.00  0.00     0.000 C 
BRANCH   4   5
ATOM      5  C   UNL     1      -6.181 -40.028  -9.889  1.00  0.00     0.000 C 
BRANCH   5   6
ATOM      6  C   UNL     1      -5.409 -38.742 -10.267  1.00  0.00     0.006 C 
BRANCH   6   7
ATOM      7  C   UNL     1      -5.800 -37.516  -9.426  1.00  0.00     0.053 C 
BRANCH   7   8
ATOM      8  C   UNL     1      -6.662 -36.563 -10.195  1.00  0.00     0.041 C 
ATOM      9  O   UNL     1      -6.204 -35.448 -10.560  1.00  0.00    -0.550 OA
ATOM     10  O   UNL     1      -7.979 -36.895 -10.487  1.00  0.00    -0.550 OA
ENDBRANCH   7   8
ENDBRANCH   6   7
ENDBRANCH   5   6
ENDBRANCH   4   5
ENDBRANCH   3   4
ENDBRANCH   2   3
ENDBRANCH   1   2
BRANCH   1  11
ATOM     11  C   UNL     1      -7.835 -39.120 -14.808  1.00  0.00     0.000 C 
BRANCH  11  12
ATOM     12  C   UNL     1      -9.179 -39.200 -15.542  1.00  0.00    -0.000 C 
BRANCH  12  13
ATOM     13  C   UNL     1      -9.635 -37.809 -16.007  1.00  0.00    -0.000 C 
BRANCH  13  14
ATOM     14  C   UNL     1      -9.677 -37.680 -17.539  1.00  0.00    -0.000 C 
BRANCH  14  15
ATOM     15  C   UNL     1      -8.654 -36.669 -18.076  1.00  0.00    -0.000 C 
BRANCH  15  16
ATOM     16  C   UNL     1      -7.288 -37.333 -18.291  1.00  0.00    -0.000 C 
BRANCH  16  17
ATOM     17  C   UNL     1      -7.447 -38.738 -18.884  1.00  0.00    -0.003 C 
ATOM     18  C   UNL     1      -6.092 -39.341 -19.244  1.00  0.00     0.004 C 
ENDBRANCH  16  17
ENDBRANCH  15  16
ENDBRANCH  14  15
ENDBRANCH  13  14
ENDBRANCH  12  13
ENDBRANCH  11  12
ENDBRANCH   1  11
TORSDOF 14
ENDMDL
MODEL 8
REMARK VINA RESULT:    -4.239      2.501      2.986
REMARK INTER + INTRA:          -8.743
REMARK INTER:                  -8.014
REMARK INTRA:                  -0.729
REMARK UNBOUND:                -1.035
REMARK SMILES CCCCCCCCCCCCCCCC(=O)[O-]
REMARK SMILES IDX 9 1 10 2 11 3 12 4 13 5 14 6 15 7 16 8 17 9 18 10 8 11 7 12
REMARK SMILES IDX 6 13 5 14 4 15 3 16 2 17 1 18
REMARK H PARENT
REMARK Flexibility Score: inf
ROOT
ATOM      1  C   UNL     1      -7.739 -39.434 -13.857  1.00  0.00     0.000 C 
ENDROOT
BRANCH   1   2
ATOM      2  C   UNL     1      -7.413 -40.829 -14.420  1.00  0.00     0.000 C 
BRANCH   2   3
ATOM      3  C   UNL     1      -6.294 -40.864 -15.482  1.00  0.00     0.000 C 
BRANCH   3   4
ATOM      4  C   UNL     1      -6.777 -41.024 -16.935  1.00  0.00     0.000 C 
BRANCH   4   5
ATOM      5  C   UNL     1      -6.737 -39.733 -17.774  1.00  0.00     0.000 C 
BRANCH   5   6
ATOM      6  C   UNL     1      -6.803 -39.981 -19.300  1.00  0.00     0.006 C 
BRANCH   6   7
ATOM      7  C   UNL     1      -5.471 -39.729 -20.025  1.00  0.00     0.053 C 
BRANCH   7   8
ATOM      8  C   UNL     1      -4.732 -41.003 -20.298  1.00  0.00     0.041 C 
ATOM      9  O   UNL     1      -3.585 -40.971 -20.817  1.00  0.00    -0.550 OA
ATOM     10  O   UNL     1      -5.320 -42.226 -20.003  1.00  0.00    -0.550 OA
ENDBRANCH   7   8
ENDBRANCH   6   7
ENDBRANCH   5   6
ENDBRANCH   4   5
ENDBRANCH   3   4
ENDBRANCH   2   3
ENDBRANCH   1   2
BRANCH   1  11
ATOM     11  C   UNL     1      -7.597 -39.356 -12.330  1.00  0.00     0.000 C 
BRANCH  11  12
ATOM     12  C   UNL     1      -6.346 -40.104 -11.855  1.00  0.00    -0.000 C 
BRANCH  12  13
ATOM     13  C   UNL     1      -6.068 -39.824 -10.371  1.00  0.00    -0.000 C 
BRANCH  13  14
ATOM     14  C   UNL     1      -5.135 -38.621 -10.159  1.00  0.00    -0.000 C 
BRANCH  14  15
ATOM     15  C   UNL     1      -5.774 -37.520  -9.300  1.00  0.00    -0.000 C 
BRANCH  15  16
ATOM     16  C   UNL     1      -5.392 -36.128  -9.819  1.00  0.00    -0.000 C 
BRANCH  16  17
ATOM     17  C   UNL     1      -4.769 -35.278  -8.706  1.00  0.00    -0.003 C 
ATOM     18  C   UNL     1      -3.364 -35.765  -8.362  1.00  0.00     0.004 C 
ENDBRANCH  16  17
ENDBRANCH  15  16
ENDBRANCH  14  15
ENDBRANCH  13  14
ENDBRANCH  12  13
ENDBRANCH  11  12
ENDBRANCH   1  11
TORSDOF 14
ENDMDL
MODEL 9
REMARK VINA RESULT:    -4.151      4.245      5.857
REMARK INTER + INTRA:          -8.583
REMARK INTER:                  -6.510
REMARK INTRA:                  -2.073
REMARK UNBOUND:                -1.035
REMARK SMILES CCCCCCCCCCCCCCCC(=O)[O-]
REMARK SMILES IDX 9 1 10 2 11 3 12 4 13 5 14 6 15 7 16 8 17 9 18 10 8 11 7 12
REMARK SMILES IDX 6 13 5 14 4 15 3 16 2 17 1 18
REMARK H PARENT
REMARK Flexibility Score: inf
ROOT
ATOM      1  C   UNL     1      -9.293 -38.041 -10.774  1.00  0.00     0.000 C 
ENDROOT
BRANCH   1   2
ATOM      2  C   UNL     1      -7.964 -38.512 -11.392  1.00  0.00     0.000 C 
BRANCH   2   3
ATOM      3  C   UNL     1      -6.751 -38.487 -10.439  1.00  0.00     0.000 C 
BRANCH   3   4
ATOM      4  C   UNL     1      -7.087 -38.670  -8.948  1.00  0.00     0.000 C 
BRANCH   4   5
ATOM      5  C   UNL     1      -7.204 -40.135  -8.487  1.00  0.00     0.000 C 
BRANCH   5   6
ATOM      6  C   UNL     1      -6.608 -41.152  -9.489  1.00  0.00     0.006 C 
BRANCH   6   7
ATOM      7  C   UNL     1      -7.644 -42.127 -10.071  1.00  0.00     0.053 C 
BRANCH   7   8
ATOM      8  C   UNL     1      -7.482 -42.299 -11.550  1.00  0.00     0.041 C 
ATOM      9  O   UNL     1      -8.202 -43.122 -12.175  1.00  0.00    -0.550 OA
ATOM     10  O   UNL     1      -6.520 -41.568 -12.235  1.00  0.00    -0.550 OA
ENDBRANCH   7   8
ENDBRANCH   6   7
ENDBRANCH   5   6
ENDBRANCH   4   5
ENDBRANCH   3   4
ENDBRANCH   2   3
ENDBRANCH   1   2
BRANCH   1  11
ATOM     11  C   UNL     1      -9.923 -36.864 -11.532  1.00  0.00     0.000 C 
BRANCH  11  12
ATOM     12  C   UNL     1      -9.943 -35.600 -10.666  1.00  0.00    -0.000 C 
BRANCH  12  13
ATOM     13  C   UNL     1      -9.499 -35.911  -9.229  1.00  0.00    -0.000 C 
BRANCH  13  14
ATOM     14  C   UNL     1      -8.326 -35.031  -8.766  1.00  0.00    -0.000 C 
BRANCH  14  15
ATOM     15  C   UNL     1      -7.284 -34.806  -9.872  1.00  0.00    -0.000 C 
BRANCH  15  16
ATOM     16  C   UNL     1      -6.026 -34.133  -9.310  1.00  0.00    -0.000 C 
BRANCH  16  17
ATOM     17  C   UNL     1      -5.340 -35.029  -8.272  1.00  0.00    -0.003 C 
ATOM     18  C   UNL     1      -4.370 -36.001  -8.937  1.00  0.00     0.004 C 
ENDBRANCH  16  17
ENDBRANCH  15  16
ENDBRANCH  14  15
ENDBRANCH  13  14
ENDBRANCH  12  13
ENDBRANCH  11  12
ENDBRANCH   1  11
TORSDOF 14
ENDMDL
