MODEL 1
REMARK VINA RESULT:    -7.074      0.000      0.000
REMARK INTER + INTRA:          -8.208
REMARK INTER:                  -8.521
REMARK INTRA:                   0.313
REMARK UNBOUND:                 0.313
REMARK SMILES O=c1c(O)c(-c2ccc(O)c(O)c2)oc2cc(O)cc(O)c12
REMARK SMILES IDX 5 1 3 2 2 3 1 4 22 5 20 6 19 7 17 8 16 9 15 10 14 11 6 12
REMARK SMILES IDX 7 13 8 14 9 15 13 16 11 17 10 18 12 20 4 22 21 24 18 26
REMARK H PARENT 10 19 12 21 4 23 21 25 18 27
REMARK Flexibility Score: inf
ROOT
ATOM      1  C   UNL     1     110.412 103.141 136.815  1.00  0.00     0.180 A 
ATOM      2  C   UNL     1     109.042 103.428 136.659  1.00  0.00     0.208 A 
ATOM      3  C   UNL     1     108.097 102.502 137.129  1.00  0.00     0.238 A 
ATOM      4  O   UNL     1     106.868 102.742 136.984  1.00  0.00    -0.285 OA
ATOM      5  C   UNL     1     108.534 101.321 137.762  1.00  0.00     0.111 A 
ATOM      6  C   UNL     1     107.648 100.339 138.267  1.00  0.00     0.134 A 
ATOM      7  C   UNL     1     108.162  99.194 138.893  1.00  0.00     0.093 A 
ATOM      8  C   UNL     1     109.544  99.012 139.025  1.00  0.00     0.123 A 
ATOM      9  C   UNL     1     110.422  99.977 138.528  1.00  0.00     0.094 A 
ATOM     10  C   UNL     1     109.929 101.125 137.899  1.00  0.00     0.146 A 
ATOM     11  O   UNL     1     110.787 102.024 137.431  1.00  0.00    -0.452 OA
ENDROOT
BRANCH   1  12
ATOM     12  C   UNL     1     111.468 104.059 136.330  1.00  0.00     0.025 A 
ATOM     13  C   UNL     1     112.704 103.534 135.920  1.00  0.00     0.016 A 
ATOM     14  C   UNL     1     113.707 104.379 135.439  1.00  0.00     0.051 A 
ATOM     15  C   UNL     1     113.482 105.759 135.344  1.00  0.00     0.157 A 
ATOM     16  C   UNL     1     111.239 105.441 136.213  1.00  0.00     0.062 A 
ATOM     17  C   UNL     1     112.245 106.291 135.728  1.00  0.00     0.158 A 
BRANCH  15  18
ATOM     18  O   UNL     1     114.481 106.605 134.866  1.00  0.00    -0.504 OA
ATOM     19  H   UNL     1     114.684 107.491 135.314  1.00  0.00     0.293 HD
ENDBRANCH  15  18
BRANCH  17  20
ATOM     20  O   UNL     1     112.020 107.661 135.618  1.00  0.00    -0.504 OA
ATOM     21  H   UNL     1     111.134 108.028 135.289  1.00  0.00     0.293 HD
ENDBRANCH  17  20
ENDBRANCH   1  12
BRANCH   2  22
ATOM     22  O   UNL     1     108.634 104.629 136.072  1.00  0.00    -0.502 OA
ATOM     23  H   UNL     1     107.659 104.853 135.917  1.00  0.00     0.293 HD
ENDBRANCH   2  22
BRANCH   6  24
ATOM     24  O   UNL     1     106.266 100.492 138.152  1.00  0.00    -0.507 OA
ATOM     25  H   UNL     1     105.627  99.728 138.340  1.00  0.00     0.293 HD
ENDBRANCH   6  24
BRANCH   8  26
ATOM     26  O   UNL     1     110.054  97.875 139.647  1.00  0.00    -0.508 OA
ATOM     27  H   UNL     1     109.447  97.198 140.094  1.00  0.00     0.293 HD
ENDBRANCH   8  26
TORSDOF 6
ENDMDL
MODEL 2
REMARK VINA RESULT:    -7.031      1.891      6.500
REMARK INTER + INTRA:          -8.156
REMARK INTER:                  -7.902
REMARK INTRA:                  -0.254
REMARK UNBOUND:                 0.313
REMARK SMILES O=c1c(O)c(-c2ccc(O)c(O)c2)oc2cc(O)cc(O)c12
REMARK SMILES IDX 5 1 3 2 2 3 1 4 22 5 20 6 19 7 17 8 16 9 15 10 14 11 6 12
REMARK SMILES IDX 7 13 8 14 9 15 13 16 11 17 10 18 12 20 4 22 21 24 18 26
REMARK H PARENT 10 19 12 21 4 23 21 25 18 27
REMARK Flexibility Score: inf
ROOT
ATOM      1  C   UNL     1     109.568 102.589 137.859  1.00  0.00     0.180 A 
ATOM      2  C   UNL     1     108.335 102.609 137.179  1.00  0.00     0.208 A 
ATOM      3  C   UNL     1     108.010 103.729 136.397  1.00  0.00     0.238 A 
ATOM      4  O   UNL     1     106.903 103.763 135.794  1.00  0.00    -0.285 OA
ATOM      5  C   UNL     1     108.926 104.795 136.291  1.00  0.00     0.111 A 
ATOM      6  C   UNL     1     108.677 105.957 135.521  1.00  0.00     0.134 A 
ATOM      7  C   UNL     1     109.644 106.971 135.459  1.00  0.00     0.093 A 
ATOM      8  C   UNL     1     110.854 106.845 136.151  1.00  0.00     0.123 A 
ATOM      9  C   UNL     1     111.105 105.701 136.912  1.00  0.00     0.094 A 
ATOM     10  C   UNL     1     110.152 104.680 136.987  1.00  0.00     0.146 A 
ATOM     11  O   UNL     1     110.414 103.606 137.723  1.00  0.00    -0.452 OA
ENDROOT
BRANCH   1  12
ATOM     12  C   UNL     1     109.975 101.452 138.717  1.00  0.00     0.025 A 
ATOM     13  C   UNL     1     109.898 101.580 140.113  1.00  0.00     0.016 A 
ATOM     14  C   UNL     1     110.256 100.513 140.942  1.00  0.00     0.051 A 
ATOM     15  C   UNL     1     110.680  99.299 140.386  1.00  0.00     0.157 A 
ATOM     16  C   UNL     1     110.380 100.225 138.163  1.00  0.00     0.062 A 
ATOM     17  C   UNL     1     110.738  99.153 138.994  1.00  0.00     0.158 A 
BRANCH  15  18
ATOM     18  O   UNL     1     111.040  98.233 141.208  1.00  0.00    -0.504 OA
ATOM     19  H   UNL     1     110.475  97.394 141.266  1.00  0.00     0.293 HD
ENDBRANCH  15  18
BRANCH  17  20
ATOM     20  O   UNL     1     111.146  97.939 138.444  1.00  0.00    -0.504 OA
ATOM     21  H   UNL     1     112.127  97.710 138.335  1.00  0.00     0.293 HD
ENDBRANCH  17  20
ENDBRANCH   1  12
BRANCH   2  22
ATOM     22  O   UNL     1     107.466 101.518 137.261  1.00  0.00    -0.502 OA
ATOM     23  H   UNL     1     107.798 100.561 137.288  1.00  0.00     0.293 HD
ENDBRANCH   2  22
BRANCH   6  24
ATOM     24  O   UNL     1     107.480 106.111 134.820  1.00  0.00    -0.507 OA
ATOM     25  H   UNL     1     107.216 105.482 134.071  1.00  0.00     0.293 HD
ENDBRANCH   6  24
BRANCH   8  26
ATOM     26  O   UNL     1     111.815 107.852 136.089  1.00  0.00    -0.508 OA
ATOM     27  H   UNL     1     111.558 108.823 135.960  1.00  0.00     0.293 HD
ENDBRANCH   8  26
TORSDOF 6
ENDMDL
MODEL 3
REMARK VINA RESULT:    -7.001     11.536     13.201
REMARK INTER + INTRA:          -8.120
REMARK INTER:                  -7.789
REMARK INTRA:                  -0.331
REMARK UNBOUND:                 0.313
REMARK SMILES O=c1c(O)c(-c2ccc(O)c(O)c2)oc2cc(O)cc(O)c12
REMARK SMILES IDX 5 1 3 2 2 3 1 4 22 5 20 6 19 7 17 8 16 9 15 10 14 11 6 12
REMARK SMILES IDX 7 13 8 14 9 15 13 16 11 17 10 18 12 20 4 22 21 24 18 26
REMARK H PARENT 10 19 12 21 4 23 21 25 18 27
REMARK Flexibility Score: inf
ROOT
ATOM      1  C   UNL     1     104.736 114.206 137.519  1.00  0.00     0.180 A 
ATOM      2  C   UNL     1     105.645 115.079 138.147  1.00  0.00     0.208 A 
ATOM      3  C   UNL     1     106.050 114.805 139.463  1.00  0.00     0.238 A 
ATOM      4  O   UNL     1     106.853 115.587 140.040  1.00  0.00    -0.285 OA
ATOM      5  C   UNL     1     105.558 113.658 140.119  1.00  0.00     0.111 A 
ATOM      6  C   UNL     1     105.919 113.309 141.443  1.00  0.00     0.134 A 
ATOM      7  C   UNL     1     105.393 112.145 142.023  1.00  0.00     0.093 A 
ATOM      8  C   UNL     1     104.516 111.324 141.305  1.00  0.00     0.123 A 
ATOM      9  C   UNL     1     104.157 111.665 139.999  1.00  0.00     0.094 A 
ATOM     10  C   UNL     1     104.669 112.822 139.405  1.00  0.00     0.146 A 
ATOM     11  O   UNL     1     104.306 113.125 138.163  1.00  0.00    -0.452 OA
ENDROOT
BRANCH   1  12
ATOM     12  C   UNL     1     104.249 114.437 136.140  1.00  0.00     0.025 A 
ATOM     13  C   UNL     1     104.896 113.807 135.065  1.00  0.00     0.016 A 
ATOM     14  C   UNL     1     104.441 113.994 133.757  1.00  0.00     0.051 A 
ATOM     15  C   UNL     1     103.321 114.799 133.507  1.00  0.00     0.157 A 
ATOM     16  C   UNL     1     103.113 115.226 135.887  1.00  0.00     0.062 A 
ATOM     17  C   UNL     1     102.654 115.413 134.575  1.00  0.00     0.158 A 
BRANCH  15  18
ATOM     18  O   UNL     1     102.865 114.990 132.205  1.00  0.00    -0.504 OA
ATOM     19  H   UNL     1     102.493 114.223 131.656  1.00  0.00     0.293 HD
ENDBRANCH  15  18
BRANCH  17  20
ATOM     20  O   UNL     1     101.532 116.201 134.325  1.00  0.00    -0.504 OA
ATOM     21  H   UNL     1     101.544 117.203 134.476  1.00  0.00     0.293 HD
ENDBRANCH  17  20
ENDBRANCH   1  12
BRANCH   2  22
ATOM     22  O   UNL     1     106.155 116.182 137.458  1.00  0.00    -0.502 OA
ATOM     23  H   UNL     1     107.011 116.648 137.736  1.00  0.00     0.293 HD
ENDBRANCH   2  22
BRANCH   6  24
ATOM     24  O   UNL     1     106.792 114.106 142.184  1.00  0.00    -0.507 OA
ATOM     25  H   UNL     1     107.530 114.641 141.742  1.00  0.00     0.293 HD
ENDBRANCH   6  24
BRANCH   8  26
ATOM     26  O   UNL     1     103.994 110.167 141.880  1.00  0.00    -0.508 OA
ATOM     27  H   UNL     1     103.645 109.404 141.313  1.00  0.00     0.293 HD
ENDBRANCH   8  26
TORSDOF 6
ENDMDL
MODEL 4
REMARK VINA RESULT:    -6.806      1.565      6.824
REMARK INTER + INTRA:          -7.885
REMARK INTER:                  -7.593
REMARK INTRA:                  -0.292
REMARK UNBOUND:                 0.313
REMARK SMILES O=c1c(O)c(-c2ccc(O)c(O)c2)oc2cc(O)cc(O)c12
REMARK SMILES IDX 5 1 3 2 2 3 1 4 22 5 20 6 19 7 17 8 16 9 15 10 14 11 6 12
REMARK SMILES IDX 7 13 8 14 9 15 13 16 11 17 10 18 12 20 4 22 21 24 18 26
REMARK H PARENT 10 19 12 21 4 23 21 25 18 27
REMARK Flexibility Score: inf
ROOT
ATOM      1  C   UNL     1     109.028 102.420 137.675  1.00  0.00     0.180 A 
ATOM      2  C   UNL     1     108.390 103.675 137.655  1.00  0.00     0.208 A 
ATOM      3  C   UNL     1     109.060 104.767 137.081  1.00  0.00     0.238 A 
ATOM      4  O   UNL     1     108.504 105.899 137.069  1.00  0.00    -0.285 OA
ATOM      5  C   UNL     1     110.341 104.584 136.521  1.00  0.00     0.111 A 
ATOM      6  C   UNL     1     111.081 105.631 135.921  1.00  0.00     0.134 A 
ATOM      7  C   UNL     1     112.347 105.365 135.378  1.00  0.00     0.093 A 
ATOM      8  C   UNL     1     112.885 104.073 135.422  1.00  0.00     0.123 A 
ATOM      9  C   UNL     1     112.159 103.038 136.013  1.00  0.00     0.094 A 
ATOM     10  C   UNL     1     110.897 103.283 136.562  1.00  0.00     0.146 A 
ATOM     11  O   UNL     1     110.230 102.280 137.123  1.00  0.00    -0.452 OA
ENDROOT
BRANCH   1  12
ATOM     12  C   UNL     1     108.394 101.225 138.278  1.00  0.00     0.025 A 
ATOM     13  C   UNL     1     108.735 100.850 139.587  1.00  0.00     0.016 A 
ATOM     14  C   UNL     1     108.134  99.738 140.184  1.00  0.00     0.051 A 
ATOM     15  C   UNL     1     107.171  98.997 139.487  1.00  0.00     0.157 A 
ATOM     16  C   UNL     1     107.412 100.491 137.589  1.00  0.00     0.062 A 
ATOM     17  C   UNL     1     106.806  99.377 138.188  1.00  0.00     0.158 A 
BRANCH  15  18
ATOM     18  O   UNL     1     106.570  97.887 140.077  1.00  0.00    -0.504 OA
ATOM     19  H   UNL     1     107.093  97.254 140.670  1.00  0.00     0.293 HD
ENDBRANCH  15  18
BRANCH  17  20
ATOM     20  O   UNL     1     105.838  98.646 137.503  1.00  0.00    -0.504 OA
ATOM     21  H   UNL     1     105.133  99.102 136.935  1.00  0.00     0.293 HD
ENDBRANCH  17  20
ENDBRANCH   1  12
BRANCH   2  22
ATOM     22  O   UNL     1     107.100 103.820 138.173  1.00  0.00    -0.502 OA
ATOM     23  H   UNL     1     106.683 104.727 138.343  1.00  0.00     0.293 HD
ENDBRANCH   2  22
BRANCH   6  24
ATOM     24  O   UNL     1     110.571 106.928 135.861  1.00  0.00    -0.507 OA
ATOM     25  H   UNL     1     109.612 107.112 135.592  1.00  0.00     0.293 HD
ENDBRANCH   6  24
BRANCH   8  26
ATOM     26  O   UNL     1     114.141 103.809 134.881  1.00  0.00    -0.508 OA
ATOM     27  H   UNL     1     114.891 103.427 135.445  1.00  0.00     0.293 HD
ENDBRANCH   8  26
TORSDOF 6
ENDMDL
MODEL 5
REMARK VINA RESULT:    -6.803      9.916     11.785
REMARK INTER + INTRA:          -7.882
REMARK INTER:                  -7.557
REMARK INTRA:                  -0.325
REMARK UNBOUND:                 0.313
REMARK SMILES O=c1c(O)c(-c2ccc(O)c(O)c2)oc2cc(O)cc(O)c12
REMARK SMILES IDX 5 1 3 2 2 3 1 4 22 5 20 6 19 7 17 8 16 9 15 10 14 11 6 12
REMARK SMILES IDX 7 13 8 14 9 15 13 16 11 17 10 18 12 20 4 22 21 24 18 26
REMARK H PARENT 10 19 12 21 4 23 21 25 18 27
REMARK Flexibility Score: inf
ROOT
ATOM      1  C   UNL     1     106.704 112.599 138.792  1.00  0.00     0.180 A 
ATOM      2  C   UNL     1     105.816 113.678 138.965  1.00  0.00     0.208 A 
ATOM      3  C   UNL     1     105.069 114.125 137.864  1.00  0.00     0.238 A 
ATOM      4  O   UNL     1     104.279 115.098 138.004  1.00  0.00    -0.285 OA
ATOM      5  C   UNL     1     105.205 113.476 136.620  1.00  0.00     0.111 A 
ATOM      6  C   UNL     1     104.486 113.861 135.462  1.00  0.00     0.134 A 
ATOM      7  C   UNL     1     104.671 113.158 134.263  1.00  0.00     0.093 A 
ATOM      8  C   UNL     1     105.559 112.078 134.199  1.00  0.00     0.123 A 
ATOM      9  C   UNL     1     106.270 111.695 135.337  1.00  0.00     0.094 A 
ATOM     10  C   UNL     1     106.101 112.384 136.542  1.00  0.00     0.146 A 
ATOM     11  O   UNL     1     106.795 112.001 137.607  1.00  0.00    -0.452 OA
ENDROOT
BRANCH   1  12
ATOM     12  C   UNL     1     107.539 112.083 139.901  1.00  0.00     0.025 A 
ATOM     13  C   UNL     1     107.129 110.935 140.597  1.00  0.00     0.016 A 
ATOM     14  C   UNL     1     107.912 110.417 141.633  1.00  0.00     0.051 A 
ATOM     15  C   UNL     1     109.124 111.031 141.975  1.00  0.00     0.157 A 
ATOM     16  C   UNL     1     108.767 112.682 140.233  1.00  0.00     0.062 A 
ATOM     17  C   UNL     1     109.555 112.163 141.271  1.00  0.00     0.158 A 
BRANCH  15  18
ATOM     18  O   UNL     1     109.907 110.520 143.008  1.00  0.00    -0.504 OA
ATOM     19  H   UNL     1     109.491 110.148 143.854  1.00  0.00     0.293 HD
ENDBRANCH  15  18
BRANCH  17  20
ATOM     20  O   UNL     1     110.768 112.761 141.604  1.00  0.00    -0.504 OA
ATOM     21  H   UNL     1     111.246 113.384 140.963  1.00  0.00     0.293 HD
ENDBRANCH  17  20
ENDBRANCH   1  12
BRANCH   2  22
ATOM     22  O   UNL     1     105.663 114.273 140.221  1.00  0.00    -0.502 OA
ATOM     23  H   UNL     1     105.164 113.821 140.977  1.00  0.00     0.293 HD
ENDBRANCH   2  22
BRANCH   6  24
ATOM     24  O   UNL     1     103.593 114.933 135.495  1.00  0.00    -0.507 OA
ATOM     25  H   UNL     1     103.161 115.292 134.652  1.00  0.00     0.293 HD
ENDBRANCH   6  24
BRANCH   8  26
ATOM     26  O   UNL     1     105.742 111.379 133.007  1.00  0.00    -0.508 OA
ATOM     27  H   UNL     1     106.357 110.576 132.953  1.00  0.00     0.293 HD
ENDBRANCH   8  26
TORSDOF 6
ENDMDL
MODEL 6
REMARK VINA RESULT:    -6.751      1.951      7.345
REMARK INTER + INTRA:          -7.819
REMARK INTER:                  -7.563
REMARK INTRA:                  -0.256
REMARK UNBOUND:                 0.313
REMARK SMILES O=c1c(O)c(-c2ccc(O)c(O)c2)oc2cc(O)cc(O)c12
REMARK SMILES IDX 5 1 3 2 2 3 1 4 22 5 20 6 19 7 17 8 16 9 15 10 14 11 6 12
REMARK SMILES IDX 7 13 8 14 9 15 13 16 11 17 10 18 12 20 4 22 21 24 18 26
REMARK H PARENT 10 19 12 21 4 23 21 25 18 27
REMARK Flexibility Score: inf
ROOT
ATOM      1  C   UNL     1     108.953 102.278 137.743  1.00  0.00     0.180 A 
ATOM      2  C   UNL     1     110.315 102.229 137.386  1.00  0.00     0.208 A 
ATOM      3  C   UNL     1     110.902 103.360 136.797  1.00  0.00     0.238 A 
ATOM      4  O   UNL     1     112.118 103.323 136.462  1.00  0.00    -0.285 OA
ATOM      5  C   UNL     1     110.130 104.521 136.594  1.00  0.00     0.111 A 
ATOM      6  C   UNL     1     110.647 105.703 136.011  1.00  0.00     0.134 A 
ATOM      7  C   UNL     1     109.816 106.822 135.852  1.00  0.00     0.093 A 
ATOM      8  C   UNL     1     108.479 106.781 136.265  1.00  0.00     0.123 A 
ATOM      9  C   UNL     1     107.964 105.617 136.840  1.00  0.00     0.094 A 
ATOM     10  C   UNL     1     108.777 104.492 137.005  1.00  0.00     0.146 A 
ATOM     11  O   UNL     1     108.259 103.397 137.550  1.00  0.00    -0.452 OA
ENDROOT
BRANCH   1  12
ATOM     12  C   UNL     1     108.257 101.121 138.351  1.00  0.00     0.025 A 
ATOM     13  C   UNL     1     108.484 100.812 139.702  1.00  0.00     0.016 A 
ATOM     14  C   UNL     1     107.823  99.737 140.303  1.00  0.00     0.051 A 
ATOM     15  C   UNL     1     106.912  98.968 139.566  1.00  0.00     0.157 A 
ATOM     16  C   UNL     1     107.327 100.360 137.622  1.00  0.00     0.062 A 
ATOM     17  C   UNL     1     106.661  99.282 138.224  1.00  0.00     0.158 A 
BRANCH  15  18
ATOM     18  O   UNL     1     106.252  97.895 140.161  1.00  0.00    -0.504 OA
ATOM     19  H   UNL     1     106.736  97.246 140.770  1.00  0.00     0.293 HD
ENDBRANCH  15  18
BRANCH  17  20
ATOM     20  O   UNL     1     105.744  98.524 137.499  1.00  0.00    -0.504 OA
ATOM     21  H   UNL     1     105.935  98.226 136.550  1.00  0.00     0.293 HD
ENDBRANCH  17  20
ENDBRANCH   1  12
BRANCH   2  22
ATOM     22  O   UNL     1     111.070 101.082 137.642  1.00  0.00    -0.502 OA
ATOM     23  H   UNL     1     110.662 100.155 137.656  1.00  0.00     0.293 HD
ENDBRANCH   2  22
BRANCH   6  24
ATOM     24  O   UNL     1     111.976 105.775 135.590  1.00  0.00    -0.507 OA
ATOM     25  H   UNL     1     112.728 105.993 136.233  1.00  0.00     0.293 HD
ENDBRANCH   6  24
BRANCH   8  26
ATOM     26  O   UNL     1     107.653 107.892 136.107  1.00  0.00    -0.508 OA
ATOM     27  H   UNL     1     107.827 108.756 136.606  1.00  0.00     0.293 HD
ENDBRANCH   8  26
TORSDOF 6
ENDMDL
MODEL 7
REMARK VINA RESULT:    -6.595     11.889     14.587
REMARK INTER + INTRA:          -7.630
REMARK INTER:                  -7.386
REMARK INTRA:                  -0.245
REMARK UNBOUND:                 0.313
REMARK SMILES O=c1c(O)c(-c2ccc(O)c(O)c2)oc2cc(O)cc(O)c12
REMARK SMILES IDX 5 1 3 2 2 3 1 4 22 5 20 6 19 7 17 8 16 9 15 10 14 11 6 12
REMARK SMILES IDX 7 13 8 14 9 15 13 16 11 17 10 18 12 20 4 22 21 24 18 26
REMARK H PARENT 10 19 12 21 4 23 21 25 18 27
REMARK Flexibility Score: inf
ROOT
ATOM      1  C   UNL     1     104.582 114.548 137.156  1.00  0.00     0.180 A 
ATOM      2  C   UNL     1     105.179 114.016 135.998  1.00  0.00     0.208 A 
ATOM      3  C   UNL     1     104.565 114.238 134.755  1.00  0.00     0.238 A 
ATOM      4  O   UNL     1     105.084 113.755 133.712  1.00  0.00    -0.285 OA
ATOM      5  C   UNL     1     103.382 115.002 134.688  1.00  0.00     0.111 A 
ATOM      6  C   UNL     1     102.703 115.275 133.476  1.00  0.00     0.134 A 
ATOM      7  C   UNL     1     101.535 116.052 133.493  1.00  0.00     0.093 A 
ATOM      8  C   UNL     1     101.035 116.561 134.697  1.00  0.00     0.123 A 
ATOM      9  C   UNL     1     101.700 116.294 135.895  1.00  0.00     0.094 A 
ATOM     10  C   UNL     1     102.865 115.520 135.899  1.00  0.00     0.146 A 
ATOM     11  O   UNL     1     103.474 115.277 137.054  1.00  0.00    -0.452 OA
ENDROOT
BRANCH   1  12
ATOM     12  C   UNL     1     105.160 114.342 138.504  1.00  0.00     0.025 A 
ATOM     13  C   UNL     1     105.692 115.438 139.202  1.00  0.00     0.016 A 
ATOM     14  C   UNL     1     106.223 115.271 140.484  1.00  0.00     0.051 A 
ATOM     15  C   UNL     1     106.213 114.009 141.093  1.00  0.00     0.157 A 
ATOM     16  C   UNL     1     105.133 113.082 139.127  1.00  0.00     0.062 A 
ATOM     17  C   UNL     1     105.664 112.913 140.415  1.00  0.00     0.158 A 
BRANCH  15  18
ATOM     18  O   UNL     1     106.744 113.837 142.370  1.00  0.00    -0.504 OA
ATOM     19  H   UNL     1     106.274 113.270 143.066  1.00  0.00     0.293 HD
ENDBRANCH  15  18
BRANCH  17  20
ATOM     20  O   UNL     1     105.642 111.663 141.029  1.00  0.00    -0.504 OA
ATOM     21  H   UNL     1     104.784 111.130 141.118  1.00  0.00     0.293 HD
ENDBRANCH  17  20
ENDBRANCH   1  12
BRANCH   2  22
ATOM     22  O   UNL     1     106.378 113.303 136.085  1.00  0.00    -0.502 OA
ATOM     23  H   UNL     1     106.860 112.951 135.267  1.00  0.00     0.293 HD
ENDBRANCH   2  22
BRANCH   6  24
ATOM     24  O   UNL     1     103.178 114.782 132.260  1.00  0.00    -0.507 OA
ATOM     25  H   UNL     1     103.291 115.380 131.451  1.00  0.00     0.293 HD
ENDBRANCH   6  24
BRANCH   8  26
ATOM     26  O   UNL     1      99.875 117.333 134.713  1.00  0.00    -0.508 OA
ATOM     27  H   UNL     1      99.443 117.622 135.583  1.00  0.00     0.293 HD
ENDBRANCH   8  26
TORSDOF 6
ENDMDL
MODEL 8
REMARK VINA RESULT:    -6.579     10.000     12.436
REMARK INTER + INTRA:          -7.611
REMARK INTER:                  -7.328
REMARK INTRA:                  -0.283
REMARK UNBOUND:                 0.313
REMARK SMILES O=c1c(O)c(-c2ccc(O)c(O)c2)oc2cc(O)cc(O)c12
REMARK SMILES IDX 5 1 3 2 2 3 1 4 22 5 20 6 19 7 17 8 16 9 15 10 14 11 6 12
REMARK SMILES IDX 7 13 8 14 9 15 13 16 11 17 10 18 12 20 4 22 21 24 18 26
REMARK H PARENT 10 19 12 21 4 23 21 25 18 27
REMARK Flexibility Score: inf
ROOT
ATOM      1  C   UNL     1     105.764 113.735 137.674  1.00  0.00     0.180 A 
ATOM      2  C   UNL     1     106.928 114.510 137.847  1.00  0.00     0.208 A 
ATOM      3  C   UNL     1     107.885 114.095 138.787  1.00  0.00     0.238 A 
ATOM      4  O   UNL     1     108.925 114.787 138.958  1.00  0.00    -0.285 OA
ATOM      5  C   UNL     1     107.675 112.910 139.520  1.00  0.00     0.111 A 
ATOM      6  C   UNL     1     108.591 112.422 140.482  1.00  0.00     0.134 A 
ATOM      7  C   UNL     1     108.313 111.228 141.165  1.00  0.00     0.093 A 
ATOM      8  C   UNL     1     107.138 110.514 140.902  1.00  0.00     0.123 A 
ATOM      9  C   UNL     1     106.231 110.992 139.954  1.00  0.00     0.094 A 
ATOM     10  C   UNL     1     106.489 112.181 139.265  1.00  0.00     0.146 A 
ATOM     11  O   UNL     1     105.607 112.615 138.373  1.00  0.00    -0.452 OA
ENDROOT
BRANCH   1  12
ATOM     12  C   UNL     1     104.701 114.116 136.716  1.00  0.00     0.025 A 
ATOM     13  C   UNL     1     103.548 114.764 137.187  1.00  0.00     0.016 A 
ATOM     14  C   UNL     1     102.541 115.152 136.298  1.00  0.00     0.051 A 
ATOM     15  C   UNL     1     102.682 114.912 134.925  1.00  0.00     0.157 A 
ATOM     16  C   UNL     1     104.848 113.897 135.335  1.00  0.00     0.062 A 
ATOM     17  C   UNL     1     103.839 114.287 134.442  1.00  0.00     0.158 A 
BRANCH  15  18
ATOM     18  O   UNL     1     101.680 115.295 134.035  1.00  0.00    -0.504 OA
ATOM     19  H   UNL     1     101.065 116.076 134.234  1.00  0.00     0.293 HD
ENDBRANCH  15  18
BRANCH  17  20
ATOM     20  O   UNL     1     103.981 114.064 133.074  1.00  0.00    -0.504 OA
ATOM     21  H   UNL     1     103.196 113.782 132.498  1.00  0.00     0.293 HD
ENDBRANCH  17  20
ENDBRANCH   1  12
BRANCH   2  22
ATOM     22  O   UNL     1     107.136 115.654 137.072  1.00  0.00    -0.502 OA
ATOM     23  H   UNL     1     106.770 116.561 137.336  1.00  0.00     0.293 HD
ENDBRANCH   2  22
BRANCH   6  24
ATOM     24  O   UNL     1     109.771 113.110 140.765  1.00  0.00    -0.507 OA
ATOM     25  H   UNL     1     110.020 113.375 141.711  1.00  0.00     0.293 HD
ENDBRANCH   6  24
BRANCH   8  26
ATOM     26  O   UNL     1     106.862 109.328 141.579  1.00  0.00    -0.508 OA
ATOM     27  H   UNL     1     106.628 109.323 142.565  1.00  0.00     0.293 HD
ENDBRANCH   8  26
TORSDOF 6
ENDMDL
MODEL 9
REMARK VINA RESULT:    -6.554      2.861      6.698
REMARK INTER + INTRA:          -7.581
REMARK INTER:                  -7.693
REMARK INTRA:                   0.112
REMARK UNBOUND:                 0.313
REMARK SMILES O=c1c(O)c(-c2ccc(O)c(O)c2)oc2cc(O)cc(O)c12
REMARK SMILES IDX 5 1 3 2 2 3 1 4 22 5 20 6 19 7 17 8 16 9 15 10 14 11 6 12
REMARK SMILES IDX 7 13 8 14 9 15 13 16 11 17 10 18 12 20 4 22 21 24 18 26
REMARK H PARENT 10 19 12 21 4 23 21 25 18 27
REMARK Flexibility Score: inf
ROOT
ATOM      1  C   UNL     1     108.868 105.259 136.640  1.00  0.00     0.180 A 
ATOM      2  C   UNL     1     109.095 103.920 137.013  1.00  0.00     0.208 A 
ATOM      3  C   UNL     1     110.379 103.378 136.845  1.00  0.00     0.238 A 
ATOM      4  O   UNL     1     110.591 102.177 137.164  1.00  0.00    -0.285 OA
ATOM      5  C   UNL     1     111.414 104.184 136.331  1.00  0.00     0.111 A 
ATOM      6  C   UNL     1     112.736 103.716 136.135  1.00  0.00     0.134 A 
ATOM      7  C   UNL     1     113.713 104.584 135.626  1.00  0.00     0.093 A 
ATOM      8  C   UNL     1     113.395 105.910 135.310  1.00  0.00     0.123 A 
ATOM      9  C   UNL     1     112.093 106.376 135.501  1.00  0.00     0.094 A 
ATOM     10  C   UNL     1     111.104 105.526 136.006  1.00  0.00     0.146 A 
ATOM     11  O   UNL     1     109.873 105.994 136.172  1.00  0.00    -0.452 OA
ENDROOT
BRANCH   1  12
ATOM     12  C   UNL     1     107.537 105.897 136.769  1.00  0.00     0.025 A 
ATOM     13  C   UNL     1     107.452 107.243 137.160  1.00  0.00     0.016 A 
ATOM     14  C   UNL     1     106.208 107.871 137.268  1.00  0.00     0.051 A 
ATOM     15  C   UNL     1     105.034 107.167 136.970  1.00  0.00     0.157 A 
ATOM     16  C   UNL     1     106.358 105.201 136.451  1.00  0.00     0.062 A 
ATOM     17  C   UNL     1     105.109 105.831 136.557  1.00  0.00     0.158 A 
BRANCH  15  18
ATOM     18  O   UNL     1     103.792 107.789 137.078  1.00  0.00    -0.504 OA
ATOM     19  H   UNL     1     103.087 107.692 136.357  1.00  0.00     0.293 HD
ENDBRANCH  15  18
BRANCH  17  20
ATOM     20  O   UNL     1     103.940 105.139 136.247  1.00  0.00    -0.504 OA
ATOM     21  H   UNL     1     103.799 104.717 135.336  1.00  0.00     0.293 HD
ENDBRANCH  17  20
ENDBRANCH   1  12
BRANCH   2  22
ATOM     22  O   UNL     1     108.063 103.157 137.566  1.00  0.00    -0.502 OA
ATOM     23  H   UNL     1     107.730 102.303 137.136  1.00  0.00     0.293 HD
ENDBRANCH   2  22
BRANCH   6  24
ATOM     24  O   UNL     1     113.085 102.400 136.441  1.00  0.00    -0.507 OA
ATOM     25  H   UNL     1     113.066 101.667 135.742  1.00  0.00     0.293 HD
ENDBRANCH   6  24
BRANCH   8  26
ATOM     26  O   UNL     1     114.365 106.772 134.806  1.00  0.00    -0.508 OA
ATOM     27  H   UNL     1     114.128 107.696 134.464  1.00  0.00     0.293 HD
ENDBRANCH   8  26
TORSDOF 6
ENDMDL
