MODEL 1
REMARK VINA RESULT:    -6.345      0.000      0.000
REMARK INTER + INTRA:         -10.461
REMARK INTER:                  -9.127
REMARK INTRA:                  -1.335
REMARK UNBOUND:                -1.335
REMARK SMILES O=c1c(O[C@@H]2O[C@@H](CO)[C@@H](O)[C@H](O)[C@@H]2O)c(-c2ccc(O)cc2)oc2cc(O)cc(O)c12
REMARK SMILES IDX 4 1 3 2 16 3 24 4 2 5 25 6 1 7 32 8 26 9 30 10 27 11 29 12
REMARK SMILES IDX 17 13 18 14 19 15 20 16 23 17 22 18 21 19 31 21 28 23 5 25
REMARK SMILES IDX 14 26 6 27 12 28 7 29 10 30 15 31 13 33 8 35 9 36 11 38
REMARK H PARENT 21 20 31 22 28 24 15 32 13 34 9 37 11 39
REMARK Flexibility Score: inf
ROOT
ATOM      1  O   UNL     1      -8.806  33.320   6.836  1.00  0.00    -0.454 OA
ENDROOT
BRANCH   1   2
ATOM      2  C   UNL     1      -9.480  34.523   7.127  1.00  0.00     0.214 A 
ATOM      3  C   UNL     1     -10.492  34.496   8.108  1.00  0.00     0.180 A 
ATOM      4  O   UNL     1     -11.083  35.621   8.494  1.00  0.00    -0.452 OA
ATOM      5  C   UNL     1      -9.174  35.765   6.520  1.00  0.00     0.239 A 
ATOM      6  C   UNL     1     -10.800  36.808   7.978  1.00  0.00     0.146 A 
ATOM      7  O   UNL     1      -8.319  35.831   5.597  1.00  0.00    -0.285 OA
ATOM      8  C   UNL     1      -9.837  36.935   6.952  1.00  0.00     0.111 A 
ATOM      9  C   UNL     1     -11.472  37.936   8.460  1.00  0.00     0.094 A 
ATOM     10  C   UNL     1      -9.571  38.218   6.415  1.00  0.00     0.134 A 
ATOM     11  C   UNL     1     -11.195  39.200   7.938  1.00  0.00     0.123 A 
ATOM     12  C   UNL     1     -10.249  39.338   6.916  1.00  0.00     0.093 A 
BRANCH   3  13
ATOM     13  C   UNL     1     -10.916  33.233   8.751  1.00  0.00     0.021 A 
ATOM     14  C   UNL     1     -10.778  33.078  10.137  1.00  0.00     0.016 A 
ATOM     15  C   UNL     1     -11.192  31.896  10.760  1.00  0.00     0.047 A 
ATOM     16  C   UNL     1     -11.765  30.867  10.009  1.00  0.00     0.115 A 
ATOM     17  C   UNL     1     -11.513  32.206   8.002  1.00  0.00     0.016 A 
ATOM     18  C   UNL     1     -11.929  31.027   8.627  1.00  0.00     0.047 A 
BRANCH  16  19
ATOM     19  O   UNL     1     -12.171  29.693  10.642  1.00  0.00    -0.508 OA
ATOM     20  H   UNL     1     -12.473  28.885  10.112  1.00  0.00     0.293 HD
ENDBRANCH  16  19
ENDBRANCH   3  13
BRANCH  10  21
ATOM     21  O   UNL     1      -8.641  38.387   5.391  1.00  0.00    -0.507 OA
ATOM     22  H   UNL     1      -7.697  38.031   5.469  1.00  0.00     0.293 HD
ENDBRANCH  10  21
BRANCH  11  23
ATOM     23  O   UNL     1     -11.865  40.313   8.441  1.00  0.00    -0.508 OA
ATOM     24  H   UNL     1     -11.647  41.250   8.124  1.00  0.00     0.293 HD
ENDBRANCH  11  23
ENDBRANCH   1   2
BRANCH   1  25
ATOM     25  C   UNL     1      -8.464  32.811   5.542  1.00  0.00     0.339 C 
ATOM     26  C   UNL     1      -6.933  32.667   5.395  1.00  0.00     0.214 C 
ATOM     27  O   UNL     1      -9.126  31.584   5.276  1.00  0.00    -0.332 OA
ATOM     28  C   UNL     1      -6.390  31.505   6.243  1.00  0.00     0.180 C 
ATOM     29  C   UNL     1      -8.728  30.573   6.188  1.00  0.00     0.179 C 
ATOM     30  C   UNL     1      -7.233  30.236   6.008  1.00  0.00     0.177 C 
BRANCH  26  31
ATOM     31  O   UNL     1      -6.289  33.860   5.764  1.00  0.00    -0.384 OA
ATOM     32  H   UNL     1      -6.352  33.925   6.756  1.00  0.00     0.211 HD
ENDBRANCH  26  31
BRANCH  28  33
ATOM     33  O   UNL     1      -6.415  31.854   7.603  1.00  0.00    -0.387 OA
ATOM     34  H   UNL     1      -7.355  31.767   7.908  1.00  0.00     0.211 HD
ENDBRANCH  28  33
BRANCH  29  35
ATOM     35  C   UNL     1      -9.602  29.334   5.973  1.00  0.00     0.191 C 
BRANCH  35  36
ATOM     36  O   UNL     1     -10.019  29.284   4.636  1.00  0.00    -0.394 OA
ATOM     37  H   UNL     1      -9.639  30.088   4.199  1.00  0.00     0.210 HD
ENDBRANCH  35  36
ENDBRANCH  29  35
BRANCH  30  38
ATOM     38  O   UNL     1      -7.007  29.744   4.710  1.00  0.00    -0.387 OA
ATOM     39  H   UNL     1      -6.210  30.222   4.358  1.00  0.00     0.211 HD
ENDBRANCH  30  38
ENDBRANCH   1  25
TORSDOF 11
ENDMDL
MODEL 2
REMARK VINA RESULT:    -6.017      1.118      2.372
REMARK INTER + INTRA:          -9.989
REMARK INTER:                  -8.897
REMARK INTRA:                  -1.092
REMARK UNBOUND:                -1.335
REMARK SMILES O=c1c(O[C@@H]2O[C@@H](CO)[C@@H](O)[C@H](O)[C@@H]2O)c(-c2ccc(O)cc2)oc2cc(O)cc(O)c12
REMARK SMILES IDX 4 1 3 2 16 3 24 4 2 5 25 6 1 7 32 8 26 9 30 10 27 11 29 12
REMARK SMILES IDX 17 13 18 14 19 15 20 16 23 17 22 18 21 19 31 21 28 23 5 25
REMARK SMILES IDX 14 26 6 27 12 28 7 29 10 30 15 31 13 33 8 35 9 36 11 38
REMARK H PARENT 21 20 31 22 28 24 15 32 13 34 9 37 11 39
REMARK Flexibility Score: inf
ROOT
ATOM      1  O   UNL     1      -9.390  32.455   6.447  1.00  0.00    -0.454 OA
ENDROOT
BRANCH   1   2
ATOM      2  C   UNL     1      -9.786  33.764   6.786  1.00  0.00     0.214 A 
ATOM      3  C   UNL     1     -10.714  33.926   7.835  1.00  0.00     0.180 A 
ATOM      4  O   UNL     1     -11.039  35.141   8.264  1.00  0.00    -0.452 OA
ATOM      5  C   UNL     1      -9.278  34.928   6.161  1.00  0.00     0.239 A 
ATOM      6  C   UNL     1     -10.558  36.254   7.731  1.00  0.00     0.146 A 
ATOM      7  O   UNL     1      -8.492  34.836   5.182  1.00  0.00    -0.285 OA
ATOM      8  C   UNL     1      -9.661  36.201   6.641  1.00  0.00     0.111 A 
ATOM      9  C   UNL     1     -10.954  37.486   8.260  1.00  0.00     0.094 A 
ATOM     10  C   UNL     1      -9.179  37.413   6.088  1.00  0.00     0.134 A 
ATOM     11  C   UNL     1     -10.464  38.677   7.722  1.00  0.00     0.123 A 
ATOM     12  C   UNL     1      -9.581  38.638   6.637  1.00  0.00     0.093 A 
BRANCH   3  13
ATOM     13  C   UNL     1     -11.339  32.764   8.504  1.00  0.00     0.021 A 
ATOM     14  C   UNL     1     -10.861  32.339   9.752  1.00  0.00     0.016 A 
ATOM     15  C   UNL     1     -11.455  31.254  10.403  1.00  0.00     0.047 A 
ATOM     16  C   UNL     1     -12.544  30.596   9.826  1.00  0.00     0.115 A 
ATOM     17  C   UNL     1     -12.448  32.115   7.937  1.00  0.00     0.016 A 
ATOM     18  C   UNL     1     -13.042  31.032   8.592  1.00  0.00     0.047 A 
BRANCH  16  19
ATOM     19  O   UNL     1     -13.125  29.513  10.485  1.00  0.00    -0.508 OA
ATOM     20  H   UNL     1     -12.765  28.573  10.376  1.00  0.00     0.293 HD
ENDBRANCH  16  19
ENDBRANCH   3  13
BRANCH  10  21
ATOM     21  O   UNL     1      -8.305  37.407   5.002  1.00  0.00    -0.507 OA
ATOM     22  H   UNL     1      -8.302  36.652   4.330  1.00  0.00     0.293 HD
ENDBRANCH  10  21
BRANCH  11  23
ATOM     23  O   UNL     1     -10.861  39.894   8.272  1.00  0.00    -0.508 OA
ATOM     24  H   UNL     1     -10.987  40.007   9.271  1.00  0.00     0.293 HD
ENDBRANCH  11  23
ENDBRANCH   1   2
BRANCH   1  25
ATOM     25  C   UNL     1      -8.736  31.503   7.294  1.00  0.00     0.339 C 
ATOM     26  C   UNL     1      -9.004  30.060   6.808  1.00  0.00     0.214 C 
ATOM     27  O   UNL     1      -7.345  31.764   7.391  1.00  0.00    -0.332 OA
ATOM     28  C   UNL     1      -8.250  29.754   5.503  1.00  0.00     0.180 C 
ATOM     29  C   UNL     1      -6.705  31.640   6.131  1.00  0.00     0.179 C 
ATOM     30  C   UNL     1      -6.775  30.182   5.628  1.00  0.00     0.177 C 
BRANCH  26  31
ATOM     31  O   UNL     1     -10.380  29.853   6.616  1.00  0.00    -0.384 OA
ATOM     32  H   UNL     1     -10.635  30.359   5.797  1.00  0.00     0.211 HD
ENDBRANCH  26  31
BRANCH  28  33
ATOM     33  O   UNL     1      -8.858  30.428   4.431  1.00  0.00    -0.387 OA
ATOM     34  H   UNL     1      -9.333  31.211   4.812  1.00  0.00     0.211 HD
ENDBRANCH  28  33
BRANCH  29  35
ATOM     35  C   UNL     1      -5.253  32.110   6.260  1.00  0.00     0.191 C 
BRANCH  35  36
ATOM     36  O   UNL     1      -4.753  31.740   7.516  1.00  0.00    -0.394 OA
ATOM     37  H   UNL     1      -4.525  32.585   7.980  1.00  0.00     0.210 HD
ENDBRANCH  35  36
ENDBRANCH  29  35
BRANCH  30  38
ATOM     38  O   UNL     1      -6.104  29.334   6.526  1.00  0.00    -0.387 OA
ATOM     39  H   UNL     1      -6.546  29.447   7.410  1.00  0.00     0.211 HD
ENDBRANCH  30  38
ENDBRANCH   1  25
TORSDOF 11
ENDMDL
MODEL 3
REMARK VINA RESULT:    -5.995      1.457      1.897
REMARK INTER + INTRA:          -9.959
REMARK INTER:                  -8.198
REMARK INTRA:                  -1.760
REMARK UNBOUND:                -1.335
REMARK SMILES O=c1c(O[C@@H]2O[C@@H](CO)[C@@H](O)[C@H](O)[C@@H]2O)c(-c2ccc(O)cc2)oc2cc(O)cc(O)c12
REMARK SMILES IDX 4 1 3 2 16 3 24 4 2 5 25 6 1 7 32 8 26 9 30 10 27 11 29 12
REMARK SMILES IDX 17 13 18 14 19 15 20 16 23 17 22 18 21 19 31 21 28 23 5 25
REMARK SMILES IDX 14 26 6 27 12 28 7 29 10 30 15 31 13 33 8 35 9 36 11 38
REMARK H PARENT 21 20 31 22 28 24 15 32 13 34 9 37 11 39
REMARK Flexibility Score: inf
ROOT
ATOM      1  O   UNL     1      -9.164  31.890   6.891  1.00  0.00    -0.454 OA
ENDROOT
BRANCH   1   2
ATOM      2  C   UNL     1      -9.541  33.241   7.032  1.00  0.00     0.214 A 
ATOM      3  C   UNL     1     -10.506  33.561   8.008  1.00  0.00     0.180 A 
ATOM      4  O   UNL     1     -10.819  34.829   8.254  1.00  0.00    -0.452 OA
ATOM      5  C   UNL     1      -8.981  34.299   6.278  1.00  0.00     0.239 A 
ATOM      6  C   UNL     1     -10.290  35.850   7.596  1.00  0.00     0.146 A 
ATOM      7  O   UNL     1      -8.159  34.059   5.354  1.00  0.00    -0.285 OA
ATOM      8  C   UNL     1      -9.351  35.632   6.563  1.00  0.00     0.111 A 
ATOM      9  C   UNL     1     -10.678  37.150   7.936  1.00  0.00     0.094 A 
ATOM     10  C   UNL     1      -8.819  36.748   5.873  1.00  0.00     0.134 A 
ATOM     11  C   UNL     1     -10.138  38.247   7.263  1.00  0.00     0.123 A 
ATOM     12  C   UNL     1      -9.213  38.044   6.232  1.00  0.00     0.093 A 
BRANCH   3  13
ATOM     13  C   UNL     1     -11.185  32.513   8.801  1.00  0.00     0.021 A 
ATOM     14  C   UNL     1     -10.745  32.229  10.102  1.00  0.00     0.016 A 
ATOM     15  C   UNL     1     -11.390  31.254  10.869  1.00  0.00     0.047 A 
ATOM     16  C   UNL     1     -12.493  30.568  10.353  1.00  0.00     0.115 A 
ATOM     17  C   UNL     1     -12.308  31.838   8.295  1.00  0.00     0.016 A 
ATOM     18  C   UNL     1     -12.954  30.865   9.064  1.00  0.00     0.047 A 
BRANCH  16  19
ATOM     19  O   UNL     1     -13.125  29.596  11.128  1.00  0.00    -0.508 OA
ATOM     20  H   UNL     1     -12.636  29.114  11.872  1.00  0.00     0.293 HD
ENDBRANCH  16  19
ENDBRANCH   3  13
BRANCH  10  21
ATOM     21  O   UNL     1      -7.903  36.578   4.836  1.00  0.00    -0.507 OA
ATOM     22  H   UNL     1      -8.120  36.857   3.888  1.00  0.00     0.293 HD
ENDBRANCH  10  21
BRANCH  11  23
ATOM     23  O   UNL     1     -10.527  39.535   7.625  1.00  0.00    -0.508 OA
ATOM     24  H   UNL     1      -9.905  40.327   7.514  1.00  0.00     0.293 HD
ENDBRANCH  11  23
ENDBRANCH   1   2
BRANCH   1  25
ATOM     25  C   UNL     1      -9.694  30.936   5.965  1.00  0.00     0.339 C 
ATOM     26  C   UNL     1      -8.592  30.422   5.012  1.00  0.00     0.214 C 
ATOM     27  O   UNL     1     -10.337  29.863   6.637  1.00  0.00    -0.332 OA
ATOM     28  C   UNL     1      -7.600  29.500   5.740  1.00  0.00     0.180 C 
ATOM     29  C   UNL     1      -9.422  29.132   7.438  1.00  0.00     0.179 C 
ATOM     30  C   UNL     1      -8.362  28.438   6.557  1.00  0.00     0.177 C 
BRANCH  26  31
ATOM     31  O   UNL     1      -7.898  31.500   4.437  1.00  0.00    -0.384 OA
ATOM     32  H   UNL     1      -6.934  31.249   4.429  1.00  0.00     0.211 HD
ENDBRANCH  26  31
BRANCH  28  33
ATOM     33  O   UNL     1      -6.776  30.259   6.588  1.00  0.00    -0.387 OA
ATOM     34  H   UNL     1      -5.851  29.917   6.477  1.00  0.00     0.211 HD
ENDBRANCH  28  33
BRANCH  29  35
ATOM     35  C   UNL     1     -10.198  28.111   8.276  1.00  0.00     0.191 C 
BRANCH  35  36
ATOM     36  O   UNL     1     -11.368  27.744   7.598  1.00  0.00    -0.394 OA
ATOM     37  H   UNL     1     -11.697  26.922   8.043  1.00  0.00     0.210 HD
ENDBRANCH  35  36
ENDBRANCH  29  35
BRANCH  30  38
ATOM     38  O   UNL     1      -8.987  27.523   5.690  1.00  0.00    -0.387 OA
ATOM     39  H   UNL     1      -9.799  27.195   6.159  1.00  0.00     0.211 HD
ENDBRANCH  30  38
ENDBRANCH   1  25
TORSDOF 11
ENDMDL
MODEL 4
REMARK VINA RESULT:    -5.772      2.310      5.872
REMARK INTER + INTRA:          -9.637
REMARK INTER:                  -8.123
REMARK INTRA:                  -1.515
REMARK UNBOUND:                -1.335
REMARK SMILES O=c1c(O[C@@H]2O[C@@H](CO)[C@@H](O)[C@H](O)[C@@H]2O)c(-c2ccc(O)cc2)oc2cc(O)cc(O)c12
REMARK SMILES IDX 4 1 3 2 16 3 24 4 2 5 25 6 1 7 32 8 26 9 30 10 27 11 29 12
REMARK SMILES IDX 17 13 18 14 19 15 20 16 23 17 22 18 21 19 31 21 28 23 5 25
REMARK SMILES IDX 14 26 6 27 12 28 7 29 10 30 15 31 13 33 8 35 9 36 11 38
REMARK H PARENT 21 20 31 22 28 24 15 32 13 34 9 37 11 39
REMARK Flexibility Score: inf
ROOT
ATOM      1  O   UNL     1      -9.439  29.796   7.018  1.00  0.00    -0.454 OA
ENDROOT
BRANCH   1   2
ATOM      2  C   UNL     1      -9.051  31.116   6.713  1.00  0.00     0.214 A 
ATOM      3  C   UNL     1      -8.031  31.303   5.758  1.00  0.00     0.180 A 
ATOM      4  O   UNL     1      -7.702  32.526   5.357  1.00  0.00    -0.452 OA
ATOM      5  C   UNL     1      -9.649  32.265   7.282  1.00  0.00     0.239 A 
ATOM      6  C   UNL     1      -8.264  33.626   5.837  1.00  0.00     0.146 A 
ATOM      7  O   UNL     1     -10.523  32.151   8.182  1.00  0.00    -0.285 OA
ATOM      8  C   UNL     1      -9.260  33.548   6.836  1.00  0.00     0.111 A 
ATOM      9  C   UNL     1      -7.854  34.869   5.343  1.00  0.00     0.094 A 
ATOM     10  C   UNL     1      -9.827  34.746   7.335  1.00  0.00     0.134 A 
ATOM     11  C   UNL     1      -8.427  36.045   5.827  1.00  0.00     0.123 A 
ATOM     12  C   UNL     1      -9.410  35.982   6.822  1.00  0.00     0.093 A 
BRANCH   3  13
ATOM     13  C   UNL     1      -7.312  30.160   5.156  1.00  0.00     0.021 A 
ATOM     14  C   UNL     1      -7.812  29.556   3.994  1.00  0.00     0.016 A 
ATOM     15  C   UNL     1      -7.131  28.485   3.405  1.00  0.00     0.047 A 
ATOM     16  C   UNL     1      -5.935  28.021   3.958  1.00  0.00     0.115 A 
ATOM     17  C   UNL     1      -6.097  29.705   5.697  1.00  0.00     0.016 A 
ATOM     18  C   UNL     1      -5.417  28.637   5.105  1.00  0.00     0.047 A 
BRANCH  16  19
ATOM     19  O   UNL     1      -5.268  26.951   3.362  1.00  0.00    -0.508 OA
ATOM     20  H   UNL     1      -4.781  27.058   2.481  1.00  0.00     0.293 HD
ENDBRANCH  16  19
ENDBRANCH   3  13
BRANCH  10  21
ATOM     21  O   UNL     1     -10.800  34.717   8.332  1.00  0.00    -0.507 OA
ATOM     22  H   UNL     1     -10.728  34.090   9.123  1.00  0.00     0.293 HD
ENDBRANCH  10  21
BRANCH  11  23
ATOM     23  O   UNL     1      -8.015  37.272   5.313  1.00  0.00    -0.508 OA
ATOM     24  H   UNL     1      -7.539  37.340   4.421  1.00  0.00     0.293 HD
ENDBRANCH  11  23
ENDBRANCH   1   2
BRANCH   1  25
ATOM     25  C   UNL     1     -10.510  29.051   6.427  1.00  0.00     0.339 C 
ATOM     26  C   UNL     1     -10.256  27.532   6.549  1.00  0.00     0.214 C 
ATOM     27  O   UNL     1     -11.763  29.412   6.986  1.00  0.00    -0.332 OA
ATOM     28  C   UNL     1     -10.419  27.046   7.999  1.00  0.00     0.180 C 
ATOM     29  C   UNL     1     -11.820  29.106   8.370  1.00  0.00     0.179 C 
ATOM     30  C   UNL     1     -11.737  27.580   8.593  1.00  0.00     0.177 C 
BRANCH  26  31
ATOM     31  O   UNL     1      -8.969  27.210   6.087  1.00  0.00    -0.384 OA
ATOM     32  H   UNL     1      -9.085  26.738   5.218  1.00  0.00     0.211 HD
ENDBRANCH  26  31
BRANCH  28  33
ATOM     33  O   UNL     1      -9.331  27.481   8.774  1.00  0.00    -0.387 OA
ATOM     34  H   UNL     1      -9.351  26.962   9.619  1.00  0.00     0.211 HD
ENDBRANCH  28  33
BRANCH  29  35
ATOM     35  C   UNL     1     -13.113  29.679   8.956  1.00  0.00     0.191 C 
BRANCH  35  36
ATOM     36  O   UNL     1     -12.881  30.985   9.410  1.00  0.00    -0.394 OA
ATOM     37  H   UNL     1     -12.626  30.903  10.363  1.00  0.00     0.210 HD
ENDBRANCH  35  36
ENDBRANCH  29  35
BRANCH  30  38
ATOM     38  O   UNL     1     -12.832  26.948   7.977  1.00  0.00    -0.387 OA
ATOM     39  H   UNL     1     -13.008  26.115   8.492  1.00  0.00     0.211 HD
ENDBRANCH  30  38
ENDBRANCH   1  25
TORSDOF 11
ENDMDL
MODEL 5
REMARK VINA RESULT:    -5.495      1.665      4.763
REMARK INTER + INTRA:          -9.238
REMARK INTER:                  -8.001
REMARK INTRA:                  -1.237
REMARK UNBOUND:                -1.335
REMARK SMILES O=c1c(O[C@@H]2O[C@@H](CO)[C@@H](O)[C@H](O)[C@@H]2O)c(-c2ccc(O)cc2)oc2cc(O)cc(O)c12
REMARK SMILES IDX 4 1 3 2 16 3 24 4 2 5 25 6 1 7 32 8 26 9 30 10 27 11 29 12
REMARK SMILES IDX 17 13 18 14 19 15 20 16 23 17 22 18 21 19 31 21 28 23 5 25
REMARK SMILES IDX 14 26 6 27 12 28 7 29 10 30 15 31 13 33 8 35 9 36 11 38
REMARK H PARENT 21 20 31 22 28 24 15 32 13 34 9 37 11 39
REMARK Flexibility Score: inf
ROOT
ATOM      1  O   UNL     1     -10.855  32.776   7.507  1.00  0.00    -0.454 OA
ENDROOT
BRANCH   1   2
ATOM      2  C   UNL     1     -10.192  34.004   7.308  1.00  0.00     0.214 A 
ATOM      3  C   UNL     1      -8.951  33.987   6.641  1.00  0.00     0.180 A 
ATOM      4  O   UNL     1      -8.337  35.125   6.335  1.00  0.00    -0.452 OA
ATOM      5  C   UNL     1     -10.717  35.257   7.706  1.00  0.00     0.239 A 
ATOM      6  C   UNL     1      -8.812  36.319   6.657  1.00  0.00     0.146 A 
ATOM      7  O   UNL     1     -11.793  35.320   8.357  1.00  0.00    -0.285 OA
ATOM      8  C   UNL     1     -10.024  36.441   7.372  1.00  0.00     0.111 A 
ATOM      9  C   UNL     1      -8.095  37.459   6.280  1.00  0.00     0.094 A 
ATOM     10  C   UNL     1     -10.493  37.734   7.710  1.00  0.00     0.134 A 
ATOM     11  C   UNL     1      -8.570  38.731   6.603  1.00  0.00     0.123 A 
ATOM     12  C   UNL     1      -9.765  38.866   7.318  1.00  0.00     0.093 A 
BRANCH   3  13
ATOM     13  C   UNL     1      -8.301  32.719   6.242  1.00  0.00     0.021 A 
ATOM     14  C   UNL     1      -8.775  32.016   5.125  1.00  0.00     0.016 A 
ATOM     15  C   UNL     1      -8.159  30.826   4.726  1.00  0.00     0.047 A 
ATOM     16  C   UNL     1      -7.052  30.338   5.425  1.00  0.00     0.115 A 
ATOM     17  C   UNL     1      -7.175  32.237   6.928  1.00  0.00     0.016 A 
ATOM     18  C   UNL     1      -6.558  31.049   6.526  1.00  0.00     0.047 A 
BRANCH  16  19
ATOM     19  O   UNL     1      -6.448  29.148   5.018  1.00  0.00    -0.508 OA
ATOM     20  H   UNL     1      -6.402  28.887   4.041  1.00  0.00     0.293 HD
ENDBRANCH  16  19
ENDBRANCH   3  13
BRANCH  10  21
ATOM     21  O   UNL     1     -11.675  37.901   8.430  1.00  0.00    -0.507 OA
ATOM     22  H   UNL     1     -12.574  37.654   8.036  1.00  0.00     0.293 HD
ENDBRANCH  10  21
BRANCH  11  23
ATOM     23  O   UNL     1      -7.848  39.854   6.208  1.00  0.00    -0.508 OA
ATOM     24  H   UNL     1      -7.956  40.256   5.284  1.00  0.00     0.293 HD
ENDBRANCH  11  23
ENDBRANCH   1   2
BRANCH   1  25
ATOM     25  C   UNL     1     -10.496  31.738   8.425  1.00  0.00     0.339 C 
ATOM     26  C   UNL     1     -10.983  32.074   9.853  1.00  0.00     0.214 C 
ATOM     27  O   UNL     1     -10.984  30.476   7.997  1.00  0.00    -0.332 OA
ATOM     28  C   UNL     1     -12.512  31.959   9.970  1.00  0.00     0.180 C 
ATOM     29  C   UNL     1     -12.402  30.456   7.953  1.00  0.00     0.179 C 
ATOM     30  C   UNL     1     -12.992  30.623   9.369  1.00  0.00     0.177 C 
BRANCH  26  31
ATOM     31  O   UNL     1     -10.580  33.370  10.218  1.00  0.00    -0.384 OA
ATOM     32  H   UNL     1     -11.353  33.791  10.682  1.00  0.00     0.211 HD
ENDBRANCH  26  31
BRANCH  28  33
ATOM     33  O   UNL     1     -13.125  33.034   9.305  1.00  0.00    -0.387 OA
ATOM     34  H   UNL     1     -12.474  33.782   9.302  1.00  0.00     0.211 HD
ENDBRANCH  28  33
BRANCH  29  35
ATOM     35  C   UNL     1     -12.863  29.143   7.314  1.00  0.00     0.191 C 
BRANCH  35  36
ATOM     36  O   UNL     1     -12.058  28.092   7.773  1.00  0.00    -0.394 OA
ATOM     37  H   UNL     1     -11.121  28.380   7.628  1.00  0.00     0.210 HD
ENDBRANCH  35  36
ENDBRANCH  29  35
BRANCH  30  38
ATOM     38  O   UNL     1     -12.583  29.554  10.186  1.00  0.00    -0.387 OA
ATOM     39  H   UNL     1     -11.801  29.878  10.709  1.00  0.00     0.211 HD
ENDBRANCH  30  38
ENDBRANCH   1  25
TORSDOF 11
ENDMDL
MODEL 6
REMARK VINA RESULT:    -5.407      1.906      7.713
REMARK INTER + INTRA:          -9.113
REMARK INTER:                  -7.321
REMARK INTRA:                  -1.792
REMARK UNBOUND:                -1.335
REMARK SMILES O=c1c(O[C@@H]2O[C@@H](CO)[C@@H](O)[C@H](O)[C@@H]2O)c(-c2ccc(O)cc2)oc2cc(O)cc(O)c12
REMARK SMILES IDX 4 1 3 2 16 3 24 4 2 5 25 6 1 7 32 8 26 9 30 10 27 11 29 12
REMARK SMILES IDX 17 13 18 14 19 15 20 16 23 17 22 18 21 19 31 21 28 23 5 25
REMARK SMILES IDX 14 26 6 27 12 28 7 29 10 30 15 31 13 33 8 35 9 36 11 38
REMARK H PARENT 21 20 31 22 28 24 15 32 13 34 9 37 11 39
REMARK Flexibility Score: inf
ROOT
ATOM      1  O   UNL     1     -10.272  33.234   8.039  1.00  0.00    -0.454 OA
ENDROOT
BRANCH   1   2
ATOM      2  C   UNL     1      -9.669  32.444   7.040  1.00  0.00     0.214 A 
ATOM      3  C   UNL     1      -9.046  33.102   5.960  1.00  0.00     0.180 A 
ATOM      4  O   UNL     1      -8.373  32.409   5.049  1.00  0.00    -0.452 OA
ATOM      5  C   UNL     1      -9.619  31.030   7.076  1.00  0.00     0.239 A 
ATOM      6  C   UNL     1      -8.271  31.088   5.066  1.00  0.00     0.146 A 
ATOM      7  O   UNL     1     -10.211  30.393   7.987  1.00  0.00    -0.285 OA
ATOM      8  C   UNL     1      -8.903  30.331   6.078  1.00  0.00     0.111 A 
ATOM      9  C   UNL     1      -7.531  30.451   4.065  1.00  0.00     0.094 A 
ATOM     10  C   UNL     1      -8.784  28.920   6.056  1.00  0.00     0.134 A 
ATOM     11  C   UNL     1      -7.403  29.061   4.058  1.00  0.00     0.123 A 
ATOM     12  C   UNL     1      -8.031  28.299   5.050  1.00  0.00     0.093 A 
BRANCH   3  13
ATOM     13  C   UNL     1      -9.100  34.573   5.812  1.00  0.00     0.021 A 
ATOM     14  C   UNL     1     -10.207  35.170   5.192  1.00  0.00     0.016 A 
ATOM     15  C   UNL     1     -10.278  36.560   5.062  1.00  0.00     0.047 A 
ATOM     16  C   UNL     1      -9.257  37.369   5.568  1.00  0.00     0.115 A 
ATOM     17  C   UNL     1      -8.086  35.389   6.340  1.00  0.00     0.016 A 
ATOM     18  C   UNL     1      -8.162  36.780   6.212  1.00  0.00     0.047 A 
BRANCH  16  19
ATOM     19  O   UNL     1      -9.340  38.754   5.430  1.00  0.00    -0.508 OA
ATOM     20  H   UNL     1      -8.943  39.378   6.121  1.00  0.00     0.293 HD
ENDBRANCH  16  19
ENDBRANCH   3  13
BRANCH  10  21
ATOM     21  O   UNL     1      -9.404  28.134   7.025  1.00  0.00    -0.507 OA
ATOM     22  H   UNL     1      -9.122  28.170   7.996  1.00  0.00     0.293 HD
ENDBRANCH  10  21
BRANCH  11  23
ATOM     23  O   UNL     1      -6.650  28.446   3.060  1.00  0.00    -0.508 OA
ATOM     24  H   UNL     1      -6.589  27.437   2.988  1.00  0.00     0.293 HD
ENDBRANCH  11  23
ENDBRANCH   1   2
BRANCH   1  25
ATOM     25  C   UNL     1     -11.639  33.654   8.102  1.00  0.00     0.339 C 
ATOM     26  C   UNL     1     -12.294  33.200   9.427  1.00  0.00     0.214 C 
ATOM     27  O   UNL     1     -11.760  35.056   7.920  1.00  0.00    -0.332 OA
ATOM     28  C   UNL     1     -11.758  34.002  10.625  1.00  0.00     0.180 C 
ATOM     29  C   UNL     1     -11.106  35.771   8.955  1.00  0.00     0.179 C 
ATOM     30  C   UNL     1     -11.793  35.512  10.313  1.00  0.00     0.177 C 
BRANCH  26  31
ATOM     31  O   UNL     1     -12.072  31.830   9.641  1.00  0.00    -0.384 OA
ATOM     32  H   UNL     1     -11.225  31.753  10.159  1.00  0.00     0.211 HD
ENDBRANCH  26  31
BRANCH  28  33
ATOM     33  O   UNL     1     -10.444  33.602  10.918  1.00  0.00    -0.387 OA
ATOM     34  H   UNL     1     -10.331  32.687  10.552  1.00  0.00     0.211 HD
ENDBRANCH  28  33
BRANCH  29  35
ATOM     35  C   UNL     1     -11.110  37.264   8.612  1.00  0.00     0.191 C 
BRANCH  35  36
ATOM     36  O   UNL     1     -12.221  37.554   7.807  1.00  0.00    -0.394 OA
ATOM     37  H   UNL     1     -12.304  36.799   7.172  1.00  0.00     0.210 HD
ENDBRANCH  35  36
ENDBRANCH  29  35
BRANCH  30  38
ATOM     38  O   UNL     1     -13.125  35.961  10.268  1.00  0.00    -0.387 OA
ATOM     39  H   UNL     1     -13.622  35.324   9.689  1.00  0.00     0.211 HD
ENDBRANCH  30  38
ENDBRANCH   1  25
TORSDOF 11
ENDMDL
MODEL 7
REMARK VINA RESULT:    -5.279     15.575     17.821
REMARK INTER + INTRA:          -8.928
REMARK INTER:                  -7.349
REMARK INTRA:                  -1.579
REMARK UNBOUND:                -1.335
REMARK SMILES O=c1c(O[C@@H]2O[C@@H](CO)[C@@H](O)[C@H](O)[C@@H]2O)c(-c2ccc(O)cc2)oc2cc(O)cc(O)c12
REMARK SMILES IDX 4 1 3 2 16 3 24 4 2 5 25 6 1 7 32 8 26 9 30 10 27 11 29 12
REMARK SMILES IDX 17 13 18 14 19 15 20 16 23 17 22 18 21 19 31 21 28 23 5 25
REMARK SMILES IDX 14 26 6 27 12 28 7 29 10 30 15 31 13 33 8 35 9 36 11 38
REMARK H PARENT 21 20 31 22 28 24 15 32 13 34 9 37 11 39
REMARK Flexibility Score: inf
ROOT
ATOM      1  O   UNL     1       3.396  44.662   1.213  1.00  0.00    -0.454 OA
ENDROOT
BRANCH   1   2
ATOM      2  C   UNL     1       2.784  45.179   2.372  1.00  0.00     0.214 A 
ATOM      3  C   UNL     1       1.375  45.219   2.416  1.00  0.00     0.180 A 
ATOM      4  O   UNL     1       0.748  45.597   3.525  1.00  0.00    -0.452 OA
ATOM      5  C   UNL     1       3.498  45.626   3.509  1.00  0.00     0.239 A 
ATOM      6  C   UNL     1       1.380  45.988   4.622  1.00  0.00     0.146 A 
ATOM      7  O   UNL     1       4.757  45.666   3.497  1.00  0.00    -0.285 OA
ATOM      8  C   UNL     1       2.791  46.033   4.662  1.00  0.00     0.111 A 
ATOM      9  C   UNL     1       0.628  46.358   5.742  1.00  0.00     0.094 A 
ATOM     10  C   UNL     1       3.430  46.469   5.848  1.00  0.00     0.134 A 
ATOM     11  C   UNL     1       1.264  46.773   6.913  1.00  0.00     0.123 A 
ATOM     12  C   UNL     1       2.661  46.830   6.964  1.00  0.00     0.093 A 
BRANCH   3  13
ATOM     13  C   UNL     1       0.551  44.826   1.253  1.00  0.00     0.021 A 
ATOM     14  C   UNL     1       0.379  45.721   0.187  1.00  0.00     0.016 A 
ATOM     15  C   UNL     1      -0.383  45.355  -0.926  1.00  0.00     0.047 A 
ATOM     16  C   UNL     1      -0.963  44.086  -0.997  1.00  0.00     0.115 A 
ATOM     17  C   UNL     1      -0.015  43.543   1.169  1.00  0.00     0.016 A 
ATOM     18  C   UNL     1      -0.774  43.178   0.052  1.00  0.00     0.047 A 
BRANCH  16  19
ATOM     19  O   UNL     1      -1.722  43.736  -2.113  1.00  0.00    -0.508 OA
ATOM     20  H   UNL     1      -1.702  42.797  -2.491  1.00  0.00     0.293 HD
ENDBRANCH  16  19
ENDBRANCH   3  13
BRANCH  10  21
ATOM     21  O   UNL     1       4.819  46.546   5.927  1.00  0.00    -0.507 OA
ATOM     22  H   UNL     1       5.350  45.928   6.527  1.00  0.00     0.293 HD
ENDBRANCH  10  21
BRANCH  11  23
ATOM     23  O   UNL     1       0.498  47.125   8.022  1.00  0.00    -0.508 OA
ATOM     24  H   UNL     1       0.849  47.011   8.966  1.00  0.00     0.293 HD
ENDBRANCH  11  23
ENDBRANCH   1   2
BRANCH   1  25
ATOM     25  C   UNL     1       3.660  43.287   0.915  1.00  0.00     0.339 C 
ATOM     26  C   UNL     1       3.813  43.074  -0.608  1.00  0.00     0.214 C 
ATOM     27  O   UNL     1       4.797  42.812   1.619  1.00  0.00    -0.332 OA
ATOM     28  C   UNL     1       5.129  43.673  -1.133  1.00  0.00     0.180 C 
ATOM     29  C   UNL     1       5.972  43.506   1.234  1.00  0.00     0.179 C 
ATOM     30  C   UNL     1       6.308  43.226  -0.247  1.00  0.00     0.177 C 
BRANCH  26  31
ATOM     31  O   UNL     1       2.729  43.644  -1.296  1.00  0.00    -0.384 OA
ATOM     32  H   UNL     1       2.945  43.593  -2.266  1.00  0.00     0.211 HD
ENDBRANCH  26  31
BRANCH  28  33
ATOM     33  O   UNL     1       5.043  45.075  -1.148  1.00  0.00    -0.387 OA
ATOM     34  H   UNL     1       5.944  45.424  -0.926  1.00  0.00     0.211 HD
ENDBRANCH  28  33
BRANCH  29  35
ATOM     35  C   UNL     1       7.125  43.085   2.150  1.00  0.00     0.191 C 
BRANCH  35  36
ATOM     36  O   UNL     1       7.118  43.879   3.304  1.00  0.00    -0.394 OA
ATOM     37  H   UNL     1       6.844  43.283   4.046  1.00  0.00     0.210 HD
ENDBRANCH  35  36
ENDBRANCH  29  35
BRANCH  30  38
ATOM     38  O   UNL     1       6.551  41.853  -0.429  1.00  0.00    -0.387 OA
ATOM     39  H   UNL     1       5.802  41.501  -0.980  1.00  0.00     0.211 HD
ENDBRANCH  30  38
ENDBRANCH   1  25
TORSDOF 11
ENDMDL
MODEL 8
REMARK VINA RESULT:    -5.147     14.298     17.370
REMARK INTER + INTRA:          -8.738
REMARK INTER:                  -8.265
REMARK INTRA:                  -0.473
REMARK UNBOUND:                -1.335
REMARK SMILES O=c1c(O[C@@H]2O[C@@H](CO)[C@@H](O)[C@H](O)[C@@H]2O)c(-c2ccc(O)cc2)oc2cc(O)cc(O)c12
REMARK SMILES IDX 4 1 3 2 16 3 24 4 2 5 25 6 1 7 32 8 26 9 30 10 27 11 29 12
REMARK SMILES IDX 17 13 18 14 19 15 20 16 23 17 22 18 21 19 31 21 28 23 5 25
REMARK SMILES IDX 14 26 6 27 12 28 7 29 10 30 15 31 13 33 8 35 9 36 11 38
REMARK H PARENT 21 20 31 22 28 24 15 32 13 34 9 37 11 39
REMARK Flexibility Score: inf
ROOT
ATOM      1  O   UNL     1       1.870  45.088   0.480  1.00  0.00    -0.454 OA
ENDROOT
BRANCH   1   2
ATOM      2  C   UNL     1       2.752  44.059   0.869  1.00  0.00     0.214 A 
ATOM      3  C   UNL     1       2.716  43.628   2.211  1.00  0.00     0.180 A 
ATOM      4  O   UNL     1       3.449  42.592   2.604  1.00  0.00    -0.452 OA
ATOM      5  C   UNL     1       3.645  43.409  -0.015  1.00  0.00     0.239 A 
ATOM      6  C   UNL     1       4.269  41.933   1.799  1.00  0.00     0.146 A 
ATOM      7  O   UNL     1       3.757  43.796  -1.209  1.00  0.00    -0.285 OA
ATOM      8  C   UNL     1       4.416  42.320   0.448  1.00  0.00     0.111 A 
ATOM      9  C   UNL     1       4.991  40.848   2.306  1.00  0.00     0.094 A 
ATOM     10  C   UNL     1       5.313  41.600  -0.379  1.00  0.00     0.134 A 
ATOM     11  C   UNL     1       5.862  40.133   1.483  1.00  0.00     0.123 A 
ATOM     12  C   UNL     1       6.023  40.511   0.145  1.00  0.00     0.093 A 
BRANCH   3  13
ATOM     13  C   UNL     1       1.856  44.290   3.216  1.00  0.00     0.021 A 
ATOM     14  C   UNL     1       0.778  43.591   3.778  1.00  0.00     0.016 A 
ATOM     15  C   UNL     1      -0.032  44.199   4.743  1.00  0.00     0.047 A 
ATOM     16  C   UNL     1       0.239  45.502   5.170  1.00  0.00     0.115 A 
ATOM     17  C   UNL     1       2.138  45.591   3.664  1.00  0.00     0.016 A 
ATOM     18  C   UNL     1       1.330  46.196   4.631  1.00  0.00     0.047 A 
BRANCH  16  19
ATOM     19  O   UNL     1      -0.578  46.097   6.131  1.00  0.00    -0.508 OA
ATOM     20  H   UNL     1      -0.404  47.037   6.462  1.00  0.00     0.293 HD
ENDBRANCH  16  19
ENDBRANCH   3  13
BRANCH  10  21
ATOM     21  O   UNL     1       5.502  41.957  -1.712  1.00  0.00    -0.507 OA
ATOM     22  H   UNL     1       6.426  42.011  -2.120  1.00  0.00     0.293 HD
ENDBRANCH  10  21
BRANCH  11  23
ATOM     23  O   UNL     1       6.563  39.047   2.004  1.00  0.00    -0.508 OA
ATOM     24  H   UNL     1       6.382  38.699   2.938  1.00  0.00     0.293 HD
ENDBRANCH  11  23
ENDBRANCH   1   2
BRANCH   1  25
ATOM     25  C   UNL     1       0.441  45.079   0.562  1.00  0.00     0.339 C 
ATOM     26  C   UNL     1      -0.183  45.856  -0.619  1.00  0.00     0.214 C 
ATOM     27  O   UNL     1      -0.066  43.755   0.634  1.00  0.00    -0.332 OA
ATOM     28  C   UNL     1      -0.030  45.089  -1.944  1.00  0.00     0.180 C 
ATOM     29  C   UNL     1       0.242  43.018  -0.538  1.00  0.00     0.179 C 
ATOM     30  C   UNL     1      -0.474  43.624  -1.764  1.00  0.00     0.177 C 
BRANCH  26  31
ATOM     31  O   UNL     1       0.407  47.125  -0.739  1.00  0.00    -0.384 OA
ATOM     32  H   UNL     1      -0.058  47.589  -1.488  1.00  0.00     0.211 HD
ENDBRANCH  26  31
BRANCH  28  33
ATOM     33  O   UNL     1       1.307  45.138  -2.372  1.00  0.00    -0.387 OA
ATOM     34  H   UNL     1       1.832  45.550  -1.639  1.00  0.00     0.211 HD
ENDBRANCH  28  33
BRANCH  29  35
ATOM     35  C   UNL     1      -0.165  41.556  -0.330  1.00  0.00     0.191 C 
BRANCH  35  36
ATOM     36  O   UNL     1      -1.497  41.499   0.102  1.00  0.00    -0.394 OA
ATOM     37  H   UNL     1      -2.001  41.053  -0.624  1.00  0.00     0.210 HD
ENDBRANCH  35  36
ENDBRANCH  29  35
BRANCH  30  38
ATOM     38  O   UNL     1      -1.867  43.563  -1.582  1.00  0.00    -0.387 OA
ATOM     39  H   UNL     1      -2.036  42.858  -0.902  1.00  0.00     0.211 HD
ENDBRANCH  30  38
ENDBRANCH   1  25
TORSDOF 11
ENDMDL
MODEL 9
REMARK VINA RESULT:    -5.135     14.874     18.093
REMARK INTER + INTRA:          -8.721
REMARK INTER:                  -7.748
REMARK INTRA:                  -0.973
REMARK UNBOUND:                -1.335
REMARK SMILES O=c1c(O[C@@H]2O[C@@H](CO)[C@@H](O)[C@H](O)[C@@H]2O)c(-c2ccc(O)cc2)oc2cc(O)cc(O)c12
REMARK SMILES IDX 4 1 3 2 16 3 24 4 2 5 25 6 1 7 32 8 26 9 30 10 27 11 29 12
REMARK SMILES IDX 17 13 18 14 19 15 20 16 23 17 22 18 21 19 31 21 28 23 5 25
REMARK SMILES IDX 14 26 6 27 12 28 7 29 10 30 15 31 13 33 8 35 9 36 11 38
REMARK H PARENT 21 20 31 22 28 24 15 32 13 34 9 37 11 39
REMARK Flexibility Score: inf
ROOT
ATOM      1  O   UNL     1       1.605  44.798   1.377  1.00  0.00    -0.454 OA
ENDROOT
BRANCH   1   2
ATOM      2  C   UNL     1       2.171  45.117   2.627  1.00  0.00     0.214 A 
ATOM      3  C   UNL     1       3.463  45.680   2.646  1.00  0.00     0.180 A 
ATOM      4  O   UNL     1       3.998  46.096   3.789  1.00  0.00    -0.452 OA
ATOM      5  C   UNL     1       1.504  44.941   3.863  1.00  0.00     0.239 A 
ATOM      6  C   UNL     1       3.392  45.983   4.961  1.00  0.00     0.146 A 
ATOM      7  O   UNL     1       0.373  44.388   3.904  1.00  0.00    -0.285 OA
ATOM      8  C   UNL     1       2.115  45.385   5.056  1.00  0.00     0.111 A 
ATOM      9  C   UNL     1       4.036  46.461   6.107  1.00  0.00     0.094 A 
ATOM     10  C   UNL     1       1.505  45.269   6.328  1.00  0.00     0.134 A 
ATOM     11  C   UNL     1       3.422  46.358   7.357  1.00  0.00     0.123 A 
ATOM     12  C   UNL     1       2.161  45.761   7.465  1.00  0.00     0.093 A 
BRANCH   3  13
ATOM     13  C   UNL     1       4.256  45.846   1.408  1.00  0.00     0.021 A 
ATOM     14  C   UNL     1       4.016  46.945   0.570  1.00  0.00     0.016 A 
ATOM     15  C   UNL     1       4.771  47.123  -0.593  1.00  0.00     0.047 A 
ATOM     16  C   UNL     1       5.784  46.219  -0.921  1.00  0.00     0.115 A 
ATOM     17  C   UNL     1       5.290  44.952   1.087  1.00  0.00     0.016 A 
ATOM     18  C   UNL     1       6.046  45.134  -0.075  1.00  0.00     0.047 A 
BRANCH  16  19
ATOM     19  O   UNL     1       6.527  46.408  -2.086  1.00  0.00    -0.508 OA
ATOM     20  H   UNL     1       6.096  46.360  -3.001  1.00  0.00     0.293 HD
ENDBRANCH  16  19
ENDBRANCH   3  13
BRANCH  10  21
ATOM     21  O   UNL     1       0.254  44.672   6.470  1.00  0.00    -0.507 OA
ATOM     22  H   UNL     1      -0.568  45.050   6.016  1.00  0.00     0.293 HD
ENDBRANCH  10  21
BRANCH  11  23
ATOM     23  O   UNL     1       4.074  46.852   8.484  1.00  0.00    -0.508 OA
ATOM     24  H   UNL     1       5.079  46.780   8.589  1.00  0.00     0.293 HD
ENDBRANCH  11  23
ENDBRANCH   1   2
BRANCH   1  25
ATOM     25  C   UNL     1       2.060  43.807   0.449  1.00  0.00     0.339 C 
ATOM     26  C   UNL     1       1.528  42.408   0.833  1.00  0.00     0.214 C 
ATOM     27  O   UNL     1       1.710  44.144  -0.884  1.00  0.00    -0.332 OA
ATOM     28  C   UNL     1       0.018  42.286   0.569  1.00  0.00     0.180 C 
ATOM     29  C   UNL     1       0.302  44.190  -1.053  1.00  0.00     0.179 C 
ATOM     30  C   UNL     1      -0.316  42.791  -0.849  1.00  0.00     0.177 C 
BRANCH  26  31
ATOM     31  O   UNL     1       1.792  42.136   2.186  1.00  0.00    -0.384 OA
ATOM     32  H   UNL     1       0.983  42.410   2.697  1.00  0.00     0.211 HD
ENDBRANCH  26  31
BRANCH  28  33
ATOM     33  O   UNL     1      -0.696  43.027   1.525  1.00  0.00    -0.387 OA
ATOM     34  H   UNL     1      -1.469  43.435   1.057  1.00  0.00     0.211 HD
ENDBRANCH  28  33
BRANCH  29  35
ATOM     35  C   UNL     1      -0.016  44.735  -2.449  1.00  0.00     0.191 C 
BRANCH  35  36
ATOM     36  O   UNL     1      -1.306  45.282  -2.454  1.00  0.00    -0.394 OA
ATOM     37  H   UNL     1      -1.789  44.838  -3.197  1.00  0.00     0.210 HD
ENDBRANCH  35  36
ENDBRANCH  29  35
BRANCH  30  38
ATOM     38  O   UNL     1       0.194  41.899  -1.809  1.00  0.00    -0.387 OA
ATOM     39  H   UNL     1       1.039  42.298  -2.149  1.00  0.00     0.211 HD
ENDBRANCH  30  38
ENDBRANCH   1  25
TORSDOF 11
ENDMDL
