MODEL 1
REMARK VINA RESULT:    -7.112      0.000      0.000
REMARK INTER + INTRA:          -8.646
REMARK INTER:                  -8.359
REMARK INTRA:                  -0.286
REMARK UNBOUND:                -0.286
REMARK SMILES O=c1c(O)c(-c2ccc(O)cc2)oc2cc(O)cc(O)c12
REMARK SMILES IDX 5 1 3 2 2 3 1 4 21 5 19 6 18 7 16 8 15 9 14 10 13 11 6 12
REMARK SMILES IDX 7 13 8 14 9 15 12 16 11 17 10 18 4 20 20 22 17 24
REMARK H PARENT 10 19 4 21 20 23 17 25
REMARK Flexibility Score: inf
ROOT
ATOM      1  C   UNL     1       9.431  10.332 -20.165  1.00  0.00     0.180 A 
ATOM      2  C   UNL     1      10.184  11.417 -19.682  1.00  0.00     0.208 A 
ATOM      3  C   UNL     1      10.383  12.531 -20.514  1.00  0.00     0.238 A 
ATOM      4  O   UNL     1      11.102  13.475 -20.098  1.00  0.00    -0.285 OA
ATOM      5  C   UNL     1       9.814  12.552 -21.811  1.00  0.00     0.111 A 
ATOM      6  C   UNL     1       9.919  13.646 -22.723  1.00  0.00     0.134 A 
ATOM      7  C   UNL     1       9.428  13.505 -24.027  1.00  0.00     0.093 A 
ATOM      8  C   UNL     1       8.781  12.339 -24.432  1.00  0.00     0.123 A 
ATOM      9  C   UNL     1       8.620  11.287 -23.529  1.00  0.00     0.094 A 
ATOM     10  C   UNL     1       9.131  11.383 -22.233  1.00  0.00     0.146 A 
ATOM     11  O   UNL     1       8.967  10.355 -21.409  1.00  0.00    -0.452 OA
ENDROOT
BRANCH   1  12
ATOM     12  C   UNL     1       9.157   9.134 -19.339  1.00  0.00     0.021 A 
ATOM     13  C   UNL     1      10.001   8.008 -19.377  1.00  0.00     0.016 A 
ATOM     14  C   UNL     1       9.735   6.898 -18.569  1.00  0.00     0.047 A 
ATOM     15  C   UNL     1       8.634   6.901 -17.708  1.00  0.00     0.115 A 
ATOM     16  C   UNL     1       8.065   9.138 -18.455  1.00  0.00     0.016 A 
ATOM     17  C   UNL     1       7.801   8.026 -17.649  1.00  0.00     0.047 A 
BRANCH  15  18
ATOM     18  O   UNL     1       8.381   5.787 -16.910  1.00  0.00    -0.508 OA
ATOM     19  H   UNL     1       9.061   5.451 -16.239  1.00  0.00     0.293 HD
ENDBRANCH  15  18
ENDBRANCH   1  12
BRANCH   2  20
ATOM     20  O   UNL     1      10.754  11.365 -18.408  1.00  0.00    -0.502 OA
ATOM     21  H   UNL     1      11.272  12.140 -18.012  1.00  0.00     0.293 HD
ENDBRANCH   2  20
BRANCH   6  22
ATOM     22  O   UNL     1      10.466  14.889 -22.391  1.00  0.00    -0.507 OA
ATOM     23  H   UNL     1      10.009  15.775 -22.538  1.00  0.00     0.293 HD
ENDBRANCH   6  22
BRANCH   8  24
ATOM     24  O   UNL     1       8.291  12.241 -25.732  1.00  0.00    -0.508 OA
ATOM     25  H   UNL     1       7.591  11.552 -25.984  1.00  0.00     0.293 HD
ENDBRANCH   8  24
TORSDOF 5
ENDMDL
MODEL 2
REMARK VINA RESULT:    -7.102      1.962      7.356
REMARK INTER + INTRA:          -8.633
REMARK INTER:                  -8.344
REMARK INTRA:                  -0.289
REMARK UNBOUND:                -0.286
REMARK SMILES O=c1c(O)c(-c2ccc(O)cc2)oc2cc(O)cc(O)c12
REMARK SMILES IDX 5 1 3 2 2 3 1 4 21 5 19 6 18 7 16 8 15 9 14 10 13 11 6 12
REMARK SMILES IDX 7 13 8 14 9 15 12 16 11 17 10 18 4 20 20 22 17 24
REMARK H PARENT 10 19 4 21 20 23 17 25
REMARK Flexibility Score: inf
ROOT
ATOM      1  C   UNL     1       8.984   9.625 -18.848  1.00  0.00     0.180 A 
ATOM      2  C   UNL     1       9.585   8.363 -18.994  1.00  0.00     0.208 A 
ATOM      3  C   UNL     1       9.088   7.281 -18.250  1.00  0.00     0.238 A 
ATOM      4  O   UNL     1       9.663   6.166 -18.344  1.00  0.00    -0.285 OA
ATOM      5  C   UNL     1       7.985   7.471 -17.382  1.00  0.00     0.111 A 
ATOM      6  C   UNL     1       7.374   6.437 -16.610  1.00  0.00     0.134 A 
ATOM      7  C   UNL     1       6.374   6.765 -15.686  1.00  0.00     0.093 A 
ATOM      8  C   UNL     1       5.918   8.075 -15.552  1.00  0.00     0.123 A 
ATOM      9  C   UNL     1       6.468   9.084 -16.344  1.00  0.00     0.094 A 
ATOM     10  C   UNL     1       7.492   8.795 -17.249  1.00  0.00     0.146 A 
ATOM     11  O   UNL     1       7.995   9.785 -17.976  1.00  0.00    -0.452 OA
ENDROOT
BRANCH   1  12
ATOM     12  C   UNL     1       9.436  10.807 -19.616  1.00  0.00     0.021 A 
ATOM     13  C   UNL     1      10.441  11.661 -19.124  1.00  0.00     0.016 A 
ATOM     14  C   UNL     1      10.869  12.758 -19.879  1.00  0.00     0.047 A 
ATOM     15  C   UNL     1      10.310  13.008 -21.136  1.00  0.00     0.115 A 
ATOM     16  C   UNL     1       8.896  11.053 -20.889  1.00  0.00     0.016 A 
ATOM     17  C   UNL     1       9.325  12.151 -21.641  1.00  0.00     0.047 A 
BRANCH  15  18
ATOM     18  O   UNL     1      10.746  14.106 -21.876  1.00  0.00    -0.508 OA
ATOM     19  H   UNL     1      11.687  14.467 -21.782  1.00  0.00     0.293 HD
ENDBRANCH  15  18
ENDBRANCH   1  12
BRANCH   2  20
ATOM     20  O   UNL     1      10.685   8.202 -19.840  1.00  0.00    -0.502 OA
ATOM     21  H   UNL     1      11.180   8.989 -20.246  1.00  0.00     0.293 HD
ENDBRANCH   2  20
BRANCH   6  22
ATOM     22  O   UNL     1       7.691   5.081 -16.733  1.00  0.00    -0.507 OA
ATOM     23  H   UNL     1       8.048   4.505 -15.986  1.00  0.00     0.293 HD
ENDBRANCH   6  22
BRANCH   8  24
ATOM     24  O   UNL     1       4.911   8.362 -14.634  1.00  0.00    -0.508 OA
ATOM     25  H   UNL     1       4.094   7.768 -14.542  1.00  0.00     0.293 HD
ENDBRANCH   8  24
TORSDOF 5
ENDMDL
MODEL 3
REMARK VINA RESULT:    -6.655      2.374      7.230
REMARK INTER + INTRA:          -8.108
REMARK INTER:                  -7.819
REMARK INTRA:                  -0.289
REMARK UNBOUND:                -0.286
REMARK SMILES O=c1c(O)c(-c2ccc(O)cc2)oc2cc(O)cc(O)c12
REMARK SMILES IDX 5 1 3 2 2 3 1 4 21 5 19 6 18 7 16 8 15 9 14 10 13 11 6 12
REMARK SMILES IDX 7 13 8 14 9 15 12 16 11 17 10 18 4 20 20 22 17 24
REMARK H PARENT 10 19 4 21 20 23 17 25
REMARK Flexibility Score: inf
ROOT
ATOM      1  C   UNL     1       8.165  10.414 -18.608  1.00  0.00     0.180 A 
ATOM      2  C   UNL     1       7.076  10.936 -17.889  1.00  0.00     0.208 A 
ATOM      3  C   UNL     1       6.345  10.083 -17.046  1.00  0.00     0.238 A 
ATOM      4  O   UNL     1       5.339  10.543 -16.447  1.00  0.00    -0.285 OA
ATOM      5  C   UNL     1       6.722   8.725 -16.920  1.00  0.00     0.111 A 
ATOM      6  C   UNL     1       6.078   7.781 -16.064  1.00  0.00     0.134 A 
ATOM      7  C   UNL     1       6.452   6.432 -16.118  1.00  0.00     0.093 A 
ATOM      8  C   UNL     1       7.489   6.005 -16.946  1.00  0.00     0.123 A 
ATOM      9  C   UNL     1       8.165   6.930 -17.743  1.00  0.00     0.094 A 
ATOM     10  C   UNL     1       7.791   8.276 -17.738  1.00  0.00     0.146 A 
ATOM     11  O   UNL     1       8.453   9.120 -18.519  1.00  0.00    -0.452 OA
ENDROOT
BRANCH   1  12
ATOM     12  C   UNL     1       8.999  11.256 -19.497  1.00  0.00     0.021 A 
ATOM     13  C   UNL     1       8.679  11.426 -20.857  1.00  0.00     0.016 A 
ATOM     14  C   UNL     1       9.467  12.245 -21.671  1.00  0.00     0.047 A 
ATOM     15  C   UNL     1      10.573  12.912 -21.138  1.00  0.00     0.115 A 
ATOM     16  C   UNL     1      10.099  11.947 -18.964  1.00  0.00     0.016 A 
ATOM     17  C   UNL     1      10.886  12.765 -19.780  1.00  0.00     0.047 A 
BRANCH  15  18
ATOM     18  O   UNL     1      11.350  13.724 -21.962  1.00  0.00    -0.508 OA
ATOM     19  H   UNL     1      10.998  14.073 -22.845  1.00  0.00     0.293 HD
ENDBRANCH  15  18
ENDBRANCH   1  12
BRANCH   2  20
ATOM     20  O   UNL     1       6.708  12.275 -18.045  1.00  0.00    -0.502 OA
ATOM     21  H   UNL     1       6.388  12.845 -17.271  1.00  0.00     0.293 HD
ENDBRANCH   2  20
BRANCH   6  22
ATOM     22  O   UNL     1       5.092   8.119 -15.132  1.00  0.00    -0.507 OA
ATOM     23  H   UNL     1       5.210   8.080 -14.132  1.00  0.00     0.293 HD
ENDBRANCH   6  22
BRANCH   8  24
ATOM     24  O   UNL     1       7.845   4.658 -16.961  1.00  0.00    -0.508 OA
ATOM     25  H   UNL     1       8.124   4.174 -16.115  1.00  0.00     0.293 HD
ENDBRANCH   8  24
TORSDOF 5
ENDMDL
MODEL 4
REMARK VINA RESULT:    -6.610      1.180      3.156
REMARK INTER + INTRA:          -8.055
REMARK INTER:                  -7.767
REMARK INTRA:                  -0.289
REMARK UNBOUND:                -0.286
REMARK SMILES O=c1c(O)c(-c2ccc(O)cc2)oc2cc(O)cc(O)c12
REMARK SMILES IDX 5 1 3 2 2 3 1 4 21 5 19 6 18 7 16 8 15 9 14 10 13 11 6 12
REMARK SMILES IDX 7 13 8 14 9 15 12 16 11 17 10 18 4 20 20 22 17 24
REMARK H PARENT 10 19 4 21 20 23 17 25
REMARK Flexibility Score: inf
ROOT
ATOM      1  C   UNL     1       8.662   9.723 -20.865  1.00  0.00     0.180 A 
ATOM      2  C   UNL     1       7.987   9.401 -22.055  1.00  0.00     0.208 A 
ATOM      3  C   UNL     1       7.982  10.331 -23.108  1.00  0.00     0.238 A 
ATOM      4  O   UNL     1       7.332  10.060 -24.150  1.00  0.00    -0.285 OA
ATOM      5  C   UNL     1       8.666  11.562 -22.964  1.00  0.00     0.111 A 
ATOM      6  C   UNL     1       8.761  12.560 -23.980  1.00  0.00     0.134 A 
ATOM      7  C   UNL     1       9.351  13.795 -23.682  1.00  0.00     0.093 A 
ATOM      8  C   UNL     1       9.906  14.045 -22.428  1.00  0.00     0.123 A 
ATOM      9  C   UNL     1       9.872  13.053 -21.445  1.00  0.00     0.094 A 
ATOM     10  C   UNL     1       9.258  11.825 -21.701  1.00  0.00     0.146 A 
ATOM     11  O   UNL     1       9.237  10.914 -20.736  1.00  0.00    -0.452 OA
ENDROOT
BRANCH   1  12
ATOM     12  C   UNL     1       8.732   8.786 -19.720  1.00  0.00     0.021 A 
ATOM     13  C   UNL     1       7.739   8.771 -18.723  1.00  0.00     0.016 A 
ATOM     14  C   UNL     1       7.814   7.860 -17.665  1.00  0.00     0.047 A 
ATOM     15  C   UNL     1       8.871   6.947 -17.595  1.00  0.00     0.115 A 
ATOM     16  C   UNL     1       9.779   7.852 -19.654  1.00  0.00     0.016 A 
ATOM     17  C   UNL     1       9.852   6.942 -18.595  1.00  0.00     0.047 A 
BRANCH  15  18
ATOM     18  O   UNL     1       8.933   6.046 -16.534  1.00  0.00    -0.508 OA
ATOM     19  H   UNL     1       8.101   5.600 -16.169  1.00  0.00     0.293 HD
ENDBRANCH  15  18
ENDBRANCH   1  12
BRANCH   2  20
ATOM     20  O   UNL     1       7.301   8.190 -22.168  1.00  0.00    -0.502 OA
ATOM     21  H   UNL     1       7.336   7.620 -23.005  1.00  0.00     0.293 HD
ENDBRANCH   2  20
BRANCH   6  22
ATOM     22  O   UNL     1       8.320  12.379 -25.294  1.00  0.00    -0.507 OA
ATOM     23  H   UNL     1       8.879  11.995 -26.040  1.00  0.00     0.293 HD
ENDBRANCH   6  22
BRANCH   8  24
ATOM     24  O   UNL     1      10.498  15.278 -22.172  1.00  0.00    -0.508 OA
ATOM     25  H   UNL     1       9.998  16.017 -21.690  1.00  0.00     0.293 HD
ENDBRANCH   8  24
TORSDOF 5
ENDMDL
MODEL 5
REMARK VINA RESULT:    -6.491      2.013      6.958
REMARK INTER + INTRA:          -7.916
REMARK INTER:                  -8.271
REMARK INTRA:                   0.355
REMARK UNBOUND:                -0.286
REMARK SMILES O=c1c(O)c(-c2ccc(O)cc2)oc2cc(O)cc(O)c12
REMARK SMILES IDX 5 1 3 2 2 3 1 4 21 5 19 6 18 7 16 8 15 9 14 10 13 11 6 12
REMARK SMILES IDX 7 13 8 14 9 15 12 16 11 17 10 18 4 20 20 22 17 24
REMARK H PARENT 10 19 4 21 20 23 17 25
REMARK Flexibility Score: inf
ROOT
ATOM      1  C   UNL     1       8.730  10.898 -21.879  1.00  0.00     0.180 A 
ATOM      2  C   UNL     1       9.067   9.540 -22.009  1.00  0.00     0.208 A 
ATOM      3  C   UNL     1       8.980   8.705 -20.883  1.00  0.00     0.238 A 
ATOM      4  O   UNL     1       9.334   7.503 -20.993  1.00  0.00    -0.285 OA
ATOM      5  C   UNL     1       8.541   9.236 -19.646  1.00  0.00     0.111 A 
ATOM      6  C   UNL     1       8.377   8.473 -18.450  1.00  0.00     0.134 A 
ATOM      7  C   UNL     1       8.064   9.127 -17.252  1.00  0.00     0.093 A 
ATOM      8  C   UNL     1       7.846  10.503 -17.218  1.00  0.00     0.123 A 
ATOM      9  C   UNL     1       7.945  11.250 -18.393  1.00  0.00     0.094 A 
ATOM     10  C   UNL     1       8.292  10.632 -19.597  1.00  0.00     0.146 A 
ATOM     11  O   UNL     1       8.386  11.379 -20.689  1.00  0.00    -0.452 OA
ENDROOT
BRANCH   1  12
ATOM     12  C   UNL     1       8.773  11.835 -23.025  1.00  0.00     0.021 A 
ATOM     13  C   UNL     1       8.671  11.374 -24.352  1.00  0.00     0.016 A 
ATOM     14  C   UNL     1       8.689  12.280 -25.417  1.00  0.00     0.047 A 
ATOM     15  C   UNL     1       8.796  13.652 -25.173  1.00  0.00     0.115 A 
ATOM     16  C   UNL     1       8.858  13.216 -22.787  1.00  0.00     0.016 A 
ATOM     17  C   UNL     1       8.876  14.119 -23.855  1.00  0.00     0.047 A 
BRANCH  15  18
ATOM     18  O   UNL     1       8.814  14.543 -26.245  1.00  0.00    -0.508 OA
ATOM     19  H   UNL     1       9.669  14.995 -26.542  1.00  0.00     0.293 HD
ENDBRANCH  15  18
ENDBRANCH   1  12
BRANCH   2  20
ATOM     20  O   UNL     1       9.517   9.042 -23.235  1.00  0.00    -0.502 OA
ATOM     21  H   UNL     1       9.106   9.319 -24.119  1.00  0.00     0.293 HD
ENDBRANCH   2  20
BRANCH   6  22
ATOM     22  O   UNL     1       8.483   7.080 -18.392  1.00  0.00    -0.507 OA
ATOM     23  H   UNL     1       9.332   6.562 -18.556  1.00  0.00     0.293 HD
ENDBRANCH   6  22
BRANCH   8  24
ATOM     24  O   UNL     1       7.520  11.118 -16.011  1.00  0.00    -0.508 OA
ATOM     25  H   UNL     1       6.752  11.776 -15.942  1.00  0.00     0.293 HD
ENDBRANCH   8  24
TORSDOF 5
ENDMDL
MODEL 6
REMARK VINA RESULT:    -6.064      1.974      2.753
REMARK INTER + INTRA:          -7.414
REMARK INTER:                  -7.300
REMARK INTRA:                  -0.114
REMARK UNBOUND:                -0.286
REMARK SMILES O=c1c(O)c(-c2ccc(O)cc2)oc2cc(O)cc(O)c12
REMARK SMILES IDX 5 1 3 2 2 3 1 4 21 5 19 6 18 7 16 8 15 9 14 10 13 11 6 12
REMARK SMILES IDX 7 13 8 14 9 15 12 16 11 17 10 18 4 20 20 22 17 24
REMARK H PARENT 10 19 4 21 20 23 17 25
REMARK Flexibility Score: inf
ROOT
ATOM      1  C   UNL     1       7.892  10.076 -18.314  1.00  0.00     0.180 A 
ATOM      2  C   UNL     1       8.488  11.261 -17.850  1.00  0.00     0.208 A 
ATOM      3  C   UNL     1       9.062  12.145 -18.779  1.00  0.00     0.238 A 
ATOM      4  O   UNL     1       9.641  13.177 -18.353  1.00  0.00    -0.285 OA
ATOM      5  C   UNL     1       9.018  11.839 -20.161  1.00  0.00     0.111 A 
ATOM      6  C   UNL     1       9.532  12.681 -21.193  1.00  0.00     0.134 A 
ATOM      7  C   UNL     1       9.553  12.218 -22.515  1.00  0.00     0.093 A 
ATOM      8  C   UNL     1       9.020  10.975 -22.851  1.00  0.00     0.123 A 
ATOM      9  C   UNL     1       8.460  10.169 -21.858  1.00  0.00     0.094 A 
ATOM     10  C   UNL     1       8.458  10.588 -20.525  1.00  0.00     0.146 A 
ATOM     11  O   UNL     1       7.926   9.787 -19.611  1.00  0.00    -0.452 OA
ENDROOT
BRANCH   1  12
ATOM     12  C   UNL     1       7.245   9.108 -17.399  1.00  0.00     0.021 A 
ATOM     13  C   UNL     1       6.151   9.479 -16.595  1.00  0.00     0.016 A 
ATOM     14  C   UNL     1       5.540   8.540 -15.757  1.00  0.00     0.047 A 
ATOM     15  C   UNL     1       6.004   7.222 -15.720  1.00  0.00     0.115 A 
ATOM     16  C   UNL     1       7.691   7.776 -17.373  1.00  0.00     0.016 A 
ATOM     17  C   UNL     1       7.078   6.840 -16.534  1.00  0.00     0.047 A 
BRANCH  15  18
ATOM     18  O   UNL     1       5.386   6.298 -14.879  1.00  0.00    -0.508 OA
ATOM     19  H   UNL     1       5.858   5.927 -14.064  1.00  0.00     0.293 HD
ENDBRANCH  15  18
ENDBRANCH   1  12
BRANCH   2  20
ATOM     20  O   UNL     1       8.538  11.532 -16.480  1.00  0.00    -0.502 OA
ATOM     21  H   UNL     1       9.046  12.322 -16.100  1.00  0.00     0.293 HD
ENDBRANCH   2  20
BRANCH   6  22
ATOM     22  O   UNL     1      10.005  13.979 -20.978  1.00  0.00    -0.507 OA
ATOM     23  H   UNL     1      10.876  14.205 -20.522  1.00  0.00     0.293 HD
ENDBRANCH   6  22
BRANCH   8  24
ATOM     24  O   UNL     1       9.043  10.555 -24.179  1.00  0.00    -0.508 OA
ATOM     25  H   UNL     1       8.202  10.543 -24.746  1.00  0.00     0.293 HD
ENDBRANCH   8  24
TORSDOF 5
ENDMDL
MODEL 7
REMARK VINA RESULT:    -6.045      2.885      7.072
REMARK INTER + INTRA:          -7.391
REMARK INTER:                  -7.230
REMARK INTRA:                  -0.161
REMARK UNBOUND:                -0.286
REMARK SMILES O=c1c(O)c(-c2ccc(O)cc2)oc2cc(O)cc(O)c12
REMARK SMILES IDX 5 1 3 2 2 3 1 4 21 5 19 6 18 7 16 8 15 9 14 10 13 11 6 12
REMARK SMILES IDX 7 13 8 14 9 15 12 16 11 17 10 18 4 20 20 22 17 24
REMARK H PARENT 10 19 4 21 20 23 17 25
REMARK Flexibility Score: inf
ROOT
ATOM      1  C   UNL     1       8.348  13.739 -22.242  1.00  0.00     0.180 A 
ATOM      2  C   UNL     1       8.624  13.304 -23.549  1.00  0.00     0.208 A 
ATOM      3  C   UNL     1       8.947  11.954 -23.764  1.00  0.00     0.238 A 
ATOM      4  O   UNL     1       9.246  11.581 -24.928  1.00  0.00    -0.285 OA
ATOM      5  C   UNL     1       8.973  11.053 -22.671  1.00  0.00     0.111 A 
ATOM      6  C   UNL     1       9.248   9.657 -22.779  1.00  0.00     0.134 A 
ATOM      7  C   UNL     1       9.377   8.887 -21.616  1.00  0.00     0.093 A 
ATOM      8  C   UNL     1       9.178   9.447 -20.355  1.00  0.00     0.123 A 
ATOM      9  C   UNL     1       8.849  10.799 -20.242  1.00  0.00     0.094 A 
ATOM     10  C   UNL     1       8.749  11.601 -21.382  1.00  0.00     0.146 A 
ATOM     11  O   UNL     1       8.446  12.884 -21.229  1.00  0.00    -0.452 OA
ENDROOT
BRANCH   1  12
ATOM     12  C   UNL     1       7.976  15.140 -21.939  1.00  0.00     0.021 A 
ATOM     13  C   UNL     1       6.688  15.473 -21.479  1.00  0.00     0.016 A 
ATOM     14  C   UNL     1       6.367  16.800 -21.176  1.00  0.00     0.047 A 
ATOM     15  C   UNL     1       7.327  17.806 -21.316  1.00  0.00     0.115 A 
ATOM     16  C   UNL     1       8.941  16.153 -22.056  1.00  0.00     0.016 A 
ATOM     17  C   UNL     1       8.617  17.479 -21.753  1.00  0.00     0.047 A 
BRANCH  15  18
ATOM     18  O   UNL     1       6.992  19.124 -21.012  1.00  0.00    -0.508 OA
ATOM     19  H   UNL     1       7.037  19.856 -21.710  1.00  0.00     0.293 HD
ENDBRANCH  15  18
ENDBRANCH   1  12
BRANCH   2  20
ATOM     20  O   UNL     1       8.613  14.213 -24.609  1.00  0.00    -0.502 OA
ATOM     21  H   UNL     1       8.750  13.929 -25.572  1.00  0.00     0.293 HD
ENDBRANCH   2  20
BRANCH   6  22
ATOM     22  O   UNL     1       9.376   8.978 -23.995  1.00  0.00    -0.507 OA
ATOM     23  H   UNL     1       8.681   8.973 -24.725  1.00  0.00     0.293 HD
ENDBRANCH   6  22
BRANCH   8  24
ATOM     24  O   UNL     1       9.298   8.647 -19.221  1.00  0.00    -0.508 OA
ATOM     25  H   UNL     1       9.924   8.895 -18.462  1.00  0.00     0.293 HD
ENDBRANCH   8  24
TORSDOF 5
ENDMDL
MODEL 8
REMARK VINA RESULT:    -6.003      2.281      3.789
REMARK INTER + INTRA:          -7.342
REMARK INTER:                  -7.065
REMARK INTRA:                  -0.276
REMARK UNBOUND:                -0.286
REMARK SMILES O=c1c(O)c(-c2ccc(O)cc2)oc2cc(O)cc(O)c12
REMARK SMILES IDX 5 1 3 2 2 3 1 4 21 5 19 6 18 7 16 8 15 9 14 10 13 11 6 12
REMARK SMILES IDX 7 13 8 14 9 15 12 16 11 17 10 18 4 20 20 22 17 24
REMARK H PARENT 10 19 4 21 20 23 17 25
REMARK Flexibility Score: inf
ROOT
ATOM      1  C   UNL     1       6.940  10.898 -20.451  1.00  0.00     0.180 A 
ATOM      2  C   UNL     1       6.516  10.432 -21.707  1.00  0.00     0.208 A 
ATOM      3  C   UNL     1       6.986  11.072 -22.866  1.00  0.00     0.238 A 
ATOM      4  O   UNL     1       6.561  10.685 -23.984  1.00  0.00    -0.285 OA
ATOM      5  C   UNL     1       7.887  12.158 -22.754  1.00  0.00     0.111 A 
ATOM      6  C   UNL     1       8.458  12.854 -23.862  1.00  0.00     0.134 A 
ATOM      7  C   UNL     1       9.235  13.997 -23.632  1.00  0.00     0.093 A 
ATOM      8  C   UNL     1       9.514  14.431 -22.338  1.00  0.00     0.123 A 
ATOM      9  C   UNL     1       9.010  13.723 -21.246  1.00  0.00     0.094 A 
ATOM     10  C   UNL     1       8.202  12.600 -21.443  1.00  0.00     0.146 A 
ATOM     11  O   UNL     1       7.734  11.961 -20.377  1.00  0.00    -0.452 OA
ENDROOT
BRANCH   1  12
ATOM     12  C   UNL     1       6.508  10.261 -19.186  1.00  0.00     0.021 A 
ATOM     13  C   UNL     1       7.319   9.318 -18.526  1.00  0.00     0.016 A 
ATOM     14  C   UNL     1       6.901   8.748 -17.320  1.00  0.00     0.047 A 
ATOM     15  C   UNL     1       5.679   9.118 -16.752  1.00  0.00     0.115 A 
ATOM     16  C   UNL     1       5.291  10.643 -18.598  1.00  0.00     0.016 A 
ATOM     17  C   UNL     1       4.876  10.071 -17.392  1.00  0.00     0.047 A 
BRANCH  15  18
ATOM     18  O   UNL     1       5.274   8.540 -15.550  1.00  0.00    -0.508 OA
ATOM     19  H   UNL     1       4.661   7.735 -15.531  1.00  0.00     0.293 HD
ENDBRANCH  15  18
ENDBRANCH   1  12
BRANCH   2  20
ATOM     20  O   UNL     1       5.609   9.372 -21.793  1.00  0.00    -0.502 OA
ATOM     21  H   UNL     1       5.897   8.403 -21.727  1.00  0.00     0.293 HD
ENDBRANCH   2  20
BRANCH   6  22
ATOM     22  O   UNL     1       8.317  12.451 -25.193  1.00  0.00    -0.507 OA
ATOM     23  H   UNL     1       8.543  13.022 -25.992  1.00  0.00     0.293 HD
ENDBRANCH   6  22
BRANCH   8  24
ATOM     24  O   UNL     1      10.304  15.562 -22.148  1.00  0.00    -0.508 OA
ATOM     25  H   UNL     1      11.289  15.568 -22.390  1.00  0.00     0.293 HD
ENDBRANCH   8  24
TORSDOF 5
ENDMDL
MODEL 9
REMARK VINA RESULT:    -5.998      2.223      6.996
REMARK INTER + INTRA:          -7.336
REMARK INTER:                  -7.178
REMARK INTRA:                  -0.157
REMARK UNBOUND:                -0.286
REMARK SMILES O=c1c(O)c(-c2ccc(O)cc2)oc2cc(O)cc(O)c12
REMARK SMILES IDX 5 1 3 2 2 3 1 4 21 5 19 6 18 7 16 8 15 9 14 10 13 11 6 12
REMARK SMILES IDX 7 13 8 14 9 15 12 16 11 17 10 18 4 20 20 22 17 24
REMARK H PARENT 10 19 4 21 20 23 17 25
REMARK Flexibility Score: inf
ROOT
ATOM      1  C   UNL     1       8.579  12.463 -21.307  1.00  0.00     0.180 A 
ATOM      2  C   UNL     1       8.943  11.518 -22.282  1.00  0.00     0.208 A 
ATOM      3  C   UNL     1       8.893  10.152 -21.958  1.00  0.00     0.238 A 
ATOM      4  O   UNL     1       9.271   9.313 -22.816  1.00  0.00    -0.285 OA
ATOM      5  C   UNL     1       8.465   9.748 -20.670  1.00  0.00     0.111 A 
ATOM      6  C   UNL     1       8.337   8.391 -20.247  1.00  0.00     0.134 A 
ATOM      7  C   UNL     1       8.031   8.111 -18.909  1.00  0.00     0.093 A 
ATOM      8  C   UNL     1       7.784   9.135 -17.997  1.00  0.00     0.123 A 
ATOM      9  C   UNL     1       7.847  10.465 -18.415  1.00  0.00     0.094 A 
ATOM     10  C   UNL     1       8.186  10.777 -19.734  1.00  0.00     0.146 A 
ATOM     11  O   UNL     1       8.246  12.055 -20.087  1.00  0.00    -0.452 OA
ENDROOT
BRANCH   1  12
ATOM     12  C   UNL     1       8.582  13.918 -21.580  1.00  0.00     0.021 A 
ATOM     13  C   UNL     1       9.781  14.618 -21.812  1.00  0.00     0.016 A 
ATOM     14  C   UNL     1       9.757  15.988 -22.092  1.00  0.00     0.047 A 
ATOM     15  C   UNL     1       8.540  16.672 -22.158  1.00  0.00     0.115 A 
ATOM     16  C   UNL     1       7.362  14.608 -21.669  1.00  0.00     0.016 A 
ATOM     17  C   UNL     1       7.341  15.978 -21.949  1.00  0.00     0.047 A 
BRANCH  15  18
ATOM     18  O   UNL     1       8.531  18.037 -22.437  1.00  0.00    -0.508 OA
ATOM     19  H   UNL     1       9.358  18.607 -22.312  1.00  0.00     0.293 HD
ENDBRANCH  15  18
ENDBRANCH   1  12
BRANCH   2  20
ATOM     20  O   UNL     1       9.383  11.939 -23.539  1.00  0.00    -0.502 OA
ATOM     21  H   UNL     1       9.166  11.432 -24.389  1.00  0.00     0.293 HD
ENDBRANCH   2  20
BRANCH   6  22
ATOM     22  O   UNL     1       8.474   7.292 -21.100  1.00  0.00    -0.507 OA
ATOM     23  H   UNL     1       8.406   6.329 -20.811  1.00  0.00     0.293 HD
ENDBRANCH   6  22
BRANCH   8  24
ATOM     24  O   UNL     1       7.466   8.818 -16.678  1.00  0.00    -0.508 OA
ATOM     25  H   UNL     1       8.172   8.807 -15.951  1.00  0.00     0.293 HD
ENDBRANCH   8  24
TORSDOF 5
ENDMDL
