MODEL 1
REMARK VINA RESULT:    -6.986      0.000      0.000
REMARK INTER + INTRA:          -8.416
REMARK INTER:                  -8.212
REMARK INTRA:                  -0.204
REMARK UNBOUND:                -0.204
REMARK SMILES O=c1c(O)c(-c2ccc(O)cc2)oc2cc(O)cc(O)c12
REMARK SMILES IDX 5 1 3 2 2 3 1 4 21 5 19 6 18 7 16 8 15 9 14 10 13 11 6 12
REMARK SMILES IDX 7 13 8 14 9 15 12 16 11 17 10 18 4 20 20 22 17 24
REMARK H PARENT 10 19 4 21 20 23 17 25
REMARK Flexibility Score: inf
ROOT
ATOM      1  C   UNL     1      18.459  24.432  41.611  1.00  0.00     0.180 A 
ATOM      2  C   UNL     1      17.179  24.173  42.130  1.00  0.00     0.208 A 
ATOM      3  C   UNL     1      16.738  24.896  43.250  1.00  0.00     0.238 A 
ATOM      4  O   UNL     1      15.570  24.699  43.676  1.00  0.00    -0.285 OA
ATOM      5  C   UNL     1      17.590  25.856  43.847  1.00  0.00     0.111 A 
ATOM      6  C   UNL     1      17.263  26.618  45.009  1.00  0.00     0.134 A 
ATOM      7  C   UNL     1      18.129  27.633  45.436  1.00  0.00     0.093 A 
ATOM      8  C   UNL     1      19.339  27.869  44.781  1.00  0.00     0.123 A 
ATOM      9  C   UNL     1      19.695  27.091  43.682  1.00  0.00     0.094 A 
ATOM     10  C   UNL     1      18.836  26.096  43.210  1.00  0.00     0.146 A 
ATOM     11  O   UNL     1      19.209  25.385  42.153  1.00  0.00    -0.452 OA
ENDROOT
BRANCH   1  12
ATOM     12  C   UNL     1      19.003  23.693  40.448  1.00  0.00     0.021 A 
ATOM     13  C   UNL     1      19.979  22.704  40.653  1.00  0.00     0.016 A 
ATOM     14  C   UNL     1      20.491  21.979  39.572  1.00  0.00     0.047 A 
ATOM     15  C   UNL     1      20.022  22.220  38.277  1.00  0.00     0.115 A 
ATOM     16  C   UNL     1      18.521  23.918  39.145  1.00  0.00     0.016 A 
ATOM     17  C   UNL     1      19.033  23.190  38.067  1.00  0.00     0.047 A 
BRANCH  15  18
ATOM     18  O   UNL     1      20.541  21.491  37.211  1.00  0.00    -0.508 OA
ATOM     19  H   UNL     1      20.528  21.854  36.265  1.00  0.00     0.293 HD
ENDBRANCH  15  18
ENDBRANCH   1  12
BRANCH   2  20
ATOM     20  O   UNL     1      16.345  23.236  41.511  1.00  0.00    -0.502 OA
ATOM     21  H   UNL     1      16.008  22.409  41.988  1.00  0.00     0.293 HD
ENDBRANCH   2  20
BRANCH   6  22
ATOM     22  O   UNL     1      16.123  26.401  45.790  1.00  0.00    -0.507 OA
ATOM     23  H   UNL     1      15.905  26.901  46.639  1.00  0.00     0.293 HD
ENDBRANCH   6  22
BRANCH   8  24
ATOM     24  O   UNL     1      20.202  28.870  45.222  1.00  0.00    -0.508 OA
ATOM     25  H   UNL     1      20.402  29.685  44.654  1.00  0.00     0.293 HD
ENDBRANCH   8  24
TORSDOF 5
ENDMDL
MODEL 2
REMARK VINA RESULT:    -6.693     12.258     13.806
REMARK INTER + INTRA:          -8.071
REMARK INTER:                  -8.028
REMARK INTRA:                  -0.042
REMARK UNBOUND:                -0.204
REMARK SMILES O=c1c(O)c(-c2ccc(O)cc2)oc2cc(O)cc(O)c12
REMARK SMILES IDX 5 1 3 2 2 3 1 4 21 5 19 6 18 7 16 8 15 9 14 10 13 11 6 12
REMARK SMILES IDX 7 13 8 14 9 15 12 16 11 17 10 18 4 20 20 22 17 24
REMARK H PARENT 10 19 4 21 20 23 17 25
REMARK Flexibility Score: inf
ROOT
ATOM      1  C   UNL     1      28.766  23.021  49.759  1.00  0.00     0.180 A 
ATOM      2  C   UNL     1      29.974  22.383  50.086  1.00  0.00     0.208 A 
ATOM      3  C   UNL     1      30.224  22.042  51.425  1.00  0.00     0.238 A 
ATOM      4  O   UNL     1      31.283  21.421  51.704  1.00  0.00    -0.285 OA
ATOM      5  C   UNL     1      29.270  22.359  52.422  1.00  0.00     0.111 A 
ATOM      6  C   UNL     1      29.437  22.096  53.815  1.00  0.00     0.134 A 
ATOM      7  C   UNL     1      28.372  22.333  54.695  1.00  0.00     0.093 A 
ATOM      8  C   UNL     1      27.172  22.884  54.241  1.00  0.00     0.123 A 
ATOM      9  C   UNL     1      27.022  23.199  52.892  1.00  0.00     0.094 A 
ATOM     10  C   UNL     1      28.052  22.940  51.984  1.00  0.00     0.146 A 
ATOM     11  O   UNL     1      27.863  23.246  50.707  1.00  0.00    -0.452 OA
ENDROOT
BRANCH   1  12
ATOM     12  C   UNL     1      28.442  23.434  48.374  1.00  0.00     0.021 A 
ATOM     13  C   UNL     1      27.214  23.055  47.809  1.00  0.00     0.016 A 
ATOM     14  C   UNL     1      26.878  23.453  46.511  1.00  0.00     0.047 A 
ATOM     15  C   UNL     1      27.758  24.246  45.768  1.00  0.00     0.115 A 
ATOM     16  C   UNL     1      29.315  24.249  47.629  1.00  0.00     0.016 A 
ATOM     17  C   UNL     1      28.977  24.646  46.332  1.00  0.00     0.047 A 
BRANCH  15  18
ATOM     18  O   UNL     1      27.412  24.634  44.476  1.00  0.00    -0.508 OA
ATOM     19  H   UNL     1      27.736  24.121  43.664  1.00  0.00     0.293 HD
ENDBRANCH  15  18
ENDBRANCH   1  12
BRANCH   2  20
ATOM     20  O   UNL     1      30.893  22.060  49.083  1.00  0.00    -0.502 OA
ATOM     21  H   UNL     1      31.127  22.699  48.334  1.00  0.00     0.293 HD
ENDBRANCH   2  20
BRANCH   6  22
ATOM     22  O   UNL     1      30.626  21.632  54.386  1.00  0.00    -0.507 OA
ATOM     23  H   UNL     1      31.348  21.138  53.885  1.00  0.00     0.293 HD
ENDBRANCH   6  22
BRANCH   8  24
ATOM     24  O   UNL     1      26.124  23.132  55.124  1.00  0.00    -0.508 OA
ATOM     25  H   UNL     1      25.199  23.379  54.793  1.00  0.00     0.293 HD
ENDBRANCH   8  24
TORSDOF 5
ENDMDL
MODEL 3
REMARK VINA RESULT:    -6.639      1.323      2.884
REMARK INTER + INTRA:          -8.007
REMARK INTER:                  -7.722
REMARK INTRA:                  -0.285
REMARK UNBOUND:                -0.204
REMARK SMILES O=c1c(O)c(-c2ccc(O)cc2)oc2cc(O)cc(O)c12
REMARK SMILES IDX 5 1 3 2 2 3 1 4 21 5 19 6 18 7 16 8 15 9 14 10 13 11 6 12
REMARK SMILES IDX 7 13 8 14 9 15 12 16 11 17 10 18 4 20 20 22 17 24
REMARK H PARENT 10 19 4 21 20 23 17 25
REMARK Flexibility Score: inf
ROOT
ATOM      1  C   UNL     1      19.096  24.488  41.377  1.00  0.00     0.180 A 
ATOM      2  C   UNL     1      19.720  25.731  41.580  1.00  0.00     0.208 A 
ATOM      3  C   UNL     1      19.299  26.538  42.649  1.00  0.00     0.238 A 
ATOM      4  O   UNL     1      19.899  27.625  42.859  1.00  0.00    -0.285 OA
ATOM      5  C   UNL     1      18.247  26.101  43.489  1.00  0.00     0.111 A 
ATOM      6  C   UNL     1      17.712  26.856  44.577  1.00  0.00     0.134 A 
ATOM      7  C   UNL     1      16.761  26.270  45.422  1.00  0.00     0.093 A 
ATOM      8  C   UNL     1      16.279  24.981  45.181  1.00  0.00     0.123 A 
ATOM      9  C   UNL     1      16.752  24.260  44.087  1.00  0.00     0.094 A 
ATOM     10  C   UNL     1      17.727  24.803  43.247  1.00  0.00     0.146 A 
ATOM     11  O   UNL     1      18.157  24.077  42.222  1.00  0.00    -0.452 OA
ENDROOT
BRANCH   1  12
ATOM     12  C   UNL     1      19.468  23.593  40.258  1.00  0.00     0.021 A 
ATOM     13  C   UNL     1      20.307  22.493  40.502  1.00  0.00     0.016 A 
ATOM     14  C   UNL     1      20.653  21.622  39.464  1.00  0.00     0.047 A 
ATOM     15  C   UNL     1      20.154  21.829  38.174  1.00  0.00     0.115 A 
ATOM     16  C   UNL     1      18.952  23.785  38.962  1.00  0.00     0.016 A 
ATOM     17  C   UNL     1      19.300  22.912  37.927  1.00  0.00     0.047 A 
BRANCH  15  18
ATOM     18  O   UNL     1      20.508  20.955  37.150  1.00  0.00    -0.508 OA
ATOM     19  H   UNL     1      21.197  21.208  36.452  1.00  0.00     0.293 HD
ENDBRANCH  15  18
ENDBRANCH   1  12
BRANCH   2  20
ATOM     20  O   UNL     1      20.772  26.133  40.751  1.00  0.00    -0.502 OA
ATOM     21  H   UNL     1      21.718  25.792  40.869  1.00  0.00     0.293 HD
ENDBRANCH   2  20
BRANCH   6  22
ATOM     22  O   UNL     1      18.058  28.182  44.851  1.00  0.00    -0.507 OA
ATOM     23  H   UNL     1      17.416  28.884  45.189  1.00  0.00     0.293 HD
ENDBRANCH   6  22
BRANCH   8  24
ATOM     24  O   UNL     1      15.322  24.412  46.017  1.00  0.00    -0.508 OA
ATOM     25  H   UNL     1      14.597  23.803  45.655  1.00  0.00     0.293 HD
ENDBRANCH   8  24
TORSDOF 5
ENDMDL
MODEL 4
REMARK VINA RESULT:    -6.587     12.055     13.531
REMARK INTER + INTRA:          -7.946
REMARK INTER:                  -7.954
REMARK INTRA:                   0.008
REMARK UNBOUND:                -0.204
REMARK SMILES O=c1c(O)c(-c2ccc(O)cc2)oc2cc(O)cc(O)c12
REMARK SMILES IDX 5 1 3 2 2 3 1 4 21 5 19 6 18 7 16 8 15 9 14 10 13 11 6 12
REMARK SMILES IDX 7 13 8 14 9 15 12 16 11 17 10 18 4 20 20 22 17 24
REMARK H PARENT 10 19 4 21 20 23 17 25
REMARK Flexibility Score: inf
ROOT
ATOM      1  C   UNL     1      28.177  23.419  49.820  1.00  0.00     0.180 A 
ATOM      2  C   UNL     1      27.181  23.796  50.736  1.00  0.00     0.208 A 
ATOM      3  C   UNL     1      27.330  23.444  52.087  1.00  0.00     0.238 A 
ATOM      4  O   UNL     1      26.461  23.832  52.912  1.00  0.00    -0.285 OA
ATOM      5  C   UNL     1      28.464  22.705  52.501  1.00  0.00     0.111 A 
ATOM      6  C   UNL     1      28.697  22.260  53.838  1.00  0.00     0.134 A 
ATOM      7  C   UNL     1      29.916  21.650  54.160  1.00  0.00     0.093 A 
ATOM      8  C   UNL     1      30.882  21.411  53.180  1.00  0.00     0.123 A 
ATOM      9  C   UNL     1      30.639  21.788  51.862  1.00  0.00     0.094 A 
ATOM     10  C   UNL     1      29.448  22.432  51.516  1.00  0.00     0.146 A 
ATOM     11  O   UNL     1      29.261  22.783  50.250  1.00  0.00    -0.452 OA
ENDROOT
BRANCH   1  12
ATOM     12  C   UNL     1      28.079  23.731  48.375  1.00  0.00     0.021 A 
ATOM     13  C   UNL     1      26.922  23.367  47.667  1.00  0.00     0.016 A 
ATOM     14  C   UNL     1      26.798  23.672  46.307  1.00  0.00     0.047 A 
ATOM     15  C   UNL     1      27.821  24.357  45.644  1.00  0.00     0.115 A 
ATOM     16  C   UNL     1      29.096  24.438  47.707  1.00  0.00     0.016 A 
ATOM     17  C   UNL     1      28.969  24.742  46.347  1.00  0.00     0.047 A 
BRANCH  15  18
ATOM     18  O   UNL     1      27.685  24.652  44.290  1.00  0.00    -0.508 OA
ATOM     19  H   UNL     1      28.155  25.446  43.870  1.00  0.00     0.293 HD
ENDBRANCH  15  18
ENDBRANCH   1  12
BRANCH   2  20
ATOM     20  O   UNL     1      26.079  24.544  50.309  1.00  0.00    -0.502 OA
ATOM     21  H   UNL     1      25.978  24.867  49.355  1.00  0.00     0.293 HD
ENDBRANCH   2  20
BRANCH   6  22
ATOM     22  O   UNL     1      27.761  22.368  54.871  1.00  0.00    -0.507 OA
ATOM     23  H   UNL     1      27.886  22.925  55.703  1.00  0.00     0.293 HD
ENDBRANCH   6  22
BRANCH   8  24
ATOM     24  O   UNL     1      32.085  20.789  53.506  1.00  0.00    -0.508 OA
ATOM     25  H   UNL     1      32.242  20.384  54.421  1.00  0.00     0.293 HD
ENDBRANCH   8  24
TORSDOF 5
ENDMDL
MODEL 5
REMARK VINA RESULT:    -6.115      1.585      3.230
REMARK INTER + INTRA:          -7.391
REMARK INTER:                  -7.111
REMARK INTRA:                  -0.280
REMARK UNBOUND:                -0.204
REMARK SMILES O=c1c(O)c(-c2ccc(O)cc2)oc2cc(O)cc(O)c12
REMARK SMILES IDX 5 1 3 2 2 3 1 4 21 5 19 6 18 7 16 8 15 9 14 10 13 11 6 12
REMARK SMILES IDX 7 13 8 14 9 15 12 16 11 17 10 18 4 20 20 22 17 24
REMARK H PARENT 10 19 4 21 20 23 17 25
REMARK Flexibility Score: inf
ROOT
ATOM      1  C   UNL     1      18.464  25.458  41.974  1.00  0.00     0.180 A 
ATOM      2  C   UNL     1      19.248  26.410  42.648  1.00  0.00     0.208 A 
ATOM      3  C   UNL     1      18.844  26.847  43.920  1.00  0.00     0.238 A 
ATOM      4  O   UNL     1      19.578  27.657  44.543  1.00  0.00    -0.285 OA
ATOM      5  C   UNL     1      17.652  26.340  44.493  1.00  0.00     0.111 A 
ATOM      6  C   UNL     1      17.126  26.743  45.757  1.00  0.00     0.134 A 
ATOM      7  C   UNL     1      16.010  26.080  46.284  1.00  0.00     0.093 A 
ATOM      8  C   UNL     1      15.363  25.075  45.563  1.00  0.00     0.123 A 
ATOM      9  C   UNL     1      15.834  24.716  44.302  1.00  0.00     0.094 A 
ATOM     10  C   UNL     1      16.967  25.333  43.765  1.00  0.00     0.146 A 
ATOM     11  O   UNL     1      17.387  24.954  42.565  1.00  0.00    -0.452 OA
ENDROOT
BRANCH   1  12
ATOM     12  C   UNL     1      18.811  24.968  40.620  1.00  0.00     0.021 A 
ATOM     13  C   UNL     1      19.411  23.706  40.475  1.00  0.00     0.016 A 
ATOM     14  C   UNL     1      19.727  23.214  39.204  1.00  0.00     0.047 A 
ATOM     15  C   UNL     1      19.435  23.969  38.064  1.00  0.00     0.115 A 
ATOM     16  C   UNL     1      18.501  25.714  39.467  1.00  0.00     0.016 A 
ATOM     17  C   UNL     1      18.818  25.219  38.199  1.00  0.00     0.047 A 
BRANCH  15  18
ATOM     18  O   UNL     1      19.756  23.467  36.806  1.00  0.00    -0.508 OA
ATOM     19  H   UNL     1      19.057  23.038  36.211  1.00  0.00     0.293 HD
ENDBRANCH  15  18
ENDBRANCH   1  12
BRANCH   2  20
ATOM     20  O   UNL     1      20.432  26.881  42.074  1.00  0.00    -0.502 OA
ATOM     21  H   UNL     1      21.151  27.345  42.614  1.00  0.00     0.293 HD
ENDBRANCH   2  20
BRANCH   6  22
ATOM     22  O   UNL     1      17.642  27.798  46.518  1.00  0.00    -0.507 OA
ATOM     23  H   UNL     1      17.323  28.048  47.442  1.00  0.00     0.293 HD
ENDBRANCH   6  22
BRANCH   8  24
ATOM     24  O   UNL     1      14.245  24.431  46.087  1.00  0.00    -0.508 OA
ATOM     25  H   UNL     1      14.270  23.977  46.992  1.00  0.00     0.293 HD
ENDBRANCH   8  24
TORSDOF 5
ENDMDL
MODEL 6
REMARK VINA RESULT:    -6.096      3.820      8.491
REMARK INTER + INTRA:          -7.369
REMARK INTER:                  -7.089
REMARK INTRA:                  -0.280
REMARK UNBOUND:                -0.204
REMARK SMILES O=c1c(O)c(-c2ccc(O)cc2)oc2cc(O)cc(O)c12
REMARK SMILES IDX 5 1 3 2 2 3 1 4 21 5 19 6 18 7 16 8 15 9 14 10 13 11 6 12
REMARK SMILES IDX 7 13 8 14 9 15 12 16 11 17 10 18 4 20 20 22 17 24
REMARK H PARENT 10 19 4 21 20 23 17 25
REMARK Flexibility Score: inf
ROOT
ATOM      1  C   UNL     1      15.553  26.660  47.422  1.00  0.00     0.180 A 
ATOM      2  C   UNL     1      15.002  25.503  46.844  1.00  0.00     0.208 A 
ATOM      3  C   UNL     1      15.575  24.989  45.669  1.00  0.00     0.238 A 
ATOM      4  O   UNL     1      15.112  23.922  45.187  1.00  0.00    -0.285 OA
ATOM      5  C   UNL     1      16.679  25.648  45.078  1.00  0.00     0.111 A 
ATOM      6  C   UNL     1      17.312  25.239  43.866  1.00  0.00     0.134 A 
ATOM      7  C   UNL     1      18.479  25.889  43.442  1.00  0.00     0.093 A 
ATOM      8  C   UNL     1      18.997  26.975  44.153  1.00  0.00     0.123 A 
ATOM      9  C   UNL     1      18.351  27.419  45.305  1.00  0.00     0.094 A 
ATOM     10  C   UNL     1      17.207  26.768  45.772  1.00  0.00     0.146 A 
ATOM     11  O   UNL     1      16.629  27.218  46.879  1.00  0.00    -0.452 OA
ENDROOT
BRANCH   1  12
ATOM     12  C   UNL     1      14.989  27.275  48.645  1.00  0.00     0.021 A 
ATOM     13  C   UNL     1      15.629  27.071  49.879  1.00  0.00     0.016 A 
ATOM     14  C   UNL     1      15.127  27.660  51.043  1.00  0.00     0.047 A 
ATOM     15  C   UNL     1      13.989  28.472  50.987  1.00  0.00     0.115 A 
ATOM     16  C   UNL     1      13.857  28.108  48.592  1.00  0.00     0.016 A 
ATOM     17  C   UNL     1      13.357  28.697  49.758  1.00  0.00     0.047 A 
BRANCH  15  18
ATOM     18  O   UNL     1      13.499  29.051  52.155  1.00  0.00    -0.508 OA
ATOM     19  H   UNL     1      12.538  29.364  52.229  1.00  0.00     0.293 HD
ENDBRANCH  15  18
ENDBRANCH   1  12
BRANCH   2  20
ATOM     20  O   UNL     1      13.925  24.855  47.457  1.00  0.00    -0.502 OA
ATOM     21  H   UNL     1      13.005  25.271  47.519  1.00  0.00     0.293 HD
ENDBRANCH   2  20
BRANCH   6  22
ATOM     22  O   UNL     1      16.825  24.227  43.033  1.00  0.00    -0.507 OA
ATOM     23  H   UNL     1      17.220  23.301  42.965  1.00  0.00     0.293 HD
ENDBRANCH   6  22
BRANCH   8  24
ATOM     24  O   UNL     1      20.148  27.626  43.716  1.00  0.00    -0.508 OA
ATOM     25  H   UNL     1      20.219  28.636  43.721  1.00  0.00     0.293 HD
ENDBRANCH   8  24
TORSDOF 5
ENDMDL
MODEL 7
REMARK VINA RESULT:    -6.095      1.868      6.686
REMARK INTER + INTRA:          -7.368
REMARK INTER:                  -7.098
REMARK INTRA:                  -0.269
REMARK UNBOUND:                -0.204
REMARK SMILES O=c1c(O)c(-c2ccc(O)cc2)oc2cc(O)cc(O)c12
REMARK SMILES IDX 5 1 3 2 2 3 1 4 21 5 19 6 18 7 16 8 15 9 14 10 13 11 6 12
REMARK SMILES IDX 7 13 8 14 9 15 12 16 11 17 10 18 4 20 20 22 17 24
REMARK H PARENT 10 19 4 21 20 23 17 25
REMARK Flexibility Score: inf
ROOT
ATOM      1  C   UNL     1      17.267  25.024  42.397  1.00  0.00     0.180 A 
ATOM      2  C   UNL     1      16.492  25.408  41.289  1.00  0.00     0.208 A 
ATOM      3  C   UNL     1      16.861  24.957  40.011  1.00  0.00     0.238 A 
ATOM      4  O   UNL     1      16.133  25.259  39.030  1.00  0.00    -0.285 OA
ATOM      5  C   UNL     1      18.010  24.144  39.856  1.00  0.00     0.111 A 
ATOM      6  C   UNL     1      18.499  23.665  38.604  1.00  0.00     0.134 A 
ATOM      7  C   UNL     1      19.569  22.760  38.581  1.00  0.00     0.093 A 
ATOM      8  C   UNL     1      20.206  22.369  39.760  1.00  0.00     0.123 A 
ATOM      9  C   UNL     1      19.773  22.878  40.983  1.00  0.00     0.094 A 
ATOM     10  C   UNL     1      18.686  23.754  41.041  1.00  0.00     0.146 A 
ATOM     11  O   UNL     1      18.300  24.207  42.227  1.00  0.00    -0.452 OA
ENDROOT
BRANCH   1  12
ATOM     12  C   UNL     1      16.955  25.479  43.772  1.00  0.00     0.021 A 
ATOM     13  C   UNL     1      15.997  24.785  44.529  1.00  0.00     0.016 A 
ATOM     14  C   UNL     1      15.703  25.184  45.837  1.00  0.00     0.047 A 
ATOM     15  C   UNL     1      16.374  26.269  46.409  1.00  0.00     0.115 A 
ATOM     16  C   UNL     1      17.640  26.559  44.360  1.00  0.00     0.016 A 
ATOM     17  C   UNL     1      17.345  26.954  45.668  1.00  0.00     0.047 A 
BRANCH  15  18
ATOM     18  O   UNL     1      16.070  26.656  47.712  1.00  0.00    -0.508 OA
ATOM     19  H   UNL     1      16.401  27.534  48.095  1.00  0.00     0.293 HD
ENDBRANCH  15  18
ENDBRANCH   1  12
BRANCH   2  20
ATOM     20  O   UNL     1      15.349  26.193  41.467  1.00  0.00    -0.502 OA
ATOM     21  H   UNL     1      14.756  26.472  40.696  1.00  0.00     0.293 HD
ENDBRANCH   2  20
BRANCH   6  22
ATOM     22  O   UNL     1      17.994  24.064  37.363  1.00  0.00    -0.507 OA
ATOM     23  H   UNL     1      17.744  23.434  36.615  1.00  0.00     0.293 HD
ENDBRANCH   6  22
BRANCH   8  24
ATOM     24  O   UNL     1      21.279  21.481  39.728  1.00  0.00    -0.508 OA
ATOM     25  H   UNL     1      22.030  21.533  40.405  1.00  0.00     0.293 HD
ENDBRANCH   8  24
TORSDOF 5
ENDMDL
MODEL 8
REMARK VINA RESULT:    -6.086      2.899      5.450
REMARK INTER + INTRA:          -7.358
REMARK INTER:                  -7.071
REMARK INTRA:                  -0.287
REMARK UNBOUND:                -0.204
REMARK SMILES O=c1c(O)c(-c2ccc(O)cc2)oc2cc(O)cc(O)c12
REMARK SMILES IDX 5 1 3 2 2 3 1 4 21 5 19 6 18 7 16 8 15 9 14 10 13 11 6 12
REMARK SMILES IDX 7 13 8 14 9 15 12 16 11 17 10 18 4 20 20 22 17 24
REMARK H PARENT 10 19 4 21 20 23 17 25
REMARK Flexibility Score: inf
ROOT
ATOM      1  C   UNL     1      17.193  23.488  42.543  1.00  0.00     0.180 A 
ATOM      2  C   UNL     1      17.539  24.578  43.359  1.00  0.00     0.208 A 
ATOM      3  C   UNL     1      18.239  25.657  42.795  1.00  0.00     0.238 A 
ATOM      4  O   UNL     1      18.498  26.655  43.518  1.00  0.00    -0.285 OA
ATOM      5  C   UNL     1      18.598  25.624  41.426  1.00  0.00     0.111 A 
ATOM      6  C   UNL     1      19.342  26.643  40.759  1.00  0.00     0.134 A 
ATOM      7  C   UNL     1      19.528  26.567  39.372  1.00  0.00     0.093 A 
ATOM      8  C   UNL     1      19.053  25.477  38.641  1.00  0.00     0.123 A 
ATOM      9  C   UNL     1      18.377  24.448  39.293  1.00  0.00     0.094 A 
ATOM     10  C   UNL     1      18.144  24.512  40.669  1.00  0.00     0.146 A 
ATOM     11  O   UNL     1      17.487  23.515  41.248  1.00  0.00    -0.452 OA
ENDROOT
BRANCH   1  12
ATOM     12  C   UNL     1      16.478  22.303  43.072  1.00  0.00     0.021 A 
ATOM     13  C   UNL     1      17.211  21.257  43.656  1.00  0.00     0.016 A 
ATOM     14  C   UNL     1      16.555  20.139  44.181  1.00  0.00     0.047 A 
ATOM     15  C   UNL     1      15.159  20.060  44.144  1.00  0.00     0.115 A 
ATOM     16  C   UNL     1      15.073  22.227  43.055  1.00  0.00     0.016 A 
ATOM     17  C   UNL     1      14.420  21.109  43.583  1.00  0.00     0.047 A 
BRANCH  15  18
ATOM     18  O   UNL     1      14.520  18.941  44.669  1.00  0.00    -0.508 OA
ATOM     19  H   UNL     1      13.809  19.024  45.387  1.00  0.00     0.293 HD
ENDBRANCH  15  18
ENDBRANCH   1  12
BRANCH   2  20
ATOM     20  O   UNL     1      17.155  24.601  44.704  1.00  0.00    -0.502 OA
ATOM     21  H   UNL     1      16.951  23.757  45.225  1.00  0.00     0.293 HD
ENDBRANCH   2  20
BRANCH   6  22
ATOM     22  O   UNL     1      19.939  27.727  41.410  1.00  0.00    -0.507 OA
ATOM     23  H   UNL     1      19.784  28.695  41.171  1.00  0.00     0.293 HD
ENDBRANCH   6  22
BRANCH   8  24
ATOM     24  O   UNL     1      19.255  25.401  37.265  1.00  0.00    -0.508 OA
ATOM     25  H   UNL     1      18.572  24.973  36.651  1.00  0.00     0.293 HD
ENDBRANCH   8  24
TORSDOF 5
ENDMDL
