MODEL 1
REMARK VINA RESULT:    -5.973      0.000      0.000
REMARK INTER + INTRA:          -5.973
REMARK INTER:                  -5.973
REMARK INTRA:                   0.000
REMARK UNBOUND:                 0.000
REMARK SMILES CC1(C)O[C@]2(C)CC[C@H]1CC2
REMARK SMILES IDX 1 1 2 2 9 3 8 4 7 5 5 6 4 7 11 8 10 9 6 10 3 11
REMARK H PARENT
REMARK Flexibility Score: inf
ROOT
ATOM      1  C   UNL     1      27.762  35.624  26.245  1.00  0.00     0.042 C 
ATOM      2  C   UNL     1      28.963  36.396  26.831  1.00  0.00     0.066 C 
ATOM      3  C   UNL     1      29.436  37.528  25.840  1.00  0.00     0.021 C 
ATOM      4  C   UNL     1      30.605  38.300  26.499  1.00  0.00     0.009 C 
ATOM      5  C   UNL     1      30.182  38.746  27.920  1.00  0.00     0.035 C 
ATOM      6  C   UNL     1      28.698  38.352  28.176  1.00  0.00     0.066 C 
ATOM      7  O   UNL     1      28.570  36.932  28.103  1.00  0.00    -0.369 OA
ATOM      8  C   UNL     1      27.806  39.002  27.078  1.00  0.00     0.035 C 
ATOM      9  C   UNL     1      28.286  38.549  25.678  1.00  0.00     0.009 C 
ATOM     10  C   UNL     1      28.256  38.819  29.567  1.00  0.00     0.042 C 
ATOM     11  C   UNL     1      30.094  35.372  27.070  1.00  0.00     0.042 C 
ENDROOT
TORSDOF 0
ENDMDL
MODEL 2
REMARK VINA RESULT:    -5.933      1.277      3.009
REMARK INTER + INTRA:          -5.933
REMARK INTER:                  -5.933
REMARK INTRA:                   0.000
REMARK UNBOUND:                 0.000
REMARK SMILES CC1(C)O[C@]2(C)CC[C@H]1CC2
REMARK SMILES IDX 1 1 2 2 9 3 8 4 7 5 5 6 4 7 11 8 10 9 6 10 3 11
REMARK H PARENT
REMARK Flexibility Score: inf
ROOT
ATOM      1  C   UNL     1      27.890  38.171  28.868  1.00  0.00     0.042 C 
ATOM      2  C   UNL     1      29.092  38.269  27.904  1.00  0.00     0.066 C 
ATOM      3  C   UNL     1      29.589  36.833  27.483  1.00  0.00     0.021 C 
ATOM      4  C   UNL     1      30.757  36.993  26.480  1.00  0.00     0.009 C 
ATOM      5  C   UNL     1      30.319  37.943  25.339  1.00  0.00     0.035 C 
ATOM      6  C   UNL     1      28.829  38.345  25.530  1.00  0.00     0.066 C 
ATOM      7  O   UNL     1      28.687  39.047  26.766  1.00  0.00    -0.369 OA
ATOM      8  C   UNL     1      27.958  37.056  25.572  1.00  0.00     0.035 C 
ATOM      9  C   UNL     1      28.451  36.128  26.708  1.00  0.00     0.009 C 
ATOM     10  C   UNL     1      28.373  39.260  24.388  1.00  0.00     0.042 C 
ATOM     11  C   UNL     1      30.208  39.041  28.639  1.00  0.00     0.042 C 
ENDROOT
TORSDOF 0
ENDMDL
MODEL 3
REMARK VINA RESULT:    -5.925      1.327      2.955
REMARK INTER + INTRA:          -5.925
REMARK INTER:                  -5.925
REMARK INTRA:                   0.000
REMARK UNBOUND:                 0.000
REMARK SMILES CC1(C)O[C@]2(C)CC[C@H]1CC2
REMARK SMILES IDX 1 1 2 2 9 3 8 4 7 5 5 6 4 7 11 8 10 9 6 10 3 11
REMARK H PARENT
REMARK Flexibility Score: inf
ROOT
ATOM      1  C   UNL     1      30.356  35.975  27.374  1.00  0.00     0.042 C 
ATOM      2  C   UNL     1      28.889  36.255  26.981  1.00  0.00     0.066 C 
ATOM      3  C   UNL     1      28.110  36.930  28.175  1.00  0.00     0.021 C 
ATOM      4  C   UNL     1      26.666  37.234  27.708  1.00  0.00     0.009 C 
ATOM      5  C   UNL     1      26.718  38.018  26.374  1.00  0.00     0.035 C 
ATOM      6  C   UNL     1      28.197  38.319  25.997  1.00  0.00     0.066 C 
ATOM      7  O   UNL     1      28.893  37.086  25.810  1.00  0.00    -0.369 OA
ATOM      8  C   UNL     1      28.864  39.112  27.158  1.00  0.00     0.035 C 
ATOM      9  C   UNL     1      28.762  38.301  28.472  1.00  0.00     0.009 C 
ATOM     10  C   UNL     1      28.261  39.125  24.695  1.00  0.00     0.042 C 
ATOM     11  C   UNL     1      28.249  34.902  26.606  1.00  0.00     0.042 C 
ENDROOT
TORSDOF 0
ENDMDL
MODEL 4
REMARK VINA RESULT:    -5.922      1.362      3.095
REMARK INTER + INTRA:          -5.922
REMARK INTER:                  -5.922
REMARK INTRA:                   0.000
REMARK UNBOUND:                 0.000
REMARK SMILES CC1(C)O[C@]2(C)CC[C@H]1CC2
REMARK SMILES IDX 1 1 2 2 9 3 8 4 7 5 5 6 4 7 11 8 10 9 6 10 3 11
REMARK H PARENT
REMARK Flexibility Score: inf
ROOT
ATOM      1  C   UNL     1      30.414  38.677  28.478  1.00  0.00     0.042 C 
ATOM      2  C   UNL     1      29.794  37.717  27.441  1.00  0.00     0.066 C 
ATOM      3  C   UNL     1      28.406  37.166  27.948  1.00  0.00     0.021 C 
ATOM      4  C   UNL     1      27.810  36.254  26.850  1.00  0.00     0.009 C 
ATOM      5  C   UNL     1      27.809  37.014  25.502  1.00  0.00     0.035 C 
ATOM      6  C   UNL     1      28.320  38.468  25.717  1.00  0.00     0.066 C 
ATOM      7  O   UNL     1      29.664  38.426  26.199  1.00  0.00    -0.369 OA
ATOM      8  C   UNL     1      27.419  39.169  26.775  1.00  0.00     0.035 C 
ATOM      9  C   UNL     1      27.430  38.358  28.093  1.00  0.00     0.009 C 
ATOM     10  C   UNL     1      28.292  39.243  24.396  1.00  0.00     0.042 C 
ATOM     11  C   UNL     1      30.796  36.561  27.229  1.00  0.00     0.042 C 
ENDROOT
TORSDOF 0
ENDMDL
MODEL 5
REMARK VINA RESULT:    -5.905      1.255      2.956
REMARK INTER + INTRA:          -5.905
REMARK INTER:                  -5.905
REMARK INTRA:                   0.000
REMARK UNBOUND:                 0.000
REMARK SMILES CC1(C)O[C@]2(C)CC[C@H]1CC2
REMARK SMILES IDX 1 1 2 2 9 3 8 4 7 5 5 6 4 7 11 8 10 9 6 10 3 11
REMARK H PARENT
REMARK Flexibility Score: inf
ROOT
ATOM      1  C   UNL     1      27.814  39.167  25.435  1.00  0.00     0.042 C 
ATOM      2  C   UNL     1      28.991  38.236  25.797  1.00  0.00     0.066 C 
ATOM      3  C   UNL     1      29.504  38.529  27.259  1.00  0.00     0.021 C 
ATOM      4  C   UNL     1      30.646  37.536  27.586  1.00  0.00     0.009 C 
ATOM      5  C   UNL     1      30.166  36.095  27.288  1.00  0.00     0.035 C 
ATOM      6  C   UNL     1      28.673  36.116  26.851  1.00  0.00     0.066 C 
ATOM      7  O   UNL     1      28.547  36.879  25.650  1.00  0.00    -0.369 OA
ATOM      8  C   UNL     1      27.827  36.785  27.972  1.00  0.00     0.035 C 
ATOM      9  C   UNL     1      28.362  38.210  28.253  1.00  0.00     0.009 C 
ATOM     10  C   UNL     1      28.176  34.691  26.585  1.00  0.00     0.042 C 
ATOM     11  C   UNL     1      30.110  38.489  24.764  1.00  0.00     0.042 C 
ENDROOT
TORSDOF 0
ENDMDL
MODEL 6
REMARK VINA RESULT:    -5.881      0.953      3.351
REMARK INTER + INTRA:          -5.881
REMARK INTER:                  -5.881
REMARK INTRA:                   0.000
REMARK UNBOUND:                 0.000
REMARK SMILES CC1(C)O[C@]2(C)CC[C@H]1CC2
REMARK SMILES IDX 1 1 2 2 9 3 8 4 7 5 5 6 4 7 11 8 10 9 6 10 3 11
REMARK H PARENT
REMARK Flexibility Score: inf
ROOT
ATOM      1  C   UNL     1      30.157  38.969  27.887  1.00  0.00     0.042 C 
ATOM      2  C   UNL     1      28.723  38.405  27.976  1.00  0.00     0.066 C 
ATOM      3  C   UNL     1      27.783  39.098  26.916  1.00  0.00     0.021 C 
ATOM      4  C   UNL     1      26.377  38.459  27.016  1.00  0.00     0.009 C 
ATOM      5  C   UNL     1      26.511  36.919  26.930  1.00  0.00     0.035 C 
ATOM      6  C   UNL     1      27.998  36.533  26.680  1.00  0.00     0.066 C 
ATOM      7  O   UNL     1      28.790  36.984  27.780  1.00  0.00    -0.369 OA
ATOM      8  C   UNL     1      28.489  37.228  25.377  1.00  0.00     0.035 C 
ATOM      9  C   UNL     1      28.308  38.760  25.501  1.00  0.00     0.009 C 
ATOM     10  C   UNL     1      28.140  35.012  26.559  1.00  0.00     0.042 C 
ATOM     11  C   UNL     1      28.215  38.666  29.410  1.00  0.00     0.042 C 
ENDROOT
TORSDOF 0
ENDMDL
MODEL 7
REMARK VINA RESULT:    -5.871      1.265      2.982
REMARK INTER + INTRA:          -5.871
REMARK INTER:                  -5.871
REMARK INTRA:                   0.000
REMARK UNBOUND:                 0.000
REMARK SMILES CC1(C)O[C@]2(C)CC[C@H]1CC2
REMARK SMILES IDX 1 1 2 2 9 3 8 4 7 5 5 6 4 7 11 8 10 9 6 10 3 11
REMARK H PARENT
REMARK Flexibility Score: inf
ROOT
ATOM      1  C   UNL     1      29.737  38.737  24.593  1.00  0.00     0.042 C 
ATOM      2  C   UNL     1      29.570  38.274  26.056  1.00  0.00     0.066 C 
ATOM      3  C   UNL     1      28.278  38.911  26.698  1.00  0.00     0.021 C 
ATOM      4  C   UNL     1      28.134  38.373  28.143  1.00  0.00     0.009 C 
ATOM      5  C   UNL     1      28.214  36.828  28.120  1.00  0.00     0.035 C 
ATOM      6  C   UNL     1      28.320  36.327  26.651  1.00  0.00     0.066 C 
ATOM      7  O   UNL     1      29.518  36.839  26.066  1.00  0.00    -0.369 OA
ATOM      8  C   UNL     1      27.095  36.852  25.848  1.00  0.00     0.035 C 
ATOM      9  C   UNL     1      27.041  38.396  25.924  1.00  0.00     0.009 C 
ATOM     10  C   UNL     1      28.366  34.796  26.612  1.00  0.00     0.042 C 
ATOM     11  C   UNL     1      30.835  38.713  26.823  1.00  0.00     0.042 C 
ENDROOT
TORSDOF 0
ENDMDL
MODEL 8
REMARK VINA RESULT:    -5.863      1.384      3.012
REMARK INTER + INTRA:          -5.863
REMARK INTER:                  -5.863
REMARK INTRA:                   0.000
REMARK UNBOUND:                 0.000
REMARK SMILES CC1(C)O[C@]2(C)CC[C@H]1CC2
REMARK SMILES IDX 1 1 2 2 9 3 8 4 7 5 5 6 4 7 11 8 10 9 6 10 3 11
REMARK H PARENT
REMARK Flexibility Score: inf
ROOT
ATOM      1  C   UNL     1      30.066  38.031  25.078  1.00  0.00     0.042 C 
ATOM      2  C   UNL     1      28.647  38.332  25.606  1.00  0.00     0.066 C 
ATOM      3  C   UNL     1      27.757  37.030  25.590  1.00  0.00     0.021 C 
ATOM      4  C   UNL     1      26.367  37.379  26.175  1.00  0.00     0.009 C 
ATOM      5  C   UNL     1      26.554  38.081  27.542  1.00  0.00     0.035 C 
ATOM      6  C   UNL     1      28.064  38.120  27.913  1.00  0.00     0.066 C 
ATOM      7  O   UNL     1      28.770  38.876  26.929  1.00  0.00    -0.369 OA
ATOM      8  C   UNL     1      28.617  36.665  27.933  1.00  0.00     0.035 C 
ATOM      9  C   UNL     1      28.382  35.997  26.556  1.00  0.00     0.009 C 
ATOM     10  C   UNL     1      28.260  38.782  29.281  1.00  0.00     0.042 C 
ATOM     11  C   UNL     1      28.040  39.420  24.695  1.00  0.00     0.042 C 
ENDROOT
TORSDOF 0
ENDMDL
MODEL 9
REMARK VINA RESULT:    -5.832      0.962      1.960
REMARK INTER + INTRA:          -5.832
REMARK INTER:                  -5.832
REMARK INTRA:                   0.000
REMARK UNBOUND:                 0.000
REMARK SMILES CC1(C)O[C@]2(C)CC[C@H]1CC2
REMARK SMILES IDX 1 1 2 2 9 3 8 4 7 5 5 6 4 7 11 8 10 9 6 10 3 11
REMARK H PARENT
REMARK Flexibility Score: inf
ROOT
ATOM      1  C   UNL     1      30.116  35.445  26.915  1.00  0.00     0.042 C 
ATOM      2  C   UNL     1      29.721  36.914  26.648  1.00  0.00     0.066 C 
ATOM      3  C   UNL     1      28.363  36.990  25.850  1.00  0.00     0.021 C 
ATOM      4  C   UNL     1      27.991  38.480  25.656  1.00  0.00     0.009 C 
ATOM      5  C   UNL     1      28.038  39.197  27.027  1.00  0.00     0.035 C 
ATOM      6  C   UNL     1      28.351  38.168  28.150  1.00  0.00     0.066 C 
ATOM      7  O   UNL     1      29.634  37.589  27.912  1.00  0.00    -0.369 OA
ATOM      8  C   UNL     1      27.272  37.046  28.123  1.00  0.00     0.035 C 
ATOM      9  C   UNL     1      27.244  36.380  26.727  1.00  0.00     0.009 C 
ATOM     10  C   UNL     1      28.366  38.860  29.517  1.00  0.00     0.042 C 
ATOM     11  C   UNL     1      30.867  37.557  25.838  1.00  0.00     0.042 C 
ENDROOT
TORSDOF 0
ENDMDL
