MODEL 1
REMARK VINA RESULT:    -3.568      0.000      0.000
REMARK INTER + INTRA:          -9.941
REMARK INTER:                  -6.906
REMARK INTRA:                  -3.035
REMARK UNBOUND:                -3.035
REMARK SMILES CCCCCCCCCCCCCCCCCC(=O)[O-]
REMARK SMILES IDX 10 1 11 2 12 3 13 4 14 5 15 6 16 7 17 8 18 9 19 10 20 11
REMARK SMILES IDX 9 12 8 13 7 14 6 15 5 16 4 17 3 18 2 19 1 20
REMARK H PARENT
REMARK Flexibility Score: inf
ROOT
ATOM      1  C   UNL     1     187.485 185.726 167.378  1.00  0.00     0.000 C 
ENDROOT
BRANCH   1   2
ATOM      2  C   UNL     1     188.825 185.106 167.807  1.00  0.00     0.000 C 
BRANCH   2   3
ATOM      3  C   UNL     1     188.933 184.930 169.330  1.00  0.00     0.000 C 
BRANCH   3   4
ATOM      4  C   UNL     1     190.306 184.394 169.769  1.00  0.00     0.000 C 
BRANCH   4   5
ATOM      5  C   UNL     1     190.475 184.387 171.296  1.00  0.00     0.000 C 
BRANCH   5   6
ATOM      6  C   UNL     1     189.503 185.351 172.000  1.00  0.00     0.000 C 
BRANCH   6   7
ATOM      7  C   UNL     1     190.231 186.430 172.817  1.00  0.00     0.006 C 
BRANCH   7   8
ATOM      8  C   UNL     1     190.434 186.024 174.283  1.00  0.00     0.053 C 
BRANCH   8   9
ATOM      9  C   UNL     1     191.547 186.814 174.894  1.00  0.00     0.041 C 
ATOM     10  O   UNL     1     192.687 186.821 174.356  1.00  0.00    -0.550 OA
ATOM     11  O   UNL     1     191.344 187.498 176.084  1.00  0.00    -0.550 OA
ENDBRANCH   8   9
ENDBRANCH   7   8
ENDBRANCH   6   7
ENDBRANCH   5   6
ENDBRANCH   4   5
ENDBRANCH   3   4
ENDBRANCH   2   3
ENDBRANCH   1   2
BRANCH   1  12
ATOM     12  C   UNL     1     186.389 185.579 168.450  1.00  0.00     0.000 C 
BRANCH  12  13
ATOM     13  C   UNL     1     185.335 186.705 168.466  1.00  0.00    -0.000 C 
BRANCH  13  14
ATOM     14  C   UNL     1     185.613 187.849 169.461  1.00  0.00    -0.000 C 
BRANCH  14  15
ATOM     15  C   UNL     1     186.588 187.502 170.600  1.00  0.00    -0.000 C 
BRANCH  15  16
ATOM     16  C   UNL     1     187.864 188.360 170.574  1.00  0.00    -0.000 C 
BRANCH  16  17
ATOM     17  C   UNL     1     188.066 189.075 169.228  1.00  0.00    -0.000 C 
BRANCH  17  18
ATOM     18  C   UNL     1     189.392 188.693 168.547  1.00  0.00    -0.000 C 
BRANCH  18  19
ATOM     19  C   UNL     1     190.486 188.319 169.560  1.00  0.00    -0.003 C 
ATOM     20  C   UNL     1     191.730 187.734 168.893  1.00  0.00     0.004 C 
ENDBRANCH  18  19
ENDBRANCH  17  18
ENDBRANCH  16  17
ENDBRANCH  15  16
ENDBRANCH  14  15
ENDBRANCH  13  14
ENDBRANCH  12  13
ENDBRANCH   1  12
TORSDOF 16
ENDMDL
MODEL 2
REMARK VINA RESULT:    -3.559      1.827      2.307
REMARK INTER + INTRA:          -9.923
REMARK INTER:                  -6.855
REMARK INTRA:                  -3.068
REMARK UNBOUND:                -3.035
REMARK SMILES CCCCCCCCCCCCCCCCCC(=O)[O-]
REMARK SMILES IDX 10 1 11 2 12 3 13 4 14 5 15 6 16 7 17 8 18 9 19 10 20 11
REMARK SMILES IDX 9 12 8 13 7 14 6 15 5 16 4 17 3 18 2 19 1 20
REMARK H PARENT
REMARK Flexibility Score: inf
ROOT
ATOM      1  C   UNL     1     186.047 185.303 168.417  1.00  0.00     0.000 C 
ENDROOT
BRANCH   1   2
ATOM      2  C   UNL     1     187.251 184.830 167.585  1.00  0.00     0.000 C 
BRANCH   2   3
ATOM      3  C   UNL     1     188.419 185.829 167.619  1.00  0.00     0.000 C 
BRANCH   3   4
ATOM      4  C   UNL     1     189.690 185.232 168.248  1.00  0.00     0.000 C 
BRANCH   4   5
ATOM      5  C   UNL     1     189.468 184.770 169.697  1.00  0.00     0.000 C 
BRANCH   5   6
ATOM      6  C   UNL     1     190.695 184.044 170.277  1.00  0.00     0.000 C 
BRANCH   6   7
ATOM      7  C   UNL     1     190.874 184.299 171.782  1.00  0.00     0.006 C 
BRANCH   7   8
ATOM      8  C   UNL     1     189.884 185.338 172.325  1.00  0.00     0.053 C 
BRANCH   8   9
ATOM      9  C   UNL     1     189.048 184.741 173.413  1.00  0.00     0.041 C 
ATOM     10  O   UNL     1     189.282 183.574 173.823  1.00  0.00    -0.550 OA
ATOM     11  O   UNL     1     187.977 185.453 173.937  1.00  0.00    -0.550 OA
ENDBRANCH   8   9
ENDBRANCH   7   8
ENDBRANCH   6   7
ENDBRANCH   5   6
ENDBRANCH   4   5
ENDBRANCH   3   4
ENDBRANCH   2   3
ENDBRANCH   1   2
BRANCH   1  12
ATOM     12  C   UNL     1     185.631 186.751 168.096  1.00  0.00     0.000 C 
BRANCH  12  13
ATOM     13  C   UNL     1     185.535 187.689 169.317  1.00  0.00    -0.000 C 
BRANCH  13  14
ATOM     14  C   UNL     1     186.242 187.183 170.590  1.00  0.00    -0.000 C 
BRANCH  14  15
ATOM     15  C   UNL     1     187.627 187.799 170.857  1.00  0.00    -0.000 C 
BRANCH  15  16
ATOM     16  C   UNL     1     187.936 188.992 169.937  1.00  0.00    -0.000 C 
BRANCH  16  17
ATOM     17  C   UNL     1     189.312 188.875 169.262  1.00  0.00    -0.000 C 
BRANCH  17  18
ATOM     18  C   UNL     1     190.394 188.334 170.213  1.00  0.00    -0.000 C 
BRANCH  18  19
ATOM     19  C   UNL     1     191.797 188.367 169.586  1.00  0.00    -0.003 C 
ATOM     20  C   UNL     1     192.606 187.106 169.886  1.00  0.00     0.004 C 
ENDBRANCH  18  19
ENDBRANCH  17  18
ENDBRANCH  16  17
ENDBRANCH  15  16
ENDBRANCH  14  15
ENDBRANCH  13  14
ENDBRANCH  12  13
ENDBRANCH   1  12
TORSDOF 16
ENDMDL
MODEL 3
REMARK VINA RESULT:    -3.503      4.615      7.153
REMARK INTER + INTRA:          -9.815
REMARK INTER:                  -7.696
REMARK INTRA:                  -2.120
REMARK UNBOUND:                -3.035
REMARK SMILES CCCCCCCCCCCCCCCCCC(=O)[O-]
REMARK SMILES IDX 10 1 11 2 12 3 13 4 14 5 15 6 16 7 17 8 18 9 19 10 20 11
REMARK SMILES IDX 9 12 8 13 7 14 6 15 5 16 4 17 3 18 2 19 1 20
REMARK H PARENT
REMARK Flexibility Score: inf
ROOT
ATOM      1  C   UNL     1     187.035 185.357 167.544  1.00  0.00     0.000 C 
ENDROOT
BRANCH   1   2
ATOM      2  C   UNL     1     185.999 185.696 168.628  1.00  0.00     0.000 C 
BRANCH   2   3
ATOM      3  C   UNL     1     185.344 187.069 168.409  1.00  0.00     0.000 C 
BRANCH   3   4
ATOM      4  C   UNL     1     184.499 187.521 169.612  1.00  0.00     0.000 C 
BRANCH   4   5
ATOM      5  C   UNL     1     183.130 188.080 169.193  1.00  0.00     0.000 C 
BRANCH   5   6
ATOM      6  C   UNL     1     182.124 188.109 170.357  1.00  0.00     0.000 C 
BRANCH   6   7
ATOM      7  C   UNL     1     181.287 189.397 170.382  1.00  0.00     0.006 C 
BRANCH   7   8
ATOM      8  C   UNL     1     181.522 190.277 169.146  1.00  0.00     0.053 C 
BRANCH   8   9
ATOM      9  C   UNL     1     181.587 191.719 169.539  1.00  0.00     0.041 C 
ATOM     10  O   UNL     1     181.299 192.616 168.702  1.00  0.00    -0.550 OA
ATOM     11  O   UNL     1     182.018 192.076 170.809  1.00  0.00    -0.550 OA
ENDBRANCH   8   9
ENDBRANCH   7   8
ENDBRANCH   6   7
ENDBRANCH   5   6
ENDBRANCH   4   5
ENDBRANCH   3   4
ENDBRANCH   2   3
ENDBRANCH   1   2
BRANCH   1  12
ATOM     12  C   UNL     1     188.450 185.149 168.114  1.00  0.00     0.000 C 
BRANCH  12  13
ATOM     13  C   UNL     1     189.534 186.075 167.525  1.00  0.00    -0.000 C 
BRANCH  13  14
ATOM     14  C   UNL     1     189.969 187.238 168.439  1.00  0.00    -0.000 C 
BRANCH  14  15
ATOM     15  C   UNL     1     188.966 188.401 168.539  1.00  0.00    -0.000 C 
BRANCH  15  16
ATOM     16  C   UNL     1     188.244 188.449 169.896  1.00  0.00    -0.000 C 
BRANCH  16  17
ATOM     17  C   UNL     1     188.983 187.656 170.985  1.00  0.00    -0.000 C 
BRANCH  17  18
ATOM     18  C   UNL     1     188.124 186.526 171.582  1.00  0.00    -0.000 C 
BRANCH  18  19
ATOM     19  C   UNL     1     188.960 185.507 172.371  1.00  0.00    -0.003 C 
ATOM     20  C   UNL     1     189.941 184.739 171.487  1.00  0.00     0.004 C 
ENDBRANCH  18  19
ENDBRANCH  17  18
ENDBRANCH  16  17
ENDBRANCH  15  16
ENDBRANCH  14  15
ENDBRANCH  13  14
ENDBRANCH  12  13
ENDBRANCH   1  12
TORSDOF 16
ENDMDL
MODEL 4
REMARK VINA RESULT:    -3.440      1.907      2.826
REMARK INTER + INTRA:          -9.693
REMARK INTER:                  -6.699
REMARK INTRA:                  -2.994
REMARK UNBOUND:                -3.035
REMARK SMILES CCCCCCCCCCCCCCCCCC(=O)[O-]
REMARK SMILES IDX 10 1 11 2 12 3 13 4 14 5 15 6 16 7 17 8 18 9 19 10 20 11
REMARK SMILES IDX 9 12 8 13 7 14 6 15 5 16 4 17 3 18 2 19 1 20
REMARK H PARENT
REMARK Flexibility Score: inf
ROOT
ATOM      1  C   UNL     1     185.521 186.682 168.505  1.00  0.00     0.000 C 
ENDROOT
BRANCH   1   2
ATOM      2  C   UNL     1     186.465 185.491 168.738  1.00  0.00     0.000 C 
BRANCH   2   3
ATOM      3  C   UNL     1     187.536 185.365 167.642  1.00  0.00     0.000 C 
BRANCH   3   4
ATOM      4  C   UNL     1     188.956 185.225 168.216  1.00  0.00     0.000 C 
BRANCH   4   5
ATOM      5  C   UNL     1     188.956 184.960 169.730  1.00  0.00     0.000 C 
BRANCH   5   6
ATOM      6  C   UNL     1     190.225 185.489 170.420  1.00  0.00     0.000 C 
BRANCH   6   7
ATOM      7  C   UNL     1     189.912 186.313 171.679  1.00  0.00     0.006 C 
BRANCH   7   8
ATOM      8  C   UNL     1     188.807 185.682 172.537  1.00  0.00     0.053 C 
BRANCH   8   9
ATOM      9  C   UNL     1     189.402 184.764 173.558  1.00  0.00     0.041 C 
ATOM     10  O   UNL     1     190.477 185.074 174.138  1.00  0.00    -0.550 OA
ATOM     11  O   UNL     1     188.800 183.543 173.832  1.00  0.00    -0.550 OA
ENDBRANCH   8   9
ENDBRANCH   7   8
ENDBRANCH   6   7
ENDBRANCH   5   6
ENDBRANCH   4   5
ENDBRANCH   3   4
ENDBRANCH   2   3
ENDBRANCH   1   2
BRANCH   1  12
ATOM     12  C   UNL     1     185.401 187.598 169.738  1.00  0.00     0.000 C 
BRANCH  12  13
ATOM     13  C   UNL     1     186.716 187.835 170.507  1.00  0.00    -0.000 C 
BRANCH  13  14
ATOM     14  C   UNL     1     187.508 189.088 170.083  1.00  0.00    -0.000 C 
BRANCH  14  15
ATOM     15  C   UNL     1     188.347 188.928 168.802  1.00  0.00    -0.000 C 
BRANCH  15  16
ATOM     16  C   UNL     1     189.850 188.777 169.089  1.00  0.00    -0.000 C 
BRANCH  16  17
ATOM     17  C   UNL     1     190.675 188.553 167.811  1.00  0.00    -0.000 C 
BRANCH  17  18
ATOM     18  C   UNL     1     189.797 188.437 166.552  1.00  0.00    -0.000 C 
BRANCH  18  19
ATOM     19  C   UNL     1     190.534 187.766 165.382  1.00  0.00    -0.003 C 
ATOM     20  C   UNL     1     191.396 186.586 165.829  1.00  0.00     0.004 C 
ENDBRANCH  18  19
ENDBRANCH  17  18
ENDBRANCH  16  17
ENDBRANCH  15  16
ENDBRANCH  14  15
ENDBRANCH  13  14
ENDBRANCH  12  13
ENDBRANCH   1  12
TORSDOF 16
ENDMDL
MODEL 5
REMARK VINA RESULT:    -3.438      3.212      6.095
REMARK INTER + INTRA:          -9.690
REMARK INTER:                  -6.877
REMARK INTRA:                  -2.813
REMARK UNBOUND:                -3.035
REMARK SMILES CCCCCCCCCCCCCCCCCC(=O)[O-]
REMARK SMILES IDX 10 1 11 2 12 3 13 4 14 5 15 6 16 7 17 8 18 9 19 10 20 11
REMARK SMILES IDX 9 12 8 13 7 14 6 15 5 16 4 17 3 18 2 19 1 20
REMARK H PARENT
REMARK Flexibility Score: inf
ROOT
ATOM      1  C   UNL     1     189.501 187.867 170.084  1.00  0.00     0.000 C 
ENDROOT
BRANCH   1   2
ATOM      2  C   UNL     1     188.393 188.506 169.229  1.00  0.00     0.000 C 
BRANCH   2   3
ATOM      3  C   UNL     1     187.149 188.872 170.055  1.00  0.00     0.000 C 
BRANCH   3   4
ATOM      4  C   UNL     1     186.046 187.803 169.968  1.00  0.00     0.000 C 
BRANCH   4   5
ATOM      5  C   UNL     1     185.982 187.134 168.586  1.00  0.00     0.000 C 
BRANCH   5   6
ATOM      6  C   UNL     1     186.039 185.598 168.672  1.00  0.00     0.000 C 
BRANCH   6   7
ATOM      7  C   UNL     1     186.990 184.984 167.633  1.00  0.00     0.006 C 
BRANCH   7   8
ATOM      8  C   UNL     1     187.423 185.994 166.561  1.00  0.00     0.053 C 
BRANCH   8   9
ATOM      9  C   UNL     1     188.881 185.840 166.260  1.00  0.00     0.041 C 
ATOM     10  O   UNL     1     189.365 184.697 166.047  1.00  0.00    -0.550 OA
ATOM     11  O   UNL     1     189.714 186.950 166.268  1.00  0.00    -0.550 OA
ENDBRANCH   8   9
ENDBRANCH   7   8
ENDBRANCH   6   7
ENDBRANCH   5   6
ENDBRANCH   4   5
ENDBRANCH   3   4
ENDBRANCH   2   3
ENDBRANCH   1   2
BRANCH   1  12
ATOM     12  C   UNL     1     189.664 186.359 169.820  1.00  0.00     0.000 C 
BRANCH  12  13
ATOM     13  C   UNL     1     188.989 185.438 170.857  1.00  0.00    -0.000 C 
BRANCH  13  14
ATOM     14  C   UNL     1     188.521 186.136 172.149  1.00  0.00    -0.000 C 
BRANCH  14  15
ATOM     15  C   UNL     1     188.536 185.255 173.411  1.00  0.00    -0.000 C 
BRANCH  15  16
ATOM     16  C   UNL     1     189.740 184.298 173.455  1.00  0.00    -0.000 C 
BRANCH  16  17
ATOM     17  C   UNL     1     191.076 185.040 173.618  1.00  0.00    -0.000 C 
BRANCH  17  18
ATOM     18  C   UNL     1     191.043 186.078 174.755  1.00  0.00    -0.000 C 
BRANCH  18  19
ATOM     19  C   UNL     1     191.692 187.412 174.351  1.00  0.00    -0.003 C 
ATOM     20  C   UNL     1     191.968 187.502 172.851  1.00  0.00     0.004 C 
ENDBRANCH  18  19
ENDBRANCH  17  18
ENDBRANCH  16  17
ENDBRANCH  15  16
ENDBRANCH  14  15
ENDBRANCH  13  14
ENDBRANCH  12  13
ENDBRANCH   1  12
TORSDOF 16
ENDMDL
MODEL 6
REMARK VINA RESULT:    -3.428     10.554     13.072
REMARK INTER + INTRA:          -9.670
REMARK INTER:                  -6.943
REMARK INTRA:                  -2.727
REMARK UNBOUND:                -3.035
REMARK SMILES CCCCCCCCCCCCCCCCCC(=O)[O-]
REMARK SMILES IDX 10 1 11 2 12 3 13 4 14 5 15 6 16 7 17 8 18 9 19 10 20 11
REMARK SMILES IDX 9 12 8 13 7 14 6 15 5 16 4 17 3 18 2 19 1 20
REMARK H PARENT
REMARK Flexibility Score: inf
ROOT
ATOM      1  C   UNL     1     182.355 194.744 174.621  1.00  0.00     0.000 C 
ENDROOT
BRANCH   1   2
ATOM      2  C   UNL     1     182.469 196.253 174.348  1.00  0.00     0.000 C 
BRANCH   2   3
ATOM      3  C   UNL     1     181.911 197.104 175.501  1.00  0.00     0.000 C 
BRANCH   3   4
ATOM      4  C   UNL     1     180.460 197.553 175.258  1.00  0.00     0.000 C 
BRANCH   4   5
ATOM      5  C   UNL     1     179.556 197.307 176.476  1.00  0.00     0.000 C 
BRANCH   5   6
ATOM      6  C   UNL     1     178.955 195.891 176.488  1.00  0.00     0.000 C 
BRANCH   6   7
ATOM      7  C   UNL     1     179.128 195.188 177.843  1.00  0.00     0.006 C 
BRANCH   7   8
ATOM      8  C   UNL     1     180.409 195.618 178.571  1.00  0.00     0.053 C 
BRANCH   8   9
ATOM      9  C   UNL     1     181.429 194.525 178.519  1.00  0.00     0.041 C 
ATOM     10  O   UNL     1     182.376 194.503 179.349  1.00  0.00    -0.550 OA
ATOM     11  O   UNL     1     181.366 193.560 177.522  1.00  0.00    -0.550 OA
ENDBRANCH   8   9
ENDBRANCH   7   8
ENDBRANCH   6   7
ENDBRANCH   5   6
ENDBRANCH   4   5
ENDBRANCH   3   4
ENDBRANCH   2   3
ENDBRANCH   1   2
BRANCH   1  12
ATOM     12  C   UNL     1     181.601 193.991 173.508  1.00  0.00     0.000 C 
BRANCH  12  13
ATOM     13  C   UNL     1     180.125 193.673 173.819  1.00  0.00    -0.000 C 
BRANCH  13  14
ATOM     14  C   UNL     1     179.095 194.540 173.068  1.00  0.00    -0.000 C 
BRANCH  14  15
ATOM     15  C   UNL     1     179.667 195.378 171.910  1.00  0.00    -0.000 C 
BRANCH  15  16
ATOM     16  C   UNL     1     178.980 195.083 170.566  1.00  0.00    -0.000 C 
BRANCH  16  17
ATOM     17  C   UNL     1     179.159 193.623 170.121  1.00  0.00    -0.000 C 
BRANCH  17  18
ATOM     18  C   UNL     1     180.625 193.275 169.804  1.00  0.00    -0.000 C 
BRANCH  18  19
ATOM     19  C   UNL     1     181.082 191.978 170.490  1.00  0.00    -0.003 C 
ATOM     20  C   UNL     1     179.921 191.192 171.097  1.00  0.00     0.004 C 
ENDBRANCH  18  19
ENDBRANCH  17  18
ENDBRANCH  16  17
ENDBRANCH  15  16
ENDBRANCH  14  15
ENDBRANCH  13  14
ENDBRANCH  12  13
ENDBRANCH   1  12
TORSDOF 16
ENDMDL
MODEL 7
REMARK VINA RESULT:    -3.419     10.761     13.557
REMARK INTER + INTRA:          -9.652
REMARK INTER:                  -7.289
REMARK INTRA:                  -2.363
REMARK UNBOUND:                -3.035
REMARK SMILES CCCCCCCCCCCCCCCCCC(=O)[O-]
REMARK SMILES IDX 10 1 11 2 12 3 13 4 14 5 15 6 16 7 17 8 18 9 19 10 20 11
REMARK SMILES IDX 9 12 8 13 7 14 6 15 5 16 4 17 3 18 2 19 1 20
REMARK H PARENT
REMARK Flexibility Score: inf
ROOT
ATOM      1  C   UNL     1     182.404 193.998 174.337  1.00  0.00     0.000 C 
ENDROOT
BRANCH   1   2
ATOM      2  C   UNL     1     181.003 193.619 174.846  1.00  0.00     0.000 C 
BRANCH   2   3
ATOM      3  C   UNL     1     179.983 193.468 173.706  1.00  0.00     0.000 C 
BRANCH   3   4
ATOM      4  C   UNL     1     180.630 193.578 172.315  1.00  0.00     0.000 C 
BRANCH   4   5
ATOM      5  C   UNL     1     180.095 194.774 171.510  1.00  0.00     0.000 C 
BRANCH   5   6
ATOM      6  C   UNL     1     179.196 194.341 170.339  1.00  0.00     0.000 C 
BRANCH   6   7
ATOM      7  C   UNL     1     179.174 192.816 170.145  1.00  0.00     0.006 C 
BRANCH   7   8
ATOM      8  C   UNL     1     179.177 192.411 168.664  1.00  0.00     0.053 C 
BRANCH   8   9
ATOM      9  C   UNL     1     180.578 192.200 168.185  1.00  0.00     0.041 C 
ATOM     10  O   UNL     1     180.812 192.058 166.956  1.00  0.00    -0.550 OA
ATOM     11  O   UNL     1     181.620 192.105 169.099  1.00  0.00    -0.550 OA
ENDBRANCH   8   9
ENDBRANCH   7   8
ENDBRANCH   6   7
ENDBRANCH   5   6
ENDBRANCH   4   5
ENDBRANCH   3   4
ENDBRANCH   2   3
ENDBRANCH   1   2
BRANCH   1  12
ATOM     12  C   UNL     1     182.822 195.423 174.744  1.00  0.00     0.000 C 
BRANCH  12  13
ATOM     13  C   UNL     1     181.672 196.448 174.810  1.00  0.00    -0.000 C 
BRANCH  13  14
ATOM     14  C   UNL     1     181.826 197.538 175.889  1.00  0.00    -0.000 C 
BRANCH  14  15
ATOM     15  C   UNL     1     180.658 197.641 176.886  1.00  0.00    -0.000 C 
BRANCH  15  16
ATOM     16  C   UNL     1     179.431 196.821 176.452  1.00  0.00    -0.000 C 
BRANCH  16  17
ATOM     17  C   UNL     1     179.218 195.573 177.323  1.00  0.00    -0.000 C 
BRANCH  17  18
ATOM     18  C   UNL     1     180.223 195.483 178.485  1.00  0.00    -0.000 C 
BRANCH  18  19
ATOM     19  C   UNL     1     181.061 194.195 178.439  1.00  0.00    -0.003 C 
ATOM     20  C   UNL     1     182.553 194.469 178.257  1.00  0.00     0.004 C 
ENDBRANCH  18  19
ENDBRANCH  17  18
ENDBRANCH  16  17
ENDBRANCH  15  16
ENDBRANCH  14  15
ENDBRANCH  13  14
ENDBRANCH  12  13
ENDBRANCH   1  12
TORSDOF 16
ENDMDL
MODEL 8
REMARK VINA RESULT:    -3.408     12.323     14.198
REMARK INTER + INTRA:          -9.631
REMARK INTER:                  -6.495
REMARK INTRA:                  -3.136
REMARK UNBOUND:                -3.035
REMARK SMILES CCCCCCCCCCCCCCCCCC(=O)[O-]
REMARK SMILES IDX 10 1 11 2 12 3 13 4 14 5 15 6 16 7 17 8 18 9 19 10 20 11
REMARK SMILES IDX 9 12 8 13 7 14 6 15 5 16 4 17 3 18 2 19 1 20
REMARK H PARENT
REMARK Flexibility Score: inf
ROOT
ATOM      1  C   UNL     1     183.598 195.652 178.220  1.00  0.00     0.000 C 
ENDROOT
BRANCH   1   2
ATOM      2  C   UNL     1     183.571 196.610 179.422  1.00  0.00     0.000 C 
BRANCH   2   3
ATOM      3  C   UNL     1     182.257 197.402 179.515  1.00  0.00     0.000 C 
BRANCH   3   4
ATOM      4  C   UNL     1     181.627 197.339 180.917  1.00  0.00     0.000 C 
BRANCH   4   5
ATOM      5  C   UNL     1     181.143 195.927 181.282  1.00  0.00     0.000 C 
BRANCH   5   6
ATOM      6  C   UNL     1     181.912 195.330 182.474  1.00  0.00     0.000 C 
BRANCH   6   7
ATOM      7  C   UNL     1     182.641 194.027 182.113  1.00  0.00     0.006 C 
BRANCH   7   8
ATOM      8  C   UNL     1     184.133 194.068 182.467  1.00  0.00     0.053 C 
BRANCH   8   9
ATOM      9  C   UNL     1     184.903 193.129 181.593  1.00  0.00     0.041 C 
ATOM     10  O   UNL     1     185.518 193.565 180.584  1.00  0.00    -0.550 OA
ATOM     11  O   UNL     1     184.896 191.767 181.860  1.00  0.00    -0.550 OA
ENDBRANCH   8   9
ENDBRANCH   7   8
ENDBRANCH   6   7
ENDBRANCH   5   6
ENDBRANCH   4   5
ENDBRANCH   3   4
ENDBRANCH   2   3
ENDBRANCH   1   2
BRANCH   1  12
ATOM     12  C   UNL     1     182.793 194.362 178.466  1.00  0.00     0.000 C 
BRANCH  12  13
ATOM     13  C   UNL     1     181.573 194.166 177.543  1.00  0.00    -0.000 C 
BRANCH  13  14
ATOM     14  C   UNL     1     180.202 194.379 178.215  1.00  0.00    -0.000 C 
BRANCH  14  15
ATOM     15  C   UNL     1     179.387 195.567 177.674  1.00  0.00    -0.000 C 
BRANCH  15  16
ATOM     16  C   UNL     1     179.841 196.013 176.273  1.00  0.00    -0.000 C 
BRANCH  16  17
ATOM     17  C   UNL     1     180.354 197.461 176.253  1.00  0.00    -0.000 C 
BRANCH  17  18
ATOM     18  C   UNL     1     181.809 197.568 175.760  1.00  0.00    -0.000 C 
BRANCH  18  19
ATOM     19  C   UNL     1     182.060 196.739 174.491  1.00  0.00    -0.003 C 
ATOM     20  C   UNL     1     183.307 195.861 174.599  1.00  0.00     0.004 C 
ENDBRANCH  18  19
ENDBRANCH  17  18
ENDBRANCH  16  17
ENDBRANCH  15  16
ENDBRANCH  14  15
ENDBRANCH  13  14
ENDBRANCH  12  13
ENDBRANCH   1  12
TORSDOF 16
ENDMDL
MODEL 9
REMARK VINA RESULT:    -3.403      1.603      2.864
REMARK INTER + INTRA:          -9.621
REMARK INTER:                  -7.031
REMARK INTRA:                  -2.591
REMARK UNBOUND:                -3.035
REMARK SMILES CCCCCCCCCCCCCCCCCC(=O)[O-]
REMARK SMILES IDX 10 1 11 2 12 3 13 4 14 5 15 6 16 7 17 8 18 9 19 10 20 11
REMARK SMILES IDX 9 12 8 13 7 14 6 15 5 16 4 17 3 18 2 19 1 20
REMARK H PARENT
REMARK Flexibility Score: inf
ROOT
ATOM      1  C   UNL     1     186.793 188.415 169.983  1.00  0.00     0.000 C 
ENDROOT
BRANCH   1   2
ATOM      2  C   UNL     1     187.894 187.789 170.855  1.00  0.00     0.000 C 
BRANCH   2   3
ATOM      3  C   UNL     1     187.447 186.474 171.514  1.00  0.00     0.000 C 
BRANCH   3   4
ATOM      4  C   UNL     1     188.544 185.850 172.393  1.00  0.00     0.000 C 
BRANCH   4   5
ATOM      5  C   UNL     1     189.868 185.660 171.635  1.00  0.00     0.000 C 
BRANCH   5   6
ATOM      6  C   UNL     1     191.097 185.850 172.542  1.00  0.00     0.000 C 
BRANCH   6   7
ATOM      7  C   UNL     1     190.715 186.237 173.979  1.00  0.00     0.006 C 
BRANCH   7   8
ATOM      8  C   UNL     1     191.723 185.721 175.015  1.00  0.00     0.053 C 
BRANCH   8   9
ATOM      9  C   UNL     1     192.114 184.311 174.704  1.00  0.00     0.041 C 
ATOM     10  O   UNL     1     193.291 184.046 174.342  1.00  0.00    -0.550 OA
ATOM     11  O   UNL     1     191.167 183.298 174.761  1.00  0.00    -0.550 OA
ENDBRANCH   8   9
ENDBRANCH   7   8
ENDBRANCH   6   7
ENDBRANCH   5   6
ENDBRANCH   4   5
ENDBRANCH   3   4
ENDBRANCH   2   3
ENDBRANCH   1   2
BRANCH   1  12
ATOM     12  C   UNL     1     185.489 187.596 169.988  1.00  0.00     0.000 C 
BRANCH  12  13
ATOM     13  C   UNL     1     184.955 187.208 168.594  1.00  0.00    -0.000 C 
BRANCH  13  14
ATOM     14  C   UNL     1     185.966 186.482 167.684  1.00  0.00    -0.000 C 
BRANCH  14  15
ATOM     15  C   UNL     1     186.444 185.113 168.200  1.00  0.00    -0.000 C 
BRANCH  15  16
ATOM     16  C   UNL     1     187.975 185.016 168.303  1.00  0.00    -0.000 C 
BRANCH  16  17
ATOM     17  C   UNL     1     188.689 186.145 167.542  1.00  0.00    -0.000 C 
BRANCH  17  18
ATOM     18  C   UNL     1     190.159 186.309 167.968  1.00  0.00    -0.000 C 
BRANCH  18  19
ATOM     19  C   UNL     1     190.481 187.740 168.428  1.00  0.00    -0.003 C 
ATOM     20  C   UNL     1     189.695 188.797 167.653  1.00  0.00     0.004 C 
ENDBRANCH  18  19
ENDBRANCH  17  18
ENDBRANCH  16  17
ENDBRANCH  15  16
ENDBRANCH  14  15
ENDBRANCH  13  14
ENDBRANCH  12  13
ENDBRANCH   1  12
TORSDOF 16
ENDMDL
