MODEL 1
REMARK VINA RESULT:    -3.216      0.000      0.000
REMARK INTER + INTRA:          -4.112
REMARK INTER:                  -3.874
REMARK INTRA:                  -0.238
REMARK UNBOUND:                -0.238
REMARK SMILES O=c1c(O)c(-c2ccc(O)c(O)c2)oc2cc(O)cc(O)c12
REMARK SMILES IDX 5 1 3 2 2 3 1 4 22 5 20 6 19 7 17 8 16 9 15 10 14 11 6 12
REMARK SMILES IDX 7 13 8 14 9 15 13 16 11 17 10 18 12 20 4 22 21 24 18 26
REMARK H PARENT 10 19 12 21 4 23 21 25 18 27
REMARK Flexibility Score: inf
ROOT
ATOM      1  C   UNL     1      12.079 -12.966  28.631  1.00  0.00     0.180 A 
ATOM      2  C   UNL     1      10.723 -12.905  28.254  1.00  0.00     0.208 A 
ATOM      3  C   UNL     1       9.936 -11.841  28.725  1.00  0.00     0.238 A 
ATOM      4  O   UNL     1       8.724 -11.771  28.385  1.00  0.00    -0.285 OA
ATOM      5  C   UNL     1      10.508 -10.874  29.575  1.00  0.00     0.111 A 
ATOM      6  C   UNL     1       9.784  -9.775  30.095  1.00  0.00     0.134 A 
ATOM      7  C   UNL     1      10.423  -8.859  30.944  1.00  0.00     0.093 A 
ATOM      8  C   UNL     1      11.772  -9.021  31.281  1.00  0.00     0.123 A 
ATOM      9  C   UNL     1      12.491 -10.104  30.770  1.00  0.00     0.094 A 
ATOM     10  C   UNL     1      11.872 -11.026  29.922  1.00  0.00     0.146 A 
ATOM     11  O   UNL     1      12.581 -12.044  29.446  1.00  0.00    -0.452 OA
ENDROOT
BRANCH   1  12
ATOM     12  C   UNL     1      12.977 -14.045  28.160  1.00  0.00     0.025 A 
ATOM     13  C   UNL     1      13.387 -14.066  26.818  1.00  0.00     0.016 A 
ATOM     14  C   UNL     1      14.217 -15.085  26.346  1.00  0.00     0.051 A 
ATOM     15  C   UNL     1      14.638 -16.109  27.205  1.00  0.00     0.157 A 
ATOM     16  C   UNL     1      13.384 -15.086  29.014  1.00  0.00     0.062 A 
ATOM     17  C   UNL     1      14.214 -16.111  28.545  1.00  0.00     0.158 A 
BRANCH  15  18
ATOM     18  O   UNL     1      15.467 -17.124  26.732  1.00  0.00    -0.504 OA
ATOM     19  H   UNL     1      15.154 -17.779  26.025  1.00  0.00     0.293 HD
ENDBRANCH  15  18
BRANCH  17  20
ATOM     20  O   UNL     1      14.602 -17.123  29.422  1.00  0.00    -0.504 OA
ATOM     21  H   UNL     1      14.231 -18.063  29.357  1.00  0.00     0.293 HD
ENDBRANCH  17  20
ENDBRANCH   1  12
BRANCH   2  22
ATOM     22  O   UNL     1      10.167 -13.904  27.450  1.00  0.00    -0.502 OA
ATOM     23  H   UNL     1       9.270 -13.796  26.992  1.00  0.00     0.293 HD
ENDBRANCH   2  22
BRANCH   6  24
ATOM     24  O   UNL     1       8.438  -9.586  29.777  1.00  0.00    -0.507 OA
ATOM     25  H   UNL     1       8.062  -8.667  29.575  1.00  0.00     0.293 HD
ENDBRANCH   6  24
BRANCH   8  26
ATOM     26  O   UNL     1      12.407  -8.112  32.125  1.00  0.00    -0.508 OA
ATOM     27  H   UNL     1      13.399  -8.174  32.319  1.00  0.00     0.293 HD
ENDBRANCH   8  26
TORSDOF 6
ENDMDL
MODEL 2
REMARK VINA RESULT:    -2.670      1.116      2.844
REMARK INTER + INTRA:          -3.454
REMARK INTER:                  -3.223
REMARK INTRA:                  -0.231
REMARK UNBOUND:                -0.238
REMARK SMILES O=c1c(O)c(-c2ccc(O)c(O)c2)oc2cc(O)cc(O)c12
REMARK SMILES IDX 5 1 3 2 2 3 1 4 22 5 20 6 19 7 17 8 16 9 15 10 14 11 6 12
REMARK SMILES IDX 7 13 8 14 9 15 13 16 11 17 10 18 12 20 4 22 21 24 18 26
REMARK H PARENT 10 19 12 21 4 23 21 25 18 27
REMARK Flexibility Score: inf
ROOT
ATOM      1  C   UNL     1      12.685 -12.652  29.130  1.00  0.00     0.180 A 
ATOM      2  C   UNL     1      13.387 -11.795  30.001  1.00  0.00     0.208 A 
ATOM      3  C   UNL     1      12.702 -10.723  30.595  1.00  0.00     0.238 A 
ATOM      4  O   UNL     1      13.318  -9.956  31.384  1.00  0.00    -0.285 OA
ATOM      5  C   UNL     1      11.341 -10.515  30.297  1.00  0.00     0.111 A 
ATOM      6  C   UNL     1      10.579  -9.458  30.850  1.00  0.00     0.134 A 
ATOM      7  C   UNL     1       9.230  -9.311  30.497  1.00  0.00     0.093 A 
ATOM      8  C   UNL     1       8.629 -10.202  29.600  1.00  0.00     0.123 A 
ATOM      9  C   UNL     1       9.375 -11.247  29.052  1.00  0.00     0.094 A 
ATOM     10  C   UNL     1      10.720 -11.410  29.393  1.00  0.00     0.146 A 
ATOM     11  O   UNL     1      11.405 -12.416  28.861  1.00  0.00    -0.452 OA
ENDROOT
BRANCH   1  12
ATOM     12  C   UNL     1      13.333 -13.814  28.480  1.00  0.00     0.025 A 
ATOM     13  C   UNL     1      13.487 -13.827  27.085  1.00  0.00     0.016 A 
ATOM     14  C   UNL     1      14.076 -14.922  26.447  1.00  0.00     0.051 A 
ATOM     15  C   UNL     1      14.506 -16.027  27.193  1.00  0.00     0.157 A 
ATOM     16  C   UNL     1      13.746 -14.934  29.223  1.00  0.00     0.062 A 
ATOM     17  C   UNL     1      14.334 -16.034  28.588  1.00  0.00     0.158 A 
BRANCH  15  18
ATOM     18  O   UNL     1      15.094 -17.117  26.555  1.00  0.00    -0.504 OA
ATOM     19  H   UNL     1      15.897 -17.007  25.947  1.00  0.00     0.293 HD
ENDBRANCH  15  18
BRANCH  17  20
ATOM     20  O   UNL     1      14.737 -17.125  29.357  1.00  0.00    -0.504 OA
ATOM     21  H   UNL     1      15.264 -17.013  30.215  1.00  0.00     0.293 HD
ENDBRANCH  17  20
ENDBRANCH   1  12
BRANCH   2  22
ATOM     22  O   UNL     1      14.749 -11.994  30.241  1.00  0.00    -0.502 OA
ATOM     23  H   UNL     1      15.269 -11.439  30.910  1.00  0.00     0.293 HD
ENDBRANCH   2  22
BRANCH   6  24
ATOM     24  O   UNL     1      11.151  -8.553  31.747  1.00  0.00    -0.507 OA
ATOM     25  H   UNL     1      12.058  -8.721  32.168  1.00  0.00     0.293 HD
ENDBRANCH   6  24
BRANCH   8  26
ATOM     26  O   UNL     1       7.288 -10.057  29.247  1.00  0.00    -0.508 OA
ATOM     27  H   UNL     1       7.014  -9.634  28.369  1.00  0.00     0.293 HD
ENDBRANCH   8  26
TORSDOF 6
ENDMDL
MODEL 3
REMARK VINA RESULT:    -1.041     17.267     18.834
REMARK INTER + INTRA:          -1.492
REMARK INTER:                  -1.948
REMARK INTRA:                   0.456
REMARK UNBOUND:                -0.238
REMARK SMILES O=c1c(O)c(-c2ccc(O)c(O)c2)oc2cc(O)cc(O)c12
REMARK SMILES IDX 5 1 3 2 2 3 1 4 22 5 20 6 19 7 17 8 16 9 15 10 14 11 6 12
REMARK SMILES IDX 7 13 8 14 9 15 13 16 11 17 10 18 12 20 4 22 21 24 18 26
REMARK H PARENT 10 19 12 21 4 23 21 25 18 27
REMARK Flexibility Score: inf
ROOT
ATOM      1  C   UNL     1      23.769 -10.495  14.703  1.00  0.00     0.180 A 
ATOM      2  C   UNL     1      23.587 -10.341  16.091  1.00  0.00     0.208 A 
ATOM      3  C   UNL     1      23.468  -9.046  16.620  1.00  0.00     0.238 A 
ATOM      4  O   UNL     1      23.294  -8.898  17.860  1.00  0.00    -0.285 OA
ATOM      5  C   UNL     1      23.553  -7.932  15.761  1.00  0.00     0.111 A 
ATOM      6  C   UNL     1      23.448  -6.595  16.215  1.00  0.00     0.134 A 
ATOM      7  C   UNL     1      23.552  -5.539  15.298  1.00  0.00     0.093 A 
ATOM      8  C   UNL     1      23.760  -5.794  13.938  1.00  0.00     0.123 A 
ATOM      9  C   UNL     1      23.864  -7.111  13.485  1.00  0.00     0.094 A 
ATOM     10  C   UNL     1      23.761  -8.177  14.383  1.00  0.00     0.146 A 
ATOM     11  O   UNL     1      23.859  -9.420  13.925  1.00  0.00    -0.452 OA
ENDROOT
BRANCH   1  12
ATOM     12  C   UNL     1      23.883 -11.827  14.067  1.00  0.00     0.025 A 
ATOM     13  C   UNL     1      23.856 -11.930  12.667  1.00  0.00     0.016 A 
ATOM     14  C   UNL     1      23.940 -13.178  12.046  1.00  0.00     0.051 A 
ATOM     15  C   UNL     1      24.039 -14.345  12.816  1.00  0.00     0.157 A 
ATOM     16  C   UNL     1      23.960 -13.003  14.836  1.00  0.00     0.062 A 
ATOM     17  C   UNL     1      24.043 -14.255  14.218  1.00  0.00     0.158 A 
BRANCH  15  18
ATOM     18  O   UNL     1      24.125 -15.589  12.193  1.00  0.00    -0.504 OA
ATOM     19  H   UNL     1      23.296 -16.116  11.944  1.00  0.00     0.293 HD
ENDBRANCH  15  18
BRANCH  17  20
ATOM     20  O   UNL     1      24.125 -15.399  15.012  1.00  0.00    -0.504 OA
ATOM     21  H   UNL     1      23.311 -15.960  15.233  1.00  0.00     0.293 HD
ENDBRANCH  17  20
ENDBRANCH   1  12
BRANCH   2  22
ATOM     22  O   UNL     1      23.556 -11.461  16.927  1.00  0.00    -0.502 OA
ATOM     23  H   UNL     1      22.837 -12.171  16.858  1.00  0.00     0.293 HD
ENDBRANCH   2  22
BRANCH   6  24
ATOM     24  O   UNL     1      23.241  -6.309  17.565  1.00  0.00    -0.507 OA
ATOM     25  H   UNL     1      23.928  -6.544  18.272  1.00  0.00     0.293 HD
ENDBRANCH   6  24
BRANCH   8  26
ATOM     26  O   UNL     1      23.865  -4.745  13.026  1.00  0.00    -0.508 OA
ATOM     27  H   UNL     1      23.512  -4.828  12.080  1.00  0.00     0.293 HD
ENDBRANCH   8  26
TORSDOF 6
ENDMDL
MODEL 4
REMARK VINA RESULT:    -0.244     15.732     17.185
REMARK INTER + INTRA:          -0.532
REMARK INTER:                  -0.996
REMARK INTRA:                   0.464
REMARK UNBOUND:                -0.238
REMARK SMILES O=c1c(O)c(-c2ccc(O)c(O)c2)oc2cc(O)cc(O)c12
REMARK SMILES IDX 5 1 3 2 2 3 1 4 22 5 20 6 19 7 17 8 16 9 15 10 14 11 6 12
REMARK SMILES IDX 7 13 8 14 9 15 13 16 11 17 10 18 12 20 4 22 21 24 18 26
REMARK H PARENT 10 19 12 21 4 23 21 25 18 27
REMARK Flexibility Score: inf
ROOT
ATOM      1  C   UNL     1       4.490  -6.942  15.234  1.00  0.00     0.180 A 
ATOM      2  C   UNL     1       4.193  -6.954  13.857  1.00  0.00     0.208 A 
ATOM      3  C   UNL     1       4.130  -5.734  13.166  1.00  0.00     0.238 A 
ATOM      4  O   UNL     1       3.875  -5.734  11.931  1.00  0.00    -0.285 OA
ATOM      5  C   UNL     1       4.345  -4.527  13.862  1.00  0.00     0.111 A 
ATOM      6  C   UNL     1       4.296  -3.256  13.241  1.00  0.00     0.134 A 
ATOM      7  C   UNL     1       4.511  -2.099  14.004  1.00  0.00     0.093 A 
ATOM      8  C   UNL     1       4.775  -2.190  15.376  1.00  0.00     0.123 A 
ATOM      9  C   UNL     1       4.825  -3.441  15.993  1.00  0.00     0.094 A 
ATOM     10  C   UNL     1       4.614  -4.605  15.249  1.00  0.00     0.146 A 
ATOM     11  O   UNL     1       4.673  -5.784  15.860  1.00  0.00    -0.452 OA
ENDROOT
BRANCH   1  12
ATOM     12  C   UNL     1       4.593  -8.188  16.027  1.00  0.00     0.025 A 
ATOM     13  C   UNL     1       5.017  -8.123  17.363  1.00  0.00     0.016 A 
ATOM     14  C   UNL     1       5.142  -9.287  18.125  1.00  0.00     0.051 A 
ATOM     15  C   UNL     1       4.859 -10.536  17.557  1.00  0.00     0.157 A 
ATOM     16  C   UNL     1       4.331  -9.446  15.454  1.00  0.00     0.062 A 
ATOM     17  C   UNL     1       4.457 -10.615  16.213  1.00  0.00     0.158 A 
BRANCH  15  18
ATOM     18  O   UNL     1       4.983 -11.697  18.320  1.00  0.00    -0.504 OA
ATOM     19  H   UNL     1       5.483 -11.702  19.201  1.00  0.00     0.293 HD
ENDBRANCH  15  18
BRANCH  17  20
ATOM     20  O   UNL     1       4.182 -11.844  15.614  1.00  0.00    -0.504 OA
ATOM     21  H   UNL     1       4.759 -12.222  14.873  1.00  0.00     0.293 HD
ENDBRANCH  17  20
ENDBRANCH   1  12
BRANCH   2  22
ATOM     22  O   UNL     1       3.935  -8.161  13.201  1.00  0.00    -0.502 OA
ATOM     23  H   UNL     1       4.003  -8.257  12.195  1.00  0.00     0.293 HD
ENDBRANCH   2  22
BRANCH   6  24
ATOM     24  O   UNL     1       4.035  -3.133  11.875  1.00  0.00    -0.507 OA
ATOM     25  H   UNL     1       3.958  -3.943  11.272  1.00  0.00     0.293 HD
ENDBRANCH   6  24
BRANCH   8  26
ATOM     26  O   UNL     1       4.989  -1.041  16.136  1.00  0.00    -0.508 OA
ATOM     27  H   UNL     1       5.651  -1.029  16.902  1.00  0.00     0.293 HD
ENDBRANCH   8  26
TORSDOF 6
ENDMDL
