MODEL 1
REMARK VINA RESULT:    -3.795      0.000      0.000
REMARK INTER + INTRA:         -15.315
REMARK INTER:                 -10.007
REMARK INTRA:                  -5.308
REMARK UNBOUND:                -5.308
REMARK SMILES CCCCCCCCCCCCCCCCCCCCCCCCCCCCCC(=O)[O-]
REMARK SMILES IDX 16 1 17 2 18 3 19 4 20 5 21 6 22 7 23 8 24 9 25 10 26 11
REMARK SMILES IDX 27 12 28 13 29 14 30 15 31 16 32 17 15 18 14 19 13 20 12 21
REMARK SMILES IDX 11 22 10 23 9 24 8 25 7 26 6 27 5 28 4 29 3 30 2 31 1 32
REMARK H PARENT
REMARK Flexibility Score: inf
ROOT
ATOM      1  C   UNL     1      20.409   1.551  41.239  1.00  0.00     0.000 C 
ENDROOT
BRANCH   1   2
ATOM      2  C   UNL     1      20.449   2.191  42.636  1.00  0.00     0.000 C 
BRANCH   2   3
ATOM      3  C   UNL     1      19.890   1.253  43.722  1.00  0.00     0.000 C 
BRANCH   3   4
ATOM      4  C   UNL     1      18.914   1.970  44.679  1.00  0.00     0.000 C 
BRANCH   4   5
ATOM      5  C   UNL     1      17.451   1.494  44.563  1.00  0.00     0.000 C 
BRANCH   5   6
ATOM      6  C   UNL     1      16.987   1.155  43.137  1.00  0.00     0.000 C 
BRANCH   6   7
ATOM      7  C   UNL     1      16.514   2.389  42.352  1.00  0.00     0.000 C 
BRANCH   7   8
ATOM      8  C   UNL     1      16.784   2.226  40.850  1.00  0.00     0.000 C 
BRANCH   8   9
ATOM      9  C   UNL     1      16.142   3.345  40.013  1.00  0.00     0.000 C 
BRANCH   9  10
ATOM     10  C   UNL     1      15.275   2.803  38.865  1.00  0.00     0.000 C 
BRANCH  10  11
ATOM     11  C   UNL     1      15.199   1.265  38.846  1.00  0.00     0.000 C 
BRANCH  11  12
ATOM     12  C   UNL     1      14.369   0.668  37.693  1.00  0.00     0.000 C 
BRANCH  12  13
ATOM     13  C   UNL     1      15.231  -0.031  36.628  1.00  0.00     0.006 C 
BRANCH  13  14
ATOM     14  C   UNL     1      15.181   0.693  35.275  1.00  0.00     0.053 C 
BRANCH  14  15
ATOM     15  C   UNL     1      16.413   1.511  35.033  1.00  0.00     0.041 C 
ATOM     16  O   UNL     1      16.478   2.279  34.037  1.00  0.00    -0.550 OA
ATOM     17  O   UNL     1      17.495   1.414  35.898  1.00  0.00    -0.550 OA
ENDBRANCH  14  15
ENDBRANCH  13  14
ENDBRANCH  12  13
ENDBRANCH  11  12
ENDBRANCH  10  11
ENDBRANCH   9  10
ENDBRANCH   8   9
ENDBRANCH   7   8
ENDBRANCH   6   7
ENDBRANCH   5   6
ENDBRANCH   4   5
ENDBRANCH   3   4
ENDBRANCH   2   3
ENDBRANCH   1   2
BRANCH   1  18
ATOM     18  C   UNL     1      20.345   0.018  41.307  1.00  0.00     0.000 C 
BRANCH  18  19
ATOM     19  C   UNL     1      19.202  -0.530  40.438  1.00  0.00     0.000 C 
BRANCH  19  20
ATOM     20  C   UNL     1      19.480  -1.954  39.930  1.00  0.00     0.000 C 
BRANCH  20  21
ATOM     21  C   UNL     1      20.739  -2.578  40.552  1.00  0.00     0.000 C 
BRANCH  21  22
ATOM     22  C   UNL     1      20.523  -4.068  40.852  1.00  0.00     0.000 C 
BRANCH  22  23
ATOM     23  C   UNL     1      19.047  -4.496  40.750  1.00  0.00     0.000 C 
BRANCH  23  24
ATOM     24  C   UNL     1      18.499  -5.171  42.024  1.00  0.00    -0.000 C 
BRANCH  24  25
ATOM     25  C   UNL     1      17.363  -4.367  42.683  1.00  0.00    -0.000 C 
BRANCH  25  26
ATOM     26  C   UNL     1      17.813  -3.653  43.967  1.00  0.00    -0.000 C 
BRANCH  26  27
ATOM     27  C   UNL     1      18.446  -2.274  43.695  1.00  0.00    -0.000 C 
BRANCH  27  28
ATOM     28  C   UNL     1      19.904  -2.188  44.190  1.00  0.00    -0.000 C 
BRANCH  28  29
ATOM     29  C   UNL     1      20.496  -3.536  44.649  1.00  0.00    -0.000 C 
BRANCH  29  30
ATOM     30  C   UNL     1      21.982  -3.730  44.281  1.00  0.00    -0.000 C 
BRANCH  30  31
ATOM     31  C   UNL     1      22.302  -5.189  43.918  1.00  0.00    -0.003 C 
ATOM     32  C   UNL     1      21.216  -6.135  44.422  1.00  0.00     0.004 C 
ENDBRANCH  30  31
ENDBRANCH  29  30
ENDBRANCH  28  29
ENDBRANCH  27  28
ENDBRANCH  26  27
ENDBRANCH  25  26
ENDBRANCH  24  25
ENDBRANCH  23  24
ENDBRANCH  22  23
ENDBRANCH  21  22
ENDBRANCH  20  21
ENDBRANCH  19  20
ENDBRANCH  18  19
ENDBRANCH   1  18
TORSDOF 28
ENDMDL
MODEL 2
REMARK VINA RESULT:    -3.781      3.047      7.178
REMARK INTER + INTRA:         -15.279
REMARK INTER:                  -9.241
REMARK INTRA:                  -6.038
REMARK UNBOUND:                -5.308
REMARK SMILES CCCCCCCCCCCCCCCCCCCCCCCCCCCCCC(=O)[O-]
REMARK SMILES IDX 16 1 17 2 18 3 19 4 20 5 21 6 22 7 23 8 24 9 25 10 26 11
REMARK SMILES IDX 27 12 28 13 29 14 30 15 31 16 32 17 15 18 14 19 13 20 12 21
REMARK SMILES IDX 11 22 10 23 9 24 8 25 7 26 6 27 5 28 4 29 3 30 2 31 1 32
REMARK H PARENT
REMARK Flexibility Score: inf
ROOT
ATOM      1  C   UNL     1      18.113   2.509  39.333  1.00  0.00     0.000 C 
ENDROOT
BRANCH   1   2
ATOM      2  C   UNL     1      17.516   1.400  40.215  1.00  0.00     0.000 C 
BRANCH   2   3
ATOM      3  C   UNL     1      16.298   1.889  41.020  1.00  0.00     0.000 C 
BRANCH   3   4
ATOM      4  C   UNL     1      16.698   2.544  42.360  1.00  0.00     0.000 C 
BRANCH   4   5
ATOM      5  C   UNL     1      16.380   1.687  43.602  1.00  0.00     0.000 C 
BRANCH   5   6
ATOM      6  C   UNL     1      16.785   2.312  44.947  1.00  0.00     0.000 C 
BRANCH   6   7
ATOM      7  C   UNL     1      17.701   3.536  44.786  1.00  0.00     0.000 C 
BRANCH   7   8
ATOM      8  C   UNL     1      18.952   3.411  45.667  1.00  0.00     0.000 C 
BRANCH   8   9
ATOM      9  C   UNL     1      19.882   2.276  45.209  1.00  0.00     0.000 C 
BRANCH   9  10
ATOM     10  C   UNL     1      20.175   2.322  43.701  1.00  0.00     0.000 C 
BRANCH  10  11
ATOM     11  C   UNL     1      19.939   0.971  43.002  1.00  0.00     0.000 C 
BRANCH  11  12
ATOM     12  C   UNL     1      19.604  -0.201  43.945  1.00  0.00     0.000 C 
BRANCH  12  13
ATOM     13  C   UNL     1      18.686  -1.252  43.298  1.00  0.00     0.006 C 
BRANCH  13  14
ATOM     14  C   UNL     1      18.845  -2.636  43.943  1.00  0.00     0.053 C 
BRANCH  14  15
ATOM     15  C   UNL     1      18.545  -3.741  42.976  1.00  0.00     0.041 C 
ATOM     16  O   UNL     1      17.363  -4.152  42.830  1.00  0.00    -0.550 OA
ATOM     17  O   UNL     1      19.571  -4.327  42.248  1.00  0.00    -0.550 OA
ENDBRANCH  14  15
ENDBRANCH  13  14
ENDBRANCH  12  13
ENDBRANCH  11  12
ENDBRANCH  10  11
ENDBRANCH   9  10
ENDBRANCH   8   9
ENDBRANCH   7   8
ENDBRANCH   6   7
ENDBRANCH   5   6
ENDBRANCH   4   5
ENDBRANCH   3   4
ENDBRANCH   2   3
ENDBRANCH   1   2
BRANCH   1  18
ATOM     18  C   UNL     1      19.608   2.727  39.612  1.00  0.00     0.000 C 
BRANCH  18  19
ATOM     19  C   UNL     1      20.473   1.751  38.799  1.00  0.00     0.000 C 
BRANCH  19  20
ATOM     20  C   UNL     1      21.545   1.060  39.656  1.00  0.00     0.000 C 
BRANCH  20  21
ATOM     21  C   UNL     1      21.689  -0.439  39.344  1.00  0.00     0.000 C 
BRANCH  21  22
ATOM     22  C   UNL     1      20.879  -1.286  40.336  1.00  0.00     0.000 C 
BRANCH  22  23
ATOM     23  C   UNL     1      19.558  -1.809  39.744  1.00  0.00     0.000 C 
BRANCH  23  24
ATOM     24  C   UNL     1      19.602  -2.045  38.219  1.00  0.00    -0.000 C 
BRANCH  24  25
ATOM     25  C   UNL     1      18.243  -1.801  37.540  1.00  0.00    -0.000 C 
BRANCH  25  26
ATOM     26  C   UNL     1      18.334  -0.795  36.381  1.00  0.00    -0.000 C 
BRANCH  26  27
ATOM     27  C   UNL     1      17.394   0.413  36.563  1.00  0.00    -0.000 C 
BRANCH  27  28
ATOM     28  C   UNL     1      16.019   0.008  37.133  1.00  0.00    -0.000 C 
BRANCH  28  29
ATOM     29  C   UNL     1      14.883   0.999  36.807  1.00  0.00    -0.000 C 
BRANCH  29  30
ATOM     30  C   UNL     1      14.142   1.538  38.048  1.00  0.00    -0.000 C 
BRANCH  30  31
ATOM     31  C   UNL     1      14.312   3.058  38.207  1.00  0.00    -0.003 C 
ATOM     32  C   UNL     1      15.251   3.623  37.146  1.00  0.00     0.004 C 
ENDBRANCH  30  31
ENDBRANCH  29  30
ENDBRANCH  28  29
ENDBRANCH  27  28
ENDBRANCH  26  27
ENDBRANCH  25  26
ENDBRANCH  24  25
ENDBRANCH  23  24
ENDBRANCH  22  23
ENDBRANCH  21  22
ENDBRANCH  20  21
ENDBRANCH  19  20
ENDBRANCH  18  19
ENDBRANCH   1  18
TORSDOF 28
ENDMDL
MODEL 3
REMARK VINA RESULT:    -3.695      4.356      8.447
REMARK INTER + INTRA:         -15.052
REMARK INTER:                  -8.647
REMARK INTRA:                  -6.405
REMARK UNBOUND:                -5.308
REMARK SMILES CCCCCCCCCCCCCCCCCCCCCCCCCCCCCC(=O)[O-]
REMARK SMILES IDX 16 1 17 2 18 3 19 4 20 5 21 6 22 7 23 8 24 9 25 10 26 11
REMARK SMILES IDX 27 12 28 13 29 14 30 15 31 16 32 17 15 18 14 19 13 20 12 21
REMARK SMILES IDX 11 22 10 23 9 24 8 25 7 26 6 27 5 28 4 29 3 30 2 31 1 32
REMARK H PARENT
REMARK Flexibility Score: inf
ROOT
ATOM      1  C   UNL     1      15.728   2.988  38.883  1.00  0.00     0.000 C 
ENDROOT
BRANCH   1   2
ATOM      2  C   UNL     1      16.179   1.951  39.926  1.00  0.00     0.000 C 
BRANCH   2   3
ATOM      3  C   UNL     1      17.640   1.513  39.717  1.00  0.00     0.000 C 
BRANCH   3   4
ATOM      4  C   UNL     1      18.388   1.294  41.050  1.00  0.00     0.000 C 
BRANCH   4   5
ATOM      5  C   UNL     1      19.752   2.008  41.134  1.00  0.00     0.000 C 
BRANCH   5   6
ATOM      6  C   UNL     1      20.321   2.161  42.555  1.00  0.00     0.000 C 
BRANCH   6   7
ATOM      7  C   UNL     1      19.622   1.254  43.580  1.00  0.00     0.000 C 
BRANCH   7   8
ATOM      8  C   UNL     1      19.505   1.949  44.944  1.00  0.00     0.000 C 
BRANCH   8   9
ATOM      9  C   UNL     1      18.518   3.127  44.920  1.00  0.00     0.000 C 
BRANCH   9  10
ATOM     10  C   UNL     1      17.074   2.684  44.634  1.00  0.00     0.000 C 
BRANCH  10  11
ATOM     11  C   UNL     1      16.483   3.345  43.375  1.00  0.00     0.000 C 
BRANCH  11  12
ATOM     12  C   UNL     1      17.312   4.510  42.800  1.00  0.00     0.000 C 
BRANCH  12  13
ATOM     13  C   UNL     1      16.621   5.218  41.622  1.00  0.00     0.006 C 
BRANCH  13  14
ATOM     14  C   UNL     1      17.054   6.685  41.493  1.00  0.00     0.053 C 
BRANCH  14  15
ATOM     15  C   UNL     1      16.167   7.602  42.280  1.00  0.00     0.041 C 
ATOM     16  O   UNL     1      16.595   8.723  42.663  1.00  0.00    -0.550 OA
ATOM     17  O   UNL     1      14.875   7.213  42.604  1.00  0.00    -0.550 OA
ENDBRANCH  14  15
ENDBRANCH  13  14
ENDBRANCH  12  13
ENDBRANCH  11  12
ENDBRANCH  10  11
ENDBRANCH   9  10
ENDBRANCH   8   9
ENDBRANCH   7   8
ENDBRANCH   6   7
ENDBRANCH   5   6
ENDBRANCH   4   5
ENDBRANCH   3   4
ENDBRANCH   2   3
ENDBRANCH   1   2
BRANCH   1  18
ATOM     18  C   UNL     1      14.429   2.572  38.178  1.00  0.00     0.000 C 
BRANCH  18  19
ATOM     19  C   UNL     1      14.322   1.043  38.064  1.00  0.00     0.000 C 
BRANCH  19  20
ATOM     20  C   UNL     1      14.704   0.529  36.666  1.00  0.00     0.000 C 
BRANCH  20  21
ATOM     21  C   UNL     1      16.104  -0.105  36.622  1.00  0.00     0.000 C 
BRANCH  21  22
ATOM     22  C   UNL     1      16.936   0.484  35.473  1.00  0.00     0.000 C 
BRANCH  22  23
ATOM     23  C   UNL     1      16.527   1.921  35.107  1.00  0.00     0.000 C 
BRANCH  23  24
ATOM     24  C   UNL     1      17.667   2.953  35.241  1.00  0.00    -0.000 C 
BRANCH  24  25
ATOM     25  C   UNL     1      18.556   2.702  36.471  1.00  0.00    -0.000 C 
BRANCH  25  26
ATOM     26  C   UNL     1      19.705   3.716  36.588  1.00  0.00    -0.000 C 
BRANCH  26  27
ATOM     27  C   UNL     1      20.039   4.077  38.049  1.00  0.00    -0.000 C 
BRANCH  27  28
ATOM     28  C   UNL     1      18.928   4.914  38.717  1.00  0.00    -0.000 C 
BRANCH  28  29
ATOM     29  C   UNL     1      18.464   6.126  37.884  1.00  0.00    -0.000 C 
BRANCH  29  30
ATOM     30  C   UNL     1      16.933   6.225  37.715  1.00  0.00    -0.000 C 
BRANCH  30  31
ATOM     31  C   UNL     1      16.522   6.359  36.240  1.00  0.00    -0.003 C 
ATOM     32  C   UNL     1      15.228   5.602  35.956  1.00  0.00     0.004 C 
ENDBRANCH  30  31
ENDBRANCH  29  30
ENDBRANCH  28  29
ENDBRANCH  27  28
ENDBRANCH  26  27
ENDBRANCH  25  26
ENDBRANCH  24  25
ENDBRANCH  23  24
ENDBRANCH  22  23
ENDBRANCH  21  22
ENDBRANCH  20  21
ENDBRANCH  19  20
ENDBRANCH  18  19
ENDBRANCH   1  18
TORSDOF 28
ENDMDL
MODEL 4
REMARK VINA RESULT:    -3.617      3.568      6.704
REMARK INTER + INTRA:         -14.847
REMARK INTER:                  -9.577
REMARK INTRA:                  -5.270
REMARK UNBOUND:                -5.308
REMARK SMILES CCCCCCCCCCCCCCCCCCCCCCCCCCCCCC(=O)[O-]
REMARK SMILES IDX 16 1 17 2 18 3 19 4 20 5 21 6 22 7 23 8 24 9 25 10 26 11
REMARK SMILES IDX 27 12 28 13 29 14 30 15 31 16 32 17 15 18 14 19 13 20 12 21
REMARK SMILES IDX 11 22 10 23 9 24 8 25 7 26 6 27 5 28 4 29 3 30 2 31 1 32
REMARK H PARENT
REMARK Flexibility Score: inf
ROOT
ATOM      1  C   UNL     1      14.012   2.084  38.134  1.00  0.00     0.000 C 
ENDROOT
BRANCH   1   2
ATOM      2  C   UNL     1      14.830   3.194  37.453  1.00  0.00     0.000 C 
BRANCH   2   3
ATOM      3  C   UNL     1      15.988   3.689  38.338  1.00  0.00     0.000 C 
BRANCH   3   4
ATOM      4  C   UNL     1      17.369   3.475  37.681  1.00  0.00     0.000 C 
BRANCH   4   5
ATOM      5  C   UNL     1      18.502   3.157  38.678  1.00  0.00     0.000 C 
BRANCH   5   6
ATOM      6  C   UNL     1      18.936   4.335  39.567  1.00  0.00     0.000 C 
BRANCH   6   7
ATOM      7  C   UNL     1      18.630   4.106  41.056  1.00  0.00     0.000 C 
BRANCH   7   8
ATOM      8  C   UNL     1      17.332   4.813  41.469  1.00  0.00     0.000 C 
BRANCH   8   9
ATOM      9  C   UNL     1      16.287   3.838  42.035  1.00  0.00     0.000 C 
BRANCH   9  10
ATOM     10  C   UNL     1      16.614   2.370  41.718  1.00  0.00     0.000 C 
BRANCH  10  11
ATOM     11  C   UNL     1      16.677   1.484  42.976  1.00  0.00     0.000 C 
BRANCH  11  12
ATOM     12  C   UNL     1      17.019   2.229  44.281  1.00  0.00     0.000 C 
BRANCH  12  13
ATOM     13  C   UNL     1      18.520   2.535  44.424  1.00  0.00     0.006 C 
BRANCH  13  14
ATOM     14  C   UNL     1      19.039   2.242  45.839  1.00  0.00     0.053 C 
BRANCH  14  15
ATOM     15  C   UNL     1      18.193   2.893  46.891  1.00  0.00     0.041 C 
ATOM     16  O   UNL     1      17.698   2.203  47.821  1.00  0.00    -0.550 OA
ATOM     17  O   UNL     1      17.939   4.257  46.836  1.00  0.00    -0.550 OA
ENDBRANCH  14  15
ENDBRANCH  13  14
ENDBRANCH  12  13
ENDBRANCH  11  12
ENDBRANCH  10  11
ENDBRANCH   9  10
ENDBRANCH   8   9
ENDBRANCH   7   8
ENDBRANCH   6   7
ENDBRANCH   5   6
ENDBRANCH   4   5
ENDBRANCH   3   4
ENDBRANCH   2   3
ENDBRANCH   1   2
BRANCH   1  18
ATOM     18  C   UNL     1      14.700   0.715  38.035  1.00  0.00     0.000 C 
BRANCH  18  19
ATOM     19  C   UNL     1      15.323   0.504  36.646  1.00  0.00     0.000 C 
BRANCH  19  20
ATOM     20  C   UNL     1      16.679  -0.216  36.712  1.00  0.00     0.000 C 
BRANCH  20  21
ATOM     21  C   UNL     1      17.259  -0.274  38.135  1.00  0.00     0.000 C 
BRANCH  21  22
ATOM     22  C   UNL     1      18.667  -0.887  38.129  1.00  0.00     0.000 C 
BRANCH  22  23
ATOM     23  C   UNL     1      19.711   0.007  37.437  1.00  0.00     0.000 C 
BRANCH  23  24
ATOM     24  C   UNL     1      21.123  -0.083  38.052  1.00  0.00    -0.000 C 
BRANCH  24  25
ATOM     25  C   UNL     1      21.097  -0.387  39.561  1.00  0.00    -0.000 C 
BRANCH  25  26
ATOM     26  C   UNL     1      21.029   0.885  40.419  1.00  0.00    -0.000 C 
BRANCH  26  27
ATOM     27  C   UNL     1      20.061   0.752  41.612  1.00  0.00    -0.000 C 
BRANCH  27  28
ATOM     28  C   UNL     1      19.995  -0.690  42.156  1.00  0.00    -0.000 C 
BRANCH  28  29
ATOM     29  C   UNL     1      19.730  -0.781  43.673  1.00  0.00    -0.000 C 
BRANCH  29  30
ATOM     30  C   UNL     1      19.445  -2.211  44.177  1.00  0.00    -0.000 C 
BRANCH  30  31
ATOM     31  C   UNL     1      18.007  -2.657  43.865  1.00  0.00    -0.003 C 
ATOM     32  C   UNL     1      17.979  -4.071  43.294  1.00  0.00     0.004 C 
ENDBRANCH  30  31
ENDBRANCH  29  30
ENDBRANCH  28  29
ENDBRANCH  27  28
ENDBRANCH  26  27
ENDBRANCH  25  26
ENDBRANCH  24  25
ENDBRANCH  23  24
ENDBRANCH  22  23
ENDBRANCH  21  22
ENDBRANCH  20  21
ENDBRANCH  19  20
ENDBRANCH  18  19
ENDBRANCH   1  18
TORSDOF 28
ENDMDL
MODEL 5
REMARK VINA RESULT:    -3.614      3.118      6.986
REMARK INTER + INTRA:         -14.838
REMARK INTER:                  -8.939
REMARK INTRA:                  -5.898
REMARK UNBOUND:                -5.308
REMARK SMILES CCCCCCCCCCCCCCCCCCCCCCCCCCCCCC(=O)[O-]
REMARK SMILES IDX 16 1 17 2 18 3 19 4 20 5 21 6 22 7 23 8 24 9 25 10 26 11
REMARK SMILES IDX 27 12 28 13 29 14 30 15 31 16 32 17 15 18 14 19 13 20 12 21
REMARK SMILES IDX 11 22 10 23 9 24 8 25 7 26 6 27 5 28 4 29 3 30 2 31 1 32
REMARK H PARENT
REMARK Flexibility Score: inf
ROOT
ATOM      1  C   UNL     1      16.118   1.316  38.199  1.00  0.00     0.000 C 
ENDROOT
BRANCH   1   2
ATOM      2  C   UNL     1      15.732   0.291  37.119  1.00  0.00     0.000 C 
BRANCH   2   3
ATOM      3  C   UNL     1      15.301   0.966  35.804  1.00  0.00     0.000 C 
BRANCH   3   4
ATOM      4  C   UNL     1      14.620  -0.018  34.829  1.00  0.00     0.000 C 
BRANCH   4   5
ATOM      5  C   UNL     1      15.107   0.097  33.370  1.00  0.00     0.000 C 
BRANCH   5   6
ATOM      6  C   UNL     1      16.593   0.457  33.207  1.00  0.00     0.000 C 
BRANCH   6   7
ATOM      7  C   UNL     1      17.525  -0.754  33.373  1.00  0.00     0.000 C 
BRANCH   7   8
ATOM      8  C   UNL     1      18.592  -0.488  34.444  1.00  0.00     0.000 C 
BRANCH   8   9
ATOM      9  C   UNL     1      19.618   0.566  34.001  1.00  0.00     0.000 C 
BRANCH   9  10
ATOM     10  C   UNL     1      20.012   1.524  35.137  1.00  0.00     0.000 C 
BRANCH  10  11
ATOM     11  C   UNL     1      18.803   2.010  35.957  1.00  0.00     0.000 C 
BRANCH  11  12
ATOM     12  C   UNL     1      19.053   3.277  36.799  1.00  0.00     0.000 C 
BRANCH  12  13
ATOM     13  C   UNL     1      18.415   4.539  36.193  1.00  0.00     0.006 C 
BRANCH  13  14
ATOM     14  C   UNL     1      16.950   4.314  35.795  1.00  0.00     0.053 C 
BRANCH  14  15
ATOM     15  C   UNL     1      16.044   5.351  36.386  1.00  0.00     0.041 C 
ATOM     16  O   UNL     1      16.503   6.216  37.178  1.00  0.00    -0.550 OA
ATOM     17  O   UNL     1      14.691   5.355  36.073  1.00  0.00    -0.550 OA
ENDBRANCH  14  15
ENDBRANCH  13  14
ENDBRANCH  12  13
ENDBRANCH  11  12
ENDBRANCH  10  11
ENDBRANCH   9  10
ENDBRANCH   8   9
ENDBRANCH   7   8
ENDBRANCH   6   7
ENDBRANCH   5   6
ENDBRANCH   4   5
ENDBRANCH   3   4
ENDBRANCH   2   3
ENDBRANCH   1   2
BRANCH   1  18
ATOM     18  C   UNL     1      15.004   2.346  38.444  1.00  0.00     0.000 C 
BRANCH  18  19
ATOM     19  C   UNL     1      15.430   3.386  39.492  1.00  0.00     0.000 C 
BRANCH  19  20
ATOM     20  C   UNL     1      16.929   3.310  39.821  1.00  0.00     0.000 C 
BRANCH  20  21
ATOM     21  C   UNL     1      17.206   3.166  41.326  1.00  0.00     0.000 C 
BRANCH  21  22
ATOM     22  C   UNL     1      16.606   1.863  41.872  1.00  0.00     0.000 C 
BRANCH  22  23
ATOM     23  C   UNL     1      16.910   1.637  43.364  1.00  0.00     0.000 C 
BRANCH  23  24
ATOM     24  C   UNL     1      17.356   2.910  44.115  1.00  0.00    -0.000 C 
BRANCH  24  25
ATOM     25  C   UNL     1      18.792   2.808  44.659  1.00  0.00    -0.000 C 
BRANCH  25  26
ATOM     26  C   UNL     1      19.578   1.643  44.037  1.00  0.00    -0.000 C 
BRANCH  26  27
ATOM     27  C   UNL     1      20.599   2.108  42.979  1.00  0.00    -0.000 C 
BRANCH  27  28
ATOM     28  C   UNL     1      20.384   1.421  41.614  1.00  0.00    -0.000 C 
BRANCH  28  29
ATOM     29  C   UNL     1      19.980  -0.064  41.710  1.00  0.00    -0.000 C 
BRANCH  29  30
ATOM     30  C   UNL     1      19.049  -0.538  40.575  1.00  0.00    -0.000 C 
BRANCH  30  31
ATOM     31  C   UNL     1      19.393   0.124  39.231  1.00  0.00    -0.003 C 
ATOM     32  C   UNL     1      19.327  -0.882  38.086  1.00  0.00     0.004 C 
ENDBRANCH  30  31
ENDBRANCH  29  30
ENDBRANCH  28  29
ENDBRANCH  27  28
ENDBRANCH  26  27
ENDBRANCH  25  26
ENDBRANCH  24  25
ENDBRANCH  23  24
ENDBRANCH  22  23
ENDBRANCH  21  22
ENDBRANCH  20  21
ENDBRANCH  19  20
ENDBRANCH  18  19
ENDBRANCH   1  18
TORSDOF 28
ENDMDL
MODEL 6
REMARK VINA RESULT:    -3.597      3.259      6.365
REMARK INTER + INTRA:         -14.792
REMARK INTER:                  -8.629
REMARK INTRA:                  -6.162
REMARK UNBOUND:                -5.308
REMARK SMILES CCCCCCCCCCCCCCCCCCCCCCCCCCCCCC(=O)[O-]
REMARK SMILES IDX 16 1 17 2 18 3 19 4 20 5 21 6 22 7 23 8 24 9 25 10 26 11
REMARK SMILES IDX 27 12 28 13 29 14 30 15 31 16 32 17 15 18 14 19 13 20 12 21
REMARK SMILES IDX 11 22 10 23 9 24 8 25 7 26 6 27 5 28 4 29 3 30 2 31 1 32
REMARK H PARENT
REMARK Flexibility Score: inf
ROOT
ATOM      1  C   UNL     1      20.667   1.031  41.149  1.00  0.00     0.000 C 
ENDROOT
BRANCH   1   2
ATOM      2  C   UNL     1      19.640   0.099  40.486  1.00  0.00     0.000 C 
BRANCH   2   3
ATOM      3  C   UNL     1      19.121   0.662  39.150  1.00  0.00     0.000 C 
BRANCH   3   4
ATOM      4  C   UNL     1      20.036   1.766  38.578  1.00  0.00     0.000 C 
BRANCH   4   5
ATOM      5  C   UNL     1      19.280   2.997  38.036  1.00  0.00     0.000 C 
BRANCH   5   6
ATOM      6  C   UNL     1      19.278   4.221  38.967  1.00  0.00     0.000 C 
BRANCH   6   7
ATOM      7  C   UNL     1      17.862   4.726  39.288  1.00  0.00     0.000 C 
BRANCH   7   8
ATOM      8  C   UNL     1      17.419   4.274  40.687  1.00  0.00     0.000 C 
BRANCH   8   9
ATOM      9  C   UNL     1      16.068   3.540  40.666  1.00  0.00     0.000 C 
BRANCH   9  10
ATOM     10  C   UNL     1      16.224   2.016  40.544  1.00  0.00     0.000 C 
BRANCH  10  11
ATOM     11  C   UNL     1      15.507   1.437  39.310  1.00  0.00     0.000 C 
BRANCH  11  12
ATOM     12  C   UNL     1      14.881   2.484  38.368  1.00  0.00     0.000 C 
BRANCH  12  13
ATOM     13  C   UNL     1      15.668   2.664  37.059  1.00  0.00     0.006 C 
BRANCH  13  14
ATOM     14  C   UNL     1      16.402   1.381  36.643  1.00  0.00     0.053 C 
BRANCH  14  15
ATOM     15  C   UNL     1      15.659   0.632  35.580  1.00  0.00     0.041 C 
ATOM     16  O   UNL     1      15.148  -0.491  35.835  1.00  0.00    -0.550 OA
ATOM     17  O   UNL     1      15.543   1.165  34.303  1.00  0.00    -0.550 OA
ENDBRANCH  14  15
ENDBRANCH  13  14
ENDBRANCH  12  13
ENDBRANCH  11  12
ENDBRANCH  10  11
ENDBRANCH   9  10
ENDBRANCH   8   9
ENDBRANCH   7   8
ENDBRANCH   6   7
ENDBRANCH   5   6
ENDBRANCH   4   5
ENDBRANCH   3   4
ENDBRANCH   2   3
ENDBRANCH   1   2
BRANCH   1  18
ATOM     18  C   UNL     1      19.994   2.142  41.970  1.00  0.00     0.000 C 
BRANCH  18  19
ATOM     19  C   UNL     1      19.994   1.803  43.469  1.00  0.00     0.000 C 
BRANCH  19  20
ATOM     20  C   UNL     1      18.581   1.811  44.074  1.00  0.00     0.000 C 
BRANCH  20  21
ATOM     21  C   UNL     1      17.758   0.570  43.690  1.00  0.00     0.000 C 
BRANCH  21  22
ATOM     22  C   UNL     1      16.291   0.733  44.114  1.00  0.00     0.000 C 
BRANCH  22  23
ATOM     23  C   UNL     1      15.910   2.192  44.420  1.00  0.00     0.000 C 
BRANCH  23  24
ATOM     24  C   UNL     1      15.305   2.403  45.825  1.00  0.00    -0.000 C 
BRANCH  24  25
ATOM     25  C   UNL     1      16.270   2.003  46.954  1.00  0.00    -0.000 C 
BRANCH  25  26
ATOM     26  C   UNL     1      17.222   3.143  47.349  1.00  0.00    -0.000 C 
BRANCH  26  27
ATOM     27  C   UNL     1      16.493   4.482  47.571  1.00  0.00    -0.000 C 
BRANCH  27  28
ATOM     28  C   UNL     1      17.091   5.624  46.723  1.00  0.00    -0.000 C 
BRANCH  28  29
ATOM     29  C   UNL     1      17.899   5.146  45.499  1.00  0.00    -0.000 C 
BRANCH  29  30
ATOM     30  C   UNL     1      17.273   5.532  44.143  1.00  0.00    -0.000 C 
BRANCH  30  31
ATOM     31  C   UNL     1      15.890   6.183  44.309  1.00  0.00    -0.003 C 
ATOM     32  C   UNL     1      14.920   5.701  43.234  1.00  0.00     0.004 C 
ENDBRANCH  30  31
ENDBRANCH  29  30
ENDBRANCH  28  29
ENDBRANCH  27  28
ENDBRANCH  26  27
ENDBRANCH  25  26
ENDBRANCH  24  25
ENDBRANCH  23  24
ENDBRANCH  22  23
ENDBRANCH  21  22
ENDBRANCH  20  21
ENDBRANCH  19  20
ENDBRANCH  18  19
ENDBRANCH   1  18
TORSDOF 28
ENDMDL
MODEL 7
REMARK VINA RESULT:    -3.545      3.269      8.397
REMARK INTER + INTRA:         -14.656
REMARK INTER:                  -9.169
REMARK INTRA:                  -5.488
REMARK UNBOUND:                -5.308
REMARK SMILES CCCCCCCCCCCCCCCCCCCCCCCCCCCCCC(=O)[O-]
REMARK SMILES IDX 16 1 17 2 18 3 19 4 20 5 21 6 22 7 23 8 24 9 25 10 26 11
REMARK SMILES IDX 27 12 28 13 29 14 30 15 31 16 32 17 15 18 14 19 13 20 12 21
REMARK SMILES IDX 11 22 10 23 9 24 8 25 7 26 6 27 5 28 4 29 3 30 2 31 1 32
REMARK H PARENT
REMARK Flexibility Score: inf
ROOT
ATOM      1  C   UNL     1      15.766   2.840  38.982  1.00  0.00     0.000 C 
ENDROOT
BRANCH   1   2
ATOM      2  C   UNL     1      14.682   2.406  37.981  1.00  0.00     0.000 C 
BRANCH   2   3
ATOM      3  C   UNL     1      14.638   0.878  37.797  1.00  0.00     0.000 C 
BRANCH   3   4
ATOM      4  C   UNL     1      14.850   0.453  36.328  1.00  0.00     0.000 C 
BRANCH   4   5
ATOM      5  C   UNL     1      16.146  -0.346  36.081  1.00  0.00     0.000 C 
BRANCH   5   6
ATOM      6  C   UNL     1      17.196  -0.245  37.200  1.00  0.00     0.000 C 
BRANCH   6   7
ATOM      7  C   UNL     1      17.940  -1.568  37.444  1.00  0.00     0.000 C 
BRANCH   7   8
ATOM      8  C   UNL     1      18.429  -1.668  38.896  1.00  0.00     0.000 C 
BRANCH   8   9
ATOM      9  C   UNL     1      19.944  -1.909  38.989  1.00  0.00     0.000 C 
BRANCH   9  10
ATOM     10  C   UNL     1      20.561  -1.309  40.263  1.00  0.00     0.000 C 
BRANCH  10  11
ATOM     11  C   UNL     1      20.340  -2.189  41.508  1.00  0.00     0.000 C 
BRANCH  11  12
ATOM     12  C   UNL     1      19.386  -1.596  42.563  1.00  0.00     0.000 C 
BRANCH  12  13
ATOM     13  C   UNL     1      19.855  -1.847  44.007  1.00  0.00     0.006 C 
BRANCH  13  14
ATOM     14  C   UNL     1      20.778  -3.068  44.113  1.00  0.00     0.053 C 
BRANCH  14  15
ATOM     15  C   UNL     1      20.046  -4.282  44.598  1.00  0.00     0.041 C 
ATOM     16  O   UNL     1      20.308  -4.770  45.729  1.00  0.00    -0.550 OA
ATOM     17  O   UNL     1      19.087  -4.885  43.795  1.00  0.00    -0.550 OA
ENDBRANCH  14  15
ENDBRANCH  13  14
ENDBRANCH  12  13
ENDBRANCH  11  12
ENDBRANCH  10  11
ENDBRANCH   9  10
ENDBRANCH   8   9
ENDBRANCH   7   8
ENDBRANCH   6   7
ENDBRANCH   5   6
ENDBRANCH   4   5
ENDBRANCH   3   4
ENDBRANCH   2   3
ENDBRANCH   1   2
BRANCH   1  18
ATOM     18  C   UNL     1      15.877   1.873  40.170  1.00  0.00     0.000 C 
BRANCH  18  19
ATOM     19  C   UNL     1      17.337   1.471  40.427  1.00  0.00     0.000 C 
BRANCH  19  20
ATOM     20  C   UNL     1      18.337   2.456  39.799  1.00  0.00     0.000 C 
BRANCH  20  21
ATOM     21  C   UNL     1      19.492   2.823  40.746  1.00  0.00     0.000 C 
BRANCH  21  22
ATOM     22  C   UNL     1      19.668   1.757  41.836  1.00  0.00     0.000 C 
BRANCH  22  23
ATOM     23  C   UNL     1      20.483   2.257  43.043  1.00  0.00     0.000 C 
BRANCH  23  24
ATOM     24  C   UNL     1      19.761   2.101  44.397  1.00  0.00    -0.000 C 
BRANCH  24  25
ATOM     25  C   UNL     1      18.303   1.632  44.245  1.00  0.00    -0.000 C 
BRANCH  25  26
ATOM     26  C   UNL     1      17.289   2.714  44.644  1.00  0.00    -0.000 C 
BRANCH  26  27
ATOM     27  C   UNL     1      16.638   3.403  43.429  1.00  0.00    -0.000 C 
BRANCH  27  28
ATOM     28  C   UNL     1      17.262   4.782  43.131  1.00  0.00    -0.000 C 
BRANCH  28  29
ATOM     29  C   UNL     1      16.876   5.367  41.757  1.00  0.00    -0.000 C 
BRANCH  29  30
ATOM     30  C   UNL     1      17.998   6.182  41.082  1.00  0.00    -0.000 C 
BRANCH  30  31
ATOM     31  C   UNL     1      17.522   6.859  39.786  1.00  0.00    -0.003 C 
ATOM     32  C   UNL     1      17.712   5.943  38.581  1.00  0.00     0.004 C 
ENDBRANCH  30  31
ENDBRANCH  29  30
ENDBRANCH  28  29
ENDBRANCH  27  28
ENDBRANCH  26  27
ENDBRANCH  25  26
ENDBRANCH  24  25
ENDBRANCH  23  24
ENDBRANCH  22  23
ENDBRANCH  21  22
ENDBRANCH  20  21
ENDBRANCH  19  20
ENDBRANCH  18  19
ENDBRANCH   1  18
TORSDOF 28
ENDMDL
MODEL 8
REMARK VINA RESULT:    -3.521      3.402      7.807
REMARK INTER + INTRA:         -14.593
REMARK INTER:                  -8.975
REMARK INTRA:                  -5.619
REMARK UNBOUND:                -5.308
REMARK SMILES CCCCCCCCCCCCCCCCCCCCCCCCCCCCCC(=O)[O-]
REMARK SMILES IDX 16 1 17 2 18 3 19 4 20 5 21 6 22 7 23 8 24 9 25 10 26 11
REMARK SMILES IDX 27 12 28 13 29 14 30 15 31 16 32 17 15 18 14 19 13 20 12 21
REMARK SMILES IDX 11 22 10 23 9 24 8 25 7 26 6 27 5 28 4 29 3 30 2 31 1 32
REMARK H PARENT
REMARK Flexibility Score: inf
ROOT
ATOM      1  C   UNL     1      15.854   2.921  38.949  1.00  0.00     0.000 C 
ENDROOT
BRANCH   1   2
ATOM      2  C   UNL     1      14.612   2.552  38.120  1.00  0.00     0.000 C 
BRANCH   2   3
ATOM      3  C   UNL     1      14.406   1.029  38.026  1.00  0.00     0.000 C 
BRANCH   3   4
ATOM      4  C   UNL     1      14.762   0.469  36.632  1.00  0.00     0.000 C 
BRANCH   4   5
ATOM      5  C   UNL     1      16.271   0.477  36.313  1.00  0.00     0.000 C 
BRANCH   5   6
ATOM      6  C   UNL     1      17.052  -0.745  36.824  1.00  0.00     0.000 C 
BRANCH   6   7
ATOM      7  C   UNL     1      18.574  -0.533  36.807  1.00  0.00     0.000 C 
BRANCH   7   8
ATOM      8  C   UNL     1      19.262  -1.377  37.890  1.00  0.00     0.000 C 
BRANCH   8   9
ATOM      9  C   UNL     1      18.531  -2.703  38.154  1.00  0.00     0.000 C 
BRANCH   9  10
ATOM     10  C   UNL     1      18.633  -3.155  39.620  1.00  0.00     0.000 C 
BRANCH  10  11
ATOM     11  C   UNL     1      19.053  -2.018  40.569  1.00  0.00     0.000 C 
BRANCH  11  12
ATOM     12  C   UNL     1      20.145  -2.390  41.591  1.00  0.00     0.000 C 
BRANCH  12  13
ATOM     13  C   UNL     1      21.404  -2.984  40.936  1.00  0.00     0.006 C 
BRANCH  13  14
ATOM     14  C   UNL     1      21.725  -4.389  41.466  1.00  0.00     0.053 C 
BRANCH  14  15
ATOM     15  C   UNL     1      21.840  -4.411  42.960  1.00  0.00     0.041 C 
ATOM     16  O   UNL     1      22.768  -3.780  43.533  1.00  0.00    -0.550 OA
ATOM     17  O   UNL     1      20.934  -5.138  43.718  1.00  0.00    -0.550 OA
ENDBRANCH  14  15
ENDBRANCH  13  14
ENDBRANCH  12  13
ENDBRANCH  11  12
ENDBRANCH  10  11
ENDBRANCH   9  10
ENDBRANCH   8   9
ENDBRANCH   7   8
ENDBRANCH   6   7
ENDBRANCH   5   6
ENDBRANCH   4   5
ENDBRANCH   3   4
ENDBRANCH   2   3
ENDBRANCH   1   2
BRANCH   1  18
ATOM     18  C   UNL     1      16.159   1.872  40.030  1.00  0.00     0.000 C 
BRANCH  18  19
ATOM     19  C   UNL     1      17.578   1.305  39.869  1.00  0.00     0.000 C 
BRANCH  19  20
ATOM     20  C   UNL     1      18.554   2.324  39.258  1.00  0.00     0.000 C 
BRANCH  20  21
ATOM     21  C   UNL     1      19.958   2.258  39.879  1.00  0.00     0.000 C 
BRANCH  21  22
ATOM     22  C   UNL     1      19.961   1.378  41.138  1.00  0.00     0.000 C 
BRANCH  22  23
ATOM     23  C   UNL     1      20.324   2.156  42.416  1.00  0.00     0.000 C 
BRANCH  23  24
ATOM     24  C   UNL     1      19.599   1.656  43.683  1.00  0.00    -0.000 C 
BRANCH  24  25
ATOM     25  C   UNL     1      18.522   0.601  43.376  1.00  0.00    -0.000 C 
BRANCH  25  26
ATOM     26  C   UNL     1      17.096   1.158  43.504  1.00  0.00    -0.000 C 
BRANCH  26  27
ATOM     27  C   UNL     1      16.707   1.481  44.960  1.00  0.00    -0.000 C 
BRANCH  27  28
ATOM     28  C   UNL     1      15.899   2.790  45.076  1.00  0.00    -0.000 C 
BRANCH  28  29
ATOM     29  C   UNL     1      16.652   4.043  44.583  1.00  0.00    -0.000 C 
BRANCH  29  30
ATOM     30  C   UNL     1      15.818   4.954  43.658  1.00  0.00    -0.000 C 
BRANCH  30  31
ATOM     31  C   UNL     1      16.169   4.748  42.175  1.00  0.00    -0.003 C 
ATOM     32  C   UNL     1      17.679   4.696  41.967  1.00  0.00     0.004 C 
ENDBRANCH  30  31
ENDBRANCH  29  30
ENDBRANCH  28  29
ENDBRANCH  27  28
ENDBRANCH  26  27
ENDBRANCH  25  26
ENDBRANCH  24  25
ENDBRANCH  23  24
ENDBRANCH  22  23
ENDBRANCH  21  22
ENDBRANCH  20  21
ENDBRANCH  19  20
ENDBRANCH  18  19
ENDBRANCH   1  18
TORSDOF 28
ENDMDL
MODEL 9
REMARK VINA RESULT:    -3.506      2.436      5.737
REMARK INTER + INTRA:         -14.553
REMARK INTER:                  -8.204
REMARK INTRA:                  -6.349
REMARK UNBOUND:                -5.308
REMARK SMILES CCCCCCCCCCCCCCCCCCCCCCCCCCCCCC(=O)[O-]
REMARK SMILES IDX 16 1 17 2 18 3 19 4 20 5 21 6 22 7 23 8 24 9 25 10 26 11
REMARK SMILES IDX 27 12 28 13 29 14 30 15 31 16 32 17 15 18 14 19 13 20 12 21
REMARK SMILES IDX 11 22 10 23 9 24 8 25 7 26 6 27 5 28 4 29 3 30 2 31 1 32
REMARK H PARENT
REMARK Flexibility Score: inf
ROOT
ATOM      1  C   UNL     1      15.106   2.895  39.052  1.00  0.00     0.000 C 
ENDROOT
BRANCH   1   2
ATOM      2  C   UNL     1      15.406   1.415  38.762  1.00  0.00     0.000 C 
BRANCH   2   3
ATOM      3  C   UNL     1      15.576   1.140  37.257  1.00  0.00     0.000 C 
BRANCH   3   4
ATOM      4  C   UNL     1      16.819   0.277  36.949  1.00  0.00     0.000 C 
BRANCH   4   5
ATOM      5  C   UNL     1      17.454  -0.382  38.191  1.00  0.00     0.000 C 
BRANCH   5   6
ATOM      6  C   UNL     1      18.983  -0.244  38.291  1.00  0.00     0.000 C 
BRANCH   6   7
ATOM      7  C   UNL     1      19.482  -0.158  39.743  1.00  0.00     0.000 C 
BRANCH   7   8
ATOM      8  C   UNL     1      21.014  -0.229  39.805  1.00  0.00     0.000 C 
BRANCH   8   9
ATOM      9  C   UNL     1      21.659   1.155  39.981  1.00  0.00     0.000 C 
BRANCH   9  10
ATOM     10  C   UNL     1      22.665   1.486  38.867  1.00  0.00     0.000 C 
BRANCH  10  11
ATOM     11  C   UNL     1      22.056   2.349  37.747  1.00  0.00     0.000 C 
BRANCH  11  12
ATOM     12  C   UNL     1      20.733   3.050  38.109  1.00  0.00     0.000 C 
BRANCH  12  13
ATOM     13  C   UNL     1      19.754   3.138  36.926  1.00  0.00     0.006 C 
BRANCH  13  14
ATOM     14  C   UNL     1      18.359   3.608  37.362  1.00  0.00     0.053 C 
BRANCH  14  15
ATOM     15  C   UNL     1      18.133   5.056  37.047  1.00  0.00     0.041 C 
ATOM     16  O   UNL     1      17.090   5.636  37.449  1.00  0.00    -0.550 OA
ATOM     17  O   UNL     1      19.065   5.760  36.297  1.00  0.00    -0.550 OA
ENDBRANCH  14  15
ENDBRANCH  13  14
ENDBRANCH  12  13
ENDBRANCH  11  12
ENDBRANCH  10  11
ENDBRANCH   9  10
ENDBRANCH   8   9
ENDBRANCH   7   8
ENDBRANCH   6   7
ENDBRANCH   5   6
ENDBRANCH   4   5
ENDBRANCH   3   4
ENDBRANCH   2   3
ENDBRANCH   1   2
BRANCH   1  18
ATOM     18  C   UNL     1      16.033   3.472  40.132  1.00  0.00     0.000 C 
BRANCH  18  19
ATOM     19  C   UNL     1      16.971   2.393  40.694  1.00  0.00     0.000 C 
BRANCH  19  20
ATOM     20  C   UNL     1      18.362   2.946  41.044  1.00  0.00     0.000 C 
BRANCH  20  21
ATOM     21  C   UNL     1      18.656   2.919  42.553  1.00  0.00     0.000 C 
BRANCH  21  22
ATOM     22  C   UNL     1      19.923   2.104  42.851  1.00  0.00     0.000 C 
BRANCH  22  23
ATOM     23  C   UNL     1      19.655   0.875  43.737  1.00  0.00     0.000 C 
BRANCH  23  24
ATOM     24  C   UNL     1      18.378   0.095  43.361  1.00  0.00    -0.000 C 
BRANCH  24  25
ATOM     25  C   UNL     1      18.569  -1.431  43.438  1.00  0.00    -0.000 C 
BRANCH  25  26
ATOM     26  C   UNL     1      19.972  -1.874  42.994  1.00  0.00    -0.000 C 
BRANCH  26  27
ATOM     27  C   UNL     1      20.027  -3.356  42.575  1.00  0.00    -0.000 C 
BRANCH  27  28
ATOM     28  C   UNL     1      20.090  -3.532  41.043  1.00  0.00    -0.000 C 
BRANCH  28  29
ATOM     29  C   UNL     1      18.713  -3.702  40.370  1.00  0.00    -0.000 C 
BRANCH  29  30
ATOM     30  C   UNL     1      18.786  -4.077  38.875  1.00  0.00    -0.000 C 
BRANCH  30  31
ATOM     31  C   UNL     1      20.144  -3.713  38.253  1.00  0.00    -0.003 C 
ATOM     32  C   UNL     1      20.014  -3.449  36.756  1.00  0.00     0.004 C 
ENDBRANCH  30  31
ENDBRANCH  29  30
ENDBRANCH  28  29
ENDBRANCH  27  28
ENDBRANCH  26  27
ENDBRANCH  25  26
ENDBRANCH  24  25
ENDBRANCH  23  24
ENDBRANCH  22  23
ENDBRANCH  21  22
ENDBRANCH  20  21
ENDBRANCH  19  20
ENDBRANCH  18  19
ENDBRANCH   1  18
TORSDOF 28
ENDMDL
