MODEL 1
REMARK VINA RESULT:    -4.691      0.000      0.000
REMARK INTER + INTRA:         -12.064
REMARK INTER:                 -10.176
REMARK INTRA:                  -1.888
REMARK UNBOUND:                -1.888
REMARK SMILES CCCCCCCCCCCCCCCCCCCCCC(=O)[O-]
REMARK SMILES IDX 12 1 11 2 10 3 9 4 8 5 7 6 6 7 5 8 4 9 3 10 2 11 1 12 13 13
REMARK SMILES IDX 14 14 15 15 16 16 17 17 18 18 19 19 20 20 21 21 22 22 23 23
REMARK SMILES IDX 24 24
REMARK H PARENT
REMARK Flexibility Score: inf
ROOT
ATOM      1  C   UNL     1       1.378  10.351  82.991  1.00  0.00     0.000 C 
ENDROOT
BRANCH   1   2
ATOM      2  C   UNL     1       1.797  11.783  82.626  1.00  0.00     0.000 C 
BRANCH   2   3
ATOM      3  C   UNL     1       2.804  11.828  81.464  1.00  0.00     0.000 C 
BRANCH   3   4
ATOM      4  C   UNL     1       4.254  12.008  81.947  1.00  0.00    -0.000 C 
BRANCH   4   5
ATOM      5  C   UNL     1       5.162  10.844  81.525  1.00  0.00    -0.000 C 
BRANCH   5   6
ATOM      6  C   UNL     1       4.810   9.527  82.240  1.00  0.00    -0.000 C 
BRANCH   6   7
ATOM      7  C   UNL     1       5.699   8.352  81.798  1.00  0.00    -0.000 C 
BRANCH   7   8
ATOM      8  C   UNL     1       7.115   8.746  81.326  1.00  0.00    -0.000 C 
BRANCH   8   9
ATOM      9  C   UNL     1       7.615   8.000  80.077  1.00  0.00    -0.000 C 
BRANCH   9  10
ATOM     10  C   UNL     1       6.749   6.779  79.725  1.00  0.00    -0.000 C 
BRANCH  10  11
ATOM     11  C   UNL     1       7.490   5.450  79.940  1.00  0.00    -0.003 C 
ATOM     12  C   UNL     1       8.953   5.514  79.499  1.00  0.00     0.004 C 
ENDBRANCH  10  11
ENDBRANCH   9  10
ENDBRANCH   8   9
ENDBRANCH   7   8
ENDBRANCH   6   7
ENDBRANCH   5   6
ENDBRANCH   4   5
ENDBRANCH   3   4
ENDBRANCH   2   3
ENDBRANCH   1   2
BRANCH   1  13
ATOM     13  C   UNL     1       0.714  10.310  84.376  1.00  0.00     0.000 C 
BRANCH  13  14
ATOM     14  C   UNL     1       0.862  11.632  85.145  1.00  0.00     0.000 C 
BRANCH  14  15
ATOM     15  C   UNL     1       0.352  11.538  86.591  1.00  0.00     0.000 C 
BRANCH  15  16
ATOM     16  C   UNL     1       1.467  11.880  87.586  1.00  0.00     0.000 C 
BRANCH  16  17
ATOM     17  C   UNL     1       1.285  11.114  88.904  1.00  0.00     0.000 C 
BRANCH  17  18
ATOM     18  C   UNL     1       2.215   9.893  89.020  1.00  0.00     0.000 C 
BRANCH  18  19
ATOM     19  C   UNL     1       2.662   9.326  87.658  1.00  0.00     0.000 C 
BRANCH  19  20
ATOM     20  C   UNL     1       1.859   8.077  87.255  1.00  0.00     0.006 C 
BRANCH  20  21
ATOM     21  C   UNL     1       2.384   7.443  85.961  1.00  0.00     0.053 C 
BRANCH  21  22
ATOM     22  C   UNL     1       1.719   6.130  85.681  1.00  0.00     0.041 C 
ATOM     23  O   UNL     1       0.585   6.099  85.135  1.00  0.00    -0.550 OA
ATOM     24  O   UNL     1       2.360   4.942  86.003  1.00  0.00    -0.550 OA
ENDBRANCH  21  22
ENDBRANCH  20  21
ENDBRANCH  19  20
ENDBRANCH  18  19
ENDBRANCH  17  18
ENDBRANCH  16  17
ENDBRANCH  15  16
ENDBRANCH  14  15
ENDBRANCH  13  14
ENDBRANCH   1  13
TORSDOF 20
ENDMDL
MODEL 2
REMARK VINA RESULT:    -4.648      5.597     11.351
REMARK INTER + INTRA:         -11.971
REMARK INTER:                 -10.389
REMARK INTRA:                  -1.582
REMARK UNBOUND:                -1.888
REMARK SMILES CCCCCCCCCCCCCCCCCCCCCC(=O)[O-]
REMARK SMILES IDX 12 1 11 2 10 3 9 4 8 5 7 6 6 7 5 8 4 9 3 10 2 11 1 12 13 13
REMARK SMILES IDX 14 14 15 15 16 16 17 17 18 18 19 19 20 20 21 21 22 22 23 23
REMARK SMILES IDX 24 24
REMARK H PARENT
REMARK Flexibility Score: inf
ROOT
ATOM      1  C   UNL     1      11.649   3.026  79.388  1.00  0.00     0.000 C 
ENDROOT
BRANCH   1   2
ATOM      2  C   UNL     1      13.178   3.165  79.372  1.00  0.00     0.000 C 
BRANCH   2   3
ATOM      3  C   UNL     1      13.897   1.855  79.737  1.00  0.00     0.000 C 
BRANCH   3   4
ATOM      4  C   UNL     1      15.154   1.614  78.883  1.00  0.00    -0.000 C 
BRANCH   4   5
ATOM      5  C   UNL     1      15.137   2.417  77.574  1.00  0.00    -0.000 C 
BRANCH   5   6
ATOM      6  C   UNL     1      16.510   2.447  76.879  1.00  0.00    -0.000 C 
BRANCH   6   7
ATOM      7  C   UNL     1      17.131   3.855  76.846  1.00  0.00    -0.000 C 
BRANCH   7   8
ATOM      8  C   UNL     1      16.231   4.951  76.237  1.00  0.00    -0.000 C 
BRANCH   8   9
ATOM      9  C   UNL     1      16.789   6.381  76.337  1.00  0.00    -0.000 C 
BRANCH   9  10
ATOM     10  C   UNL     1      16.428   7.071  77.663  1.00  0.00    -0.000 C 
BRANCH  10  11
ATOM     11  C   UNL     1      15.381   6.286  78.468  1.00  0.00    -0.003 C 
ATOM     12  C   UNL     1      15.917   5.800  79.815  1.00  0.00     0.004 C 
ENDBRANCH  10  11
ENDBRANCH   9  10
ENDBRANCH   8   9
ENDBRANCH   7   8
ENDBRANCH   6   7
ENDBRANCH   5   6
ENDBRANCH   4   5
ENDBRANCH   3   4
ENDBRANCH   2   3
ENDBRANCH   1   2
BRANCH   1  13
ATOM     13  C   UNL     1      10.977   4.388  79.621  1.00  0.00     0.000 C 
BRANCH  13  14
ATOM     14  C   UNL     1       9.496   4.261  80.010  1.00  0.00     0.000 C 
BRANCH  14  15
ATOM     15  C   UNL     1       8.667   5.487  79.598  1.00  0.00     0.000 C 
BRANCH  15  16
ATOM     16  C   UNL     1       9.573   6.604  79.067  1.00  0.00     0.000 C 
BRANCH  16  17
ATOM     17  C   UNL     1       8.953   7.986  79.321  1.00  0.00     0.000 C 
BRANCH  17  18
ATOM     18  C   UNL     1       7.501   7.907  79.825  1.00  0.00     0.000 C 
BRANCH  18  19
ATOM     19  C   UNL     1       7.263   8.670  81.144  1.00  0.00     0.000 C 
BRANCH  19  20
ATOM     20  C   UNL     1       5.793   8.607  81.595  1.00  0.00     0.006 C 
BRANCH  20  21
ATOM     21  C   UNL     1       5.391   9.827  82.433  1.00  0.00     0.053 C 
BRANCH  21  22
ATOM     22  C   UNL     1       4.730  10.877  81.594  1.00  0.00     0.041 C 
ATOM     23  O   UNL     1       3.492  11.079  81.693  1.00  0.00    -0.550 OA
ATOM     24  O   UNL     1       5.485  11.647  80.719  1.00  0.00    -0.550 OA
ENDBRANCH  21  22
ENDBRANCH  20  21
ENDBRANCH  19  20
ENDBRANCH  18  19
ENDBRANCH  17  18
ENDBRANCH  16  17
ENDBRANCH  15  16
ENDBRANCH  14  15
ENDBRANCH  13  14
ENDBRANCH   1  13
TORSDOF 20
ENDMDL
MODEL 3
REMARK VINA RESULT:    -4.625      2.904      7.065
REMARK INTER + INTRA:         -11.920
REMARK INTER:                  -9.290
REMARK INTRA:                  -2.630
REMARK UNBOUND:                -1.888
REMARK SMILES CCCCCCCCCCCCCCCCCCCCCC(=O)[O-]
REMARK SMILES IDX 12 1 11 2 10 3 9 4 8 5 7 6 6 7 5 8 4 9 3 10 2 11 1 12 13 13
REMARK SMILES IDX 14 14 15 15 16 16 17 17 18 18 19 19 20 20 21 21 22 22 23 23
REMARK SMILES IDX 24 24
REMARK H PARENT
REMARK Flexibility Score: inf
ROOT
ATOM      1  C   UNL     1       0.980  10.236  82.408  1.00  0.00     0.000 C 
ENDROOT
BRANCH   1   2
ATOM      2  C   UNL     1       0.013  10.391  83.591  1.00  0.00     0.000 C 
BRANCH   2   3
ATOM      3  C   UNL     1       0.564  11.318  84.689  1.00  0.00     0.000 C 
BRANCH   3   4
ATOM      4  C   UNL     1       2.100  11.304  84.757  1.00  0.00    -0.000 C 
BRANCH   4   5
ATOM      5  C   UNL     1       2.623  11.247  86.201  1.00  0.00    -0.000 C 
BRANCH   5   6
ATOM      6  C   UNL     1       2.984   9.818  86.644  1.00  0.00    -0.000 C 
BRANCH   6   7
ATOM      7  C   UNL     1       2.565   9.521  88.095  1.00  0.00    -0.000 C 
BRANCH   7   8
ATOM      8  C   UNL     1       1.403   8.515  88.245  1.00  0.00    -0.000 C 
BRANCH   8   9
ATOM      9  C   UNL     1       0.495   8.382  87.010  1.00  0.00    -0.000 C 
BRANCH   9  10
ATOM     10  C   UNL     1       0.262   6.919  86.596  1.00  0.00    -0.000 C 
BRANCH  10  11
ATOM     11  C   UNL     1       1.050   6.533  85.334  1.00  0.00    -0.003 C 
ATOM     12  C   UNL     1       2.533   6.290  85.618  1.00  0.00     0.004 C 
ENDBRANCH  10  11
ENDBRANCH   9  10
ENDBRANCH   8   9
ENDBRANCH   7   8
ENDBRANCH   6   7
ENDBRANCH   5   6
ENDBRANCH   4   5
ENDBRANCH   3   4
ENDBRANCH   2   3
ENDBRANCH   1   2
BRANCH   1  13
ATOM     13  C   UNL     1       0.657  11.249  81.299  1.00  0.00     0.000 C 
BRANCH  13  14
ATOM     14  C   UNL     1       1.662  12.411  81.246  1.00  0.00     0.000 C 
BRANCH  14  15
ATOM     15  C   UNL     1       3.007  12.003  80.628  1.00  0.00     0.000 C 
BRANCH  15  16
ATOM     16  C   UNL     1       4.130  12.073  81.669  1.00  0.00     0.000 C 
BRANCH  16  17
ATOM     17  C   UNL     1       5.069  10.864  81.553  1.00  0.00     0.000 C 
BRANCH  17  18
ATOM     18  C   UNL     1       4.636   9.683  82.440  1.00  0.00     0.000 C 
BRANCH  18  19
ATOM     19  C   UNL     1       5.229   8.330  81.998  1.00  0.00     0.000 C 
BRANCH  19  20
ATOM     20  C   UNL     1       6.500   8.502  81.148  1.00  0.00     0.006 C 
BRANCH  20  21
ATOM     21  C   UNL     1       6.691   7.352  80.151  1.00  0.00     0.053 C 
BRANCH  21  22
ATOM     22  C   UNL     1       8.141   7.069  79.906  1.00  0.00     0.041 C 
ATOM     23  O   UNL     1       8.531   5.890  79.706  1.00  0.00    -0.550 OA
ATOM     24  O   UNL     1       9.058   8.111  79.879  1.00  0.00    -0.550 OA
ENDBRANCH  21  22
ENDBRANCH  20  21
ENDBRANCH  19  20
ENDBRANCH  18  19
ENDBRANCH  17  18
ENDBRANCH  16  17
ENDBRANCH  15  16
ENDBRANCH  14  15
ENDBRANCH  13  14
ENDBRANCH   1  13
TORSDOF 20
ENDMDL
MODEL 4
REMARK VINA RESULT:    -4.590      8.087     15.416
REMARK INTER + INTRA:         -11.846
REMARK INTER:                  -9.555
REMARK INTRA:                  -2.291
REMARK UNBOUND:                -1.888
REMARK SMILES CCCCCCCCCCCCCCCCCCCCCC(=O)[O-]
REMARK SMILES IDX 12 1 11 2 10 3 9 4 8 5 7 6 6 7 5 8 4 9 3 10 2 11 1 12 13 13
REMARK SMILES IDX 14 14 15 15 16 16 17 17 18 18 19 19 20 20 21 21 22 22 23 23
REMARK SMILES IDX 24 24
REMARK H PARENT
REMARK Flexibility Score: inf
ROOT
ATOM      1  C   UNL     1      16.103   1.751  77.043  1.00  0.00     0.000 C 
ENDROOT
BRANCH   1   2
ATOM      2  C   UNL     1      15.893   2.774  78.169  1.00  0.00     0.000 C 
BRANCH   2   3
ATOM      3  C   UNL     1      14.490   3.405  78.143  1.00  0.00     0.000 C 
BRANCH   3   4
ATOM      4  C   UNL     1      13.921   3.635  79.554  1.00  0.00    -0.000 C 
BRANCH   4   5
ATOM      5  C   UNL     1      12.426   3.295  79.646  1.00  0.00    -0.000 C 
BRANCH   5   6
ATOM      6  C   UNL     1      11.532   4.548  79.665  1.00  0.00    -0.000 C 
BRANCH   6   7
ATOM      7  C   UNL     1      10.031   4.209  79.691  1.00  0.00    -0.000 C 
BRANCH   7   8
ATOM      8  C   UNL     1       9.087   5.430  79.717  1.00  0.00    -0.000 C 
BRANCH   8   9
ATOM      9  C   UNL     1       9.634   6.690  79.022  1.00  0.00    -0.000 C 
BRANCH   9  10
ATOM     10  C   UNL     1       9.025   7.988  79.578  1.00  0.00    -0.000 C 
BRANCH  10  11
ATOM     11  C   UNL     1       7.492   8.011  79.472  1.00  0.00    -0.003 C 
ATOM     12  C   UNL     1       6.807   7.985  80.839  1.00  0.00     0.004 C 
ENDBRANCH  10  11
ENDBRANCH   9  10
ENDBRANCH   8   9
ENDBRANCH   7   8
ENDBRANCH   6   7
ENDBRANCH   5   6
ENDBRANCH   4   5
ENDBRANCH   3   4
ENDBRANCH   2   3
ENDBRANCH   1   2
BRANCH   1  13
ATOM     13  C   UNL     1      17.580   1.696  76.621  1.00  0.00     0.000 C 
BRANCH  13  14
ATOM     14  C   UNL     1      18.228   3.087  76.547  1.00  0.00     0.000 C 
BRANCH  14  15
ATOM     15  C   UNL     1      18.300   3.632  75.113  1.00  0.00     0.000 C 
BRANCH  15  16
ATOM     16  C   UNL     1      17.955   5.125  75.078  1.00  0.00     0.000 C 
BRANCH  16  17
ATOM     17  C   UNL     1      16.485   5.362  75.448  1.00  0.00     0.000 C 
BRANCH  17  18
ATOM     18  C   UNL     1      16.314   6.313  76.646  1.00  0.00     0.000 C 
BRANCH  18  19
ATOM     19  C   UNL     1      17.615   7.034  77.052  1.00  0.00     0.000 C 
BRANCH  19  20
ATOM     20  C   UNL     1      17.921   6.880  78.553  1.00  0.00     0.006 C 
BRANCH  20  21
ATOM     21  C   UNL     1      16.811   6.127  79.296  1.00  0.00     0.053 C 
BRANCH  21  22
ATOM     22  C   UNL     1      17.217   5.788  80.697  1.00  0.00     0.041 C 
ATOM     23  O   UNL     1      17.438   6.705  81.531  1.00  0.00    -0.550 OA
ATOM     24  O   UNL     1      17.331   4.461  81.087  1.00  0.00    -0.550 OA
ENDBRANCH  21  22
ENDBRANCH  20  21
ENDBRANCH  19  20
ENDBRANCH  18  19
ENDBRANCH  17  18
ENDBRANCH  16  17
ENDBRANCH  15  16
ENDBRANCH  14  15
ENDBRANCH  13  14
ENDBRANCH   1  13
TORSDOF 20
ENDMDL
MODEL 5
REMARK VINA RESULT:    -4.541     12.226     14.666
REMARK INTER + INTRA:         -11.738
REMARK INTER:                  -8.380
REMARK INTRA:                  -3.359
REMARK UNBOUND:                -1.888
REMARK SMILES CCCCCCCCCCCCCCCCCCCCCC(=O)[O-]
REMARK SMILES IDX 12 1 11 2 10 3 9 4 8 5 7 6 6 7 5 8 4 9 3 10 2 11 1 12 13 13
REMARK SMILES IDX 14 14 15 15 16 16 17 17 18 18 19 19 20 20 21 21 22 22 23 23
REMARK SMILES IDX 24 24
REMARK H PARENT
REMARK Flexibility Score: inf
ROOT
ATOM      1  C   UNL     1      16.367   5.214  80.465  1.00  0.00     0.000 C 
ENDROOT
BRANCH   1   2
ATOM      2  C   UNL     1      15.699   5.945  79.291  1.00  0.00     0.000 C 
BRANCH   2   3
ATOM      3  C   UNL     1      16.716   6.456  78.255  1.00  0.00     0.000 C 
BRANCH   3   4
ATOM      4  C   UNL     1      16.247   6.230  76.808  1.00  0.00    -0.000 C 
BRANCH   4   5
ATOM      5  C   UNL     1      16.009   4.746  76.492  1.00  0.00    -0.000 C 
BRANCH   5   6
ATOM      6  C   UNL     1      17.316   3.935  76.434  1.00  0.00    -0.000 C 
BRANCH   6   7
ATOM      7  C   UNL     1      17.148   2.496  76.952  1.00  0.00    -0.000 C 
BRANCH   7   8
ATOM      8  C   UNL     1      15.689   2.055  77.193  1.00  0.00    -0.000 C 
BRANCH   8   9
ATOM      9  C   UNL     1      15.459   1.240  78.478  1.00  0.00    -0.000 C 
BRANCH   9  10
ATOM     10  C   UNL     1      14.167   1.636  79.212  1.00  0.00    -0.000 C 
BRANCH  10  11
ATOM     11  C   UNL     1      13.728   3.074  78.896  1.00  0.00    -0.003 C 
ATOM     12  C   UNL     1      12.394   3.440  79.548  1.00  0.00     0.004 C 
ENDBRANCH  10  11
ENDBRANCH   9  10
ENDBRANCH   8   9
ENDBRANCH   7   8
ENDBRANCH   6   7
ENDBRANCH   5   6
ENDBRANCH   4   5
ENDBRANCH   3   4
ENDBRANCH   2   3
ENDBRANCH   1   2
BRANCH   1  13
ATOM     13  C   UNL     1      17.724   4.628  80.046  1.00  0.00     0.000 C 
BRANCH  13  14
ATOM     14  C   UNL     1      17.915   3.177  80.516  1.00  0.00     0.000 C 
BRANCH  14  15
ATOM     15  C   UNL     1      16.913   2.770  81.606  1.00  0.00     0.000 C 
BRANCH  15  16
ATOM     16  C   UNL     1      17.571   1.845  82.636  1.00  0.00     0.000 C 
BRANCH  16  17
ATOM     17  C   UNL     1      16.522   1.000  83.371  1.00  0.00     0.000 C 
BRANCH  17  18
ATOM     18  C   UNL     1      15.113   1.135  82.766  1.00  0.00     0.000 C 
BRANCH  18  19
ATOM     19  C   UNL     1      14.455  -0.218  82.427  1.00  0.00     0.000 C 
BRANCH  19  20
ATOM     20  C   UNL     1      13.537  -0.717  83.557  1.00  0.00     0.006 C 
BRANCH  20  21
ATOM     21  C   UNL     1      12.618  -1.855  83.095  1.00  0.00     0.053 C 
BRANCH  21  22
ATOM     22  C   UNL     1      11.206  -1.642  83.548  1.00  0.00     0.041 C 
ATOM     23  O   UNL     1      10.967  -0.934  84.561  1.00  0.00    -0.550 OA
ATOM     24  O   UNL     1      10.154  -2.206  82.840  1.00  0.00    -0.550 OA
ENDBRANCH  21  22
ENDBRANCH  20  21
ENDBRANCH  19  20
ENDBRANCH  18  19
ENDBRANCH  17  18
ENDBRANCH  16  17
ENDBRANCH  15  16
ENDBRANCH  14  15
ENDBRANCH  13  14
ENDBRANCH   1  13
TORSDOF 20
ENDMDL
MODEL 6
REMARK VINA RESULT:    -4.529     13.448     15.133
REMARK INTER + INTRA:         -11.712
REMARK INTER:                  -8.104
REMARK INTRA:                  -3.609
REMARK UNBOUND:                -1.888
REMARK SMILES CCCCCCCCCCCCCCCCCCCCCC(=O)[O-]
REMARK SMILES IDX 12 1 11 2 10 3 9 4 8 5 7 6 6 7 5 8 4 9 3 10 2 11 1 12 13 13
REMARK SMILES IDX 14 14 15 15 16 16 17 17 18 18 19 19 20 20 21 21 22 22 23 23
REMARK SMILES IDX 24 24
REMARK H PARENT
REMARK Flexibility Score: inf
ROOT
ATOM      1  C   UNL     1      14.707   1.672  79.172  1.00  0.00     0.000 C 
ENDROOT
BRANCH   1   2
ATOM      2  C   UNL     1      16.134   1.232  79.530  1.00  0.00     0.000 C 
BRANCH   2   3
ATOM      3  C   UNL     1      16.841   0.509  78.371  1.00  0.00     0.000 C 
BRANCH   3   4
ATOM      4  C   UNL     1      16.557   1.162  77.007  1.00  0.00    -0.000 C 
BRANCH   4   5
ATOM      5  C   UNL     1      17.769   1.930  76.460  1.00  0.00    -0.000 C 
BRANCH   5   6
ATOM      6  C   UNL     1      17.676   3.445  76.715  1.00  0.00    -0.000 C 
BRANCH   6   7
ATOM      7  C   UNL     1      16.225   3.958  76.736  1.00  0.00    -0.000 C 
BRANCH   7   8
ATOM      8  C   UNL     1      16.077   5.493  76.784  1.00  0.00    -0.000 C 
BRANCH   8   9
ATOM      9  C   UNL     1      16.121   6.107  78.195  1.00  0.00    -0.000 C 
BRANCH   9  10
ATOM     10  C   UNL     1      15.375   5.256  79.238  1.00  0.00    -0.000 C 
BRANCH  10  11
ATOM     11  C   UNL     1      16.013   5.343  80.633  1.00  0.00    -0.003 C 
ATOM     12  C   UNL     1      17.251   4.457  80.770  1.00  0.00     0.004 C 
ENDBRANCH  10  11
ENDBRANCH   9  10
ENDBRANCH   8   9
ENDBRANCH   7   8
ENDBRANCH   6   7
ENDBRANCH   5   6
ENDBRANCH   4   5
ENDBRANCH   3   4
ENDBRANCH   2   3
ENDBRANCH   1   2
BRANCH   1  13
ATOM     13  C   UNL     1      13.783   1.589  80.396  1.00  0.00     0.000 C 
BRANCH  13  14
ATOM     14  C   UNL     1      14.445   2.121  81.677  1.00  0.00     0.000 C 
BRANCH  14  15
ATOM     15  C   UNL     1      14.226   1.199  82.885  1.00  0.00     0.000 C 
BRANCH  15  16
ATOM     16  C   UNL     1      15.524   0.474  83.259  1.00  0.00     0.000 C 
BRANCH  16  17
ATOM     17  C   UNL     1      15.339  -1.049  83.218  1.00  0.00     0.000 C 
BRANCH  17  18
ATOM     18  C   UNL     1      15.785  -1.671  81.882  1.00  0.00     0.000 C 
BRANCH  18  19
ATOM     19  C   UNL     1      14.621  -1.938  80.906  1.00  0.00     0.000 C 
BRANCH  19  20
ATOM     20  C   UNL     1      13.378  -2.497  81.624  1.00  0.00     0.006 C 
BRANCH  20  21
ATOM     21  C   UNL     1      12.154  -1.589  81.452  1.00  0.00     0.053 C 
BRANCH  21  22
ATOM     22  C   UNL     1      11.119  -1.856  82.501  1.00  0.00     0.041 C 
ATOM     23  O   UNL     1      11.124  -1.201  83.576  1.00  0.00    -0.550 OA
ATOM     24  O   UNL     1      10.137  -2.812  82.283  1.00  0.00    -0.550 OA
ENDBRANCH  21  22
ENDBRANCH  20  21
ENDBRANCH  19  20
ENDBRANCH  18  19
ENDBRANCH  17  18
ENDBRANCH  16  17
ENDBRANCH  15  16
ENDBRANCH  14  15
ENDBRANCH  13  14
ENDBRANCH   1  13
TORSDOF 20
ENDMDL
MODEL 7
REMARK VINA RESULT:    -4.482     14.438     16.439
REMARK INTER + INTRA:         -11.612
REMARK INTER:                  -7.228
REMARK INTRA:                  -4.383
REMARK UNBOUND:                -1.888
REMARK SMILES CCCCCCCCCCCCCCCCCCCCCC(=O)[O-]
REMARK SMILES IDX 12 1 11 2 10 3 9 4 8 5 7 6 6 7 5 8 4 9 3 10 2 11 1 12 13 13
REMARK SMILES IDX 14 14 15 15 16 16 17 17 18 18 19 19 20 20 21 21 22 22 23 23
REMARK SMILES IDX 24 24
REMARK H PARENT
REMARK Flexibility Score: inf
ROOT
ATOM      1  C   UNL     1      15.074   2.764  77.390  1.00  0.00     0.000 C 
ENDROOT
BRANCH   1   2
ATOM      2  C   UNL     1      15.831   1.432  77.276  1.00  0.00     0.000 C 
BRANCH   2   3
ATOM      3  C   UNL     1      17.320   1.623  76.940  1.00  0.00     0.000 C 
BRANCH   3   4
ATOM      4  C   UNL     1      17.915   2.882  77.594  1.00  0.00    -0.000 C 
BRANCH   4   5
ATOM      5  C   UNL     1      18.754   3.712  76.611  1.00  0.00    -0.000 C 
BRANCH   5   6
ATOM      6  C   UNL     1      18.052   3.915  75.256  1.00  0.00    -0.000 C 
BRANCH   6   7
ATOM      7  C   UNL     1      17.588   5.366  75.037  1.00  0.00    -0.000 C 
BRANCH   7   8
ATOM      8  C   UNL     1      16.317   5.769  75.816  1.00  0.00    -0.000 C 
BRANCH   8   9
ATOM      9  C   UNL     1      16.562   6.672  77.037  1.00  0.00    -0.000 C 
BRANCH   9  10
ATOM     10  C   UNL     1      15.699   6.282  78.249  1.00  0.00    -0.000 C 
BRANCH  10  11
ATOM     11  C   UNL     1      16.540   5.785  79.435  1.00  0.00    -0.003 C 
ATOM     12  C   UNL     1      18.007   6.203  79.332  1.00  0.00     0.004 C 
ENDBRANCH  10  11
ENDBRANCH   9  10
ENDBRANCH   8   9
ENDBRANCH   7   8
ENDBRANCH   6   7
ENDBRANCH   5   6
ENDBRANCH   4   5
ENDBRANCH   3   4
ENDBRANCH   2   3
ENDBRANCH   1   2
BRANCH   1  13
ATOM     13  C   UNL     1      14.301   2.843  78.715  1.00  0.00     0.000 C 
BRANCH  13  14
ATOM     14  C   UNL     1      14.133   1.472  79.388  1.00  0.00     0.000 C 
BRANCH  14  15
ATOM     15  C   UNL     1      14.405   1.515  80.899  1.00  0.00     0.000 C 
BRANCH  15  16
ATOM     16  C   UNL     1      15.240   2.747  81.268  1.00  0.00     0.000 C 
BRANCH  16  17
ATOM     17  C   UNL     1      16.520   2.345  82.014  1.00  0.00     0.000 C 
BRANCH  17  18
ATOM     18  C   UNL     1      17.672   1.968  81.066  1.00  0.00     0.000 C 
BRANCH  18  19
ATOM     19  C   UNL     1      18.160   0.515  81.235  1.00  0.00     0.000 C 
BRANCH  19  20
ATOM     20  C   UNL     1      18.072  -0.284  79.923  1.00  0.00     0.006 C 
BRANCH  20  21
ATOM     21  C   UNL     1      16.788  -1.119  79.838  1.00  0.00     0.053 C 
BRANCH  21  22
ATOM     22  C   UNL     1      16.880  -2.164  78.769  1.00  0.00     0.041 C 
ATOM     23  O   UNL     1      17.328  -1.867  77.631  1.00  0.00    -0.550 OA
ATOM     24  O   UNL     1      16.490  -3.469  79.035  1.00  0.00    -0.550 OA
ENDBRANCH  21  22
ENDBRANCH  20  21
ENDBRANCH  19  20
ENDBRANCH  18  19
ENDBRANCH  17  18
ENDBRANCH  16  17
ENDBRANCH  15  16
ENDBRANCH  14  15
ENDBRANCH  13  14
ENDBRANCH   1  13
TORSDOF 20
ENDMDL
MODEL 8
REMARK VINA RESULT:    -4.481      2.934      6.994
REMARK INTER + INTRA:         -11.609
REMARK INTER:                  -9.271
REMARK INTRA:                  -2.337
REMARK UNBOUND:                -1.888
REMARK SMILES CCCCCCCCCCCCCCCCCCCCCC(=O)[O-]
REMARK SMILES IDX 12 1 11 2 10 3 9 4 8 5 7 6 6 7 5 8 4 9 3 10 2 11 1 12 13 13
REMARK SMILES IDX 14 14 15 15 16 16 17 17 18 18 19 19 20 20 21 21 22 22 23 23
REMARK SMILES IDX 24 24
REMARK H PARENT
REMARK Flexibility Score: inf
ROOT
ATOM      1  C   UNL     1       0.777  11.905  81.151  1.00  0.00     0.000 C 
ENDROOT
BRANCH   1   2
ATOM      2  C   UNL     1       0.471  11.039  82.382  1.00  0.00     0.000 C 
BRANCH   2   3
ATOM      3  C   UNL     1      -0.577  11.676  83.310  1.00  0.00     0.000 C 
BRANCH   3   4
ATOM      4  C   UNL     1       0.007  12.071  84.678  1.00  0.00    -0.000 C 
BRANCH   4   5
ATOM      5  C   UNL     1       1.443  12.607  84.570  1.00  0.00    -0.000 C 
BRANCH   5   6
ATOM      6  C   UNL     1       2.376  12.025  85.646  1.00  0.00    -0.000 C 
BRANCH   6   7
ATOM      7  C   UNL     1       2.616  10.515  85.473  1.00  0.00    -0.000 C 
BRANCH   7   8
ATOM      8  C   UNL     1       2.769   9.723  86.789  1.00  0.00    -0.000 C 
BRANCH   8   9
ATOM      9  C   UNL     1       2.355   8.243  86.709  1.00  0.00    -0.000 C 
BRANCH   9  10
ATOM     10  C   UNL     1       2.423   7.682  85.278  1.00  0.00    -0.000 C 
BRANCH  10  11
ATOM     11  C   UNL     1       3.022   6.268  85.229  1.00  0.00    -0.003 C 
ATOM     12  C   UNL     1       2.194   5.250  86.014  1.00  0.00     0.004 C 
ENDBRANCH  10  11
ENDBRANCH   9  10
ENDBRANCH   8   9
ENDBRANCH   7   8
ENDBRANCH   6   7
ENDBRANCH   5   6
ENDBRANCH   4   5
ENDBRANCH   3   4
ENDBRANCH   2   3
ENDBRANCH   1   2
BRANCH   1  13
ATOM     13  C   UNL     1       2.244  11.749  80.722  1.00  0.00     0.000 C 
BRANCH  13  14
ATOM     14  C   UNL     1       3.165  12.797  81.365  1.00  0.00     0.000 C 
BRANCH  14  15
ATOM     15  C   UNL     1       4.338  12.165  82.129  1.00  0.00     0.000 C 
BRANCH  15  16
ATOM     16  C   UNL     1       4.127  10.657  82.304  1.00  0.00     0.000 C 
BRANCH  16  17
ATOM     17  C   UNL     1       5.359   9.868  81.841  1.00  0.00     0.000 C 
BRANCH  17  18
ATOM     18  C   UNL     1       6.080  10.526  80.651  1.00  0.00     0.000 C 
BRANCH  18  19
ATOM     19  C   UNL     1       7.108   9.604  79.965  1.00  0.00     0.000 C 
BRANCH  19  20
ATOM     20  C   UNL     1       7.366   8.319  80.773  1.00  0.00     0.006 C 
BRANCH  20  21
ATOM     21  C   UNL     1       7.063   7.054  79.961  1.00  0.00     0.053 C 
BRANCH  21  22
ATOM     22  C   UNL     1       8.310   6.282  79.656  1.00  0.00     0.041 C 
ATOM     23  O   UNL     1       9.263   6.835  79.049  1.00  0.00    -0.550 OA
ATOM     24  O   UNL     1       8.427   4.960  80.061  1.00  0.00    -0.550 OA
ENDBRANCH  21  22
ENDBRANCH  20  21
ENDBRANCH  19  20
ENDBRANCH  18  19
ENDBRANCH  17  18
ENDBRANCH  16  17
ENDBRANCH  15  16
ENDBRANCH  14  15
ENDBRANCH  13  14
ENDBRANCH   1  13
TORSDOF 20
ENDMDL
MODEL 9
REMARK VINA RESULT:    -4.460     12.835     16.221
REMARK INTER + INTRA:         -11.564
REMARK INTER:                  -8.010
REMARK INTRA:                  -3.554
REMARK UNBOUND:                -1.888
REMARK SMILES CCCCCCCCCCCCCCCCCCCCCC(=O)[O-]
REMARK SMILES IDX 12 1 11 2 10 3 9 4 8 5 7 6 6 7 5 8 4 9 3 10 2 11 1 12 13 13
REMARK SMILES IDX 14 14 15 15 16 16 17 17 18 18 19 19 20 20 21 21 22 22 23 23
REMARK SMILES IDX 24 24
REMARK H PARENT
REMARK Flexibility Score: inf
ROOT
ATOM      1  C   UNL     1      16.175   6.133  76.603  1.00  0.00     0.000 C 
ENDROOT
BRANCH   1   2
ATOM      2  C   UNL     1      16.312   6.214  78.130  1.00  0.00     0.000 C 
BRANCH   2   3
ATOM      3  C   UNL     1      17.678   5.712  78.630  1.00  0.00     0.000 C 
BRANCH   3   4
ATOM      4  C   UNL     1      17.553   4.772  79.842  1.00  0.00    -0.000 C 
BRANCH   4   5
ATOM      5  C   UNL     1      18.642   3.689  79.859  1.00  0.00    -0.000 C 
BRANCH   5   6
ATOM      6  C   UNL     1      18.332   2.552  80.849  1.00  0.00    -0.000 C 
BRANCH   6   7
ATOM      7  C   UNL     1      17.071   2.821  81.689  1.00  0.00    -0.000 C 
BRANCH   7   8
ATOM      8  C   UNL     1      16.656   1.670  82.630  1.00  0.00    -0.000 C 
BRANCH   8   9
ATOM      9  C   UNL     1      15.920   0.504  81.947  1.00  0.00    -0.000 C 
BRANCH   9  10
ATOM     10  C   UNL     1      14.392   0.682  81.949  1.00  0.00    -0.000 C 
BRANCH  10  11
ATOM     11  C   UNL     1      13.827   0.898  83.361  1.00  0.00    -0.003 C 
ATOM     12  C   UNL     1      13.064  -0.321  83.883  1.00  0.00     0.004 C 
ENDBRANCH  10  11
ENDBRANCH   9  10
ENDBRANCH   8   9
ENDBRANCH   7   8
ENDBRANCH   6   7
ENDBRANCH   5   6
ENDBRANCH   4   5
ENDBRANCH   3   4
ENDBRANCH   2   3
ENDBRANCH   1   2
BRANCH   1  13
ATOM     13  C   UNL     1      17.552   6.005  75.934  1.00  0.00     0.000 C 
BRANCH  13  14
ATOM     14  C   UNL     1      17.562   4.985  74.785  1.00  0.00     0.000 C 
BRANCH  14  15
ATOM     15  C   UNL     1      18.853   4.154  74.740  1.00  0.00     0.000 C 
BRANCH  15  16
ATOM     16  C   UNL     1      18.572   2.688  75.089  1.00  0.00     0.000 C 
BRANCH  16  17
ATOM     17  C   UNL     1      18.258   2.525  76.582  1.00  0.00     0.000 C 
BRANCH  17  18
ATOM     18  C   UNL     1      16.938   1.775  76.839  1.00  0.00     0.000 C 
BRANCH  18  19
ATOM     19  C   UNL     1      15.780   2.695  77.276  1.00  0.00     0.000 C 
BRANCH  19  20
ATOM     20  C   UNL     1      15.025   2.139  78.496  1.00  0.00     0.006 C 
BRANCH  20  21
ATOM     21  C   UNL     1      14.249   3.231  79.244  1.00  0.00     0.053 C 
BRANCH  21  22
ATOM     22  C   UNL     1      12.791   2.901  79.343  1.00  0.00     0.041 C 
ATOM     23  O   UNL     1      12.402   1.710  79.219  1.00  0.00    -0.550 OA
ATOM     24  O   UNL     1      11.866   3.904  79.594  1.00  0.00    -0.550 OA
ENDBRANCH  21  22
ENDBRANCH  20  21
ENDBRANCH  19  20
ENDBRANCH  18  19
ENDBRANCH  17  18
ENDBRANCH  16  17
ENDBRANCH  15  16
ENDBRANCH  14  15
ENDBRANCH  13  14
ENDBRANCH   1  13
TORSDOF 20
ENDMDL
