MODEL 1
REMARK VINA RESULT:    -5.222      0.000      0.000
REMARK INTER + INTRA:         -10.135
REMARK INTER:                  -9.495
REMARK INTRA:                  -0.640
REMARK UNBOUND:                -0.640
REMARK SMILES CCCCCCCCCCCCCCCC(=O)[O-]
REMARK SMILES IDX 9 1 10 2 11 3 12 4 13 5 14 6 15 7 16 8 17 9 18 10 8 11 7 12
REMARK SMILES IDX 6 13 5 14 4 15 3 16 2 17 1 18
REMARK H PARENT
REMARK Flexibility Score: inf
ROOT
ATOM      1  C   UNL     1      -7.442  27.755 -25.650  1.00  0.00     0.000 C 
ENDROOT
BRANCH   1   2
ATOM      2  C   UNL     1      -7.675  28.048 -24.158  1.00  0.00     0.000 C 
BRANCH   2   3
ATOM      3  C   UNL     1      -6.481  28.762 -23.505  1.00  0.00     0.000 C 
BRANCH   3   4
ATOM      4  C   UNL     1      -6.330  28.417 -22.012  1.00  0.00     0.000 C 
BRANCH   4   5
ATOM      5  C   UNL     1      -6.180  29.667 -21.130  1.00  0.00     0.000 C 
BRANCH   5   6
ATOM      6  C   UNL     1      -5.894  29.326 -19.659  1.00  0.00     0.006 C 
BRANCH   6   7
ATOM      7  C   UNL     1      -5.010  28.080 -19.549  1.00  0.00     0.053 C 
BRANCH   7   8
ATOM      8  C   UNL     1      -3.614  28.460 -19.166  1.00  0.00     0.041 C 
ATOM      9  O   UNL     1      -2.878  27.639 -18.559  1.00  0.00    -0.550 OA
ATOM     10  O   UNL     1      -3.109  29.704 -19.523  1.00  0.00    -0.550 OA
ENDBRANCH   7   8
ENDBRANCH   6   7
ENDBRANCH   5   6
ENDBRANCH   4   5
ENDBRANCH   3   4
ENDBRANCH   2   3
ENDBRANCH   1   2
BRANCH   1  11
ATOM     11  C   UNL     1      -8.731  27.337 -26.378  1.00  0.00     0.000 C 
BRANCH  11  12
ATOM     12  C   UNL     1      -8.502  26.200 -27.385  1.00  0.00    -0.000 C 
BRANCH  12  13
ATOM     13  C   UNL     1      -9.631  25.165 -27.310  1.00  0.00    -0.000 C 
BRANCH  13  14
ATOM     14  C   UNL     1      -9.328  24.094 -26.255  1.00  0.00    -0.000 C 
BRANCH  14  15
ATOM     15  C   UNL     1     -10.548  23.189 -26.025  1.00  0.00    -0.000 C 
BRANCH  15  16
ATOM     16  C   UNL     1     -10.554  22.547 -24.628  1.00  0.00    -0.000 C 
BRANCH  16  17
ATOM     17  C   UNL     1      -9.327  22.938 -23.792  1.00  0.00    -0.003 C 
ATOM     18  C   UNL     1      -9.658  22.947 -22.302  1.00  0.00     0.004 C 
ENDBRANCH  16  17
ENDBRANCH  15  16
ENDBRANCH  14  15
ENDBRANCH  13  14
ENDBRANCH  12  13
ENDBRANCH  11  12
ENDBRANCH   1  11
TORSDOF 14
ENDMDL
MODEL 2
REMARK VINA RESULT:    -5.149      1.753      2.144
REMARK INTER + INTRA:         -10.003
REMARK INTER:                  -9.213
REMARK INTRA:                  -0.790
REMARK UNBOUND:                -0.640
REMARK SMILES CCCCCCCCCCCCCCCC(=O)[O-]
REMARK SMILES IDX 9 1 10 2 11 3 12 4 13 5 14 6 15 7 16 8 17 9 18 10 8 11 7 12
REMARK SMILES IDX 6 13 5 14 4 15 3 16 2 17 1 18
REMARK H PARENT
REMARK Flexibility Score: inf
ROOT
ATOM      1  C   UNL     1      -8.382  27.730 -25.414  1.00  0.00     0.000 C 
ENDROOT
BRANCH   1   2
ATOM      2  C   UNL     1      -7.805  28.104 -24.038  1.00  0.00     0.000 C 
BRANCH   2   3
ATOM      3  C   UNL     1      -6.323  28.505 -24.109  1.00  0.00     0.000 C 
BRANCH   3   4
ATOM      4  C   UNL     1      -5.821  29.146 -22.803  1.00  0.00     0.000 C 
BRANCH   4   5
ATOM      5  C   UNL     1      -6.007  28.227 -21.585  1.00  0.00     0.000 C 
BRANCH   5   6
ATOM      6  C   UNL     1      -6.398  28.997 -20.314  1.00  0.00     0.006 C 
BRANCH   6   7
ATOM      7  C   UNL     1      -5.922  28.258 -19.059  1.00  0.00     0.053 C 
BRANCH   7   8
ATOM      8  C   UNL     1      -6.758  28.638 -17.878  1.00  0.00     0.041 C 
ATOM      9  O   UNL     1      -7.045  29.846 -17.668  1.00  0.00    -0.550 OA
ATOM     10  O   UNL     1      -7.263  27.654 -17.037  1.00  0.00    -0.550 OA
ENDBRANCH   7   8
ENDBRANCH   6   7
ENDBRANCH   5   6
ENDBRANCH   4   5
ENDBRANCH   3   4
ENDBRANCH   2   3
ENDBRANCH   1   2
BRANCH   1  11
ATOM     11  C   UNL     1      -7.301  27.646 -26.505  1.00  0.00     0.000 C 
BRANCH  11  12
ATOM     12  C   UNL     1      -7.759  26.850 -27.736  1.00  0.00    -0.000 C 
BRANCH  12  13
ATOM     13  C   UNL     1      -9.116  26.180 -27.480  1.00  0.00    -0.000 C 
BRANCH  13  14
ATOM     14  C   UNL     1      -8.947  24.679 -27.211  1.00  0.00    -0.000 C 
BRANCH  14  15
ATOM     15  C   UNL     1      -9.711  24.259 -25.946  1.00  0.00    -0.000 C 
BRANCH  15  16
ATOM     16  C   UNL     1     -10.121  22.778 -25.968  1.00  0.00    -0.000 C 
BRANCH  16  17
ATOM     17  C   UNL     1     -10.237  22.175 -24.560  1.00  0.00    -0.003 C 
ATOM     18  C   UNL     1      -9.496  23.030 -23.535  1.00  0.00     0.004 C 
ENDBRANCH  16  17
ENDBRANCH  15  16
ENDBRANCH  14  15
ENDBRANCH  13  14
ENDBRANCH  12  13
ENDBRANCH  11  12
ENDBRANCH   1  11
TORSDOF 14
ENDMDL
MODEL 3
REMARK VINA RESULT:    -5.100      3.610      7.599
REMARK INTER + INTRA:          -9.914
REMARK INTER:                  -9.018
REMARK INTRA:                  -0.896
REMARK UNBOUND:                -0.640
REMARK SMILES CCCCCCCCCCCCCCCC(=O)[O-]
REMARK SMILES IDX 9 1 10 2 11 3 12 4 13 5 14 6 15 7 16 8 17 9 18 10 8 11 7 12
REMARK SMILES IDX 6 13 5 14 4 15 3 16 2 17 1 18
REMARK H PARENT
REMARK Flexibility Score: inf
ROOT
ATOM      1  C   UNL     1      -8.287  27.754 -25.537  1.00  0.00     0.000 C 
ENDROOT
BRANCH   1   2
ATOM      2  C   UNL     1      -7.108  27.500 -26.493  1.00  0.00     0.000 C 
BRANCH   2   3
ATOM      3  C   UNL     1      -7.567  27.051 -27.889  1.00  0.00     0.000 C 
BRANCH   3   4
ATOM      4  C   UNL     1      -7.941  25.560 -27.937  1.00  0.00     0.000 C 
BRANCH   4   5
ATOM      5  C   UNL     1      -9.324  25.278 -27.326  1.00  0.00     0.000 C 
BRANCH   5   6
ATOM      6  C   UNL     1      -9.356  23.986 -26.495  1.00  0.00     0.006 C 
BRANCH   6   7
ATOM      7  C   UNL     1      -9.618  24.293 -25.017  1.00  0.00     0.053 C 
BRANCH   7   8
ATOM      8  C   UNL     1      -9.873  23.030 -24.257  1.00  0.00     0.041 C 
ATOM      9  O   UNL     1      -9.362  22.863 -23.118  1.00  0.00    -0.550 OA
ATOM     10  O   UNL     1     -10.714  22.059 -24.783  1.00  0.00    -0.550 OA
ENDBRANCH   7   8
ENDBRANCH   6   7
ENDBRANCH   5   6
ENDBRANCH   4   5
ENDBRANCH   3   4
ENDBRANCH   2   3
ENDBRANCH   1   2
BRANCH   1  11
ATOM     11  C   UNL     1      -7.829  28.049 -24.099  1.00  0.00     0.000 C 
BRANCH  11  12
ATOM     12  C   UNL     1      -6.442  28.705 -24.040  1.00  0.00    -0.000 C 
BRANCH  12  13
ATOM     13  C   UNL     1      -6.131  29.202 -22.623  1.00  0.00    -0.000 C 
BRANCH  13  14
ATOM     14  C   UNL     1      -4.672  28.913 -22.244  1.00  0.00    -0.000 C 
BRANCH  14  15
ATOM     15  C   UNL     1      -4.571  28.402 -20.799  1.00  0.00    -0.000 C 
BRANCH  15  16
ATOM     16  C   UNL     1      -5.775  27.540 -20.390  1.00  0.00    -0.000 C 
BRANCH  16  17
ATOM     17  C   UNL     1      -6.327  27.912 -19.006  1.00  0.00    -0.003 C 
ATOM     18  C   UNL     1      -6.159  29.404 -18.732  1.00  0.00     0.004 C 
ENDBRANCH  16  17
ENDBRANCH  15  16
ENDBRANCH  14  15
ENDBRANCH  13  14
ENDBRANCH  12  13
ENDBRANCH  11  12
ENDBRANCH   1  11
TORSDOF 14
ENDMDL
MODEL 4
REMARK VINA RESULT:    -5.095      6.300      8.450
REMARK INTER + INTRA:          -9.906
REMARK INTER:                  -8.221
REMARK INTRA:                  -1.684
REMARK UNBOUND:                -0.640
REMARK SMILES CCCCCCCCCCCCCCCC(=O)[O-]
REMARK SMILES IDX 9 1 10 2 11 3 12 4 13 5 14 6 15 7 16 8 17 9 18 10 8 11 7 12
REMARK SMILES IDX 6 13 5 14 4 15 3 16 2 17 1 18
REMARK H PARENT
REMARK Flexibility Score: inf
ROOT
ATOM      1  C   UNL     1      -6.640  29.190 -19.122  1.00  0.00     0.000 C 
ENDROOT
BRANCH   1   2
ATOM      2  C   UNL     1      -6.884  29.877 -17.767  1.00  0.00     0.000 C 
BRANCH   2   3
ATOM      3  C   UNL     1      -6.991  31.405 -17.892  1.00  0.00     0.000 C 
BRANCH   3   4
ATOM      4  C   UNL     1      -6.807  31.894 -19.340  1.00  0.00     0.000 C 
BRANCH   4   5
ATOM      5  C   UNL     1      -6.563  33.409 -19.425  1.00  0.00     0.000 C 
BRANCH   5   6
ATOM      6  C   UNL     1      -6.640  34.102 -18.055  1.00  0.00     0.006 C 
BRANCH   6   7
ATOM      7  C   UNL     1      -7.005  35.581 -18.210  1.00  0.00     0.053 C 
BRANCH   7   8
ATOM      8  C   UNL     1      -7.938  36.008 -17.121  1.00  0.00     0.041 C 
ATOM      9  O   UNL     1      -7.486  36.532 -16.070  1.00  0.00    -0.550 OA
ATOM     10  O   UNL     1      -9.310  35.872 -17.288  1.00  0.00    -0.550 OA
ENDBRANCH   7   8
ENDBRANCH   6   7
ENDBRANCH   5   6
ENDBRANCH   4   5
ENDBRANCH   3   4
ENDBRANCH   2   3
ENDBRANCH   1   2
BRANCH   1  11
ATOM     11  C   UNL     1      -6.183  27.729 -18.970  1.00  0.00     0.000 C 
BRANCH  11  12
ATOM     12  C   UNL     1      -5.655  27.133 -20.283  1.00  0.00    -0.000 C 
BRANCH  12  13
ATOM     13  C   UNL     1      -4.184  26.720 -20.145  1.00  0.00    -0.000 C 
BRANCH  13  14
ATOM     14  C   UNL     1      -3.253  27.804 -20.702  1.00  0.00    -0.000 C 
BRANCH  14  15
ATOM     15  C   UNL     1      -2.767  28.739 -19.584  1.00  0.00    -0.000 C 
BRANCH  15  16
ATOM     16  C   UNL     1      -3.155  30.205 -19.829  1.00  0.00    -0.000 C 
BRANCH  16  17
ATOM     17  C   UNL     1      -3.827  30.420 -21.192  1.00  0.00    -0.003 C 
ATOM     18  C   UNL     1      -3.654  31.860 -21.669  1.00  0.00     0.004 C 
ENDBRANCH  16  17
ENDBRANCH  15  16
ENDBRANCH  14  15
ENDBRANCH  13  14
ENDBRANCH  12  13
ENDBRANCH  11  12
ENDBRANCH   1  11
TORSDOF 14
ENDMDL
MODEL 5
REMARK VINA RESULT:    -4.831      5.075      8.642
REMARK INTER + INTRA:          -9.424
REMARK INTER:                  -7.804
REMARK INTRA:                  -1.620
REMARK UNBOUND:                -0.640
REMARK SMILES CCCCCCCCCCCCCCCC(=O)[O-]
REMARK SMILES IDX 9 1 10 2 11 3 12 4 13 5 14 6 15 7 16 8 17 9 18 10 8 11 7 12
REMARK SMILES IDX 6 13 5 14 4 15 3 16 2 17 1 18
REMARK H PARENT
REMARK Flexibility Score: inf
ROOT
ATOM      1  C   UNL     1      -6.699  31.053 -18.364  1.00  0.00     0.000 C 
ENDROOT
BRANCH   1   2
ATOM      2  C   UNL     1      -6.296  29.718 -19.012  1.00  0.00     0.000 C 
BRANCH   2   3
ATOM      3  C   UNL     1      -6.371  29.762 -20.547  1.00  0.00     0.000 C 
BRANCH   3   4
ATOM      4  C   UNL     1      -6.058  28.400 -21.193  1.00  0.00     0.000 C 
BRANCH   4   5
ATOM      5  C   UNL     1      -5.789  27.301 -20.152  1.00  0.00     0.000 C 
BRANCH   5   6
ATOM      6  C   UNL     1      -4.377  26.705 -20.267  1.00  0.00     0.006 C 
BRANCH   6   7
ATOM      7  C   UNL     1      -3.361  27.780 -20.665  1.00  0.00     0.053 C 
BRANCH   7   8
ATOM      8  C   UNL     1      -2.776  28.426 -19.448  1.00  0.00     0.041 C 
ATOM      9  O   UNL     1      -2.351  29.609 -19.502  1.00  0.00    -0.550 OA
ATOM     10  O   UNL     1      -2.748  27.738 -18.242  1.00  0.00    -0.550 OA
ENDBRANCH   7   8
ENDBRANCH   6   7
ENDBRANCH   5   6
ENDBRANCH   4   5
ENDBRANCH   3   4
ENDBRANCH   2   3
ENDBRANCH   1   2
BRANCH   1  11
ATOM     11  C   UNL     1      -6.601  32.238 -19.340  1.00  0.00     0.000 C 
BRANCH  11  12
ATOM     12  C   UNL     1      -6.831  33.593 -18.654  1.00  0.00    -0.000 C 
BRANCH  12  13
ATOM     13  C   UNL     1      -6.160  34.726 -19.441  1.00  0.00    -0.000 C 
BRANCH  13  14
ATOM     14  C   UNL     1      -4.637  34.552 -19.468  1.00  0.00    -0.000 C 
BRANCH  14  15
ATOM     15  C   UNL     1      -4.044  35.101 -20.775  1.00  0.00    -0.000 C 
BRANCH  15  16
ATOM     16  C   UNL     1      -4.471  34.288 -22.006  1.00  0.00    -0.000 C 
BRANCH  16  17
ATOM     17  C   UNL     1      -3.421  33.248 -22.422  1.00  0.00    -0.003 C 
ATOM     18  C   UNL     1      -3.732  31.881 -21.817  1.00  0.00     0.004 C 
ENDBRANCH  16  17
ENDBRANCH  15  16
ENDBRANCH  14  15
ENDBRANCH  13  14
ENDBRANCH  12  13
ENDBRANCH  11  12
ENDBRANCH   1  11
TORSDOF 14
ENDMDL
MODEL 6
REMARK VINA RESULT:    -4.735      4.817      7.492
REMARK INTER + INTRA:          -9.250
REMARK INTER:                  -7.666
REMARK INTRA:                  -1.584
REMARK UNBOUND:                -0.640
REMARK SMILES CCCCCCCCCCCCCCCC(=O)[O-]
REMARK SMILES IDX 9 1 10 2 11 3 12 4 13 5 14 6 15 7 16 8 17 9 18 10 8 11 7 12
REMARK SMILES IDX 6 13 5 14 4 15 3 16 2 17 1 18
REMARK H PARENT
REMARK Flexibility Score: inf
ROOT
ATOM      1  C   UNL     1      -6.676  31.850 -19.801  1.00  0.00     0.000 C 
ENDROOT
BRANCH   1   2
ATOM      2  C   UNL     1      -5.670  32.997 -19.997  1.00  0.00     0.000 C 
BRANCH   2   3
ATOM      3  C   UNL     1      -4.463  32.582 -20.854  1.00  0.00     0.000 C 
BRANCH   3   4
ATOM      4  C   UNL     1      -3.129  32.709 -20.097  1.00  0.00     0.000 C 
BRANCH   4   5
ATOM      5  C   UNL     1      -2.203  31.504 -20.327  1.00  0.00     0.000 C 
BRANCH   5   6
ATOM      6  C   UNL     1      -0.813  31.694 -19.699  1.00  0.00     0.006 C 
BRANCH   6   7
ATOM      7  C   UNL     1       0.173  32.274 -20.717  1.00  0.00     0.053 C 
BRANCH   7   8
ATOM      8  C   UNL     1       1.536  32.403 -20.113  1.00  0.00     0.041 C 
ATOM      9  O   UNL     1       2.419  33.093 -20.686  1.00  0.00    -0.550 OA
ATOM     10  O   UNL     1       1.815  31.801 -18.893  1.00  0.00    -0.550 OA
ENDBRANCH   7   8
ENDBRANCH   6   7
ENDBRANCH   5   6
ENDBRANCH   4   5
ENDBRANCH   3   4
ENDBRANCH   2   3
ENDBRANCH   1   2
BRANCH   1  11
ATOM     11  C   UNL     1      -6.936  31.540 -18.317  1.00  0.00     0.000 C 
BRANCH  11  12
ATOM     12  C   UNL     1      -6.882  30.037 -18.006  1.00  0.00    -0.000 C 
BRANCH  12  13
ATOM     13  C   UNL     1      -5.788  29.347 -18.830  1.00  0.00    -0.000 C 
BRANCH  13  14
ATOM     14  C   UNL     1      -6.219  27.935 -19.246  1.00  0.00    -0.000 C 
BRANCH  14  15
ATOM     15  C   UNL     1      -5.885  27.671 -20.722  1.00  0.00    -0.000 C 
BRANCH  15  16
ATOM     16  C   UNL     1      -4.812  28.626 -21.266  1.00  0.00    -0.000 C 
BRANCH  16  17
ATOM     17  C   UNL     1      -5.246  29.330 -22.560  1.00  0.00    -0.003 C 
ATOM     18  C   UNL     1      -6.618  28.840 -23.017  1.00  0.00     0.004 C 
ENDBRANCH  16  17
ENDBRANCH  15  16
ENDBRANCH  14  15
ENDBRANCH  13  14
ENDBRANCH  12  13
ENDBRANCH  11  12
ENDBRANCH   1  11
TORSDOF 14
ENDMDL
MODEL 7
REMARK VINA RESULT:    -4.730      5.869      7.670
REMARK INTER + INTRA:          -9.242
REMARK INTER:                  -7.691
REMARK INTRA:                  -1.550
REMARK UNBOUND:                -0.640
REMARK SMILES CCCCCCCCCCCCCCCC(=O)[O-]
REMARK SMILES IDX 9 1 10 2 11 3 12 4 13 5 14 6 15 7 16 8 17 9 18 10 8 11 7 12
REMARK SMILES IDX 6 13 5 14 4 15 3 16 2 17 1 18
REMARK H PARENT
REMARK Flexibility Score: inf
ROOT
ATOM      1  C   UNL     1      -2.049  30.201 -19.751  1.00  0.00     0.000 C 
ENDROOT
BRANCH   1   2
ATOM      2  C   UNL     1      -3.198  31.153 -20.124  1.00  0.00     0.000 C 
BRANCH   2   3
ATOM      3  C   UNL     1      -2.841  32.075 -21.301  1.00  0.00     0.000 C 
BRANCH   3   4
ATOM      4  C   UNL     1      -3.198  33.547 -21.027  1.00  0.00     0.000 C 
BRANCH   4   5
ATOM      5  C   UNL     1      -4.564  33.942 -21.610  1.00  0.00     0.000 C 
BRANCH   5   6
ATOM      6  C   UNL     1      -5.416  34.761 -20.628  1.00  0.00     0.006 C 
BRANCH   6   7
ATOM      7  C   UNL     1      -6.205  33.841 -19.690  1.00  0.00     0.053 C 
BRANCH   7   8
ATOM      8  C   UNL     1      -6.704  34.605 -18.504  1.00  0.00     0.041 C 
ATOM      9  O   UNL     1      -6.982  35.828 -18.610  1.00  0.00    -0.550 OA
ATOM     10  O   UNL     1      -6.910  33.954 -17.295  1.00  0.00    -0.550 OA
ENDBRANCH   7   8
ENDBRANCH   6   7
ENDBRANCH   5   6
ENDBRANCH   4   5
ENDBRANCH   3   4
ENDBRANCH   2   3
ENDBRANCH   1   2
BRANCH   1  11
ATOM     11  C   UNL     1      -2.546  28.799 -19.359  1.00  0.00     0.000 C 
BRANCH  11  12
ATOM     12  C   UNL     1      -3.252  28.074 -20.515  1.00  0.00    -0.000 C 
BRANCH  12  13
ATOM     13  C   UNL     1      -3.582  26.626 -20.133  1.00  0.00    -0.000 C 
BRANCH  13  14
ATOM     14  C   UNL     1      -5.099  26.402 -20.076  1.00  0.00    -0.000 C 
BRANCH  14  15
ATOM     15  C   UNL     1      -5.857  27.716 -20.317  1.00  0.00    -0.000 C 
BRANCH  15  16
ATOM     16  C   UNL     1      -6.396  28.336 -19.018  1.00  0.00    -0.000 C 
BRANCH  16  17
ATOM     17  C   UNL     1      -6.530  29.863 -19.102  1.00  0.00    -0.003 C 
ATOM     18  C   UNL     1      -6.625  30.327 -20.553  1.00  0.00     0.004 C 
ENDBRANCH  16  17
ENDBRANCH  15  16
ENDBRANCH  14  15
ENDBRANCH  13  14
ENDBRANCH  12  13
ENDBRANCH  11  12
ENDBRANCH   1  11
TORSDOF 14
ENDMDL
MODEL 8
REMARK VINA RESULT:    -4.713      5.324      9.203
REMARK INTER + INTRA:          -9.209
REMARK INTER:                  -7.694
REMARK INTRA:                  -1.516
REMARK UNBOUND:                -0.640
REMARK SMILES CCCCCCCCCCCCCCCC(=O)[O-]
REMARK SMILES IDX 9 1 10 2 11 3 12 4 13 5 14 6 15 7 16 8 17 9 18 10 8 11 7 12
REMARK SMILES IDX 6 13 5 14 4 15 3 16 2 17 1 18
REMARK H PARENT
REMARK Flexibility Score: inf
ROOT
ATOM      1  C   UNL     1      -6.223  33.292 -19.655  1.00  0.00     0.000 C 
ENDROOT
BRANCH   1   2
ATOM      2  C   UNL     1      -6.922  31.927 -19.779  1.00  0.00     0.000 C 
BRANCH   2   3
ATOM      3  C   UNL     1      -6.629  31.005 -18.584  1.00  0.00     0.000 C 
BRANCH   3   4
ATOM      4  C   UNL     1      -6.270  29.573 -19.018  1.00  0.00     0.000 C 
BRANCH   4   5
ATOM      5  C   UNL     1      -6.247  29.407 -20.546  1.00  0.00     0.000 C 
BRANCH   5   6
ATOM      6  C   UNL     1      -5.565  28.104 -20.993  1.00  0.00     0.006 C 
BRANCH   6   7
ATOM      7  C   UNL     1      -4.084  28.341 -21.305  1.00  0.00     0.053 C 
BRANCH   7   8
ATOM      8  C   UNL     1      -3.233  27.938 -20.142  1.00  0.00     0.041 C 
ATOM      9  O   UNL     1      -2.554  28.801 -19.525  1.00  0.00    -0.550 OA
ATOM     10  O   UNL     1      -3.228  26.619 -19.708  1.00  0.00    -0.550 OA
ENDBRANCH   7   8
ENDBRANCH   6   7
ENDBRANCH   5   6
ENDBRANCH   4   5
ENDBRANCH   3   4
ENDBRANCH   2   3
ENDBRANCH   1   2
BRANCH   1  11
ATOM     11  C   UNL     1      -4.745  33.241 -20.077  1.00  0.00     0.000 C 
BRANCH  11  12
ATOM     12  C   UNL     1      -4.518  32.404 -21.344  1.00  0.00    -0.000 C 
BRANCH  12  13
ATOM     13  C   UNL     1      -3.076  31.884 -21.407  1.00  0.00    -0.000 C 
BRANCH  13  14
ATOM     14  C   UNL     1      -2.291  32.283 -20.150  1.00  0.00    -0.000 C 
BRANCH  14  15
ATOM     15  C   UNL     1      -0.820  32.567 -20.489  1.00  0.00    -0.000 C 
BRANCH  15  16
ATOM     16  C   UNL     1       0.154  31.793 -19.587  1.00  0.00    -0.000 C 
BRANCH  16  17
ATOM     17  C   UNL     1       1.602  31.848 -20.096  1.00  0.00    -0.003 C 
ATOM     18  C   UNL     1       2.491  32.640 -19.140  1.00  0.00     0.004 C 
ENDBRANCH  16  17
ENDBRANCH  15  16
ENDBRANCH  14  15
ENDBRANCH  13  14
ENDBRANCH  12  13
ENDBRANCH  11  12
ENDBRANCH   1  11
TORSDOF 14
ENDMDL
MODEL 9
REMARK VINA RESULT:    -4.704      5.630      7.547
REMARK INTER + INTRA:          -9.194
REMARK INTER:                  -6.940
REMARK INTRA:                  -2.254
REMARK UNBOUND:                -0.640
REMARK SMILES CCCCCCCCCCCCCCCC(=O)[O-]
REMARK SMILES IDX 9 1 10 2 11 3 12 4 13 5 14 6 15 7 16 8 17 9 18 10 8 11 7 12
REMARK SMILES IDX 6 13 5 14 4 15 3 16 2 17 1 18
REMARK H PARENT
REMARK Flexibility Score: inf
ROOT
ATOM      1  C   UNL     1      -6.357  33.303 -19.341  1.00  0.00     0.000 C 
ENDROOT
BRANCH   1   2
ATOM      2  C   UNL     1      -4.895  33.515 -19.771  1.00  0.00     0.000 C 
BRANCH   2   3
ATOM      3  C   UNL     1      -4.652  33.139 -21.241  1.00  0.00     0.000 C 
BRANCH   3   4
ATOM      4  C   UNL     1      -3.626  32.003 -21.399  1.00  0.00     0.000 C 
BRANCH   4   5
ATOM      5  C   UNL     1      -3.088  31.502 -20.049  1.00  0.00     0.000 C 
BRANCH   5   6
ATOM      6  C   UNL     1      -1.553  31.518 -19.977  1.00  0.00     0.006 C 
BRANCH   6   7
ATOM      7  C   UNL     1      -0.976  32.614 -20.879  1.00  0.00     0.053 C 
BRANCH   7   8
ATOM      8  C   UNL     1      -0.633  33.828 -20.074  1.00  0.00     0.041 C 
ATOM      9  O   UNL     1      -0.435  33.731 -18.835  1.00  0.00    -0.550 OA
ATOM     10  O   UNL     1      -0.484  35.059 -20.701  1.00  0.00    -0.550 OA
ENDBRANCH   7   8
ENDBRANCH   6   7
ENDBRANCH   5   6
ENDBRANCH   4   5
ENDBRANCH   3   4
ENDBRANCH   2   3
ENDBRANCH   1   2
BRANCH   1  11
ATOM     11  C   UNL     1      -6.869  31.889 -19.663  1.00  0.00     0.000 C 
BRANCH  11  12
ATOM     12  C   UNL     1      -6.682  30.909 -18.495  1.00  0.00    -0.000 C 
BRANCH  12  13
ATOM     13  C   UNL     1      -6.382  29.495 -19.009  1.00  0.00    -0.000 C 
BRANCH  13  14
ATOM     14  C   UNL     1      -6.218  29.485 -20.534  1.00  0.00    -0.000 C 
BRANCH  14  15
ATOM     15  C   UNL     1      -5.617  28.155 -21.013  1.00  0.00    -0.000 C 
BRANCH  15  16
ATOM     16  C   UNL     1      -4.087  28.209 -21.138  1.00  0.00    -0.000 C 
BRANCH  16  17
ATOM     17  C   UNL     1      -3.378  27.280 -20.141  1.00  0.00    -0.003 C 
ATOM     18  C   UNL     1      -2.978  28.037 -18.876  1.00  0.00     0.004 C 
ENDBRANCH  16  17
ENDBRANCH  15  16
ENDBRANCH  14  15
ENDBRANCH  13  14
ENDBRANCH  12  13
ENDBRANCH  11  12
ENDBRANCH   1  11
TORSDOF 14
ENDMDL
