MODEL 1
REMARK VINA RESULT:    -3.594      0.000      0.000
REMARK INTER + INTRA:          -7.150
REMARK INTER:                  -6.116
REMARK INTRA:                  -1.034
REMARK UNBOUND:                -1.034
REMARK SMILES CCCCCCCCCCCCCC(=O)[O-]
REMARK SMILES IDX 8 1 9 2 10 3 11 4 12 5 13 6 14 7 15 8 16 9 7 10 6 11 5 12
REMARK SMILES IDX 4 13 3 14 2 15 1 16
REMARK H PARENT
REMARK Flexibility Score: inf
ROOT
ATOM      1  C   UNL     1      34.829  28.971  17.395  1.00  0.00     0.000 C 
ENDROOT
BRANCH   1   2
ATOM      2  C   UNL     1      36.275  28.661  16.970  1.00  0.00     0.000 C 
BRANCH   2   3
ATOM      3  C   UNL     1      36.353  28.005  15.581  1.00  0.00     0.000 C 
BRANCH   3   4
ATOM      4  C   UNL     1      35.316  26.882  15.402  1.00  0.00     0.000 C 
BRANCH   4   5
ATOM      5  C   UNL     1      34.690  26.875  13.999  1.00  0.00     0.006 C 
BRANCH   5   6
ATOM      6  C   UNL     1      33.824  28.112  13.730  1.00  0.00     0.053 C 
BRANCH   6   7
ATOM      7  C   UNL     1      33.964  28.549  12.306  1.00  0.00     0.041 C 
ATOM      8  O   UNL     1      34.049  29.773  12.024  1.00  0.00    -0.550 OA
ATOM      9  O   UNL     1      34.050  27.601  11.294  1.00  0.00    -0.550 OA
ENDBRANCH   6   7
ENDBRANCH   5   6
ENDBRANCH   4   5
ENDBRANCH   3   4
ENDBRANCH   2   3
ENDBRANCH   1   2
BRANCH   1  10
ATOM     10  C   UNL     1      34.461  28.360  18.760  1.00  0.00     0.000 C 
BRANCH  10  11
ATOM     11  C   UNL     1      35.391  27.234  19.248  1.00  0.00    -0.000 C 
BRANCH  11  12
ATOM     12  C   UNL     1      36.044  27.544  20.606  1.00  0.00    -0.000 C 
BRANCH  12  13
ATOM     13  C   UNL     1      36.305  29.046  20.807  1.00  0.00    -0.000 C 
BRANCH  13  14
ATOM     14  C   UNL     1      36.304  29.455  22.288  1.00  0.00    -0.000 C 
BRANCH  14  15
ATOM     15  C   UNL     1      35.270  28.643  23.078  1.00  0.00    -0.003 C 
ATOM     16  C   UNL     1      34.882  29.353  24.371  1.00  0.00     0.004 C 
ENDBRANCH  14  15
ENDBRANCH  13  14
ENDBRANCH  12  13
ENDBRANCH  11  12
ENDBRANCH  10  11
ENDBRANCH   1  10
TORSDOF 12
ENDMDL
MODEL 2
REMARK VINA RESULT:    -3.568      1.388      1.905
REMARK INTER + INTRA:          -7.105
REMARK INTER:                  -6.095
REMARK INTRA:                  -1.010
REMARK UNBOUND:                -1.034
REMARK SMILES CCCCCCCCCCCCCC(=O)[O-]
REMARK SMILES IDX 8 1 9 2 10 3 11 4 12 5 13 6 14 7 15 8 16 9 7 10 6 11 5 12
REMARK SMILES IDX 4 13 3 14 2 15 1 16
REMARK H PARENT
REMARK Flexibility Score: inf
ROOT
ATOM      1  C   UNL     1      34.914  28.734  16.579  1.00  0.00     0.000 C 
ENDROOT
BRANCH   1   2
ATOM      2  C   UNL     1      35.912  28.207  15.532  1.00  0.00     0.000 C 
BRANCH   2   3
ATOM      3  C   UNL     1      35.462  26.875  14.908  1.00  0.00     0.000 C 
BRANCH   3   4
ATOM      4  C   UNL     1      35.543  26.889  13.371  1.00  0.00     0.000 C 
BRANCH   4   5
ATOM      5  C   UNL     1      34.174  27.115  12.710  1.00  0.00     0.006 C 
BRANCH   5   6
ATOM      6  C   UNL     1      33.982  28.558  12.225  1.00  0.00     0.053 C 
BRANCH   6   7
ATOM      7  C   UNL     1      32.966  29.261  13.069  1.00  0.00     0.041 C 
ATOM      8  O   UNL     1      32.362  28.639  13.983  1.00  0.00    -0.550 OA
ATOM      9  O   UNL     1      32.720  30.615  12.878  1.00  0.00    -0.550 OA
ENDBRANCH   6   7
ENDBRANCH   5   6
ENDBRANCH   4   5
ENDBRANCH   3   4
ENDBRANCH   2   3
ENDBRANCH   1   2
BRANCH   1  10
ATOM     10  C   UNL     1      35.588  29.126  17.906  1.00  0.00     0.000 C 
BRANCH  10  11
ATOM     11  C   UNL     1      36.929  28.425  18.195  1.00  0.00    -0.000 C 
BRANCH  11  12
ATOM     12  C   UNL     1      36.784  27.227  19.149  1.00  0.00    -0.000 C 
BRANCH  12  13
ATOM     13  C   UNL     1      35.619  27.397  20.138  1.00  0.00    -0.000 C 
BRANCH  13  14
ATOM     14  C   UNL     1      36.085  27.837  21.534  1.00  0.00    -0.000 C 
BRANCH  14  15
ATOM     15  C   UNL     1      35.166  28.926  22.099  1.00  0.00    -0.003 C 
ATOM     16  C   UNL     1      35.821  29.646  23.274  1.00  0.00     0.004 C 
ENDBRANCH  14  15
ENDBRANCH  13  14
ENDBRANCH  12  13
ENDBRANCH  11  12
ENDBRANCH  10  11
ENDBRANCH   1  10
TORSDOF 12
ENDMDL
MODEL 3
REMARK VINA RESULT:    -3.491      4.660      8.548
REMARK INTER + INTRA:          -6.975
REMARK INTER:                  -6.189
REMARK INTRA:                  -0.786
REMARK UNBOUND:                -1.034
REMARK SMILES CCCCCCCCCCCCCC(=O)[O-]
REMARK SMILES IDX 8 1 9 2 10 3 11 4 12 5 13 6 14 7 15 8 16 9 7 10 6 11 5 12
REMARK SMILES IDX 4 13 3 14 2 15 1 16
REMARK H PARENT
REMARK Flexibility Score: inf
ROOT
ATOM      1  C   UNL     1      34.697  28.875  18.157  1.00  0.00     0.000 C 
ENDROOT
BRANCH   1   2
ATOM      2  C   UNL     1      34.775  27.463  18.764  1.00  0.00     0.000 C 
BRANCH   2   3
ATOM      3  C   UNL     1      35.845  27.353  19.864  1.00  0.00     0.000 C 
BRANCH   3   4
ATOM      4  C   UNL     1      36.401  28.726  20.281  1.00  0.00     0.000 C 
BRANCH   4   5
ATOM      5  C   UNL     1      36.481  28.891  21.807  1.00  0.00     0.006 C 
BRANCH   5   6
ATOM      6  C   UNL     1      35.098  28.959  22.469  1.00  0.00     0.053 C 
BRANCH   6   7
ATOM      7  C   UNL     1      35.235  29.036  23.957  1.00  0.00     0.041 C 
ATOM      8  O   UNL     1      35.280  27.982  24.644  1.00  0.00    -0.550 OA
ATOM      9  O   UNL     1      35.361  30.270  24.581  1.00  0.00    -0.550 OA
ENDBRANCH   6   7
ENDBRANCH   5   6
ENDBRANCH   4   5
ENDBRANCH   3   4
ENDBRANCH   2   3
ENDBRANCH   1   2
BRANCH   1  10
ATOM     10  C   UNL     1      35.447  28.993  16.817  1.00  0.00     0.000 C 
BRANCH  10  11
ATOM     11  C   UNL     1      35.784  27.656  16.132  1.00  0.00    -0.000 C 
BRANCH  11  12
ATOM     12  C   UNL     1      35.783  27.752  14.597  1.00  0.00    -0.000 C 
BRANCH  12  13
ATOM     13  C   UNL     1      34.477  27.232  13.974  1.00  0.00    -0.000 C 
BRANCH  13  14
ATOM     14  C   UNL     1      33.451  28.349  13.730  1.00  0.00    -0.000 C 
BRANCH  14  15
ATOM     15  C   UNL     1      33.532  28.859  12.286  1.00  0.00    -0.003 C 
ATOM     16  C   UNL     1      33.978  27.753  11.334  1.00  0.00     0.004 C 
ENDBRANCH  14  15
ENDBRANCH  13  14
ENDBRANCH  12  13
ENDBRANCH  11  12
ENDBRANCH  10  11
ENDBRANCH   1  10
TORSDOF 12
ENDMDL
MODEL 4
REMARK VINA RESULT:    -3.449      4.424      8.092
REMARK INTER + INTRA:          -6.903
REMARK INTER:                  -5.931
REMARK INTRA:                  -0.972
REMARK UNBOUND:                -1.034
REMARK SMILES CCCCCCCCCCCCCC(=O)[O-]
REMARK SMILES IDX 8 1 9 2 10 3 11 4 12 5 13 6 14 7 15 8 16 9 7 10 6 11 5 12
REMARK SMILES IDX 4 13 3 14 2 15 1 16
REMARK H PARENT
REMARK Flexibility Score: inf
ROOT
ATOM      1  C   UNL     1      35.167  28.904  18.033  1.00  0.00     0.000 C 
ENDROOT
BRANCH   1   2
ATOM      2  C   UNL     1      34.754  27.602  18.743  1.00  0.00     0.000 C 
BRANCH   2   3
ATOM      3  C   UNL     1      35.599  27.322  19.998  1.00  0.00     0.000 C 
BRANCH   3   4
ATOM      4  C   UNL     1      36.851  28.214  20.074  1.00  0.00     0.000 C 
BRANCH   4   5
ATOM      5  C   UNL     1      36.962  28.962  21.412  1.00  0.00     0.006 C 
BRANCH   5   6
ATOM      6  C   UNL     1      35.593  29.350  21.988  1.00  0.00     0.053 C 
BRANCH   6   7
ATOM      7  C   UNL     1      35.388  28.706  23.324  1.00  0.00     0.041 C 
ATOM      8  O   UNL     1      34.523  29.159  24.119  1.00  0.00    -0.550 OA
ATOM      9  O   UNL     1      36.119  27.577  23.670  1.00  0.00    -0.550 OA
ENDBRANCH   6   7
ENDBRANCH   5   6
ENDBRANCH   4   5
ENDBRANCH   3   4
ENDBRANCH   2   3
ENDBRANCH   1   2
BRANCH   1  10
ATOM     10  C   UNL     1      35.076  28.806  16.500  1.00  0.00     0.000 C 
BRANCH  10  11
ATOM     11  C   UNL     1      36.376  28.386  15.789  1.00  0.00    -0.000 C 
BRANCH  11  12
ATOM     12  C   UNL     1      36.125  27.689  14.442  1.00  0.00    -0.000 C 
BRANCH  12  13
ATOM     13  C   UNL     1      34.678  27.187  14.298  1.00  0.00    -0.000 C 
BRANCH  13  14
ATOM     14  C   UNL     1      33.933  27.853  13.131  1.00  0.00    -0.000 C 
BRANCH  14  15
ATOM     15  C   UNL     1      32.801  28.750  13.645  1.00  0.00    -0.003 C 
ATOM     16  C   UNL     1      32.811  30.106  12.947  1.00  0.00     0.004 C 
ENDBRANCH  14  15
ENDBRANCH  13  14
ENDBRANCH  12  13
ENDBRANCH  11  12
ENDBRANCH  10  11
ENDBRANCH   1  10
TORSDOF 12
ENDMDL
MODEL 5
REMARK VINA RESULT:    -3.318      4.643      8.439
REMARK INTER + INTRA:          -6.680
REMARK INTER:                  -5.965
REMARK INTRA:                  -0.716
REMARK UNBOUND:                -1.034
REMARK SMILES CCCCCCCCCCCCCC(=O)[O-]
REMARK SMILES IDX 8 1 9 2 10 3 11 4 12 5 13 6 14 7 15 8 16 9 7 10 6 11 5 12
REMARK SMILES IDX 4 13 3 14 2 15 1 16
REMARK H PARENT
REMARK Flexibility Score: inf
ROOT
ATOM      1  C   UNL     1      35.710  29.119  17.299  1.00  0.00     0.000 C 
ENDROOT
BRANCH   1   2
ATOM      2  C   UNL     1      34.869  28.193  18.195  1.00  0.00     0.000 C 
BRANCH   2   3
ATOM      3  C   UNL     1      35.651  27.690  19.421  1.00  0.00     0.000 C 
BRANCH   3   4
ATOM      4  C   UNL     1      36.110  28.838  20.336  1.00  0.00     0.000 C 
BRANCH   4   5
ATOM      5  C   UNL     1      35.130  29.100  21.491  1.00  0.00     0.006 C 
BRANCH   5   6
ATOM      6  C   UNL     1      35.615  28.516  22.824  1.00  0.00     0.053 C 
BRANCH   6   7
ATOM      7  C   UNL     1      35.208  29.402  23.960  1.00  0.00     0.041 C 
ATOM      8  O   UNL     1      34.121  29.200  24.562  1.00  0.00    -0.550 OA
ATOM      9  O   UNL     1      36.053  30.419  24.385  1.00  0.00    -0.550 OA
ENDBRANCH   6   7
ENDBRANCH   5   6
ENDBRANCH   4   5
ENDBRANCH   3   4
ENDBRANCH   2   3
ENDBRANCH   1   2
BRANCH   1  10
ATOM     10  C   UNL     1      36.371  28.377  16.122  1.00  0.00     0.000 C 
BRANCH  10  11
ATOM     11  C   UNL     1      35.705  27.046  15.727  1.00  0.00    -0.000 C 
BRANCH  11  12
ATOM     12  C   UNL     1      34.620  27.216  14.650  1.00  0.00    -0.000 C 
BRANCH  12  13
ATOM     13  C   UNL     1      35.211  27.459  13.251  1.00  0.00    -0.000 C 
BRANCH  13  14
ATOM     14  C   UNL     1      34.304  28.329  12.368  1.00  0.00    -0.000 C 
BRANCH  14  15
ATOM     15  C   UNL     1      33.022  28.716  13.116  1.00  0.00    -0.003 C 
ATOM     16  C   UNL     1      32.739  30.210  12.988  1.00  0.00     0.004 C 
ENDBRANCH  14  15
ENDBRANCH  13  14
ENDBRANCH  12  13
ENDBRANCH  11  12
ENDBRANCH  10  11
ENDBRANCH   1  10
TORSDOF 12
ENDMDL
MODEL 6
REMARK VINA RESULT:    -3.039      1.191      1.777
REMARK INTER + INTRA:          -6.205
REMARK INTER:                  -5.432
REMARK INTRA:                  -0.773
REMARK UNBOUND:                -1.034
REMARK SMILES CCCCCCCCCCCCCC(=O)[O-]
REMARK SMILES IDX 8 1 9 2 10 3 11 4 12 5 13 6 14 7 15 8 16 9 7 10 6 11 5 12
REMARK SMILES IDX 4 13 3 14 2 15 1 16
REMARK H PARENT
REMARK Flexibility Score: inf
ROOT
ATOM      1  C   UNL     1      34.235  28.730  18.845  1.00  0.00     0.000 C 
ENDROOT
BRANCH   1   2
ATOM      2  C   UNL     1      35.460  28.268  18.036  1.00  0.00     0.000 C 
BRANCH   2   3
ATOM      3  C   UNL     1      35.417  28.750  16.576  1.00  0.00     0.000 C 
BRANCH   3   4
ATOM      4  C   UNL     1      36.480  28.063  15.699  1.00  0.00     0.000 C 
BRANCH   4   5
ATOM      5  C   UNL     1      35.988  27.813  14.264  1.00  0.00     0.006 C 
BRANCH   5   6
ATOM      6  C   UNL     1      34.536  27.318  14.214  1.00  0.00     0.053 C 
BRANCH   6   7
ATOM      7  C   UNL     1      33.718  28.194  13.318  1.00  0.00     0.041 C 
ATOM      8  O   UNL     1      32.654  28.715  13.743  1.00  0.00    -0.550 OA
ATOM      9  O   UNL     1      34.155  28.473  12.029  1.00  0.00    -0.550 OA
ENDBRANCH   6   7
ENDBRANCH   5   6
ENDBRANCH   4   5
ENDBRANCH   3   4
ENDBRANCH   2   3
ENDBRANCH   1   2
BRANCH   1  10
ATOM     10  C   UNL     1      34.591  29.163  20.279  1.00  0.00     0.000 C 
BRANCH  10  11
ATOM     11  C   UNL     1      35.958  28.676  20.792  1.00  0.00    -0.000 C 
BRANCH  11  12
ATOM     12  C   UNL     1      36.842  29.819  21.321  1.00  0.00    -0.000 C 
BRANCH  12  13
ATOM     13  C   UNL     1      37.075  29.731  22.838  1.00  0.00    -0.000 C 
BRANCH  13  14
ATOM     14  C   UNL     1      36.234  30.746  23.627  1.00  0.00    -0.000 C 
BRANCH  14  15
ATOM     15  C   UNL     1      35.401  30.045  24.706  1.00  0.00    -0.003 C 
ATOM     16  C   UNL     1      35.359  28.537  24.478  1.00  0.00     0.004 C 
ENDBRANCH  14  15
ENDBRANCH  13  14
ENDBRANCH  12  13
ENDBRANCH  11  12
ENDBRANCH  10  11
ENDBRANCH   1  10
TORSDOF 12
ENDMDL
MODEL 7
REMARK VINA RESULT:    -2.300     16.097     18.162
REMARK INTER + INTRA:          -4.948
REMARK INTER:                  -4.296
REMARK INTRA:                  -0.652
REMARK UNBOUND:                -1.034
REMARK SMILES CCCCCCCCCCCCCC(=O)[O-]
REMARK SMILES IDX 8 1 9 2 10 3 11 4 12 5 13 6 14 7 15 8 16 9 7 10 6 11 5 12
REMARK SMILES IDX 4 13 3 14 2 15 1 16
REMARK H PARENT
REMARK Flexibility Score: inf
ROOT
ATOM      1  C   UNL     1      35.058  45.171  21.114  1.00  0.00     0.000 C 
ENDROOT
BRANCH   1   2
ATOM      2  C   UNL     1      34.945  45.560  22.599  1.00  0.00     0.000 C 
BRANCH   2   3
ATOM      3  C   UNL     1      35.480  44.464  23.536  1.00  0.00     0.000 C 
BRANCH   3   4
ATOM      4  C   UNL     1      34.597  44.274  24.782  1.00  0.00     0.000 C 
BRANCH   4   5
ATOM      5  C   UNL     1      33.435  43.298  24.538  1.00  0.00     0.006 C 
BRANCH   5   6
ATOM      6  C   UNL     1      32.118  44.014  24.211  1.00  0.00     0.053 C 
BRANCH   6   7
ATOM      7  C   UNL     1      31.828  43.929  22.746  1.00  0.00     0.041 C 
ATOM      8  O   UNL     1      31.906  42.823  22.148  1.00  0.00    -0.550 OA
ATOM      9  O   UNL     1      31.423  45.061  22.050  1.00  0.00    -0.550 OA
ENDBRANCH   6   7
ENDBRANCH   5   6
ENDBRANCH   4   5
ENDBRANCH   3   4
ENDBRANCH   2   3
ENDBRANCH   1   2
BRANCH   1  10
ATOM     10  C   UNL     1      36.501  45.247  20.582  1.00  0.00     0.000 C 
BRANCH  10  11
ATOM     11  C   UNL     1      36.854  44.220  19.491  1.00  0.00    -0.000 C 
BRANCH  11  12
ATOM     12  C   UNL     1      37.125  44.869  18.123  1.00  0.00    -0.000 C 
BRANCH  12  13
ATOM     13  C   UNL     1      36.709  43.966  16.949  1.00  0.00    -0.000 C 
BRANCH  13  14
ATOM     14  C   UNL     1      36.005  44.743  15.825  1.00  0.00    -0.000 C 
BRANCH  14  15
ATOM     15  C   UNL     1      37.015  45.218  14.773  1.00  0.00    -0.003 C 
ATOM     16  C   UNL     1      36.829  46.700  14.460  1.00  0.00     0.004 C 
ENDBRANCH  14  15
ENDBRANCH  13  14
ENDBRANCH  12  13
ENDBRANCH  11  12
ENDBRANCH  10  11
ENDBRANCH   1  10
TORSDOF 12
ENDMDL
MODEL 8
REMARK VINA RESULT:    -2.107      4.904      8.729
REMARK INTER + INTRA:          -4.620
REMARK INTER:                  -3.982
REMARK INTRA:                  -0.638
REMARK UNBOUND:                -1.034
REMARK SMILES CCCCCCCCCCCCCC(=O)[O-]
REMARK SMILES IDX 8 1 9 2 10 3 11 4 12 5 13 6 14 7 15 8 16 9 7 10 6 11 5 12
REMARK SMILES IDX 4 13 3 14 2 15 1 16
REMARK H PARENT
REMARK Flexibility Score: inf
ROOT
ATOM      1  C   UNL     1      36.444  26.875  20.273  1.00  0.00     0.000 C 
ENDROOT
BRANCH   1   2
ATOM      2  C   UNL     1      35.663  27.862  21.159  1.00  0.00     0.000 C 
BRANCH   2   3
ATOM      3  C   UNL     1      36.578  28.643  22.118  1.00  0.00     0.000 C 
BRANCH   3   4
ATOM      4  C   UNL     1      36.854  30.077  21.630  1.00  0.00     0.000 C 
BRANCH   4   5
ATOM      5  C   UNL     1      36.833  31.103  22.773  1.00  0.00     0.006 C 
BRANCH   5   6
ATOM      6  C   UNL     1      36.822  30.445  24.160  1.00  0.00     0.053 C 
BRANCH   6   7
ATOM      7  C   UNL     1      35.501  30.665  24.830  1.00  0.00     0.041 C 
ATOM      8  O   UNL     1      35.127  31.831  25.125  1.00  0.00    -0.550 OA
ATOM      9  O   UNL     1      34.663  29.587  25.084  1.00  0.00    -0.550 OA
ENDBRANCH   6   7
ENDBRANCH   5   6
ENDBRANCH   4   5
ENDBRANCH   3   4
ENDBRANCH   2   3
ENDBRANCH   1   2
BRANCH   1  10
ATOM     10  C   UNL     1      35.973  26.884  18.807  1.00  0.00     0.000 C 
BRANCH  10  11
ATOM     11  C   UNL     1      36.099  28.238  18.084  1.00  0.00    -0.000 C 
BRANCH  11  12
ATOM     12  C   UNL     1      34.841  28.606  17.279  1.00  0.00    -0.000 C 
BRANCH  12  13
ATOM     13  C   UNL     1      35.166  29.023  15.834  1.00  0.00    -0.000 C 
BRANCH  13  14
ATOM     14  C   UNL     1      35.442  27.820  14.920  1.00  0.00    -0.000 C 
BRANCH  14  15
ATOM     15  C   UNL     1      34.254  27.559  13.985  1.00  0.00    -0.003 C 
ATOM     16  C   UNL     1      34.724  27.079  12.616  1.00  0.00     0.004 C 
ENDBRANCH  14  15
ENDBRANCH  13  14
ENDBRANCH  12  13
ENDBRANCH  11  12
ENDBRANCH  10  11
ENDBRANCH   1  10
TORSDOF 12
ENDMDL
