MODEL 1
REMARK VINA RESULT:    -5.476      0.000      0.000
REMARK INTER + INTRA:          -6.420
REMARK INTER:                  -6.277
REMARK INTRA:                  -0.143
REMARK UNBOUND:                -0.143
REMARK SMILES O=C([O-])C=Cc1ccc(O)cc1
REMARK SMILES IDX 6 1 7 2 12 3 8 4 11 5 9 6 5 7 4 8 2 9 1 10 3 11 10 12
REMARK H PARENT 10 13
REMARK Flexibility Score: inf
ROOT
ATOM      1  C   UNL     1       9.006   0.483  35.256  1.00  0.00    -0.025 A 
ATOM      2  C   UNL     1       9.996   1.141  36.015  1.00  0.00     0.012 A 
ATOM      3  C   UNL     1       9.392  -0.210  34.096  1.00  0.00     0.012 A 
ATOM      4  C   UNL     1      11.332   1.123  35.602  1.00  0.00     0.047 A 
ATOM      5  C   UNL     1      10.729  -0.224  33.686  1.00  0.00     0.047 A 
ATOM      6  C   UNL     1      11.702   0.444  34.439  1.00  0.00     0.115 A 
ENDROOT
BRANCH   1   7
ATOM      7  C   UNL     1       7.577   0.461  35.655  1.00  0.00     0.010 C 
ATOM      8  C   UNL     1       6.901  -0.659  35.942  1.00  0.00     0.025 C 
BRANCH   8   9
ATOM      9  C   UNL     1       5.486  -0.632  36.345  1.00  0.00     0.064 C 
ATOM     10  O   UNL     1       4.870   0.465  36.376  1.00  0.00    -0.545 OA
ATOM     11  O   UNL     1       4.816  -1.800  36.692  1.00  0.00    -0.545 OA
ENDBRANCH   8   9
ENDBRANCH   1   7
BRANCH   6  12
ATOM     12  O   UNL     1      13.037   0.437  34.040  1.00  0.00    -0.508 OA
ATOM     13  H   UNL     1      13.376   1.055  33.311  1.00  0.00     0.293 HD
ENDBRANCH   6  12
TORSDOF 3
ENDMDL
MODEL 2
REMARK VINA RESULT:    -5.421      0.330      1.436
REMARK INTER + INTRA:          -6.356
REMARK INTER:                  -6.215
REMARK INTRA:                  -0.141
REMARK UNBOUND:                -0.143
REMARK SMILES O=C([O-])C=Cc1ccc(O)cc1
REMARK SMILES IDX 6 1 7 2 12 3 8 4 11 5 9 6 5 7 4 8 2 9 1 10 3 11 10 12
REMARK H PARENT 10 13
REMARK Flexibility Score: inf
ROOT
ATOM      1  C   UNL     1       9.098   0.629  35.513  1.00  0.00    -0.025 A 
ATOM      2  C   UNL     1       9.520  -0.013  34.330  1.00  0.00     0.012 A 
ATOM      3  C   UNL     1      10.037   1.362  36.258  1.00  0.00     0.012 A 
ATOM      4  C   UNL     1      10.856   0.060  33.924  1.00  0.00     0.047 A 
ATOM      5  C   UNL     1      11.373   1.432  35.849  1.00  0.00     0.047 A 
ATOM      6  C   UNL     1      11.785   0.779  34.681  1.00  0.00     0.115 A 
ENDROOT
BRANCH   1   7
ATOM      7  C   UNL     1       7.691   0.593  35.983  1.00  0.00     0.010 C 
ATOM      8  C   UNL     1       6.880  -0.462  35.827  1.00  0.00     0.025 C 
BRANCH   8   9
ATOM      9  C   UNL     1       5.494  -0.457  36.321  1.00  0.00     0.064 C 
ATOM     10  O   UNL     1       4.858   0.628  36.376  1.00  0.00    -0.545 OA
ATOM     11  O   UNL     1       4.873  -1.632  36.728  1.00  0.00    -0.545 OA
ENDBRANCH   8   9
ENDBRANCH   1   7
BRANCH   6  12
ATOM     12  O   UNL     1      13.113   0.843  34.264  1.00  0.00    -0.508 OA
ATOM     13  H   UNL     1      13.376   1.299  33.398  1.00  0.00     0.293 HD
ENDBRANCH   6  12
TORSDOF 3
ENDMDL
MODEL 3
REMARK VINA RESULT:    -5.261      2.189      6.030
REMARK INTER + INTRA:          -6.173
REMARK INTER:                  -6.028
REMARK INTRA:                  -0.146
REMARK UNBOUND:                -0.143
REMARK SMILES O=C([O-])C=Cc1ccc(O)cc1
REMARK SMILES IDX 6 1 7 2 12 3 8 4 11 5 9 6 5 7 4 8 2 9 1 10 3 11 10 12
REMARK H PARENT 10 13
REMARK Flexibility Score: inf
ROOT
ATOM      1  C   UNL     1       6.735  -0.728  35.907  1.00  0.00    -0.025 A 
ATOM      2  C   UNL     1       6.707  -2.135  35.997  1.00  0.00     0.012 A 
ATOM      3  C   UNL     1       5.632   0.003  36.380  1.00  0.00     0.012 A 
ATOM      4  C   UNL     1       5.588  -2.788  36.524  1.00  0.00     0.047 A 
ATOM      5  C   UNL     1       4.514  -0.653  36.905  1.00  0.00     0.047 A 
ATOM      6  C   UNL     1       4.490  -2.051  36.977  1.00  0.00     0.115 A 
ENDROOT
BRANCH   1   7
ATOM      7  C   UNL     1       7.901   0.015  35.368  1.00  0.00     0.010 C 
ATOM      8  C   UNL     1       8.358   1.163  35.886  1.00  0.00     0.025 C 
BRANCH   8   9
ATOM      9  C   UNL     1       9.526   1.860  35.324  1.00  0.00     0.064 C 
ATOM     10  O   UNL     1      10.515   2.107  36.061  1.00  0.00    -0.545 OA
ATOM     11  O   UNL     1       9.555   2.252  33.991  1.00  0.00    -0.545 OA
ENDBRANCH   8   9
ENDBRANCH   1   7
BRANCH   6  12
ATOM     12  O   UNL     1       3.382  -2.716  37.498  1.00  0.00    -0.508 OA
ATOM     13  H   UNL     1       3.398  -3.127  38.425  1.00  0.00     0.293 HD
ENDBRANCH   6  12
TORSDOF 3
ENDMDL
MODEL 4
REMARK VINA RESULT:    -5.230      3.520      5.246
REMARK INTER + INTRA:          -6.138
REMARK INTER:                  -6.002
REMARK INTRA:                  -0.136
REMARK UNBOUND:                -0.143
REMARK SMILES O=C([O-])C=Cc1ccc(O)cc1
REMARK SMILES IDX 6 1 7 2 12 3 8 4 11 5 9 6 5 7 4 8 2 9 1 10 3 11 10 12
REMARK H PARENT 10 13
REMARK Flexibility Score: inf
ROOT
ATOM      1  C   UNL     1       5.187  -2.198  36.592  1.00  0.00    -0.025 A 
ATOM      2  C   UNL     1       4.738  -0.874  36.773  1.00  0.00     0.012 A 
ATOM      3  C   UNL     1       6.463  -2.412  36.046  1.00  0.00     0.012 A 
ATOM      4  C   UNL     1       5.544   0.204  36.392  1.00  0.00     0.047 A 
ATOM      5  C   UNL     1       7.266  -1.332  35.665  1.00  0.00     0.047 A 
ATOM      6  C   UNL     1       6.805  -0.021  35.836  1.00  0.00     0.115 A 
ENDROOT
BRANCH   1   7
ATOM      7  C   UNL     1       4.378  -3.377  36.990  1.00  0.00     0.010 C 
ATOM      8  C   UNL     1       4.070  -3.676  38.259  1.00  0.00     0.025 C 
BRANCH   8   9
ATOM      9  C   UNL     1       3.254  -4.850  38.606  1.00  0.00     0.064 C 
ATOM     10  O   UNL     1       3.641  -5.998  38.263  1.00  0.00    -0.545 OA
ATOM     11  O   UNL     1       2.061  -4.714  39.306  1.00  0.00    -0.545 OA
ENDBRANCH   8   9
ENDBRANCH   1   7
BRANCH   6  12
ATOM     12  O   UNL     1       7.596   1.063  35.460  1.00  0.00    -0.508 OA
ATOM     13  H   UNL     1       7.354   1.646  34.666  1.00  0.00     0.293 HD
ENDBRANCH   6  12
TORSDOF 3
ENDMDL
MODEL 5
REMARK VINA RESULT:    -5.149      1.563      6.226
REMARK INTER + INTRA:          -6.045
REMARK INTER:                  -5.902
REMARK INTRA:                  -0.143
REMARK UNBOUND:                -0.143
REMARK SMILES O=C([O-])C=Cc1ccc(O)cc1
REMARK SMILES IDX 6 1 7 2 12 3 8 4 11 5 9 6 5 7 4 8 2 9 1 10 3 11 10 12
REMARK H PARENT 10 13
REMARK Flexibility Score: inf
ROOT
ATOM      1  C   UNL     1       9.963   0.912  35.037  1.00  0.00    -0.025 A 
ATOM      2  C   UNL     1       9.038   0.066  34.391  1.00  0.00     0.012 A 
ATOM      3  C   UNL     1       9.547   1.630  36.171  1.00  0.00     0.012 A 
ATOM      4  C   UNL     1       7.725  -0.035  34.860  1.00  0.00     0.047 A 
ATOM      5  C   UNL     1       8.232   1.527  36.637  1.00  0.00     0.047 A 
ATOM      6  C   UNL     1       7.318   0.695  35.980  1.00  0.00     0.115 A 
ENDROOT
BRANCH   1   7
ATOM      7  C   UNL     1      11.371   1.048  34.588  1.00  0.00     0.010 C 
ATOM      8  C   UNL     1      11.935   2.213  34.244  1.00  0.00     0.025 C 
BRANCH   8   9
ATOM      9  C   UNL     1      13.340   2.301  33.816  1.00  0.00     0.064 C 
ATOM     10  O   UNL     1      13.975   1.248  33.550  1.00  0.00    -0.545 OA
ATOM     11  O   UNL     1      13.979   3.530  33.700  1.00  0.00    -0.545 OA
ENDBRANCH   8   9
ENDBRANCH   1   7
BRANCH   6  12
ATOM     12  O   UNL     1       6.005   0.585  36.435  1.00  0.00    -0.508 OA
ATOM     13  H   UNL     1       5.796   0.328  37.393  1.00  0.00     0.293 HD
ENDBRANCH   6  12
TORSDOF 3
ENDMDL
MODEL 6
REMARK VINA RESULT:    -5.073      2.681      6.865
REMARK INTER + INTRA:          -5.958
REMARK INTER:                  -5.817
REMARK INTRA:                  -0.142
REMARK UNBOUND:                -0.143
REMARK SMILES O=C([O-])C=Cc1ccc(O)cc1
REMARK SMILES IDX 6 1 7 2 12 3 8 4 11 5 9 6 5 7 4 8 2 9 1 10 3 11 10 12
REMARK H PARENT 10 13
REMARK Flexibility Score: inf
ROOT
ATOM      1  C   UNL     1       4.995  -0.678  36.703  1.00  0.00    -0.025 A 
ATOM      2  C   UNL     1       4.925  -2.086  36.758  1.00  0.00     0.012 A 
ATOM      3  C   UNL     1       4.008   0.075  37.362  1.00  0.00     0.012 A 
ATOM      4  C   UNL     1       3.877  -2.716  37.435  1.00  0.00     0.047 A 
ATOM      5  C   UNL     1       2.960  -0.560  38.038  1.00  0.00     0.047 A 
ATOM      6  C   UNL     1       2.893  -1.958  38.074  1.00  0.00     0.115 A 
ENDROOT
BRANCH   1   7
ATOM      7  C   UNL     1       6.091   0.041  36.008  1.00  0.00     0.010 C 
ATOM      8  C   UNL     1       7.253  -0.527  35.663  1.00  0.00     0.025 C 
BRANCH   8   9
ATOM      9  C   UNL     1       8.309   0.223  34.964  1.00  0.00     0.064 C 
ATOM     10  O   UNL     1       8.952  -0.330  34.033  1.00  0.00    -0.545 OA
ATOM     11  O   UNL     1       8.609   1.535  35.314  1.00  0.00    -0.545 OA
ENDBRANCH   8   9
ENDBRANCH   1   7
BRANCH   6  12
ATOM     12  O   UNL     1       1.854  -2.600  38.744  1.00  0.00    -0.508 OA
ATOM     13  H   UNL     1       2.011  -3.447  39.279  1.00  0.00     0.293 HD
ENDBRANCH   6  12
TORSDOF 3
ENDMDL
MODEL 7
REMARK VINA RESULT:    -5.024      5.546      8.083
REMARK INTER + INTRA:          -5.902
REMARK INTER:                  -5.768
REMARK INTRA:                  -0.134
REMARK UNBOUND:                -0.143
REMARK SMILES O=C([O-])C=Cc1ccc(O)cc1
REMARK SMILES IDX 6 1 7 2 12 3 8 4 11 5 9 6 5 7 4 8 2 9 1 10 3 11 10 12
REMARK H PARENT 10 13
REMARK Flexibility Score: inf
ROOT
ATOM      1  C   UNL     1       3.616  -2.698  38.117  1.00  0.00    -0.025 A 
ATOM      2  C   UNL     1       3.189  -1.355  38.170  1.00  0.00     0.012 A 
ATOM      3  C   UNL     1       3.426  -3.513  39.246  1.00  0.00     0.012 A 
ATOM      4  C   UNL     1       2.611  -0.841  39.334  1.00  0.00     0.047 A 
ATOM      5  C   UNL     1       2.849  -2.995  40.410  1.00  0.00     0.047 A 
ATOM      6  C   UNL     1       2.441  -1.656  40.456  1.00  0.00     0.115 A 
ENDROOT
BRANCH   1   7
ATOM      7  C   UNL     1       4.225  -3.297  36.903  1.00  0.00     0.010 C 
ATOM      8  C   UNL     1       5.545  -3.427  36.719  1.00  0.00     0.025 C 
BRANCH   8   9
ATOM      9  C   UNL     1       6.104  -4.039  35.503  1.00  0.00     0.064 C 
ATOM     10  O   UNL     1       6.442  -3.304  34.538  1.00  0.00    -0.545 OA
ATOM     11  O   UNL     1       6.264  -5.416  35.400  1.00  0.00    -0.545 OA
ENDBRANCH   8   9
ENDBRANCH   1   7
BRANCH   6  12
ATOM     12  O   UNL     1       1.864  -1.130  41.610  1.00  0.00    -0.508 OA
ATOM     13  H   UNL     1       1.201  -0.364  41.569  1.00  0.00     0.293 HD
ENDBRANCH   6  12
TORSDOF 3
ENDMDL
MODEL 8
REMARK VINA RESULT:    -5.018      2.841      6.145
REMARK INTER + INTRA:          -5.894
REMARK INTER:                  -5.757
REMARK INTRA:                  -0.138
REMARK UNBOUND:                -0.143
REMARK SMILES O=C([O-])C=Cc1ccc(O)cc1
REMARK SMILES IDX 6 1 7 2 12 3 8 4 11 5 9 6 5 7 4 8 2 9 1 10 3 11 10 12
REMARK H PARENT 10 13
REMARK Flexibility Score: inf
ROOT
ATOM      1  C   UNL     1      10.173   1.719  34.518  1.00  0.00    -0.025 A 
ATOM      2  C   UNL     1       9.994   0.633  33.636  1.00  0.00     0.012 A 
ATOM      3  C   UNL     1       9.450   1.739  35.723  1.00  0.00     0.012 A 
ATOM      4  C   UNL     1       9.094  -0.391  33.949  1.00  0.00     0.047 A 
ATOM      5  C   UNL     1       8.550   0.714  36.031  1.00  0.00     0.047 A 
ATOM      6  C   UNL     1       8.370  -0.353  35.142  1.00  0.00     0.115 A 
ENDROOT
BRANCH   1   7
ATOM      7  C   UNL     1      11.123   2.825  34.241  1.00  0.00     0.010 C 
ATOM      8  C   UNL     1      11.321   3.350  33.025  1.00  0.00     0.025 C 
BRANCH   8   9
ATOM      9  C   UNL     1      12.266   4.455  32.799  1.00  0.00     0.064 C 
ATOM     10  O   UNL     1      11.934   5.629  33.109  1.00  0.00    -0.545 OA
ATOM     11  O   UNL     1      13.521   4.225  32.246  1.00  0.00    -0.545 OA
ENDBRANCH   8   9
ENDBRANCH   1   7
BRANCH   6  12
ATOM     12  O   UNL     1       7.476  -1.380  35.439  1.00  0.00    -0.508 OA
ATOM     13  H   UNL     1       6.685  -1.233  36.056  1.00  0.00     0.293 HD
ENDBRANCH   6  12
TORSDOF 3
ENDMDL
MODEL 9
REMARK VINA RESULT:    -4.994      1.576      2.106
REMARK INTER + INTRA:          -5.868
REMARK INTER:                  -5.732
REMARK INTRA:                  -0.136
REMARK UNBOUND:                -0.143
REMARK SMILES O=C([O-])C=Cc1ccc(O)cc1
REMARK SMILES IDX 6 1 7 2 12 3 8 4 11 5 9 6 5 7 4 8 2 9 1 10 3 11 10 12
REMARK H PARENT 10 13
REMARK Flexibility Score: inf
ROOT
ATOM      1  C   UNL     1      10.071   1.424  35.333  1.00  0.00    -0.025 A 
ATOM      2  C   UNL     1      10.075   2.228  34.175  1.00  0.00     0.012 A 
ATOM      3  C   UNL     1      11.293   1.153  35.974  1.00  0.00     0.012 A 
ATOM      4  C   UNL     1      11.277   2.724  33.662  1.00  0.00     0.047 A 
ATOM      5  C   UNL     1      12.493   1.651  35.457  1.00  0.00     0.047 A 
ATOM      6  C   UNL     1      12.487   2.436  34.298  1.00  0.00     0.115 A 
ENDROOT
BRANCH   1   7
ATOM      7  C   UNL     1       8.823   0.881  35.926  1.00  0.00     0.010 C 
ATOM      8  C   UNL     1       7.964   0.097  35.263  1.00  0.00     0.025 C 
BRANCH   8   9
ATOM      9  C   UNL     1       6.743  -0.428  35.895  1.00  0.00     0.064 C 
ATOM     10  O   UNL     1       5.884   0.373  36.347  1.00  0.00    -0.545 OA
ATOM     11  O   UNL     1       6.522  -1.796  36.003  1.00  0.00    -0.545 OA
ENDBRANCH   8   9
ENDBRANCH   1   7
BRANCH   6  12
ATOM     12  O   UNL     1      13.678   2.937  33.775  1.00  0.00    -0.508 OA
ATOM     13  H   UNL     1      14.474   3.141  34.368  1.00  0.00     0.293 HD
ENDBRANCH   6  12
TORSDOF 3
ENDMDL
