MODEL 1
REMARK VINA RESULT:    -4.502      0.000      0.000
REMARK INTER + INTRA:          -5.298
REMARK INTER:                  -5.160
REMARK INTRA:                  -0.138
REMARK UNBOUND:                -0.138
REMARK SMILES O=C([O-])C=Cc1ccc(O)cc1
REMARK SMILES IDX 6 1 7 2 12 3 8 4 11 5 9 6 5 7 4 8 2 9 1 10 3 11 10 12
REMARK H PARENT 10 13
REMARK Flexibility Score: inf
ROOT
ATOM      1  C   UNL     1      27.748  37.312  20.365  1.00  0.00    -0.025 A 
ATOM      2  C   UNL     1      28.893  36.964  19.616  1.00  0.00     0.012 A 
ATOM      3  C   UNL     1      26.815  38.199  19.803  1.00  0.00     0.012 A 
ATOM      4  C   UNL     1      29.101  37.514  18.348  1.00  0.00     0.047 A 
ATOM      5  C   UNL     1      27.029  38.747  18.535  1.00  0.00     0.047 A 
ATOM      6  C   UNL     1      28.171  38.408  17.805  1.00  0.00     0.115 A 
ENDROOT
BRANCH   1   7
ATOM      7  C   UNL     1      27.472  36.749  21.710  1.00  0.00     0.010 C 
ATOM      8  C   UNL     1      27.883  35.537  22.110  1.00  0.00     0.025 C 
BRANCH   8   9
ATOM      9  C   UNL     1      27.599  35.016  23.458  1.00  0.00     0.064 C 
ATOM     10  O   UNL     1      27.755  33.796  23.733  1.00  0.00    -0.545 OA
ATOM     11  O   UNL     1      27.154  35.886  24.444  1.00  0.00    -0.545 OA
ENDBRANCH   8   9
ENDBRANCH   1   7
BRANCH   6  12
ATOM     12  O   UNL     1      28.371  38.963  16.542  1.00  0.00    -0.508 OA
ATOM     13  H   UNL     1      27.901  38.595  15.722  1.00  0.00     0.293 HD
ENDBRANCH   6  12
TORSDOF 3
ENDMDL
MODEL 2
REMARK VINA RESULT:    -4.467      0.188      1.408
REMARK INTER + INTRA:          -5.259
REMARK INTER:                  -5.108
REMARK INTRA:                  -0.151
REMARK UNBOUND:                -0.138
REMARK SMILES O=C([O-])C=Cc1ccc(O)cc1
REMARK SMILES IDX 6 1 7 2 12 3 8 4 11 5 9 6 5 7 4 8 2 9 1 10 3 11 10 12
REMARK H PARENT 10 13
REMARK Flexibility Score: inf
ROOT
ATOM      1  C   UNL     1      27.497  37.320  20.422  1.00  0.00    -0.025 A 
ATOM      2  C   UNL     1      26.602  38.206  19.786  1.00  0.00     0.012 A 
ATOM      3  C   UNL     1      28.707  37.003  19.781  1.00  0.00     0.012 A 
ATOM      4  C   UNL     1      26.908  38.737  18.529  1.00  0.00     0.047 A 
ATOM      5  C   UNL     1      29.006  37.536  18.524  1.00  0.00     0.047 A 
ATOM      6  C   UNL     1      28.109  38.402  17.894  1.00  0.00     0.115 A 
ENDROOT
BRANCH   1   7
ATOM      7  C   UNL     1      27.229  36.737  21.760  1.00  0.00     0.010 C 
ATOM      8  C   UNL     1      27.864  35.659  22.243  1.00  0.00     0.025 C 
BRANCH   8   9
ATOM      9  C   UNL     1      27.578  35.115  23.582  1.00  0.00     0.064 C 
ATOM     10  O   UNL     1      27.714  33.887  23.830  1.00  0.00    -0.545 OA
ATOM     11  O   UNL     1      27.155  35.971  24.590  1.00  0.00    -0.545 OA
ENDBRANCH   8   9
ENDBRANCH   1   7
BRANCH   6  12
ATOM     12  O   UNL     1      28.421  38.924  16.640  1.00  0.00    -0.508 OA
ATOM     13  H   UNL     1      28.287  39.906  16.428  1.00  0.00     0.293 HD
ENDBRANCH   6  12
TORSDOF 3
ENDMDL
MODEL 3
REMARK VINA RESULT:    -4.378      2.551      5.388
REMARK INTER + INTRA:          -5.156
REMARK INTER:                  -5.013
REMARK INTRA:                  -0.143
REMARK UNBOUND:                -0.138
REMARK SMILES O=C([O-])C=Cc1ccc(O)cc1
REMARK SMILES IDX 6 1 7 2 12 3 8 4 11 5 9 6 5 7 4 8 2 9 1 10 3 11 10 12
REMARK H PARENT 10 13
REMARK Flexibility Score: inf
ROOT
ATOM      1  C   UNL     1      27.990  35.729  21.600  1.00  0.00    -0.025 A 
ATOM      2  C   UNL     1      27.963  35.106  22.865  1.00  0.00     0.012 A 
ATOM      3  C   UNL     1      28.382  34.974  20.481  1.00  0.00     0.012 A 
ATOM      4  C   UNL     1      28.341  33.767  23.001  1.00  0.00     0.047 A 
ATOM      5  C   UNL     1      28.761  33.636  20.623  1.00  0.00     0.047 A 
ATOM      6  C   UNL     1      28.744  33.029  21.881  1.00  0.00     0.115 A 
ENDROOT
BRANCH   1   7
ATOM      7  C   UNL     1      27.588  37.143  21.397  1.00  0.00     0.010 C 
ATOM      8  C   UNL     1      26.745  37.546  20.435  1.00  0.00     0.025 C 
BRANCH   8   9
ATOM      9  C   UNL     1      26.359  38.959  20.271  1.00  0.00     0.064 C 
ATOM     10  O   UNL     1      26.867  39.672  19.365  1.00  0.00    -0.545 OA
ATOM     11  O   UNL     1      25.417  39.512  21.128  1.00  0.00    -0.545 OA
ENDBRANCH   8   9
ENDBRANCH   1   7
BRANCH   6  12
ATOM     12  O   UNL     1      29.125  31.695  22.007  1.00  0.00    -0.508 OA
ATOM     13  H   UNL     1      29.533  31.340  22.865  1.00  0.00     0.293 HD
ENDBRANCH   6  12
TORSDOF 3
ENDMDL
MODEL 4
REMARK VINA RESULT:    -4.264      2.036      5.682
REMARK INTER + INTRA:          -5.025
REMARK INTER:                  -4.886
REMARK INTRA:                  -0.139
REMARK UNBOUND:                -0.138
REMARK SMILES O=C([O-])C=Cc1ccc(O)cc1
REMARK SMILES IDX 6 1 7 2 12 3 8 4 11 5 9 6 5 7 4 8 2 9 1 10 3 11 10 12
REMARK H PARENT 10 13
REMARK Flexibility Score: inf
ROOT
ATOM      1  C   UNL     1      27.943  35.542  21.651  1.00  0.00    -0.025 A 
ATOM      2  C   UNL     1      28.572  34.387  21.140  1.00  0.00     0.012 A 
ATOM      3  C   UNL     1      27.524  35.548  22.992  1.00  0.00     0.012 A 
ATOM      4  C   UNL     1      28.752  33.263  21.952  1.00  0.00     0.047 A 
ATOM      5  C   UNL     1      27.704  34.420  23.799  1.00  0.00     0.047 A 
ATOM      6  C   UNL     1      28.316  33.275  23.282  1.00  0.00     0.115 A 
ENDROOT
BRANCH   1   7
ATOM      7  C   UNL     1      27.738  36.766  20.838  1.00  0.00     0.010 C 
ATOM      8  C   UNL     1      26.537  37.317  20.611  1.00  0.00     0.025 C 
BRANCH   8   9
ATOM      9  C   UNL     1      26.374  38.541  19.808  1.00  0.00     0.064 C 
ATOM     10  O   UNL     1      26.595  38.542  18.567  1.00  0.00    -0.545 OA
ATOM     11  O   UNL     1      25.966  39.714  20.428  1.00  0.00    -0.545 OA
ENDBRANCH   8   9
ENDBRANCH   1   7
BRANCH   6  12
ATOM     12  O   UNL     1      28.488  32.159  24.098  1.00  0.00    -0.508 OA
ATOM     13  H   UNL     1      29.128  31.414  23.847  1.00  0.00     0.293 HD
ENDBRANCH   6  12
TORSDOF 3
ENDMDL
MODEL 5
REMARK VINA RESULT:    -4.210      3.474      5.294
REMARK INTER + INTRA:          -4.963
REMARK INTER:                  -4.825
REMARK INTRA:                  -0.138
REMARK UNBOUND:                -0.138
REMARK SMILES O=C([O-])C=Cc1ccc(O)cc1
REMARK SMILES IDX 6 1 7 2 12 3 8 4 11 5 9 6 5 7 4 8 2 9 1 10 3 11 10 12
REMARK H PARENT 10 13
REMARK Flexibility Score: inf
ROOT
ATOM      1  C   UNL     1      28.452  33.257  23.317  1.00  0.00    -0.025 A 
ATOM      2  C   UNL     1      27.905  34.505  23.684  1.00  0.00     0.012 A 
ATOM      3  C   UNL     1      28.761  33.024  21.966  1.00  0.00     0.012 A 
ATOM      4  C   UNL     1      27.654  35.479  22.713  1.00  0.00     0.047 A 
ATOM      5  C   UNL     1      28.506  34.001  20.999  1.00  0.00     0.047 A 
ATOM      6  C   UNL     1      27.952  35.229  21.368  1.00  0.00     0.115 A 
ENDROOT
BRANCH   1   7
ATOM      7  C   UNL     1      28.749  32.193  24.307  1.00  0.00     0.010 C 
ATOM      8  C   UNL     1      28.108  31.016  24.351  1.00  0.00     0.025 C 
BRANCH   8   9
ATOM      9  C   UNL     1      28.438  29.978  25.342  1.00  0.00     0.064 C 
ATOM     10  O   UNL     1      28.359  28.753  25.055  1.00  0.00    -0.545 OA
ATOM     11  O   UNL     1      28.847  30.355  26.614  1.00  0.00    -0.545 OA
ENDBRANCH   8   9
ENDBRANCH   1   7
BRANCH   6  12
ATOM     12  O   UNL     1      27.703  36.193  20.393  1.00  0.00    -0.508 OA
ATOM     13  H   UNL     1      28.284  36.271  19.566  1.00  0.00     0.293 HD
ENDBRANCH   6  12
TORSDOF 3
ENDMDL
MODEL 6
REMARK VINA RESULT:    -4.101      5.170      9.355
REMARK INTER + INTRA:          -4.839
REMARK INTER:                  -4.703
REMARK INTRA:                  -0.136
REMARK UNBOUND:                -0.138
REMARK SMILES O=C([O-])C=Cc1ccc(O)cc1
REMARK SMILES IDX 6 1 7 2 12 3 8 4 11 5 9 6 5 7 4 8 2 9 1 10 3 11 10 12
REMARK H PARENT 10 13
REMARK Flexibility Score: inf
ROOT
ATOM      1  C   UNL     1      28.348  30.412  24.899  1.00  0.00    -0.025 A 
ATOM      2  C   UNL     1      29.077  30.375  26.105  1.00  0.00     0.012 A 
ATOM      3  C   UNL     1      27.262  29.534  24.736  1.00  0.00     0.012 A 
ATOM      4  C   UNL     1      28.737  29.463  27.109  1.00  0.00     0.047 A 
ATOM      5  C   UNL     1      26.927  28.623  25.743  1.00  0.00     0.047 A 
ATOM      6  C   UNL     1      27.663  28.583  26.929  1.00  0.00     0.115 A 
ENDROOT
BRANCH   1   7
ATOM      7  C   UNL     1      28.657  31.367  23.806  1.00  0.00     0.010 C 
ATOM      8  C   UNL     1      28.322  32.665  23.833  1.00  0.00     0.025 C 
BRANCH   8   9
ATOM      9  C   UNL     1      28.657  33.586  22.734  1.00  0.00     0.064 C 
ATOM     10  O   UNL     1      28.703  33.187  21.539  1.00  0.00    -0.545 OA
ATOM     11  O   UNL     1      28.925  34.919  23.019  1.00  0.00    -0.545 OA
ENDBRANCH   8   9
ENDBRANCH   1   7
BRANCH   6  12
ATOM     12  O   UNL     1      27.318  27.670  27.923  1.00  0.00    -0.508 OA
ATOM     13  H   UNL     1      26.376  27.304  28.002  1.00  0.00     0.293 HD
ENDBRANCH   6  12
TORSDOF 3
ENDMDL
MODEL 7
REMARK VINA RESULT:    -3.976      6.838      9.035
REMARK INTER + INTRA:          -4.695
REMARK INTER:                  -4.558
REMARK INTRA:                  -0.137
REMARK UNBOUND:                -0.138
REMARK SMILES O=C([O-])C=Cc1ccc(O)cc1
REMARK SMILES IDX 6 1 7 2 12 3 8 4 11 5 9 6 5 7 4 8 2 9 1 10 3 11 10 12
REMARK H PARENT 10 13
REMARK Flexibility Score: inf
ROOT
ATOM      1  C   UNL     1      28.906  29.951  25.541  1.00  0.00    -0.025 A 
ATOM      2  C   UNL     1      28.925  29.127  24.396  1.00  0.00     0.012 A 
ATOM      3  C   UNL     1      28.939  31.346  25.372  1.00  0.00     0.012 A 
ATOM      4  C   UNL     1      29.000  29.693  23.120  1.00  0.00     0.047 A 
ATOM      5  C   UNL     1      29.015  31.906  24.094  1.00  0.00     0.047 A 
ATOM      6  C   UNL     1      29.048  31.083  22.966  1.00  0.00     0.115 A 
ENDROOT
BRANCH   1   7
ATOM      7  C   UNL     1      28.815  29.404  26.918  1.00  0.00     0.010 C 
ATOM      8  C   UNL     1      27.927  28.472  27.292  1.00  0.00     0.025 C 
BRANCH   8   9
ATOM      9  C   UNL     1      27.875  27.944  28.667  1.00  0.00     0.064 C 
ATOM     10  O   UNL     1      26.983  28.318  29.475  1.00  0.00    -0.545 OA
ATOM     11  O   UNL     1      28.823  27.018  29.078  1.00  0.00    -0.545 OA
ENDBRANCH   8   9
ENDBRANCH   1   7
BRANCH   6  12
ATOM     12  O   UNL     1      29.125  31.656  21.697  1.00  0.00    -0.508 OA
ATOM     13  H   UNL     1      29.927  32.208  21.414  1.00  0.00     0.293 HD
ENDBRANCH   6  12
TORSDOF 3
ENDMDL
MODEL 8
REMARK VINA RESULT:    -3.927      8.012     10.680
REMARK INTER + INTRA:          -4.639
REMARK INTER:                  -4.505
REMARK INTRA:                  -0.134
REMARK UNBOUND:                -0.138
REMARK SMILES O=C([O-])C=Cc1ccc(O)cc1
REMARK SMILES IDX 6 1 7 2 12 3 8 4 11 5 9 6 5 7 4 8 2 9 1 10 3 11 10 12
REMARK H PARENT 10 13
REMARK Flexibility Score: inf
ROOT
ATOM      1  C   UNL     1      27.653  28.614  26.718  1.00  0.00    -0.025 A 
ATOM      2  C   UNL     1      28.705  29.486  27.069  1.00  0.00     0.012 A 
ATOM      3  C   UNL     1      27.026  28.778  25.470  1.00  0.00     0.012 A 
ATOM      4  C   UNL     1      29.097  30.507  26.199  1.00  0.00     0.047 A 
ATOM      5  C   UNL     1      27.420  29.803  24.605  1.00  0.00     0.047 A 
ATOM      6  C   UNL     1      28.454  30.670  24.966  1.00  0.00     0.115 A 
ENDROOT
BRANCH   1   7
ATOM      7  C   UNL     1      27.205  27.506  27.597  1.00  0.00     0.010 C 
ATOM      8  C   UNL     1      26.605  27.692  28.782  1.00  0.00     0.025 C 
BRANCH   8   9
ATOM      9  C   UNL     1      26.163  26.566  29.624  1.00  0.00     0.064 C 
ATOM     10  O   UNL     1      25.406  25.669  29.167  1.00  0.00    -0.545 OA
ATOM     11  O   UNL     1      26.591  26.493  30.943  1.00  0.00    -0.545 OA
ENDBRANCH   8   9
ENDBRANCH   1   7
BRANCH   6  12
ATOM     12  O   UNL     1      28.836  31.687  24.093  1.00  0.00    -0.508 OA
ATOM     13  H   UNL     1      29.812  31.916  23.943  1.00  0.00     0.293 HD
ENDBRANCH   6  12
TORSDOF 3
ENDMDL
MODEL 9
REMARK VINA RESULT:    -3.805      7.727     11.513
REMARK INTER + INTRA:          -4.500
REMARK INTER:                  -4.356
REMARK INTRA:                  -0.144
REMARK UNBOUND:                -0.138
REMARK SMILES O=C([O-])C=Cc1ccc(O)cc1
REMARK SMILES IDX 6 1 7 2 12 3 8 4 11 5 9 6 5 7 4 8 2 9 1 10 3 11 10 12
REMARK H PARENT 10 13
REMARK Flexibility Score: inf
ROOT
ATOM      1  C   UNL     1      28.037  28.846  27.077  1.00  0.00    -0.025 A 
ATOM      2  C   UNL     1      28.430  29.218  28.380  1.00  0.00     0.012 A 
ATOM      3  C   UNL     1      26.929  27.995  26.921  1.00  0.00     0.012 A 
ATOM      4  C   UNL     1      27.741  28.728  29.493  1.00  0.00     0.047 A 
ATOM      5  C   UNL     1      26.245  27.506  28.038  1.00  0.00     0.047 A 
ATOM      6  C   UNL     1      26.648  27.868  29.325  1.00  0.00     0.115 A 
ENDROOT
BRANCH   1   7
ATOM      7  C   UNL     1      28.724  29.346  25.861  1.00  0.00     0.010 C 
ATOM      8  C   UNL     1      28.081  29.777  24.766  1.00  0.00     0.025 C 
BRANCH   8   9
ATOM      9  C   UNL     1      28.798  30.278  23.580  1.00  0.00     0.064 C 
ATOM     10  O   UNL     1      29.119  29.506  22.637  1.00  0.00    -0.545 OA
ATOM     11  O   UNL     1      29.125  31.625  23.500  1.00  0.00    -0.545 OA
ENDBRANCH   8   9
ENDBRANCH   1   7
BRANCH   6  12
ATOM     12  O   UNL     1      25.957  27.373  30.429  1.00  0.00    -0.508 OA
ATOM     13  H   UNL     1      25.036  27.718  30.674  1.00  0.00     0.293 HD
ENDBRANCH   6  12
TORSDOF 3
ENDMDL
