MODEL 1
REMARK VINA RESULT:    -7.030      0.000      0.000
REMARK INTER + INTRA:          -8.801
REMARK INTER:                  -8.674
REMARK INTRA:                  -0.126
REMARK UNBOUND:                -0.126
REMARK SMILES Oc1cc(O)c2cc(O)c(-c3cc(O)c(O)c(O)c3)[o+]c2c1
REMARK SMILES IDX 10 1 20 2 21 3 22 4 2 5 3 6 4 7 6 8 7 9 8 10 11 11 12 12
REMARK SMILES IDX 13 13 19 14 15 15 17 16 14 17 16 19 18 21 9 23 1 25 5 27
REMARK H PARENT 14 18 16 20 18 22 9 24 1 26 5 28
REMARK Flexibility Score: inf
ROOT
ATOM      1  C   UNL     1       6.327  43.006  37.756  1.00  0.00     0.402 A 
ATOM      2  O   UNL     1       6.610  42.905  36.459  1.00  0.00    -0.202 OA
ATOM      3  C   UNL     1       7.095  41.800  35.903  1.00  0.00     0.368 A 
ATOM      4  C   UNL     1       7.364  41.791  34.531  1.00  0.00     0.162 A 
ATOM      5  C   UNL     1       7.876  40.646  33.920  1.00  0.00     0.128 A 
ATOM      6  C   UNL     1       8.124  39.500  34.683  1.00  0.00     0.093 A 
ATOM      7  C   UNL     1       7.862  39.483  36.060  1.00  0.00     0.136 A 
ATOM      8  C   UNL     1       7.339  40.645  36.685  1.00  0.00     0.125 A 
ATOM      9  C   UNL     1       7.035  40.714  38.054  1.00  0.00     0.078 A 
ATOM     10  C   UNL     1       6.517  41.894  38.597  1.00  0.00     0.223 A 
ENDROOT
BRANCH   1  11
ATOM     11  C   UNL     1       5.800  44.295  38.259  1.00  0.00     0.091 A 
ATOM     12  C   UNL     1       4.574  44.367  38.940  1.00  0.00     0.068 A 
ATOM     13  C   UNL     1       4.102  45.594  39.428  1.00  0.00     0.162 A 
ATOM     14  C   UNL     1       6.566  45.461  38.104  1.00  0.00     0.068 A 
ATOM     15  C   UNL     1       4.861  46.757  39.249  1.00  0.00     0.200 A 
ATOM     16  C   UNL     1       6.098  46.691  38.588  1.00  0.00     0.162 A 
BRANCH  13  17
ATOM     17  O   UNL     1       2.881  45.663  40.098  1.00  0.00    -0.504 OA
ATOM     18  H   UNL     1       2.175  44.945  39.987  1.00  0.00     0.293 HD
ENDBRANCH  13  17
BRANCH  15  19
ATOM     19  O   UNL     1       4.374  47.970  39.738  1.00  0.00    -0.502 OA
ATOM     20  H   UNL     1       4.456  48.230  40.714  1.00  0.00     0.293 HD
ENDBRANCH  15  19
BRANCH  16  21
ATOM     21  O   UNL     1       6.861  47.845  38.415  1.00  0.00    -0.504 OA
ATOM     22  H   UNL     1       7.739  47.831  37.909  1.00  0.00     0.293 HD
ENDBRANCH  16  21
ENDBRANCH   1  11
BRANCH  10  23
ATOM     23  O   UNL     1       6.168  41.948  39.947  1.00  0.00    -0.500 OA
ATOM     24  H   UNL     1       6.532  41.282  40.618  1.00  0.00     0.294 HD
ENDBRANCH  10  23
BRANCH   5  25
ATOM     25  O   UNL     1       8.138  40.657  32.552  1.00  0.00    -0.507 OA
ATOM     26  H   UNL     1       9.054  40.892  32.190  1.00  0.00     0.293 HD
ENDBRANCH   5  25
BRANCH   7  27
ATOM     27  O   UNL     1       8.139  38.301  36.753  1.00  0.00    -0.507 OA
ATOM     28  H   UNL     1       8.078  38.199  37.755  1.00  0.00     0.293 HD
ENDBRANCH   7  27
TORSDOF 7
ENDMDL
MODEL 2
REMARK VINA RESULT:    -6.737      1.257      7.084
REMARK INTER + INTRA:          -8.439
REMARK INTER:                  -8.069
REMARK INTRA:                  -0.370
REMARK UNBOUND:                -0.126
REMARK SMILES Oc1cc(O)c2cc(O)c(-c3cc(O)c(O)c(O)c3)[o+]c2c1
REMARK SMILES IDX 10 1 20 2 21 3 22 4 2 5 3 6 4 7 6 8 7 9 8 10 11 11 12 12
REMARK SMILES IDX 13 13 19 14 15 15 17 16 14 17 16 19 18 21 9 23 1 25 5 27
REMARK H PARENT 14 18 16 20 18 22 9 24 1 26 5 28
REMARK Flexibility Score: inf
ROOT
ATOM      1  C   UNL     1       6.106  43.034  37.305  1.00  0.00     0.402 A 
ATOM      2  O   UNL     1       6.875  44.112  37.444  1.00  0.00    -0.202 OA
ATOM      3  C   UNL     1       6.503  45.190  38.127  1.00  0.00     0.368 A 
ATOM      4  C   UNL     1       7.379  46.275  38.214  1.00  0.00     0.162 A 
ATOM      5  C   UNL     1       7.015  47.421  38.922  1.00  0.00     0.128 A 
ATOM      6  C   UNL     1       5.765  47.486  39.548  1.00  0.00     0.093 A 
ATOM      7  C   UNL     1       4.869  46.411  39.476  1.00  0.00     0.136 A 
ATOM      8  C   UNL     1       5.237  45.243  38.758  1.00  0.00     0.125 A 
ATOM      9  C   UNL     1       4.409  44.114  38.645  1.00  0.00     0.078 A 
ATOM     10  C   UNL     1       4.843  42.997  37.925  1.00  0.00     0.223 A 
ENDROOT
BRANCH   1  11
ATOM     11  C   UNL     1       6.629  41.899  36.511  1.00  0.00     0.091 A 
ATOM     12  C   UNL     1       6.514  41.873  35.111  1.00  0.00     0.068 A 
ATOM     13  C   UNL     1       7.036  40.800  34.374  1.00  0.00     0.162 A 
ATOM     14  C   UNL     1       7.304  40.855  37.161  1.00  0.00     0.068 A 
ATOM     15  C   UNL     1       7.688  39.750  35.032  1.00  0.00     0.200 A 
ATOM     16  C   UNL     1       7.826  39.779  36.430  1.00  0.00     0.162 A 
BRANCH  13  17
ATOM     17  O   UNL     1       6.915  40.775  32.986  1.00  0.00    -0.504 OA
ATOM     18  H   UNL     1       6.851  41.628  32.443  1.00  0.00     0.293 HD
ENDBRANCH  13  17
BRANCH  15  19
ATOM     19  O   UNL     1       8.198  38.689  34.284  1.00  0.00    -0.502 OA
ATOM     20  H   UNL     1       9.094  38.740  33.815  1.00  0.00     0.293 HD
ENDBRANCH  15  19
BRANCH  16  21
ATOM     21  O   UNL     1       8.482  38.739  37.088  1.00  0.00    -0.504 OA
ATOM     22  H   UNL     1       8.894  37.965  36.580  1.00  0.00     0.293 HD
ENDBRANCH  16  21
ENDBRANCH   1  11
BRANCH  10  23
ATOM     23  O   UNL     1       4.042  41.857  37.853  1.00  0.00    -0.500 OA
ATOM     24  H   UNL     1       4.427  40.949  37.619  1.00  0.00     0.294 HD
ENDBRANCH  10  23
BRANCH   5  25
ATOM     25  O   UNL     1       7.902  48.493  38.997  1.00  0.00    -0.507 OA
ATOM     26  H   UNL     1       7.672  49.334  39.511  1.00  0.00     0.293 HD
ENDBRANCH   5  25
BRANCH   7  27
ATOM     27  O   UNL     1       3.639  46.554  40.125  1.00  0.00    -0.507 OA
ATOM     28  H   UNL     1       3.187  45.826  40.658  1.00  0.00     0.293 HD
ENDBRANCH   7  27
TORSDOF 7
ENDMDL
MODEL 3
REMARK VINA RESULT:    -6.484      4.364      7.402
REMARK INTER + INTRA:          -8.127
REMARK INTER:                  -7.776
REMARK INTRA:                  -0.350
REMARK UNBOUND:                -0.126
REMARK SMILES Oc1cc(O)c2cc(O)c(-c3cc(O)c(O)c(O)c3)[o+]c2c1
REMARK SMILES IDX 10 1 20 2 21 3 22 4 2 5 3 6 4 7 6 8 7 9 8 10 11 11 12 12
REMARK SMILES IDX 13 13 19 14 15 15 17 16 14 17 16 19 18 21 9 23 1 25 5 27
REMARK H PARENT 14 18 16 20 18 22 9 24 1 26 5 28
REMARK Flexibility Score: inf
ROOT
ATOM      1  C   UNL     1       8.059  46.424  35.787  1.00  0.00     0.402 A 
ATOM      2  O   UNL     1       7.479  47.253  36.652  1.00  0.00    -0.202 OA
ATOM      3  C   UNL     1       6.527  46.875  37.498  1.00  0.00     0.368 A 
ATOM      4  C   UNL     1       5.975  47.819  38.367  1.00  0.00     0.162 A 
ATOM      5  C   UNL     1       4.971  47.452  39.264  1.00  0.00     0.128 A 
ATOM      6  C   UNL     1       4.513  46.130  39.294  1.00  0.00     0.093 A 
ATOM      7  C   UNL     1       5.051  45.164  38.433  1.00  0.00     0.136 A 
ATOM      8  C   UNL     1       6.072  45.534  37.521  1.00  0.00     0.125 A 
ATOM      9  C   UNL     1       6.677  44.630  36.632  1.00  0.00     0.078 A 
ATOM     10  C   UNL     1       7.683  45.068  35.765  1.00  0.00     0.223 A 
ENDROOT
BRANCH   1  11
ATOM     11  C   UNL     1       9.102  46.968  34.888  1.00  0.00     0.091 A 
ATOM     12  C   UNL     1       8.766  47.704  33.740  1.00  0.00     0.068 A 
ATOM     13  C   UNL     1       9.768  48.231  32.913  1.00  0.00     0.162 A 
ATOM     14  C   UNL     1      10.456  46.796  35.217  1.00  0.00     0.068 A 
ATOM     15  C   UNL     1      11.117  48.035  33.236  1.00  0.00     0.200 A 
ATOM     16  C   UNL     1      11.462  47.319  34.393  1.00  0.00     0.162 A 
BRANCH  13  17
ATOM     17  O   UNL     1       9.430  48.955  31.771  1.00  0.00    -0.504 OA
ATOM     18  H   UNL     1       8.968  48.517  30.983  1.00  0.00     0.293 HD
ENDBRANCH  13  17
BRANCH  15  19
ATOM     19  O   UNL     1      12.101  48.563  32.399  1.00  0.00    -0.502 OA
ATOM     20  H   UNL     1      13.084  48.354  32.524  1.00  0.00     0.293 HD
ENDBRANCH  15  19
BRANCH  16  21
ATOM     21  O   UNL     1      12.803  47.129  34.723  1.00  0.00    -0.504 OA
ATOM     22  H   UNL     1      13.423  46.583  34.135  1.00  0.00     0.293 HD
ENDBRANCH  16  21
ENDBRANCH   1  11
BRANCH  10  23
ATOM     23  O   UNL     1       8.318  44.161  34.916  1.00  0.00    -0.500 OA
ATOM     24  H   UNL     1       9.117  43.617  35.219  1.00  0.00     0.294 HD
ENDBRANCH  10  23
BRANCH   5  25
ATOM     25  O   UNL     1       4.434  48.408  40.123  1.00  0.00    -0.507 OA
ATOM     26  H   UNL     1       4.568  48.355  41.125  1.00  0.00     0.293 HD
ENDBRANCH   5  25
BRANCH   7  27
ATOM     27  O   UNL     1       4.538  43.866  38.522  1.00  0.00    -0.507 OA
ATOM     28  H   UNL     1       3.676  43.562  38.093  1.00  0.00     0.293 HD
ENDBRANCH   7  27
TORSDOF 7
ENDMDL
MODEL 4
REMARK VINA RESULT:    -6.477      5.678      7.220
REMARK INTER + INTRA:          -8.118
REMARK INTER:                  -7.743
REMARK INTRA:                  -0.375
REMARK UNBOUND:                -0.126
REMARK SMILES Oc1cc(O)c2cc(O)c(-c3cc(O)c(O)c(O)c3)[o+]c2c1
REMARK SMILES IDX 10 1 20 2 21 3 22 4 2 5 3 6 4 7 6 8 7 9 8 10 11 11 12 12
REMARK SMILES IDX 13 13 19 14 15 15 17 16 14 17 16 19 18 21 9 23 1 25 5 27
REMARK H PARENT 14 18 16 20 18 22 9 24 1 26 5 28
REMARK Flexibility Score: inf
ROOT
ATOM      1  C   UNL     1       9.207  47.247  35.017  1.00  0.00     0.402 A 
ATOM      2  O   UNL     1       8.537  47.738  33.978  1.00  0.00    -0.202 OA
ATOM      3  C   UNL     1       9.127  48.168  32.867  1.00  0.00     0.368 A 
ATOM      4  C   UNL     1       8.338  48.672  31.829  1.00  0.00     0.162 A 
ATOM      5  C   UNL     1       8.930  49.133  30.652  1.00  0.00     0.128 A 
ATOM      6  C   UNL     1      10.321  49.093  30.510  1.00  0.00     0.093 A 
ATOM      7  C   UNL     1      11.134  48.592  31.536  1.00  0.00     0.136 A 
ATOM      8  C   UNL     1      10.536  48.121  32.733  1.00  0.00     0.125 A 
ATOM      9  C   UNL     1      11.270  47.591  33.807  1.00  0.00     0.078 A 
ATOM     10  C   UNL     1      10.609  47.140  34.953  1.00  0.00     0.223 A 
ENDROOT
BRANCH   1  11
ATOM     11  C   UNL     1       8.436  46.809  36.203  1.00  0.00     0.091 A 
ATOM     12  C   UNL     1       8.294  47.637  37.329  1.00  0.00     0.068 A 
ATOM     13  C   UNL     1       7.541  47.214  38.433  1.00  0.00     0.162 A 
ATOM     14  C   UNL     1       7.785  45.566  36.183  1.00  0.00     0.068 A 
ATOM     15  C   UNL     1       6.913  45.962  38.415  1.00  0.00     0.200 A 
ATOM     16  C   UNL     1       7.032  45.137  37.285  1.00  0.00     0.162 A 
BRANCH  13  17
ATOM     17  O   UNL     1       7.408  48.036  39.551  1.00  0.00    -0.504 OA
ATOM     18  H   UNL     1       7.141  49.009  39.465  1.00  0.00     0.293 HD
ENDBRANCH  13  17
BRANCH  15  19
ATOM     19  O   UNL     1       6.171  45.556  39.524  1.00  0.00    -0.502 OA
ATOM     20  H   UNL     1       5.175  45.722  39.597  1.00  0.00     0.293 HD
ENDBRANCH  15  19
BRANCH  16  21
ATOM     21  O   UNL     1       6.401  43.894  37.259  1.00  0.00    -0.504 OA
ATOM     22  H   UNL     1       6.809  43.101  36.776  1.00  0.00     0.293 HD
ENDBRANCH  16  21
ENDBRANCH   1  11
BRANCH  10  23
ATOM     23  O   UNL     1      11.333  46.569  35.999  1.00  0.00    -0.500 OA
ATOM     24  H   UNL     1      12.185  46.046  35.835  1.00  0.00     0.294 HD
ENDBRANCH  10  23
BRANCH   5  25
ATOM     25  O   UNL     1       8.126  49.631  29.629  1.00  0.00    -0.507 OA
ATOM     26  H   UNL     1       7.652  50.521  29.715  1.00  0.00     0.293 HD
ENDBRANCH   5  25
BRANCH   7  27
ATOM     27  O   UNL     1      12.515  48.588  31.318  1.00  0.00    -0.507 OA
ATOM     28  H   UNL     1      12.973  49.052  30.547  1.00  0.00     0.293 HD
ENDBRANCH   7  27
TORSDOF 7
ENDMDL
MODEL 5
REMARK VINA RESULT:    -6.158     12.293     16.242
REMARK INTER + INTRA:          -7.724
REMARK INTER:                  -7.351
REMARK INTRA:                  -0.373
REMARK UNBOUND:                -0.126
REMARK SMILES Oc1cc(O)c2cc(O)c(-c3cc(O)c(O)c(O)c3)[o+]c2c1
REMARK SMILES IDX 10 1 20 2 21 3 22 4 2 5 3 6 4 7 6 8 7 9 8 10 11 11 12 12
REMARK SMILES IDX 13 13 19 14 15 15 17 16 14 17 16 19 18 21 9 23 1 25 5 27
REMARK H PARENT 14 18 16 20 18 22 9 24 1 26 5 28
REMARK Flexibility Score: inf
ROOT
ATOM      1  C   UNL     1      19.254  40.180  31.096  1.00  0.00     0.402 A 
ATOM      2  O   UNL     1      19.848  40.773  32.129  1.00  0.00    -0.202 OA
ATOM      3  C   UNL     1      19.190  41.202  33.200  1.00  0.00     0.368 A 
ATOM      4  C   UNL     1      19.901  41.816  34.235  1.00  0.00     0.162 A 
ATOM      5  C   UNL     1      19.235  42.280  35.371  1.00  0.00     0.128 A 
ATOM      6  C   UNL     1      17.848  42.130  35.476  1.00  0.00     0.093 A 
ATOM      7  C   UNL     1      17.112  41.517  34.452  1.00  0.00     0.136 A 
ATOM      8  C   UNL     1      17.786  41.043  33.297  1.00  0.00     0.125 A 
ATOM      9  C   UNL     1      17.132  40.406  32.230  1.00  0.00     0.078 A 
ATOM     10  C   UNL     1      17.865  39.960  31.125  1.00  0.00     0.223 A 
ENDROOT
BRANCH   1  11
ATOM     11  C   UNL     1      20.096  39.755  29.954  1.00  0.00     0.091 A 
ATOM     12  C   UNL     1      20.743  38.508  29.948  1.00  0.00     0.068 A 
ATOM     13  C   UNL     1      21.518  38.113  28.849  1.00  0.00     0.162 A 
ATOM     14  C   UNL     1      20.207  40.588  28.830  1.00  0.00     0.068 A 
ATOM     15  C   UNL     1      21.643  38.960  27.740  1.00  0.00     0.200 A 
ATOM     16  C   UNL     1      20.982  40.200  27.729  1.00  0.00     0.162 A 
BRANCH  13  17
ATOM     17  O   UNL     1      22.164  36.878  28.849  1.00  0.00    -0.504 OA
ATOM     18  H   UNL     1      22.452  36.431  29.711  1.00  0.00     0.293 HD
ENDBRANCH  13  17
BRANCH  15  19
ATOM     19  O   UNL     1      22.421  38.553  26.656  1.00  0.00    -0.502 OA
ATOM     20  H   UNL     1      22.972  37.703  26.676  1.00  0.00     0.293 HD
ENDBRANCH  15  19
BRANCH  16  21
ATOM     21  O   UNL     1      21.097  41.042  26.624  1.00  0.00    -0.504 OA
ATOM     22  H   UNL     1      21.617  41.911  26.669  1.00  0.00     0.293 HD
ENDBRANCH  16  21
ENDBRANCH   1  11
BRANCH  10  23
ATOM     23  O   UNL     1      17.223  39.284  30.087  1.00  0.00    -0.500 OA
ATOM     24  H   UNL     1      16.580  38.522  30.265  1.00  0.00     0.294 HD
ENDBRANCH  10  23
BRANCH   5  25
ATOM     25  O   UNL     1      19.962  42.889  36.391  1.00  0.00    -0.507 OA
ATOM     26  H   UNL     1      20.752  42.428  36.826  1.00  0.00     0.293 HD
ENDBRANCH   5  25
BRANCH   7  27
ATOM     27  O   UNL     1      15.730  41.408  34.631  1.00  0.00    -0.507 OA
ATOM     28  H   UNL     1      15.270  40.613  35.050  1.00  0.00     0.293 HD
ENDBRANCH   7  27
TORSDOF 7
ENDMDL
MODEL 6
REMARK VINA RESULT:    -6.112     12.470     14.513
REMARK INTER + INTRA:          -7.667
REMARK INTER:                  -7.315
REMARK INTRA:                  -0.352
REMARK UNBOUND:                -0.126
REMARK SMILES Oc1cc(O)c2cc(O)c(-c3cc(O)c(O)c(O)c3)[o+]c2c1
REMARK SMILES IDX 10 1 20 2 21 3 22 4 2 5 3 6 4 7 6 8 7 9 8 10 11 11 12 12
REMARK SMILES IDX 13 13 19 14 15 15 17 16 14 17 16 19 18 21 9 23 1 25 5 27
REMARK H PARENT 14 18 16 20 18 22 9 24 1 26 5 28
REMARK Flexibility Score: inf
ROOT
ATOM      1  C   UNL     1      19.649  41.366  34.261  1.00  0.00     0.402 A 
ATOM      2  O   UNL     1      20.352  40.990  33.195  1.00  0.00    -0.202 OA
ATOM      3  C   UNL     1      19.803  40.451  32.112  1.00  0.00     0.368 A 
ATOM      4  C   UNL     1      20.625  40.085  31.043  1.00  0.00     0.162 A 
ATOM      5  C   UNL     1      20.077  39.514  29.894  1.00  0.00     0.128 A 
ATOM      6  C   UNL     1      18.695  39.305  29.811  1.00  0.00     0.093 A 
ATOM      7  C   UNL     1      17.850  39.663  30.869  1.00  0.00     0.136 A 
ATOM      8  C   UNL     1      18.404  40.246  32.038  1.00  0.00     0.125 A 
ATOM      9  C   UNL     1      17.632  40.648  33.141  1.00  0.00     0.078 A 
ATOM     10  C   UNL     1      18.250  41.221  34.256  1.00  0.00     0.223 A 
ENDROOT
BRANCH   1  11
ATOM     11  C   UNL     1      20.379  41.946  35.412  1.00  0.00     0.091 A 
ATOM     12  C   UNL     1      20.445  43.335  35.609  1.00  0.00     0.068 A 
ATOM     13  C   UNL     1      21.122  43.865  36.717  1.00  0.00     0.162 A 
ATOM     14  C   UNL     1      20.969  41.092  36.356  1.00  0.00     0.068 A 
ATOM     15  C   UNL     1      21.728  43.007  37.644  1.00  0.00     0.200 A 
ATOM     16  C   UNL     1      21.648  41.616  37.465  1.00  0.00     0.162 A 
BRANCH  13  17
ATOM     17  O   UNL     1      21.191  45.244  36.907  1.00  0.00    -0.504 OA
ATOM     18  H   UNL     1      21.072  45.892  36.137  1.00  0.00     0.293 HD
ENDBRANCH  13  17
BRANCH  15  19
ATOM     19  O   UNL     1      22.400  43.551  38.738  1.00  0.00    -0.502 OA
ATOM     20  H   UNL     1      21.915  43.845  39.578  1.00  0.00     0.293 HD
ENDBRANCH  15  19
BRANCH  16  21
ATOM     21  O   UNL     1      22.243  40.758  38.389  1.00  0.00    -0.504 OA
ATOM     22  H   UNL     1      23.172  40.933  38.756  1.00  0.00     0.293 HD
ENDBRANCH  16  21
ENDBRANCH   1  11
BRANCH  10  23
ATOM     23  O   UNL     1      17.479  41.665  35.331  1.00  0.00    -0.500 OA
ATOM     24  H   UNL     1      17.813  42.380  35.967  1.00  0.00     0.294 HD
ENDBRANCH  10  23
BRANCH   5  25
ATOM     25  O   UNL     1      20.913  39.156  28.839  1.00  0.00    -0.507 OA
ATOM     26  H   UNL     1      21.819  38.734  29.002  1.00  0.00     0.293 HD
ENDBRANCH   5  25
BRANCH   7  27
ATOM     27  O   UNL     1      16.483  39.419  30.711  1.00  0.00    -0.507 OA
ATOM     28  H   UNL     1      15.981  38.667  31.160  1.00  0.00     0.293 HD
ENDBRANCH   7  27
TORSDOF 7
ENDMDL
MODEL 7
REMARK VINA RESULT:    -6.056      2.364      7.269
REMARK INTER + INTRA:          -7.598
REMARK INTER:                  -7.255
REMARK INTRA:                  -0.343
REMARK UNBOUND:                -0.126
REMARK SMILES Oc1cc(O)c2cc(O)c(-c3cc(O)c(O)c(O)c3)[o+]c2c1
REMARK SMILES IDX 10 1 20 2 21 3 22 4 2 5 3 6 4 7 6 8 7 9 8 10 11 11 12 12
REMARK SMILES IDX 13 13 19 14 15 15 17 16 14 17 16 19 18 21 9 23 1 25 5 27
REMARK H PARENT 14 18 16 20 18 22 9 24 1 26 5 28
REMARK Flexibility Score: inf
ROOT
ATOM      1  C   UNL     1       6.317  42.220  34.997  1.00  0.00     0.402 A 
ATOM      2  O   UNL     1       7.110  43.284  34.890  1.00  0.00    -0.202 OA
ATOM      3  C   UNL     1       7.201  44.222  35.826  1.00  0.00     0.368 A 
ATOM      4  C   UNL     1       8.060  45.306  35.622  1.00  0.00     0.162 A 
ATOM      5  C   UNL     1       8.173  46.308  36.586  1.00  0.00     0.128 A 
ATOM      6  C   UNL     1       7.422  46.230  37.764  1.00  0.00     0.093 A 
ATOM      7  C   UNL     1       6.554  45.155  37.993  1.00  0.00     0.136 A 
ATOM      8  C   UNL     1       6.437  44.132  37.015  1.00  0.00     0.125 A 
ATOM      9  C   UNL     1       5.603  43.012  37.165  1.00  0.00     0.078 A 
ATOM     10  C   UNL     1       5.546  42.043  36.160  1.00  0.00     0.223 A 
ENDROOT
BRANCH   1  11
ATOM     11  C   UNL     1       6.297  41.248  33.880  1.00  0.00     0.091 A 
ATOM     12  C   UNL     1       5.585  41.508  32.697  1.00  0.00     0.068 A 
ATOM     13  C   UNL     1       5.596  40.585  31.642  1.00  0.00     0.162 A 
ATOM     14  C   UNL     1       7.049  40.067  33.979  1.00  0.00     0.068 A 
ATOM     15  C   UNL     1       6.331  39.398  31.757  1.00  0.00     0.200 A 
ATOM     16  C   UNL     1       7.063  39.140  32.928  1.00  0.00     0.162 A 
BRANCH  13  17
ATOM     17  O   UNL     1       4.883  40.844  30.473  1.00  0.00    -0.504 OA
ATOM     18  H   UNL     1       4.041  40.331  30.241  1.00  0.00     0.293 HD
ENDBRANCH  13  17
BRANCH  15  19
ATOM     19  O   UNL     1       6.327  38.490  30.699  1.00  0.00    -0.502 OA
ATOM     20  H   UNL     1       7.092  37.845  30.539  1.00  0.00     0.293 HD
ENDBRANCH  15  19
BRANCH  16  21
ATOM     21  O   UNL     1       7.802  37.964  33.043  1.00  0.00    -0.504 OA
ATOM     22  H   UNL     1       7.868  37.300  32.280  1.00  0.00     0.293 HD
ENDBRANCH  16  21
ENDBRANCH   1  11
BRANCH  10  23
ATOM     23  O   UNL     1       4.755  40.905  36.330  1.00  0.00    -0.500 OA
ATOM     24  H   UNL     1       5.163  39.991  36.484  1.00  0.00     0.294 HD
ENDBRANCH  10  23
BRANCH   5  25
ATOM     25  O   UNL     1       9.035  47.380  36.364  1.00  0.00    -0.507 OA
ATOM     26  H   UNL     1       9.998  47.358  36.678  1.00  0.00     0.293 HD
ENDBRANCH   5  25
BRANCH   7  27
ATOM     27  O   UNL     1       5.836  45.151  39.192  1.00  0.00    -0.507 OA
ATOM     28  H   UNL     1       4.848  44.957  39.266  1.00  0.00     0.293 HD
ENDBRANCH   7  27
TORSDOF 7
ENDMDL
MODEL 8
REMARK VINA RESULT:    -6.034      2.353      7.279
REMARK INTER + INTRA:          -7.571
REMARK INTER:                  -7.226
REMARK INTRA:                  -0.346
REMARK UNBOUND:                -0.126
REMARK SMILES Oc1cc(O)c2cc(O)c(-c3cc(O)c(O)c(O)c3)[o+]c2c1
REMARK SMILES IDX 10 1 20 2 21 3 22 4 2 5 3 6 4 7 6 8 7 9 8 10 11 11 12 12
REMARK SMILES IDX 13 13 19 14 15 15 17 16 14 17 16 19 18 21 9 23 1 25 5 27
REMARK H PARENT 14 18 16 20 18 22 9 24 1 26 5 28
REMARK Flexibility Score: inf
ROOT
ATOM      1  C   UNL     1       6.432  42.295  35.006  1.00  0.00     0.402 A 
ATOM      2  O   UNL     1       7.193  43.378  34.866  1.00  0.00    -0.202 OA
ATOM      3  C   UNL     1       7.277  44.334  35.785  1.00  0.00     0.368 A 
ATOM      4  C   UNL     1       8.102  45.437  35.546  1.00  0.00     0.162 A 
ATOM      5  C   UNL     1       8.207  46.458  36.491  1.00  0.00     0.128 A 
ATOM      6  C   UNL     1       7.482  46.379  37.685  1.00  0.00     0.093 A 
ATOM      7  C   UNL     1       6.648  45.284  37.949  1.00  0.00     0.136 A 
ATOM      8  C   UNL     1       6.540  44.243  36.990  1.00  0.00     0.125 A 
ATOM      9  C   UNL     1       5.740  43.104  37.175  1.00  0.00     0.078 A 
ATOM     10  C   UNL     1       5.689  42.116  36.187  1.00  0.00     0.223 A 
ENDROOT
BRANCH   1  11
ATOM     11  C   UNL     1       6.416  41.304  33.905  1.00  0.00     0.091 A 
ATOM     12  C   UNL     1       7.173  40.123  33.975  1.00  0.00     0.068 A 
ATOM     13  C   UNL     1       7.128  39.186  32.933  1.00  0.00     0.162 A 
ATOM     14  C   UNL     1       5.585  41.519  32.795  1.00  0.00     0.068 A 
ATOM     15  C   UNL     1       6.313  39.419  31.817  1.00  0.00     0.200 A 
ATOM     16  C   UNL     1       5.537  40.587  31.749  1.00  0.00     0.162 A 
BRANCH  13  17
ATOM     17  O   UNL     1       7.886  38.018  33.002  1.00  0.00    -0.504 OA
ATOM     18  H   UNL     1       8.427  37.786  33.826  1.00  0.00     0.293 HD
ENDBRANCH  13  17
BRANCH  15  19
ATOM     19  O   UNL     1       6.284  38.478  30.788  1.00  0.00    -0.502 OA
ATOM     20  H   UNL     1       5.477  38.360  30.187  1.00  0.00     0.293 HD
ENDBRANCH  15  19
BRANCH  16  21
ATOM     21  O   UNL     1       4.718  40.818  30.645  1.00  0.00    -0.504 OA
ATOM     22  H   UNL     1       3.725  40.616  30.667  1.00  0.00     0.293 HD
ENDBRANCH  16  21
ENDBRANCH   1  11
BRANCH  10  23
ATOM     23  O   UNL     1       4.933  40.961  36.391  1.00  0.00    -0.500 OA
ATOM     24  H   UNL     1       5.238  40.058  36.050  1.00  0.00     0.294 HD
ENDBRANCH  10  23
BRANCH   5  25
ATOM     25  O   UNL     1       9.035  47.548  36.235  1.00  0.00    -0.507 OA
ATOM     26  H   UNL     1       9.059  47.992  35.325  1.00  0.00     0.293 HD
ENDBRANCH   5  25
BRANCH   7  27
ATOM     27  O   UNL     1       5.955  45.281  39.163  1.00  0.00    -0.507 OA
ATOM     28  H   UNL     1       5.396  44.511  39.499  1.00  0.00     0.293 HD
ENDBRANCH   7  27
TORSDOF 7
ENDMDL
MODEL 9
REMARK VINA RESULT:    -5.962      9.712     11.267
REMARK INTER + INTRA:          -7.482
REMARK INTER:                  -7.137
REMARK INTRA:                  -0.345
REMARK UNBOUND:                -0.126
REMARK SMILES Oc1cc(O)c2cc(O)c(-c3cc(O)c(O)c(O)c3)[o+]c2c1
REMARK SMILES IDX 10 1 20 2 21 3 22 4 2 5 3 6 4 7 6 8 7 9 8 10 11 11 12 12
REMARK SMILES IDX 13 13 19 14 15 15 17 16 14 17 16 19 18 21 9 23 1 25 5 27
REMARK H PARENT 14 18 16 20 18 22 9 24 1 26 5 28
REMARK Flexibility Score: inf
ROOT
ATOM      1  C   UNL     1      15.732  46.308  32.217  1.00  0.00     0.402 A 
ATOM      2  O   UNL     1      15.626  45.018  32.529  1.00  0.00    -0.202 OA
ATOM      3  C   UNL     1      16.555  44.117  32.227  1.00  0.00     0.368 A 
ATOM      4  C   UNL     1      16.353  42.783  32.593  1.00  0.00     0.162 A 
ATOM      5  C   UNL     1      17.309  41.815  32.286  1.00  0.00     0.128 A 
ATOM      6  C   UNL     1      18.477  42.179  31.606  1.00  0.00     0.093 A 
ATOM      7  C   UNL     1      18.703  43.509  31.228  1.00  0.00     0.136 A 
ATOM      8  C   UNL     1      17.734  44.497  31.540  1.00  0.00     0.125 A 
ATOM      9  C   UNL     1      17.882  45.855  31.212  1.00  0.00     0.078 A 
ATOM     10  C   UNL     1      16.885  46.772  31.558  1.00  0.00     0.223 A 
ENDROOT
BRANCH   1  11
ATOM     11  C   UNL     1      14.624  47.213  32.600  1.00  0.00     0.091 A 
ATOM     12  C   UNL     1      13.432  47.264  31.859  1.00  0.00     0.068 A 
ATOM     13  C   UNL     1      12.386  48.111  32.250  1.00  0.00     0.162 A 
ATOM     14  C   UNL     1      14.742  47.996  33.759  1.00  0.00     0.068 A 
ATOM     15  C   UNL     1      12.519  48.906  33.396  1.00  0.00     0.200 A 
ATOM     16  C   UNL     1      13.699  48.846  34.155  1.00  0.00     0.162 A 
BRANCH  13  17
ATOM     17  O   UNL     1      11.207  48.163  31.508  1.00  0.00    -0.504 OA
ATOM     18  H   UNL     1      11.217  48.161  30.495  1.00  0.00     0.293 HD
ENDBRANCH  13  17
BRANCH  15  19
ATOM     19  O   UNL     1      11.470  49.746  33.768  1.00  0.00    -0.502 OA
ATOM     20  H   UNL     1      10.830  49.510  34.518  1.00  0.00     0.293 HD
ENDBRANCH  15  19
BRANCH  16  21
ATOM     21  O   UNL     1      13.833  49.629  35.300  1.00  0.00    -0.504 OA
ATOM     22  H   UNL     1      14.743  49.895  35.659  1.00  0.00     0.293 HD
ENDBRANCH  16  21
ENDBRANCH   1  11
BRANCH  10  23
ATOM     23  O   UNL     1      17.054  48.128  31.277  1.00  0.00    -0.500 OA
ATOM     24  H   UNL     1      17.386  48.780  31.977  1.00  0.00     0.294 HD
ENDBRANCH  10  23
BRANCH   5  25
ATOM     25  O   UNL     1      17.090  40.491  32.660  1.00  0.00    -0.507 OA
ATOM     26  H   UNL     1      17.797  39.954  33.147  1.00  0.00     0.293 HD
ENDBRANCH   5  25
BRANCH   7  27
ATOM     27  O   UNL     1      19.892  43.791  30.550  1.00  0.00    -0.507 OA
ATOM     28  H   UNL     1      20.650  44.338  30.930  1.00  0.00     0.293 HD
ENDBRANCH   7  27
TORSDOF 7
ENDMDL
