MODEL 1
REMARK VINA RESULT:    -7.817      0.000      0.000
REMARK INTER + INTRA:          -9.730
REMARK INTER:                  -9.417
REMARK INTRA:                  -0.313
REMARK UNBOUND:                -0.313
REMARK SMILES O=c1c(O)c(-c2ccc(O)c(O)c2)oc2cc(O)cc(O)c12
REMARK SMILES IDX 5 1 3 2 2 3 1 4 22 5 20 6 19 7 17 8 16 9 15 10 14 11 6 12
REMARK SMILES IDX 7 13 8 14 9 15 13 16 11 17 10 18 12 20 4 22 21 24 18 26
REMARK H PARENT 10 19 12 21 4 23 21 25 18 27
REMARK Flexibility Score: inf
ROOT
ATOM      1  C   UNL     1      31.423  -0.311   9.532  1.00  0.00     0.180 A 
ATOM      2  C   UNL     1      31.132  -1.450  10.304  1.00  0.00     0.208 A 
ATOM      3  C   UNL     1      31.837  -1.660  11.499  1.00  0.00     0.238 A 
ATOM      4  O   UNL     1      31.534  -2.652  12.213  1.00  0.00    -0.285 OA
ATOM      5  C   UNL     1      32.835  -0.740  11.900  1.00  0.00     0.111 A 
ATOM      6  C   UNL     1      33.639  -0.875  13.072  1.00  0.00     0.134 A 
ATOM      7  C   UNL     1      34.505   0.162  13.439  1.00  0.00     0.093 A 
ATOM      8  C   UNL     1      34.644   1.300  12.642  1.00  0.00     0.123 A 
ATOM      9  C   UNL     1      33.907   1.415  11.466  1.00  0.00     0.094 A 
ATOM     10  C   UNL     1      33.008   0.413  11.091  1.00  0.00     0.146 A 
ATOM     11  O   UNL     1      32.318   0.567   9.968  1.00  0.00    -0.452 OA
ENDROOT
BRANCH   1  12
ATOM     12  C   UNL     1      30.740  -0.034   8.248  1.00  0.00     0.025 A 
ATOM     13  C   UNL     1      31.133  -0.667   7.058  1.00  0.00     0.016 A 
ATOM     14  C   UNL     1      30.489  -0.372   5.855  1.00  0.00     0.051 A 
ATOM     15  C   UNL     1      29.454   0.567   5.811  1.00  0.00     0.157 A 
ATOM     16  C   UNL     1      29.715   0.925   8.202  1.00  0.00     0.062 A 
ATOM     17  C   UNL     1      29.065   1.229   7.000  1.00  0.00     0.158 A 
BRANCH  15  18
ATOM     18  O   UNL     1      28.848   0.814   4.577  1.00  0.00    -0.504 OA
ATOM     19  H   UNL     1      27.852   0.903   4.446  1.00  0.00     0.293 HD
ENDBRANCH  15  18
BRANCH  17  20
ATOM     20  O   UNL     1      28.047   2.185   7.033  1.00  0.00    -0.504 OA
ATOM     21  H   UNL     1      28.090   3.072   6.552  1.00  0.00     0.293 HD
ENDBRANCH  17  20
ENDBRANCH   1  12
BRANCH   2  22
ATOM     22  O   UNL     1      30.128  -2.333   9.900  1.00  0.00    -0.502 OA
ATOM     23  H   UNL     1      29.215  -2.017   9.594  1.00  0.00     0.293 HD
ENDBRANCH   2  22
BRANCH   6  24
ATOM     24  O   UNL     1      33.645  -2.012  13.887  1.00  0.00    -0.507 OA
ATOM     25  H   UNL     1      33.169  -2.085  14.774  1.00  0.00     0.293 HD
ENDBRANCH   6  24
BRANCH   8  26
ATOM     26  O   UNL     1      35.520   2.321  13.006  1.00  0.00    -0.508 OA
ATOM     27  H   UNL     1      35.989   2.320  13.904  1.00  0.00     0.293 HD
ENDBRANCH   8  26
TORSDOF 6
ENDMDL
MODEL 2
REMARK VINA RESULT:    -7.497      2.077      2.132
REMARK INTER + INTRA:          -9.344
REMARK INTER:                  -9.651
REMARK INTRA:                   0.306
REMARK UNBOUND:                -0.313
REMARK SMILES O=c1c(O)c(-c2ccc(O)c(O)c2)oc2cc(O)cc(O)c12
REMARK SMILES IDX 5 1 3 2 2 3 1 4 22 5 20 6 19 7 17 8 16 9 15 10 14 11 6 12
REMARK SMILES IDX 7 13 8 14 9 15 13 16 11 17 10 18 12 20 4 22 21 24 18 26
REMARK H PARENT 10 19 12 21 4 23 21 25 18 27
REMARK Flexibility Score: inf
ROOT
ATOM      1  C   UNL     1      32.627  -0.426   8.780  1.00  0.00     0.180 A 
ATOM      2  C   UNL     1      33.350  -1.627   8.661  1.00  0.00     0.208 A 
ATOM      3  C   UNL     1      34.472  -1.830   9.479  1.00  0.00     0.238 A 
ATOM      4  O   UNL     1      35.082  -2.929   9.406  1.00  0.00    -0.285 OA
ATOM      5  C   UNL     1      34.868  -0.825  10.394  1.00  0.00     0.111 A 
ATOM      6  C   UNL     1      36.012  -0.907  11.244  1.00  0.00     0.134 A 
ATOM      7  C   UNL     1      36.234   0.089  12.202  1.00  0.00     0.093 A 
ATOM      8  C   UNL     1      35.390   1.197  12.298  1.00  0.00     0.123 A 
ATOM      9  C   UNL     1      34.305   1.316  11.434  1.00  0.00     0.094 A 
ATOM     10  C   UNL     1      34.036   0.320  10.490  1.00  0.00     0.146 A 
ATOM     11  O   UNL     1      32.985   0.468   9.694  1.00  0.00    -0.452 OA
ENDROOT
BRANCH   1  12
ATOM     12  C   UNL     1      31.448  -0.129   7.935  1.00  0.00     0.025 A 
ATOM     13  C   UNL     1      31.282  -0.725   6.675  1.00  0.00     0.016 A 
ATOM     14  C   UNL     1      30.174  -0.412   5.886  1.00  0.00     0.051 A 
ATOM     15  C   UNL     1      29.220   0.510   6.328  1.00  0.00     0.157 A 
ATOM     16  C   UNL     1      30.503   0.813   8.372  1.00  0.00     0.062 A 
ATOM     17  C   UNL     1      29.389   1.134   7.587  1.00  0.00     0.158 A 
BRANCH  15  18
ATOM     18  O   UNL     1      28.133   0.777   5.493  1.00  0.00    -0.504 OA
ATOM     19  H   UNL     1      27.765   1.701   5.324  1.00  0.00     0.293 HD
ENDBRANCH  15  18
BRANCH  17  20
ATOM     20  O   UNL     1      28.484   2.071   8.093  1.00  0.00    -0.504 OA
ATOM     21  H   UNL     1      28.677   3.060   8.165  1.00  0.00     0.293 HD
ENDBRANCH  17  20
ENDBRANCH   1  12
BRANCH   2  22
ATOM     22  O   UNL     1      32.928  -2.614   7.767  1.00  0.00    -0.502 OA
ATOM     23  H   UNL     1      33.494  -2.916   6.983  1.00  0.00     0.293 HD
ENDBRANCH   2  22
BRANCH   6  24
ATOM     24  O   UNL     1      36.969  -1.925  11.167  1.00  0.00    -0.507 OA
ATOM     25  H   UNL     1      37.120  -2.512  10.361  1.00  0.00     0.293 HD
ENDBRANCH   6  24
BRANCH   8  26
ATOM     26  O   UNL     1      35.627   2.192  13.244  1.00  0.00    -0.508 OA
ATOM     27  H   UNL     1      34.867   2.640  13.742  1.00  0.00     0.293 HD
ENDBRANCH   8  26
TORSDOF 6
ENDMDL
MODEL 3
REMARK VINA RESULT:    -7.282      2.799      4.999
REMARK INTER + INTRA:          -9.085
REMARK INTER:                  -8.752
REMARK INTRA:                  -0.333
REMARK UNBOUND:                -0.313
REMARK SMILES O=c1c(O)c(-c2ccc(O)c(O)c2)oc2cc(O)cc(O)c12
REMARK SMILES IDX 5 1 3 2 2 3 1 4 22 5 20 6 19 7 17 8 16 9 15 10 14 11 6 12
REMARK SMILES IDX 7 13 8 14 9 15 13 16 11 17 10 18 12 20 4 22 21 24 18 26
REMARK H PARENT 10 19 12 21 4 23 21 25 18 27
REMARK Flexibility Score: inf
ROOT
ATOM      1  C   UNL     1      32.967  -0.090  13.004  1.00  0.00     0.180 A 
ATOM      2  C   UNL     1      33.693   1.106  12.862  1.00  0.00     0.208 A 
ATOM      3  C   UNL     1      34.762   1.361  13.735  1.00  0.00     0.238 A 
ATOM      4  O   UNL     1      35.442   2.408  13.569  1.00  0.00    -0.285 OA
ATOM      5  C   UNL     1      35.082   0.427  14.749  1.00  0.00     0.111 A 
ATOM      6  C   UNL     1      36.119   0.601  15.715  1.00  0.00     0.134 A 
ATOM      7  C   UNL     1      36.431  -0.446  16.590  1.00  0.00     0.093 A 
ATOM      8  C   UNL     1      35.702  -1.637  16.577  1.00  0.00     0.123 A 
ATOM      9  C   UNL     1      34.650  -1.794  15.678  1.00  0.00     0.094 A 
ATOM     10  C   UNL     1      34.337  -0.781  14.769  1.00  0.00     0.146 A 
ATOM     11  O   UNL     1      33.334  -0.976  13.922  1.00  0.00    -0.452 OA
ENDROOT
BRANCH   1  12
ATOM     12  C   UNL     1      31.812  -0.418  12.137  1.00  0.00     0.025 A 
ATOM     13  C   UNL     1      30.508  -0.025  12.476  1.00  0.00     0.016 A 
ATOM     14  C   UNL     1      29.432  -0.366  11.655  1.00  0.00     0.051 A 
ATOM     15  C   UNL     1      29.631  -1.117  10.492  1.00  0.00     0.157 A 
ATOM     16  C   UNL     1      32.012  -1.190  10.981  1.00  0.00     0.062 A 
ATOM     17  C   UNL     1      30.939  -1.538  10.152  1.00  0.00     0.158 A 
BRANCH  15  18
ATOM     18  O   UNL     1      28.513  -1.421   9.712  1.00  0.00    -0.504 OA
ATOM     19  H   UNL     1      28.497  -1.367   8.704  1.00  0.00     0.293 HD
ENDBRANCH  15  18
BRANCH  17  20
ATOM     20  O   UNL     1      31.215  -2.298   9.013  1.00  0.00    -0.504 OA
ATOM     21  H   UNL     1      32.078  -2.801   8.865  1.00  0.00     0.293 HD
ENDBRANCH  17  20
ENDBRANCH   1  12
BRANCH   2  22
ATOM     22  O   UNL     1      33.374   2.003  11.840  1.00  0.00    -0.502 OA
ATOM     23  H   UNL     1      33.668   2.973  11.855  1.00  0.00     0.293 HD
ENDBRANCH   2  22
BRANCH   6  24
ATOM     24  O   UNL     1      36.846   1.786  15.873  1.00  0.00    -0.507 OA
ATOM     25  H   UNL     1      37.752   1.963  15.464  1.00  0.00     0.293 HD
ENDBRANCH   6  24
BRANCH   8  26
ATOM     26  O   UNL     1      36.010  -2.669  17.462  1.00  0.00    -0.508 OA
ATOM     27  H   UNL     1      35.502  -2.790  18.330  1.00  0.00     0.293 HD
ENDBRANCH   8  26
TORSDOF 6
ENDMDL
MODEL 4
REMARK VINA RESULT:    -7.280      1.681      1.914
REMARK INTER + INTRA:          -9.083
REMARK INTER:                  -8.979
REMARK INTRA:                  -0.104
REMARK UNBOUND:                -0.313
REMARK SMILES O=c1c(O)c(-c2ccc(O)c(O)c2)oc2cc(O)cc(O)c12
REMARK SMILES IDX 5 1 3 2 2 3 1 4 22 5 20 6 19 7 17 8 16 9 15 10 14 11 6 12
REMARK SMILES IDX 7 13 8 14 9 15 13 16 11 17 10 18 12 20 4 22 21 24 18 26
REMARK H PARENT 10 19 12 21 4 23 21 25 18 27
REMARK Flexibility Score: inf
ROOT
ATOM      1  C   UNL     1      32.398  -0.153  10.243  1.00  0.00     0.180 A 
ATOM      2  C   UNL     1      31.710  -0.155  11.469  1.00  0.00     0.208 A 
ATOM      3  C   UNL     1      32.439  -0.008  12.659  1.00  0.00     0.238 A 
ATOM      4  O   UNL     1      31.812   0.045  13.750  1.00  0.00    -0.285 OA
ATOM      5  C   UNL     1      33.848   0.123  12.611  1.00  0.00     0.111 A 
ATOM      6  C   UNL     1      34.691   0.238  13.757  1.00  0.00     0.134 A 
ATOM      7  C   UNL     1      36.057   0.493  13.586  1.00  0.00     0.093 A 
ATOM      8  C   UNL     1      36.621   0.573  12.311  1.00  0.00     0.123 A 
ATOM      9  C   UNL     1      35.817   0.403  11.188  1.00  0.00     0.094 A 
ATOM     10  C   UNL     1      34.444   0.183  11.325  1.00  0.00     0.146 A 
ATOM     11  O   UNL     1      33.712   0.037  10.227  1.00  0.00    -0.452 OA
ENDROOT
BRANCH   1  12
ATOM     12  C   UNL     1      31.701  -0.328   8.948  1.00  0.00     0.025 A 
ATOM     13  C   UNL     1      32.017  -1.390   8.085  1.00  0.00     0.016 A 
ATOM     14  C   UNL     1      31.363  -1.521   6.859  1.00  0.00     0.051 A 
ATOM     15  C   UNL     1      30.396  -0.592   6.462  1.00  0.00     0.157 A 
ATOM     16  C   UNL     1      30.746   0.617   8.543  1.00  0.00     0.062 A 
ATOM     17  C   UNL     1      30.086   0.494   7.314  1.00  0.00     0.158 A 
BRANCH  15  18
ATOM     18  O   UNL     1      29.776  -0.783   5.225  1.00  0.00    -0.504 OA
ATOM     19  H   UNL     1      30.094  -0.364   4.364  1.00  0.00     0.293 HD
ENDBRANCH  15  18
BRANCH  17  20
ATOM     20  O   UNL     1      29.138   1.466   6.984  1.00  0.00    -0.504 OA
ATOM     21  H   UNL     1      29.320   2.460   6.996  1.00  0.00     0.293 HD
ENDBRANCH  17  20
ENDBRANCH   1  12
BRANCH   2  22
ATOM     22  O   UNL     1      30.317  -0.263  11.492  1.00  0.00    -0.502 OA
ATOM     23  H   UNL     1      29.730   0.101  10.750  1.00  0.00     0.293 HD
ENDBRANCH   2  22
BRANCH   6  24
ATOM     24  O   UNL     1      34.244   0.083  15.073  1.00  0.00    -0.507 OA
ATOM     25  H   UNL     1      34.710  -0.469  15.777  1.00  0.00     0.293 HD
ENDBRANCH   6  24
BRANCH   8  26
ATOM     26  O   UNL     1      37.985   0.811  12.150  1.00  0.00    -0.508 OA
ATOM     27  H   UNL     1      38.603   0.108  11.763  1.00  0.00     0.293 HD
ENDBRANCH   8  26
TORSDOF 6
ENDMDL
MODEL 5
REMARK VINA RESULT:    -7.264      2.096      6.925
REMARK INTER + INTRA:          -9.064
REMARK INTER:                  -8.805
REMARK INTRA:                  -0.259
REMARK UNBOUND:                -0.313
REMARK SMILES O=c1c(O)c(-c2ccc(O)c(O)c2)oc2cc(O)cc(O)c12
REMARK SMILES IDX 5 1 3 2 2 3 1 4 22 5 20 6 19 7 17 8 16 9 15 10 14 11 6 12
REMARK SMILES IDX 7 13 8 14 9 15 13 16 11 17 10 18 12 20 4 22 21 24 18 26
REMARK H PARENT 10 19 12 21 4 23 21 25 18 27
REMARK Flexibility Score: inf
ROOT
ATOM      1  C   UNL     1      33.314  -0.108  11.323  1.00  0.00     0.180 A 
ATOM      2  C   UNL     1      34.058  -1.138  10.722  1.00  0.00     0.208 A 
ATOM      3  C   UNL     1      33.655  -1.626   9.469  1.00  0.00     0.238 A 
ATOM      4  O   UNL     1      34.357  -2.510   8.911  1.00  0.00    -0.285 OA
ATOM      5  C   UNL     1      32.506  -1.089   8.839  1.00  0.00     0.111 A 
ATOM      6  C   UNL     1      31.984  -1.535   7.588  1.00  0.00     0.134 A 
ATOM      7  C   UNL     1      30.919  -0.844   6.998  1.00  0.00     0.093 A 
ATOM      8  C   UNL     1      30.314   0.235   7.646  1.00  0.00     0.123 A 
ATOM      9  C   UNL     1      30.778   0.641   8.894  1.00  0.00     0.094 A 
ATOM     10  C   UNL     1      31.863  -0.006   9.492  1.00  0.00     0.146 A 
ATOM     11  O   UNL     1      32.280   0.420  10.678  1.00  0.00    -0.452 OA
ENDROOT
BRANCH   1  12
ATOM     12  C   UNL     1      33.661   0.441  12.655  1.00  0.00     0.025 A 
ATOM     13  C   UNL     1      34.762   1.294  12.829  1.00  0.00     0.016 A 
ATOM     14  C   UNL     1      35.085   1.779  14.098  1.00  0.00     0.051 A 
ATOM     15  C   UNL     1      34.328   1.415  15.216  1.00  0.00     0.157 A 
ATOM     16  C   UNL     1      32.912   0.056  13.778  1.00  0.00     0.062 A 
ATOM     17  C   UNL     1      33.229   0.538  15.054  1.00  0.00     0.158 A 
BRANCH  15  18
ATOM     18  O   UNL     1      34.700   1.939  16.456  1.00  0.00    -0.504 OA
ATOM     19  H   UNL     1      34.102   1.944  17.268  1.00  0.00     0.293 HD
ENDBRANCH  15  18
BRANCH  17  20
ATOM     20  O   UNL     1      32.432   0.122  16.124  1.00  0.00    -0.504 OA
ATOM     21  H   UNL     1      31.644  -0.504  16.031  1.00  0.00     0.293 HD
ENDBRANCH  17  20
ENDBRANCH   1  12
BRANCH   2  22
ATOM     22  O   UNL     1      35.201  -1.638  11.350  1.00  0.00    -0.502 OA
ATOM     23  H   UNL     1      35.948  -2.094  10.840  1.00  0.00     0.293 HD
ENDBRANCH   2  22
BRANCH   6  24
ATOM     24  O   UNL     1      32.456  -2.659   6.902  1.00  0.00    -0.507 OA
ATOM     25  H   UNL     1      31.874  -3.310   6.396  1.00  0.00     0.293 HD
ENDBRANCH   6  24
BRANCH   8  26
ATOM     26  O   UNL     1      29.244   0.907   7.059  1.00  0.00    -0.508 OA
ATOM     27  H   UNL     1      28.384   0.427   6.819  1.00  0.00     0.293 HD
ENDBRANCH   8  26
TORSDOF 6
ENDMDL
MODEL 6
REMARK VINA RESULT:    -7.166      2.627      4.851
REMARK INTER + INTRA:          -8.946
REMARK INTER:                  -8.641
REMARK INTRA:                  -0.305
REMARK UNBOUND:                -0.313
REMARK SMILES O=c1c(O)c(-c2ccc(O)c(O)c2)oc2cc(O)cc(O)c12
REMARK SMILES IDX 5 1 3 2 2 3 1 4 22 5 20 6 19 7 17 8 16 9 15 10 14 11 6 12
REMARK SMILES IDX 7 13 8 14 9 15 13 16 11 17 10 18 12 20 4 22 21 24 18 26
REMARK H PARENT 10 19 12 21 4 23 21 25 18 27
REMARK Flexibility Score: inf
ROOT
ATOM      1  C   UNL     1      33.293  -0.189  12.023  1.00  0.00     0.180 A 
ATOM      2  C   UNL     1      34.266   0.802  12.245  1.00  0.00     0.208 A 
ATOM      3  C   UNL     1      34.487   1.256  13.554  1.00  0.00     0.238 A 
ATOM      4  O   UNL     1      35.396   2.104  13.754  1.00  0.00    -0.285 OA
ATOM      5  C   UNL     1      33.724   0.727  14.623  1.00  0.00     0.111 A 
ATOM      6  C   UNL     1      33.836   1.143  15.984  1.00  0.00     0.134 A 
ATOM      7  C   UNL     1      33.124   0.458  16.976  1.00  0.00     0.093 A 
ATOM      8  C   UNL     1      32.253  -0.583  16.649  1.00  0.00     0.123 A 
ATOM      9  C   UNL     1      32.092  -0.957  15.318  1.00  0.00     0.094 A 
ATOM     10  C   UNL     1      32.816  -0.317  14.308  1.00  0.00     0.146 A 
ATOM     11  O   UNL     1      32.640  -0.713  13.053  1.00  0.00    -0.452 OA
ENDROOT
BRANCH   1  12
ATOM     12  C   UNL     1      32.985  -0.701  10.667  1.00  0.00     0.025 A 
ATOM     13  C   UNL     1      31.883  -0.226   9.939  1.00  0.00     0.016 A 
ATOM     14  C   UNL     1      31.599  -0.740   8.673  1.00  0.00     0.051 A 
ATOM     15  C   UNL     1      32.396  -1.745   8.115  1.00  0.00     0.157 A 
ATOM     16  C   UNL     1      33.775  -1.724  10.118  1.00  0.00     0.062 A 
ATOM     17  C   UNL     1      33.497  -2.247   8.850  1.00  0.00     0.158 A 
BRANCH  15  18
ATOM     18  O   UNL     1      32.061  -2.213   6.843  1.00  0.00    -0.504 OA
ATOM     19  H   UNL     1      31.787  -1.617   6.076  1.00  0.00     0.293 HD
ENDBRANCH  15  18
BRANCH  17  20
ATOM     20  O   UNL     1      34.332  -3.255   8.363  1.00  0.00    -0.504 OA
ATOM     21  H   UNL     1      34.155  -4.242   8.483  1.00  0.00     0.293 HD
ENDBRANCH  17  20
ENDBRANCH   1  12
BRANCH   2  22
ATOM     22  O   UNL     1      35.023   1.294  11.179  1.00  0.00    -0.502 OA
ATOM     23  H   UNL     1      35.064   0.829  10.280  1.00  0.00     0.293 HD
ENDBRANCH   2  22
BRANCH   6  24
ATOM     24  O   UNL     1      34.607   2.231  16.406  1.00  0.00    -0.507 OA
ATOM     25  H   UNL     1      34.819   2.446  17.369  1.00  0.00     0.293 HD
ENDBRANCH   6  24
BRANCH   8  26
ATOM     26  O   UNL     1      31.536  -1.249  17.641  1.00  0.00    -0.508 OA
ATOM     27  H   UNL     1      30.649  -0.895  17.981  1.00  0.00     0.293 HD
ENDBRANCH   8  26
TORSDOF 6
ENDMDL
MODEL 7
REMARK VINA RESULT:    -7.166      2.878      7.707
REMARK INTER + INTRA:          -8.946
REMARK INTER:                  -8.732
REMARK INTRA:                  -0.214
REMARK UNBOUND:                -0.313
REMARK SMILES O=c1c(O)c(-c2ccc(O)c(O)c2)oc2cc(O)cc(O)c12
REMARK SMILES IDX 5 1 3 2 2 3 1 4 22 5 20 6 19 7 17 8 16 9 15 10 14 11 6 12
REMARK SMILES IDX 7 13 8 14 9 15 13 16 11 17 10 18 12 20 4 22 21 24 18 26
REMARK H PARENT 10 19 12 21 4 23 21 25 18 27
REMARK Flexibility Score: inf
ROOT
ATOM      1  C   UNL     1      32.750  -0.831  13.713  1.00  0.00     0.180 A 
ATOM      2  C   UNL     1      33.896  -1.123  12.951  1.00  0.00     0.208 A 
ATOM      3  C   UNL     1      33.742  -1.491  11.606  1.00  0.00     0.238 A 
ATOM      4  O   UNL     1      34.774  -1.698  10.914  1.00  0.00    -0.285 OA
ATOM      5  C   UNL     1      32.447  -1.579  11.042  1.00  0.00     0.111 A 
ATOM      6  C   UNL     1      32.171  -1.981   9.700  1.00  0.00     0.134 A 
ATOM      7  C   UNL     1      30.862  -1.905   9.211  1.00  0.00     0.093 A 
ATOM      8  C   UNL     1      29.807  -1.505  10.035  1.00  0.00     0.123 A 
ATOM      9  C   UNL     1      30.057  -1.167  11.363  1.00  0.00     0.094 A 
ATOM     10  C   UNL     1      31.359  -1.198  11.870  1.00  0.00     0.146 A 
ATOM     11  O   UNL     1      31.554  -0.858  13.138  1.00  0.00    -0.452 OA
ENDROOT
BRANCH   1  12
ATOM     12  C   UNL     1      32.830  -0.460  15.145  1.00  0.00     0.025 A 
ATOM     13  C   UNL     1      32.351  -1.315  16.149  1.00  0.00     0.016 A 
ATOM     14  C   UNL     1      32.415  -0.934  17.491  1.00  0.00     0.051 A 
ATOM     15  C   UNL     1      32.942   0.310  17.855  1.00  0.00     0.157 A 
ATOM     16  C   UNL     1      33.340   0.797  15.506  1.00  0.00     0.062 A 
ATOM     17  C   UNL     1      33.407   1.189  16.848  1.00  0.00     0.158 A 
BRANCH  15  18
ATOM     18  O   UNL     1      32.981   0.629  19.214  1.00  0.00    -0.504 OA
ATOM     19  H   UNL     1      33.711   0.329  19.843  1.00  0.00     0.293 HD
ENDBRANCH  15  18
BRANCH  17  20
ATOM     20  O   UNL     1      33.937   2.449  17.134  1.00  0.00    -0.504 OA
ATOM     21  H   UNL     1      33.815   2.927  18.015  1.00  0.00     0.293 HD
ENDBRANCH  17  20
ENDBRANCH   1  12
BRANCH   2  22
ATOM     22  O   UNL     1      35.166  -1.009  13.522  1.00  0.00    -0.502 OA
ATOM     23  H   UNL     1      35.501  -0.147  13.937  1.00  0.00     0.293 HD
ENDBRANCH   2  22
BRANCH   6  24
ATOM     24  O   UNL     1      33.138  -2.484   8.823  1.00  0.00    -0.507 OA
ATOM     25  H   UNL     1      33.779  -1.917   8.288  1.00  0.00     0.293 HD
ENDBRANCH   6  24
BRANCH   8  26
ATOM     26  O   UNL     1      28.504  -1.448   9.545  1.00  0.00    -0.508 OA
ATOM     27  H   UNL     1      27.859  -2.220   9.665  1.00  0.00     0.293 HD
ENDBRANCH   8  26
TORSDOF 6
ENDMDL
MODEL 8
REMARK VINA RESULT:    -7.049      2.082      3.259
REMARK INTER + INTRA:          -8.804
REMARK INTER:                  -8.793
REMARK INTRA:                  -0.011
REMARK UNBOUND:                -0.313
REMARK SMILES O=c1c(O)c(-c2ccc(O)c(O)c2)oc2cc(O)cc(O)c12
REMARK SMILES IDX 5 1 3 2 2 3 1 4 22 5 20 6 19 7 17 8 16 9 15 10 14 11 6 12
REMARK SMILES IDX 7 13 8 14 9 15 13 16 11 17 10 18 12 20 4 22 21 24 18 26
REMARK H PARENT 10 19 12 21 4 23 21 25 18 27
REMARK Flexibility Score: inf
ROOT
ATOM      1  C   UNL     1      33.195  -0.190  10.843  1.00  0.00     0.180 A 
ATOM      2  C   UNL     1      34.513  -0.613  10.595  1.00  0.00     0.208 A 
ATOM      3  C   UNL     1      35.493  -0.397  11.575  1.00  0.00     0.238 A 
ATOM      4  O   UNL     1      36.659  -0.827  11.370  1.00  0.00    -0.285 OA
ATOM      5  C   UNL     1      35.149   0.254  12.784  1.00  0.00     0.111 A 
ATOM      6  C   UNL     1      36.071   0.561  13.831  1.00  0.00     0.134 A 
ATOM      7  C   UNL     1      35.595   1.090  15.037  1.00  0.00     0.093 A 
ATOM      8  C   UNL     1      34.241   1.383  15.210  1.00  0.00     0.123 A 
ATOM      9  C   UNL     1      33.343   1.142  14.174  1.00  0.00     0.094 A 
ATOM     10  C   UNL     1      33.782   0.582  12.971  1.00  0.00     0.146 A 
ATOM     11  O   UNL     1      32.890   0.358  12.013  1.00  0.00    -0.452 OA
ENDROOT
BRANCH   1  12
ATOM     12  C   UNL     1      32.112  -0.360   9.848  1.00  0.00     0.025 A 
ATOM     13  C   UNL     1      32.278   0.034   8.511  1.00  0.00     0.016 A 
ATOM     14  C   UNL     1      31.234  -0.115   7.596  1.00  0.00     0.051 A 
ATOM     15  C   UNL     1      30.003  -0.644   7.997  1.00  0.00     0.157 A 
ATOM     16  C   UNL     1      30.870  -0.873  10.257  1.00  0.00     0.062 A 
ATOM     17  C   UNL     1      29.817  -1.025   9.347  1.00  0.00     0.158 A 
BRANCH  15  18
ATOM     18  O   UNL     1      29.002  -0.771   7.032  1.00  0.00    -0.504 OA
ATOM     19  H   UNL     1      28.548  -1.643   6.801  1.00  0.00     0.293 HD
ENDBRANCH  15  18
BRANCH  17  20
ATOM     20  O   UNL     1      28.615  -1.553   9.824  1.00  0.00    -0.504 OA
ATOM     21  H   UNL     1      28.115  -2.309   9.379  1.00  0.00     0.293 HD
ENDBRANCH  17  20
ENDBRANCH   1  12
BRANCH   2  22
ATOM     22  O   UNL     1      34.825  -1.274   9.404  1.00  0.00    -0.502 OA
ATOM     23  H   UNL     1      35.699  -1.768   9.269  1.00  0.00     0.293 HD
ENDBRANCH   2  22
BRANCH   6  24
ATOM     24  O   UNL     1      37.456   0.393  13.725  1.00  0.00    -0.507 OA
ATOM     25  H   UNL     1      37.960   0.318  12.855  1.00  0.00     0.293 HD
ENDBRANCH   6  24
BRANCH   8  26
ATOM     26  O   UNL     1      33.779   1.924  16.408  1.00  0.00    -0.508 OA
ATOM     27  H   UNL     1      32.800   2.149  16.545  1.00  0.00     0.293 HD
ENDBRANCH   8  26
TORSDOF 6
ENDMDL
MODEL 9
REMARK VINA RESULT:    -7.022      2.513      7.171
REMARK INTER + INTRA:          -8.772
REMARK INTER:                  -8.483
REMARK INTRA:                  -0.290
REMARK UNBOUND:                -0.313
REMARK SMILES O=c1c(O)c(-c2ccc(O)c(O)c2)oc2cc(O)cc(O)c12
REMARK SMILES IDX 5 1 3 2 2 3 1 4 22 5 20 6 19 7 17 8 16 9 15 10 14 11 6 12
REMARK SMILES IDX 7 13 8 14 9 15 13 16 11 17 10 18 12 20 4 22 21 24 18 26
REMARK H PARENT 10 19 12 21 4 23 21 25 18 27
REMARK Flexibility Score: inf
ROOT
ATOM      1  C   UNL     1      32.771  -0.248  12.302  1.00  0.00     0.180 A 
ATOM      2  C   UNL     1      31.414  -0.315  12.664  1.00  0.00     0.208 A 
ATOM      3  C   UNL     1      30.473  -0.727  11.706  1.00  0.00     0.238 A 
ATOM      4  O   UNL     1      29.268  -0.837  12.052  1.00  0.00    -0.285 OA
ATOM      5  C   UNL     1      30.898  -1.050  10.395  1.00  0.00     0.111 A 
ATOM      6  C   UNL     1      30.027  -1.441   9.334  1.00  0.00     0.134 A 
ATOM      7  C   UNL     1      30.570  -1.863   8.115  1.00  0.00     0.093 A 
ATOM      8  C   UNL     1      31.949  -1.848   7.896  1.00  0.00     0.123 A 
ATOM      9  C   UNL     1      32.804  -1.413   8.906  1.00  0.00     0.094 A 
ATOM     10  C   UNL     1      32.294  -1.019  10.146  1.00  0.00     0.146 A 
ATOM     11  O   UNL     1      33.145  -0.621  11.084  1.00  0.00    -0.452 OA
ENDROOT
BRANCH   1  12
ATOM     12  C   UNL     1      33.818   0.200  13.248  1.00  0.00     0.025 A 
ATOM     13  C   UNL     1      34.356   1.495  13.183  1.00  0.00     0.016 A 
ATOM     14  C   UNL     1      35.359   1.887  14.072  1.00  0.00     0.051 A 
ATOM     15  C   UNL     1      35.854   0.996  15.029  1.00  0.00     0.157 A 
ATOM     16  C   UNL     1      34.327  -0.703  14.195  1.00  0.00     0.062 A 
ATOM     17  C   UNL     1      35.334  -0.319  15.089  1.00  0.00     0.158 A 
BRANCH  15  18
ATOM     18  O   UNL     1      36.854   1.452  15.891  1.00  0.00    -0.504 OA
ATOM     19  H   UNL     1      36.688   2.068  16.672  1.00  0.00     0.293 HD
ENDBRANCH  15  18
BRANCH  17  20
ATOM     20  O   UNL     1      35.784  -1.267  16.011  1.00  0.00    -0.504 OA
ATOM     21  H   UNL     1      36.558  -1.118  16.641  1.00  0.00     0.293 HD
ENDBRANCH  17  20
ENDBRANCH   1  12
BRANCH   2  22
ATOM     22  O   UNL     1      31.020  -0.013  13.970  1.00  0.00    -0.502 OA
ATOM     23  H   UNL     1      30.967  -0.715  14.699  1.00  0.00     0.293 HD
ENDBRANCH   2  22
BRANCH   6  24
ATOM     24  O   UNL     1      28.631  -1.404   9.417  1.00  0.00    -0.507 OA
ATOM     25  H   UNL     1      28.108  -1.358  10.279  1.00  0.00     0.293 HD
ENDBRANCH   6  24
BRANCH   8  26
ATOM     26  O   UNL     1      32.480  -2.255   6.674  1.00  0.00    -0.508 OA
ATOM     27  H   UNL     1      32.612  -3.236   6.455  1.00  0.00     0.293 HD
ENDBRANCH   8  26
TORSDOF 6
ENDMDL
