MODEL 1
REMARK VINA RESULT:     0.876      0.000      0.000
REMARK INTER + INTRA:           0.069
REMARK INTER:                   1.439
REMARK INTRA:                  -1.371
REMARK UNBOUND:                -1.371
REMARK SMILES C[C@@H]1O[C@@H](OC[C@@H]2O[C@H](Oc3c(-c4ccc(O)c(O)c4)oc4cc(O)cc(O)c4c3=O)[C@H](O)[C@H](O)[C@@H]2O)[C@H](O)[C@H](O)[C@@H]1O
REMARK SMILES IDX 7 1 36 2 34 3 32 4 9 5 8 6 6 7 5 8 4 9 1 10 2 11 42 12 3 13
REMARK SMILES IDX 40 14 38 15 43 16 41 18 39 20 37 22 35 24 10 26 11 27 12 28
REMARK SMILES IDX 30 29 21 30 29 31 31 32 22 33 27 34 23 35 26 36 24 37 13 38
REMARK SMILES IDX 20 39 14 40 18 41 15 42 16 43 19 44 17 46 28 48 25 50 33 52
REMARK H PARENT 43 17 41 19 39 21 37 23 35 25 19 45 17 47 28 49 25 51 33 53
REMARK Flexibility Score: inf
ROOT
ATOM      1  C   UNL     1      46.928   6.423  20.948  1.00  0.00     0.180 C 
ATOM      2  C   UNL     1      48.219   6.112  21.746  1.00  0.00     0.177 C 
ATOM      3  C   UNL     1      48.075   6.632  23.193  1.00  0.00     0.180 C 
ATOM      4  C   UNL     1      47.519   8.078  23.233  1.00  0.00     0.214 C 
ATOM      5  C   UNL     1      46.313   8.216  22.288  1.00  0.00     0.339 C 
ATOM      6  O   UNL     1      46.658   7.817  20.971  1.00  0.00    -0.332 OA
ENDROOT
BRANCH   1   7
ATOM      7  C   UNL     1      47.018   5.935  19.498  1.00  0.00     0.198 C 
BRANCH   7   8
ATOM      8  O   UNL     1      46.843   7.039  18.626  1.00  0.00    -0.347 OA
BRANCH   8   9
ATOM      9  C   UNL     1      46.427   6.638  17.337  1.00  0.00     0.281 C 
ATOM     10  C   UNL     1      47.725   4.729  15.083  1.00  0.00     0.041 C 
ATOM     11  C   UNL     1      47.227   6.178  15.164  1.00  0.00     0.150 C 
ATOM     12  C   UNL     1      45.749   6.349  14.700  1.00  0.00     0.174 C 
ATOM     13  O   UNL     1      47.525   6.722  16.448  1.00  0.00    -0.344 OA
ATOM     14  C   UNL     1      45.165   7.629  15.332  1.00  0.00     0.179 C 
ATOM     15  C   UNL     1      45.301   7.596  16.878  1.00  0.00     0.202 C 
BRANCH  12  16
ATOM     16  O   UNL     1      44.976   5.229  15.061  1.00  0.00    -0.388 OA
ATOM     17  H   UNL     1      45.472   4.425  14.757  1.00  0.00     0.211 HD
ENDBRANCH  12  16
BRANCH  14  18
ATOM     18  O   UNL     1      43.822   7.804  14.953  1.00  0.00    -0.387 OA
ATOM     19  H   UNL     1      43.586   7.039  14.363  1.00  0.00     0.211 HD
ENDBRANCH  14  18
BRANCH  15  20
ATOM     20  O   UNL     1      44.085   7.262  17.505  1.00  0.00    -0.385 OA
ATOM     21  H   UNL     1      44.273   6.552  18.174  1.00  0.00     0.211 HD
ENDBRANCH  15  20
ENDBRANCH   8   9
ENDBRANCH   7   8
ENDBRANCH   1   7
BRANCH   2  22
ATOM     22  O   UNL     1      49.370   6.626  21.122  1.00  0.00    -0.387 OA
ATOM     23  H   UNL     1      50.165   6.200  21.527  1.00  0.00     0.211 HD
ENDBRANCH   2  22
BRANCH   3  24
ATOM     24  O   UNL     1      49.311   6.551  23.853  1.00  0.00    -0.387 OA
ATOM     25  H   UNL     1      49.181   6.946  24.756  1.00  0.00     0.211 HD
ENDBRANCH   3  24
BRANCH   5  26
ATOM     26  O   UNL     1      45.885   9.575  22.280  1.00  0.00    -0.454 OA
BRANCH  26  27
ATOM     27  C   UNL     1      44.563   9.943  22.553  1.00  0.00     0.214 A 
ATOM     28  C   UNL     1      43.746  10.456  21.535  1.00  0.00     0.180 A 
ATOM     29  C   UNL     1      44.020   9.758  23.830  1.00  0.00     0.239 A 
ATOM     30  O   UNL     1      42.477  10.758  21.782  1.00  0.00    -0.452 OA
ATOM     31  C   UNL     1      42.670  10.095  24.065  1.00  0.00     0.111 A 
ATOM     32  O   UNL     1      44.743   9.273  24.743  1.00  0.00    -0.285 OA
ATOM     33  C   UNL     1      41.918  10.602  22.979  1.00  0.00     0.146 A 
ATOM     34  C   UNL     1      42.042   9.937  25.325  1.00  0.00     0.134 A 
ATOM     35  C   UNL     1      40.573  10.944  23.151  1.00  0.00     0.094 A 
ATOM     36  C   UNL     1      40.692  10.284  25.477  1.00  0.00     0.093 A 
ATOM     37  C   UNL     1      39.958  10.785  24.398  1.00  0.00     0.123 A 
BRANCH  28  38
ATOM     38  C   UNL     1      44.269  10.656  20.176  1.00  0.00     0.025 A 
ATOM     39  C   UNL     1      43.408  10.566  19.072  1.00  0.00     0.062 A 
ATOM     40  C   UNL     1      45.627  10.941  19.977  1.00  0.00     0.016 A 
ATOM     41  C   UNL     1      43.906  10.722  17.773  1.00  0.00     0.158 A 
ATOM     42  C   UNL     1      46.129  11.093  18.682  1.00  0.00     0.051 A 
ATOM     43  C   UNL     1      45.274  10.979  17.575  1.00  0.00     0.157 A 
BRANCH  41  44
ATOM     44  O   UNL     1      43.030  10.618  16.692  1.00  0.00    -0.504 OA
ATOM     45  H   UNL     1      43.260  10.081  15.864  1.00  0.00     0.293 HD
ENDBRANCH  41  44
BRANCH  43  46
ATOM     46  O   UNL     1      45.780  11.122  16.285  1.00  0.00    -0.504 OA
ATOM     47  H   UNL     1      46.332  11.930  16.016  1.00  0.00     0.293 HD
ENDBRANCH  43  46
ENDBRANCH  28  38
BRANCH  34  48
ATOM     48  O   UNL     1      42.748   9.442  26.420  1.00  0.00    -0.507 OA
ATOM     49  H   UNL     1      43.286  10.050  27.029  1.00  0.00     0.293 HD
ENDBRANCH  34  48
BRANCH  37  50
ATOM     50  O   UNL     1      38.618  11.124  24.578  1.00  0.00    -0.508 OA
ATOM     51  H   UNL     1      38.297  12.079  24.469  1.00  0.00     0.293 HD
ENDBRANCH  37  50
ENDBRANCH  26  27
ENDBRANCH   5  26
BRANCH   4  52
ATOM     52  O   UNL     1      48.508   9.007  22.874  1.00  0.00    -0.384 OA
ATOM     53  H   UNL     1      48.957   8.643  22.067  1.00  0.00     0.211 HD
ENDBRANCH   4  52
TORSDOF 16
ENDMDL
MODEL 2
REMARK VINA RESULT:     2.683      1.631      4.149
REMARK INTER + INTRA:           3.037
REMARK INTER:                   2.184
REMARK INTRA:                   0.853
REMARK UNBOUND:                -1.371
REMARK SMILES C[C@@H]1O[C@@H](OC[C@@H]2O[C@H](Oc3c(-c4ccc(O)c(O)c4)oc4cc(O)cc(O)c4c3=O)[C@H](O)[C@H](O)[C@@H]2O)[C@H](O)[C@H](O)[C@@H]1O
REMARK SMILES IDX 7 1 36 2 34 3 32 4 9 5 8 6 6 7 5 8 4 9 1 10 2 11 42 12 3 13
REMARK SMILES IDX 40 14 38 15 43 16 41 18 39 20 37 22 35 24 10 26 11 27 12 28
REMARK SMILES IDX 30 29 21 30 29 31 31 32 22 33 27 34 23 35 26 36 24 37 13 38
REMARK SMILES IDX 20 39 14 40 18 41 15 42 16 43 19 44 17 46 28 48 25 50 33 52
REMARK H PARENT 43 17 41 19 39 21 37 23 35 25 19 45 17 47 28 49 25 51 33 53
REMARK Flexibility Score: inf
ROOT
ATOM      1  C   UNL     1      45.749   9.568  17.338  1.00  0.00     0.180 C 
ATOM      2  C   UNL     1      46.214   8.111  17.585  1.00  0.00     0.177 C 
ATOM      3  C   UNL     1      45.454   7.518  18.791  1.00  0.00     0.180 C 
ATOM      4  C   UNL     1      45.430   8.494  19.995  1.00  0.00     0.214 C 
ATOM      5  C   UNL     1      45.061   9.913  19.529  1.00  0.00     0.339 C 
ATOM      6  O   UNL     1      45.941  10.352  18.506  1.00  0.00    -0.332 OA
ENDROOT
BRANCH   1   7
ATOM      7  C   UNL     1      46.479  10.212  16.154  1.00  0.00     0.198 C 
BRANCH   7   8
ATOM      8  O   UNL     1      45.831   9.834  14.950  1.00  0.00    -0.347 OA
BRANCH   8   9
ATOM      9  C   UNL     1      45.543   8.452  14.914  1.00  0.00     0.281 C 
ATOM     10  C   UNL     1      47.386   5.805  14.828  1.00  0.00     0.041 C 
ATOM     11  C   UNL     1      46.262   6.408  13.976  1.00  0.00     0.150 C 
ATOM     12  C   UNL     1      44.848   5.865  14.346  1.00  0.00     0.174 C 
ATOM     13  O   UNL     1      46.377   7.829  13.955  1.00  0.00    -0.344 OA
ATOM     14  C   UNL     1      43.781   6.884  13.898  1.00  0.00     0.179 C 
ATOM     15  C   UNL     1      44.058   8.283  14.511  1.00  0.00     0.202 C 
BRANCH  12  16
ATOM     16  O   UNL     1      44.748   5.628  15.730  1.00  0.00    -0.388 OA
ATOM     17  H   UNL     1      44.073   6.265  16.084  1.00  0.00     0.211 HD
ENDBRANCH  12  16
BRANCH  14  18
ATOM     18  O   UNL     1      42.492   6.437  14.238  1.00  0.00    -0.387 OA
ATOM     19  H   UNL     1      42.027   7.199  14.676  1.00  0.00     0.211 HD
ENDBRANCH  14  18
BRANCH  15  20
ATOM     20  O   UNL     1      43.217   8.551  15.609  1.00  0.00    -0.385 OA
ATOM     21  H   UNL     1      43.777   8.542  16.430  1.00  0.00     0.211 HD
ENDBRANCH  15  20
ENDBRANCH   8   9
ENDBRANCH   7   8
ENDBRANCH   1   7
BRANCH   2  22
ATOM     22  O   UNL     1      47.608   8.017  17.754  1.00  0.00    -0.387 OA
ATOM     23  H   UNL     1      47.804   7.236  18.327  1.00  0.00     0.211 HD
ENDBRANCH   2  22
BRANCH   3  24
ATOM     24  O   UNL     1      46.023   6.287  19.155  1.00  0.00    -0.387 OA
ATOM     25  H   UNL     1      46.903   6.488  19.569  1.00  0.00     0.211 HD
ENDBRANCH   3  24
BRANCH   5  26
ATOM     26  O   UNL     1      45.138  10.800  20.641  1.00  0.00    -0.454 OA
BRANCH  26  27
ATOM     27  C   UNL     1      44.410  10.588  21.816  1.00  0.00     0.214 A 
ATOM     28  C   UNL     1      45.068  10.230  23.002  1.00  0.00     0.180 A 
ATOM     29  C   UNL     1      43.023  10.778  21.842  1.00  0.00     0.239 A 
ATOM     30  O   UNL     1      44.384  10.078  24.130  1.00  0.00    -0.452 OA
ATOM     31  C   UNL     1      42.321  10.602  23.053  1.00  0.00     0.111 A 
ATOM     32  O   UNL     1      42.429  11.124  20.783  1.00  0.00    -0.285 OA
ATOM     33  C   UNL     1      43.066  10.245  24.202  1.00  0.00     0.146 A 
ATOM     34  C   UNL     1      40.920  10.775  23.166  1.00  0.00     0.134 A 
ATOM     35  C   UNL     1      42.424  10.066  25.431  1.00  0.00     0.094 A 
ATOM     36  C   UNL     1      40.295  10.593  24.408  1.00  0.00     0.093 A 
ATOM     37  C   UNL     1      41.040  10.240  25.537  1.00  0.00     0.123 A 
BRANCH  28  38
ATOM     38  C   UNL     1      46.524  10.033  23.027  1.00  0.00     0.025 A 
ATOM     39  C   UNL     1      47.057   8.750  23.219  1.00  0.00     0.062 A 
ATOM     40  C   UNL     1      47.388  11.125  22.855  1.00  0.00     0.016 A 
ATOM     41  C   UNL     1      48.443   8.560  23.278  1.00  0.00     0.158 A 
ATOM     42  C   UNL     1      48.772  10.940  22.916  1.00  0.00     0.051 A 
ATOM     43  C   UNL     1      49.305   9.661  23.133  1.00  0.00     0.157 A 
BRANCH  41  44
ATOM     44  O   UNL     1      48.945   7.274  23.480  1.00  0.00    -0.504 OA
ATOM     45  H   UNL     1      48.493   6.454  23.093  1.00  0.00     0.293 HD
ENDBRANCH  41  44
BRANCH  43  46
ATOM     46  O   UNL     1      50.685   9.483  23.203  1.00  0.00    -0.504 OA
ATOM     47  H   UNL     1      51.171   9.434  24.093  1.00  0.00     0.293 HD
ENDBRANCH  43  46
ENDBRANCH  28  38
BRANCH  34  48
ATOM     48  O   UNL     1      40.149  11.125  22.058  1.00  0.00    -0.507 OA
ATOM     49  H   UNL     1      39.144  11.241  22.121  1.00  0.00     0.293 HD
ENDBRANCH  34  48
BRANCH  37  50
ATOM     50  O   UNL     1      40.393  10.063  26.758  1.00  0.00    -0.508 OA
ATOM     51  H   UNL     1      40.497  10.732  27.512  1.00  0.00     0.293 HD
ENDBRANCH  37  50
ENDBRANCH  26  27
ENDBRANCH   5  26
BRANCH   4  52
ATOM     52  O   UNL     1      46.675   8.521  20.644  1.00  0.00    -0.384 OA
ATOM     53  H   UNL     1      46.636   9.266  21.298  1.00  0.00     0.211 HD
ENDBRANCH   4  52
TORSDOF 16
ENDMDL
