MODEL 1
REMARK VINA RESULT:    -7.403      0.000      0.000
REMARK INTER + INTRA:         -11.640
REMARK INTER:                 -10.649
REMARK INTRA:                  -0.991
REMARK UNBOUND:                -0.991
REMARK SMILES O=c1cc(-c2ccc(O)c(O)c2)oc2cc(O[C@H]3O[C@H](CO)[C@@H](O)[C@H](O)[C@@H]3O)cc(O)c12
REMARK SMILES IDX 17 1 16 2 4 3 3 4 13 5 2 6 14 7 1 8 32 9 15 10 30 11 29 12
REMARK SMILES IDX 5 13 6 14 7 15 8 16 12 17 10 18 9 19 11 21 31 23 18 25 27 26
REMARK SMILES IDX 19 27 25 28 20 29 23 30 28 31 26 33 21 35 22 36 24 38
REMARK H PARENT 9 20 11 22 31 24 28 32 26 34 22 37 24 39
REMARK Flexibility Score: inf
ROOT
ATOM      1  O   UNL     1      11.762  80.240  60.332  1.00  0.00    -0.462 OA
ENDROOT
BRANCH   1   2
ATOM      2  C   UNL     1      10.389  80.145  60.616  1.00  0.00     0.130 A 
ATOM      3  C   UNL     1       7.082  78.562  63.667  1.00  0.00     0.138 A 
ATOM      4  C   UNL     1       6.028  79.053  62.879  1.00  0.00     0.100 A 
ATOM      5  O   UNL     1       8.337  78.731  63.260  1.00  0.00    -0.456 OA
ATOM      6  C   UNL     1       6.316  79.722  61.689  1.00  0.00     0.197 A 
ATOM      7  C   UNL     1       8.662  79.361  62.134  1.00  0.00     0.146 A 
ATOM      8  O   UNL     1       5.364  80.159  60.987  1.00  0.00    -0.289 OA
ATOM      9  C   UNL     1       7.658  79.893  61.293  1.00  0.00     0.107 A 
ATOM     10  C   UNL     1      10.010  79.491  61.791  1.00  0.00     0.094 A 
ATOM     11  C   UNL     1       8.036  80.559  60.106  1.00  0.00     0.134 A 
ATOM     12  C   UNL     1       9.395  80.682  59.777  1.00  0.00     0.093 A 
BRANCH   3  13
ATOM     13  C   UNL     1       6.836  77.841  64.942  1.00  0.00     0.021 A 
ATOM     14  C   UNL     1       7.594  78.170  66.079  1.00  0.00     0.016 A 
ATOM     15  C   UNL     1       7.377  77.513  67.292  1.00  0.00     0.051 A 
ATOM     16  C   UNL     1       6.395  76.524  67.396  1.00  0.00     0.157 A 
ATOM     17  C   UNL     1       5.838  76.854  65.054  1.00  0.00     0.062 A 
ATOM     18  C   UNL     1       5.619  76.193  66.273  1.00  0.00     0.158 A 
BRANCH  16  19
ATOM     19  O   UNL     1       6.203  75.884  68.619  1.00  0.00    -0.504 OA
ATOM     20  H   UNL     1       5.299  75.529  68.905  1.00  0.00     0.293 HD
ENDBRANCH  16  19
BRANCH  18  21
ATOM     21  O   UNL     1       4.630  75.216  66.372  1.00  0.00    -0.504 OA
ATOM     22  H   UNL     1       3.834  75.200  65.745  1.00  0.00     0.293 HD
ENDBRANCH  18  21
ENDBRANCH   3  13
BRANCH  11  23
ATOM     23  O   UNL     1       7.075  81.100  59.251  1.00  0.00    -0.507 OA
ATOM     24  H   UNL     1       6.295  81.645  59.600  1.00  0.00     0.293 HD
ENDBRANCH  11  23
ENDBRANCH   1   2
BRANCH   1  25
ATOM     25  C   UNL     1      12.458  79.545  59.291  1.00  0.00     0.339 C 
ATOM     26  C   UNL     1      12.604  78.037  59.614  1.00  0.00     0.214 C 
ATOM     27  O   UNL     1      13.724  80.143  59.062  1.00  0.00    -0.332 OA
ATOM     28  C   UNL     1      13.583  77.821  60.785  1.00  0.00     0.180 C 
ATOM     29  C   UNL     1      14.556  80.075  60.211  1.00  0.00     0.179 C 
ATOM     30  C   UNL     1      14.886  78.605  60.570  1.00  0.00     0.177 C 
BRANCH  26  31
ATOM     31  O   UNL     1      12.996  77.310  58.475  1.00  0.00    -0.384 OA
ATOM     32  H   UNL     1      12.267  77.363  57.805  1.00  0.00     0.211 HD
ENDBRANCH  26  31
BRANCH  28  33
ATOM     33  O   UNL     1      13.877  76.456  60.933  1.00  0.00    -0.387 OA
ATOM     34  H   UNL     1      14.777  76.312  60.541  1.00  0.00     0.211 HD
ENDBRANCH  28  33
BRANCH  29  35
ATOM     35  C   UNL     1      15.828  80.887  59.934  1.00  0.00     0.191 C 
BRANCH  35  36
ATOM     36  O   UNL     1      16.438  81.269  61.136  1.00  0.00    -0.394 OA
ATOM     37  H   UNL     1      16.422  80.467  61.719  1.00  0.00     0.210 HD
ENDBRANCH  35  36
ENDBRANCH  29  35
BRANCH  30  38
ATOM     38  O   UNL     1      15.644  78.552  61.752  1.00  0.00    -0.387 OA
ATOM     39  H   UNL     1      15.348  79.307  62.325  1.00  0.00     0.211 HD
ENDBRANCH  30  38
ENDBRANCH   1  25
TORSDOF 11
ENDMDL
MODEL 2
REMARK VINA RESULT:    -7.109      5.960      9.633
REMARK INTER + INTRA:         -11.218
REMARK INTER:                 -10.264
REMARK INTRA:                  -0.954
REMARK UNBOUND:                -0.991
REMARK SMILES O=c1cc(-c2ccc(O)c(O)c2)oc2cc(O[C@H]3O[C@H](CO)[C@@H](O)[C@H](O)[C@@H]3O)cc(O)c12
REMARK SMILES IDX 17 1 16 2 4 3 3 4 13 5 2 6 14 7 1 8 32 9 15 10 30 11 29 12
REMARK SMILES IDX 5 13 6 14 7 15 8 16 12 17 10 18 9 19 11 21 31 23 18 25 27 26
REMARK SMILES IDX 19 27 25 28 20 29 23 30 28 31 26 33 21 35 22 36 24 38
REMARK H PARENT 9 20 11 22 31 24 28 32 26 34 22 37 24 39
REMARK Flexibility Score: inf
ROOT
ATOM      1  O   UNL     1       4.515  79.969  64.047  1.00  0.00    -0.462 OA
ENDROOT
BRANCH   1   2
ATOM      2  C   UNL     1       3.436  80.710  63.539  1.00  0.00     0.130 A 
ATOM      3  C   UNL     1       1.867  85.016  62.215  1.00  0.00     0.138 A 
ATOM      4  C   UNL     1       0.599  84.519  61.874  1.00  0.00     0.100 A 
ATOM      5  O   UNL     1       2.790  84.182  62.689  1.00  0.00    -0.456 OA
ATOM      6  C   UNL     1       0.331  83.158  62.025  1.00  0.00     0.197 A 
ATOM      7  C   UNL     1       2.584  82.879  62.851  1.00  0.00     0.146 A 
ATOM      8  O   UNL     1      -0.811  82.721  61.718  1.00  0.00    -0.289 OA
ATOM      9  C   UNL     1       1.336  82.302  62.520  1.00  0.00     0.107 A 
ATOM     10  C   UNL     1       3.616  82.082  63.353  1.00  0.00     0.094 A 
ATOM     11  C   UNL     1       1.149  80.913  62.701  1.00  0.00     0.134 A 
ATOM     12  C   UNL     1       2.198  80.128  63.205  1.00  0.00     0.093 A 
BRANCH   3  13
ATOM     13  C   UNL     1       2.208  86.455  62.077  1.00  0.00     0.021 A 
ATOM     14  C   UNL     1       3.542  86.829  61.841  1.00  0.00     0.016 A 
ATOM     15  C   UNL     1       3.888  88.174  61.699  1.00  0.00     0.051 A 
ATOM     16  C   UNL     1       2.909  89.169  61.780  1.00  0.00     0.157 A 
ATOM     17  C   UNL     1       1.223  87.459  62.144  1.00  0.00     0.062 A 
ATOM     18  C   UNL     1       1.569  88.811  62.001  1.00  0.00     0.158 A 
BRANCH  16  19
ATOM     19  O   UNL     1       3.286  90.504  61.637  1.00  0.00    -0.504 OA
ATOM     20  H   UNL     1       4.064  90.902  62.148  1.00  0.00     0.293 HD
ENDBRANCH  16  19
BRANCH  18  21
ATOM     21  O   UNL     1       0.587  89.797  62.071  1.00  0.00    -0.504 OA
ATOM     22  H   UNL     1       0.811  90.754  62.314  1.00  0.00     0.293 HD
ENDBRANCH  18  21
ENDBRANCH   3  13
BRANCH  11  23
ATOM     23  O   UNL     1      -0.067  80.306  62.384  1.00  0.00    -0.507 OA
ATOM     24  H   UNL     1      -0.912  80.496  62.910  1.00  0.00     0.293 HD
ENDBRANCH  11  23
ENDBRANCH   1   2
BRANCH   1  25
ATOM     25  C   UNL     1       4.797  78.591  63.771  1.00  0.00     0.339 C 
ATOM     26  C   UNL     1       5.401  77.877  65.006  1.00  0.00     0.214 C 
ATOM     27  O   UNL     1       5.656  78.480  62.647  1.00  0.00    -0.332 OA
ATOM     28  C   UNL     1       6.826  78.392  65.293  1.00  0.00     0.180 C 
ATOM     29  C   UNL     1       6.911  79.105  62.877  1.00  0.00     0.179 C 
ATOM     30  C   UNL     1       7.681  78.396  64.018  1.00  0.00     0.177 C 
BRANCH  26  31
ATOM     31  O   UNL     1       5.383  76.479  64.843  1.00  0.00    -0.384 OA
ATOM     32  H   UNL     1       6.231  76.205  64.408  1.00  0.00     0.211 HD
ENDBRANCH  26  31
BRANCH  28  33
ATOM     33  O   UNL     1       7.446  77.597  66.271  1.00  0.00    -0.387 OA
ATOM     34  H   UNL     1       7.941  78.214  66.870  1.00  0.00     0.211 HD
ENDBRANCH  28  33
BRANCH  29  35
ATOM     35  C   UNL     1       7.704  79.088  61.564  1.00  0.00     0.191 C 
BRANCH  35  36
ATOM     36  O   UNL     1       8.553  77.973  61.520  1.00  0.00    -0.394 OA
ATOM     37  H   UNL     1       9.093  78.072  60.693  1.00  0.00     0.210 HD
ENDBRANCH  35  36
ENDBRANCH  29  35
BRANCH  30  38
ATOM     38  O   UNL     1       8.884  79.073  64.285  1.00  0.00    -0.387 OA
ATOM     39  H   UNL     1       8.958  79.812  63.626  1.00  0.00     0.211 HD
ENDBRANCH  30  38
ENDBRANCH   1  25
TORSDOF 11
ENDMDL
MODEL 3
REMARK VINA RESULT:    -6.956      1.950      9.326
REMARK INTER + INTRA:         -10.997
REMARK INTER:                 -10.031
REMARK INTRA:                  -0.966
REMARK UNBOUND:                -0.991
REMARK SMILES O=c1cc(-c2ccc(O)c(O)c2)oc2cc(O[C@H]3O[C@H](CO)[C@@H](O)[C@H](O)[C@@H]3O)cc(O)c12
REMARK SMILES IDX 17 1 16 2 4 3 3 4 13 5 2 6 14 7 1 8 32 9 15 10 30 11 29 12
REMARK SMILES IDX 5 13 6 14 7 15 8 16 12 17 10 18 9 19 11 21 31 23 18 25 27 26
REMARK SMILES IDX 19 27 25 28 20 29 23 30 28 31 26 33 21 35 22 36 24 38
REMARK H PARENT 9 20 11 22 31 24 28 32 26 34 22 37 24 39
REMARK Flexibility Score: inf
ROOT
ATOM      1  O   UNL     1       5.648  77.313  65.379  1.00  0.00    -0.462 OA
ENDROOT
BRANCH   1   2
ATOM      2  C   UNL     1       5.959  78.105  64.261  1.00  0.00     0.130 A 
ATOM      3  C   UNL     1       9.335  79.421  61.160  1.00  0.00     0.138 A 
ATOM      4  C   UNL     1       8.463  80.287  60.480  1.00  0.00     0.100 A 
ATOM      5  O   UNL     1       8.890  78.735  62.209  1.00  0.00    -0.456 OA
ATOM      6  C   UNL     1       7.140  80.404  60.908  1.00  0.00     0.197 A 
ATOM      7  C   UNL     1       7.639  78.811  62.655  1.00  0.00     0.146 A 
ATOM      8  O   UNL     1       6.365  81.184  60.293  1.00  0.00    -0.289 OA
ATOM      9  C   UNL     1       6.699  79.653  62.016  1.00  0.00     0.107 A 
ATOM     10  C   UNL     1       7.262  78.049  63.764  1.00  0.00     0.094 A 
ATOM     11  C   UNL     1       5.377  79.710  62.513  1.00  0.00     0.134 A 
ATOM     12  C   UNL     1       5.016  78.936  63.627  1.00  0.00     0.093 A 
BRANCH   3  13
ATOM     13  C   UNL     1      10.754  79.258  60.751  1.00  0.00     0.021 A 
ATOM     14  C   UNL     1      11.148  78.090  60.076  1.00  0.00     0.016 A 
ATOM     15  C   UNL     1      12.474  77.916  59.673  1.00  0.00     0.051 A 
ATOM     16  C   UNL     1      13.427  78.906  59.927  1.00  0.00     0.157 A 
ATOM     17  C   UNL     1      11.714  80.260  60.992  1.00  0.00     0.062 A 
ATOM     18  C   UNL     1      13.046  80.086  60.587  1.00  0.00     0.158 A 
BRANCH  16  19
ATOM     19  O   UNL     1      14.744  78.702  59.515  1.00  0.00    -0.504 OA
ATOM     20  H   UNL     1      15.104  79.092  58.653  1.00  0.00     0.293 HD
ENDBRANCH  16  19
BRANCH  18  21
ATOM     21  O   UNL     1      13.989  81.083  60.833  1.00  0.00    -0.504 OA
ATOM     22  H   UNL     1      14.983  80.888  60.822  1.00  0.00     0.293 HD
ENDBRANCH  18  21
ENDBRANCH   3  13
BRANCH  11  23
ATOM     23  O   UNL     1       4.420  80.526  61.909  1.00  0.00    -0.507 OA
ATOM     24  H   UNL     1       3.429  80.412  62.090  1.00  0.00     0.293 HD
ENDBRANCH  11  23
ENDBRANCH   1   2
BRANCH   1  25
ATOM     25  C   UNL     1       6.214  77.443  66.689  1.00  0.00     0.339 C 
ATOM     26  C   UNL     1       6.067  76.134  67.503  1.00  0.00     0.214 C 
ATOM     27  O   UNL     1       5.624  78.539  67.372  1.00  0.00    -0.332 OA
ATOM     28  C   UNL     1       4.591  75.881  67.870  1.00  0.00     0.180 C 
ATOM     29  C   UNL     1       4.227  78.355  67.558  1.00  0.00     0.179 C 
ATOM     30  C   UNL     1       3.946  77.138  68.471  1.00  0.00     0.177 C 
BRANCH  26  31
ATOM     31  O   UNL     1       6.885  76.155  68.649  1.00  0.00    -0.384 OA
ATOM     32  H   UNL     1       6.308  76.311  69.440  1.00  0.00     0.211 HD
ENDBRANCH  26  31
BRANCH  28  33
ATOM     33  O   UNL     1       4.488  74.819  68.784  1.00  0.00    -0.387 OA
ATOM     34  H   UNL     1       4.061  74.065  68.300  1.00  0.00     0.211 HD
ENDBRANCH  28  33
BRANCH  29  35
ATOM     35  C   UNL     1       3.647  79.648  68.145  1.00  0.00     0.191 C 
BRANCH  35  36
ATOM     36  O   UNL     1       3.450  79.514  69.526  1.00  0.00    -0.394 OA
ATOM     37  H   UNL     1       3.562  80.422  69.909  1.00  0.00     0.210 HD
ENDBRANCH  35  36
ENDBRANCH  29  35
BRANCH  30  38
ATOM     38  O   UNL     1       2.561  76.924  68.582  1.00  0.00    -0.387 OA
ATOM     39  H   UNL     1       2.131  77.816  68.657  1.00  0.00     0.211 HD
ENDBRANCH  30  38
ENDBRANCH   1  25
TORSDOF 11
ENDMDL
MODEL 4
REMARK VINA RESULT:    -6.952      6.378     10.978
REMARK INTER + INTRA:         -10.991
REMARK INTER:                 -10.142
REMARK INTRA:                  -0.849
REMARK UNBOUND:                -0.991
REMARK SMILES O=c1cc(-c2ccc(O)c(O)c2)oc2cc(O[C@H]3O[C@H](CO)[C@@H](O)[C@H](O)[C@@H]3O)cc(O)c12
REMARK SMILES IDX 17 1 16 2 4 3 3 4 13 5 2 6 14 7 1 8 32 9 15 10 30 11 29 12
REMARK SMILES IDX 5 13 6 14 7 15 8 16 12 17 10 18 9 19 11 21 31 23 18 25 27 26
REMARK SMILES IDX 19 27 25 28 20 29 23 30 28 31 26 33 21 35 22 36 24 38
REMARK H PARENT 9 20 11 22 31 24 28 32 26 34 22 37 24 39
REMARK Flexibility Score: inf
ROOT
ATOM      1  O   UNL     1       3.750  80.858  65.746  1.00  0.00    -0.462 OA
ENDROOT
BRANCH   1   2
ATOM      2  C   UNL     1       2.877  81.849  65.267  1.00  0.00     0.130 A 
ATOM      3  C   UNL     1       2.466  85.871  62.735  1.00  0.00     0.138 A 
ATOM      4  C   UNL     1       1.082  85.944  62.957  1.00  0.00     0.100 A 
ATOM      5  O   UNL     1       3.161  84.864  63.261  1.00  0.00    -0.456 OA
ATOM      6  C   UNL     1       0.454  84.954  63.715  1.00  0.00     0.197 A 
ATOM      7  C   UNL     1       2.609  83.898  63.989  1.00  0.00     0.146 A 
ATOM      8  O   UNL     1      -0.789  85.029  63.910  1.00  0.00    -0.289 OA
ATOM      9  C   UNL     1       1.219  83.897  64.247  1.00  0.00     0.107 A 
ATOM     10  C   UNL     1       3.420  82.880  64.497  1.00  0.00     0.094 A 
ATOM     11  C   UNL     1       0.663  82.854  65.022  1.00  0.00     0.134 A 
ATOM     12  C   UNL     1       1.493  81.838  65.523  1.00  0.00     0.093 A 
BRANCH   3  13
ATOM     13  C   UNL     1       3.187  86.896  61.939  1.00  0.00     0.021 A 
ATOM     14  C   UNL     1       4.264  86.507  61.124  1.00  0.00     0.016 A 
ATOM     15  C   UNL     1       4.954  87.451  60.360  1.00  0.00     0.051 A 
ATOM     16  C   UNL     1       4.577  88.796  60.387  1.00  0.00     0.157 A 
ATOM     17  C   UNL     1       2.802  88.251  61.953  1.00  0.00     0.062 A 
ATOM     18  C   UNL     1       3.494  89.199  61.185  1.00  0.00     0.158 A 
BRANCH  16  19
ATOM     19  O   UNL     1       5.286  89.715  59.615  1.00  0.00    -0.504 OA
ATOM     20  H   UNL     1       6.289  89.829  59.700  1.00  0.00     0.293 HD
ENDBRANCH  16  19
BRANCH  18  21
ATOM     21  O   UNL     1       3.104  90.537  61.207  1.00  0.00    -0.504 OA
ATOM     22  H   UNL     1       3.019  91.081  60.357  1.00  0.00     0.293 HD
ENDBRANCH  18  21
ENDBRANCH   3  13
BRANCH  11  23
ATOM     23  O   UNL     1      -0.704  82.816  65.296  1.00  0.00    -0.507 OA
ATOM     24  H   UNL     1      -1.119  83.386  66.025  1.00  0.00     0.293 HD
ENDBRANCH  11  23
ENDBRANCH   1   2
BRANCH   1  25
ATOM     25  C   UNL     1       3.433  79.472  65.929  1.00  0.00     0.339 C 
ATOM     26  C   UNL     1       3.642  79.032  67.399  1.00  0.00     0.214 C 
ATOM     27  O   UNL     1       4.199  78.672  65.042  1.00  0.00    -0.332 OA
ATOM     28  C   UNL     1       5.142  79.016  67.757  1.00  0.00     0.180 C 
ATOM     29  C   UNL     1       5.593  78.798  65.287  1.00  0.00     0.179 C 
ATOM     30  C   UNL     1       5.958  78.266  66.694  1.00  0.00     0.177 C 
BRANCH  26  31
ATOM     31  O   UNL     1       3.043  77.782  67.644  1.00  0.00    -0.384 OA
ATOM     32  H   UNL     1       3.658  77.073  67.325  1.00  0.00     0.211 HD
ENDBRANCH  26  31
BRANCH  28  33
ATOM     33  O   UNL     1       5.340  78.414  69.011  1.00  0.00    -0.387 OA
ATOM     34  H   UNL     1       4.816  78.943  69.668  1.00  0.00     0.211 HD
ENDBRANCH  28  33
BRANCH  29  35
ATOM     35  C   UNL     1       6.345  78.040  64.185  1.00  0.00     0.191 C 
BRANCH  35  36
ATOM     36  O   UNL     1       6.368  76.667  64.462  1.00  0.00    -0.394 OA
ATOM     37  H   UNL     1       7.235  76.492  64.912  1.00  0.00     0.210 HD
ENDBRANCH  35  36
ENDBRANCH  29  35
BRANCH  30  38
ATOM     38  O   UNL     1       7.325  78.469  66.950  1.00  0.00    -0.387 OA
ATOM     39  H   UNL     1       7.468  79.448  67.028  1.00  0.00     0.211 HD
ENDBRANCH  30  38
ENDBRANCH   1  25
TORSDOF 11
ENDMDL
MODEL 5
REMARK VINA RESULT:    -6.732      6.326     10.528
REMARK INTER + INTRA:         -10.675
REMARK INTER:                  -9.941
REMARK INTRA:                  -0.734
REMARK UNBOUND:                -0.991
REMARK SMILES O=c1cc(-c2ccc(O)c(O)c2)oc2cc(O[C@H]3O[C@H](CO)[C@@H](O)[C@H](O)[C@@H]3O)cc(O)c12
REMARK SMILES IDX 17 1 16 2 4 3 3 4 13 5 2 6 14 7 1 8 32 9 15 10 30 11 29 12
REMARK SMILES IDX 5 13 6 14 7 15 8 16 12 17 10 18 9 19 11 21 31 23 18 25 27 26
REMARK SMILES IDX 19 27 25 28 20 29 23 30 28 31 26 33 21 35 22 36 24 38
REMARK H PARENT 9 20 11 22 31 24 28 32 26 34 22 37 24 39
REMARK Flexibility Score: inf
ROOT
ATOM      1  O   UNL     1       3.662  79.498  65.874  1.00  0.00    -0.462 OA
ENDROOT
BRANCH   1   2
ATOM      2  C   UNL     1       3.896  80.113  64.633  1.00  0.00     0.130 A 
ATOM      3  C   UNL     1       3.554  84.128  62.080  1.00  0.00     0.138 A 
ATOM      4  C   UNL     1       4.110  83.526  60.940  1.00  0.00     0.100 A 
ATOM      5  O   UNL     1       3.393  83.408  63.188  1.00  0.00    -0.456 OA
ATOM      6  C   UNL     1       4.497  82.186  60.991  1.00  0.00     0.197 A 
ATOM      7  C   UNL     1       3.746  82.130  63.286  1.00  0.00     0.146 A 
ATOM      8  O   UNL     1       4.993  81.654  59.962  1.00  0.00    -0.289 OA
ATOM      9  C   UNL     1       4.322  81.457  62.184  1.00  0.00     0.107 A 
ATOM     10  C   UNL     1       3.540  81.457  64.493  1.00  0.00     0.094 A 
ATOM     11  C   UNL     1       4.688  80.099  62.321  1.00  0.00     0.134 A 
ATOM     12  C   UNL     1       4.475  79.439  63.542  1.00  0.00     0.093 A 
BRANCH   3  13
ATOM     13  C   UNL     1       3.123  85.549  62.084  1.00  0.00     0.021 A 
ATOM     14  C   UNL     1       4.092  86.566  62.026  1.00  0.00     0.016 A 
ATOM     15  C   UNL     1       3.712  87.910  62.019  1.00  0.00     0.051 A 
ATOM     16  C   UNL     1       2.361  88.264  62.062  1.00  0.00     0.157 A 
ATOM     17  C   UNL     1       1.762  85.910  62.113  1.00  0.00     0.062 A 
ATOM     18  C   UNL     1       1.379  87.260  62.106  1.00  0.00     0.158 A 
BRANCH  16  19
ATOM     19  O   UNL     1       2.013  89.614  62.057  1.00  0.00    -0.504 OA
ATOM     20  H   UNL     1       1.509  90.043  62.824  1.00  0.00     0.293 HD
ENDBRANCH  16  19
BRANCH  18  21
ATOM     21  O   UNL     1       0.030  87.606  62.136  1.00  0.00    -0.504 OA
ATOM     22  H   UNL     1      -0.297  88.429  62.628  1.00  0.00     0.293 HD
ENDBRANCH  18  21
ENDBRANCH   3  13
BRANCH  11  23
ATOM     23  O   UNL     1       5.262  79.400  61.258  1.00  0.00    -0.507 OA
ATOM     24  H   UNL     1       5.119  78.404  61.134  1.00  0.00     0.293 HD
ENDBRANCH  11  23
ENDBRANCH   1   2
BRANCH   1  25
ATOM     25  C   UNL     1       4.547  79.507  67.000  1.00  0.00     0.339 C 
ATOM     26  C   UNL     1       5.679  78.462  66.841  1.00  0.00     0.214 C 
ATOM     27  O   UNL     1       3.819  79.294  68.200  1.00  0.00    -0.332 OA
ATOM     28  C   UNL     1       5.118  77.029  66.950  1.00  0.00     0.180 C 
ATOM     29  C   UNL     1       3.176  78.027  68.209  1.00  0.00     0.179 C 
ATOM     30  C   UNL     1       4.215  76.879  68.182  1.00  0.00     0.177 C 
BRANCH  26  31
ATOM     31  O   UNL     1       6.708  78.683  67.775  1.00  0.00    -0.384 OA
ATOM     32  H   UNL     1       7.495  78.144  67.504  1.00  0.00     0.211 HD
ENDBRANCH  26  31
BRANCH  28  33
ATOM     33  O   UNL     1       6.167  76.097  67.021  1.00  0.00    -0.387 OA
ATOM     34  H   UNL     1       5.755  75.217  67.222  1.00  0.00     0.211 HD
ENDBRANCH  28  33
BRANCH  29  35
ATOM     35  C   UNL     1       2.282  77.950  69.453  1.00  0.00     0.191 C 
BRANCH  35  36
ATOM     36  O   UNL     1       2.498  79.062  70.280  1.00  0.00    -0.394 OA
ATOM     37  H   UNL     1       1.600  79.361  70.578  1.00  0.00     0.210 HD
ENDBRANCH  35  36
ENDBRANCH  29  35
BRANCH  30  38
ATOM     38  O   UNL     1       3.562  75.636  68.113  1.00  0.00    -0.387 OA
ATOM     39  H   UNL     1       3.450  75.415  67.151  1.00  0.00     0.211 HD
ENDBRANCH  30  38
ENDBRANCH   1  25
TORSDOF 11
ENDMDL
MODEL 6
REMARK VINA RESULT:    -6.609      4.329      8.366
REMARK INTER + INTRA:         -10.498
REMARK INTER:                  -9.754
REMARK INTRA:                  -0.743
REMARK UNBOUND:                -0.991
REMARK SMILES O=c1cc(-c2ccc(O)c(O)c2)oc2cc(O[C@H]3O[C@H](CO)[C@@H](O)[C@H](O)[C@@H]3O)cc(O)c12
REMARK SMILES IDX 17 1 16 2 4 3 3 4 13 5 2 6 14 7 1 8 32 9 15 10 30 11 29 12
REMARK SMILES IDX 5 13 6 14 7 15 8 16 12 17 10 18 9 19 11 21 31 23 18 25 27 26
REMARK SMILES IDX 19 27 25 28 20 29 23 30 28 31 26 33 21 35 22 36 24 38
REMARK H PARENT 9 20 11 22 31 24 28 32 26 34 22 37 24 39
REMARK Flexibility Score: inf
ROOT
ATOM      1  O   UNL     1       3.032  82.465  61.510  1.00  0.00    -0.462 OA
ENDROOT
BRANCH   1   2
ATOM      2  C   UNL     1       4.150  81.621  61.624  1.00  0.00     0.130 A 
ATOM      3  C   UNL     1       6.366  78.326  64.267  1.00  0.00     0.138 A 
ATOM      4  C   UNL     1       7.430  78.219  63.357  1.00  0.00     0.100 A 
ATOM      5  O   UNL     1       5.374  79.178  64.018  1.00  0.00    -0.456 OA
ATOM      6  C   UNL     1       7.423  78.998  62.199  1.00  0.00     0.197 A 
ATOM      7  C   UNL     1       5.322  79.941  62.930  1.00  0.00     0.146 A 
ATOM      8  O   UNL     1       8.382  78.897  61.388  1.00  0.00    -0.289 OA
ATOM      9  C   UNL     1       6.351  79.882  61.961  1.00  0.00     0.107 A 
ATOM     10  C   UNL     1       4.238  80.804  62.753  1.00  0.00     0.094 A 
ATOM     11  C   UNL     1       6.265  80.703  60.815  1.00  0.00     0.134 A 
ATOM     12  C   UNL     1       5.167  81.563  60.653  1.00  0.00     0.093 A 
BRANCH   3  13
ATOM     13  C   UNL     1       6.321  77.524  65.516  1.00  0.00     0.021 A 
ATOM     14  C   UNL     1       7.359  77.649  66.455  1.00  0.00     0.016 A 
ATOM     15  C   UNL     1       7.337  76.913  67.642  1.00  0.00     0.051 A 
ATOM     16  C   UNL     1       6.275  76.047  67.917  1.00  0.00     0.157 A 
ATOM     17  C   UNL     1       5.246  76.661  65.804  1.00  0.00     0.062 A 
ATOM     18  C   UNL     1       5.222  75.921  66.996  1.00  0.00     0.158 A 
BRANCH  16  19
ATOM     19  O   UNL     1       6.282  75.323  69.109  1.00  0.00    -0.504 OA
ATOM     20  H   UNL     1       6.039  74.340  69.143  1.00  0.00     0.293 HD
ENDBRANCH  16  19
BRANCH  18  21
ATOM     21  O   UNL     1       4.154  75.069  67.270  1.00  0.00    -0.504 OA
ATOM     22  H   UNL     1       4.084  74.570  68.149  1.00  0.00     0.293 HD
ENDBRANCH  18  21
ENDBRANCH   3  13
BRANCH  11  23
ATOM     23  O   UNL     1       7.258  80.672  59.835  1.00  0.00    -0.507 OA
ATOM     24  H   UNL     1       8.121  81.195  59.932  1.00  0.00     0.293 HD
ENDBRANCH  11  23
ENDBRANCH   1   2
BRANCH   1  25
ATOM     25  C   UNL     1       3.045  83.896  61.581  1.00  0.00     0.339 C 
ATOM     26  C   UNL     1       4.290  84.415  62.342  1.00  0.00     0.214 C 
ATOM     27  O   UNL     1       1.847  84.369  62.177  1.00  0.00    -0.332 OA
ATOM     28  C   UNL     1       4.196  84.071  63.843  1.00  0.00     0.180 C 
ATOM     29  C   UNL     1       1.703  83.906  63.513  1.00  0.00     0.179 C 
ATOM     30  C   UNL     1       2.828  84.465  64.417  1.00  0.00     0.177 C 
BRANCH  26  31
ATOM     31  O   UNL     1       4.467  85.797  62.142  1.00  0.00    -0.384 OA
ATOM     32  H   UNL     1       4.203  86.013  61.211  1.00  0.00     0.211 HD
ENDBRANCH  26  31
BRANCH  28  33
ATOM     33  O   UNL     1       5.212  84.726  64.559  1.00  0.00    -0.387 OA
ATOM     34  H   UNL     1       5.820  84.021  64.902  1.00  0.00     0.211 HD
ENDBRANCH  28  33
BRANCH  29  35
ATOM     35  C   UNL     1       0.315  84.319  64.017  1.00  0.00     0.191 C 
BRANCH  35  36
ATOM     36  O   UNL     1      -0.053  83.546  65.127  1.00  0.00    -0.394 OA
ATOM     37  H   UNL     1       0.725  82.964  65.327  1.00  0.00     0.210 HD
ENDBRANCH  35  36
ENDBRANCH  29  35
BRANCH  30  38
ATOM     38  O   UNL     1       2.716  83.936  65.715  1.00  0.00    -0.387 OA
ATOM     39  H   UNL     1       1.777  83.634  65.828  1.00  0.00     0.211 HD
ENDBRANCH  30  38
ENDBRANCH   1  25
TORSDOF 11
ENDMDL
MODEL 7
REMARK VINA RESULT:    -6.517      7.499     11.079
REMARK INTER + INTRA:         -10.366
REMARK INTER:                  -9.436
REMARK INTRA:                  -0.930
REMARK UNBOUND:                -0.991
REMARK SMILES O=c1cc(-c2ccc(O)c(O)c2)oc2cc(O[C@H]3O[C@H](CO)[C@@H](O)[C@H](O)[C@@H]3O)cc(O)c12
REMARK SMILES IDX 17 1 16 2 4 3 3 4 13 5 2 6 14 7 1 8 32 9 15 10 30 11 29 12
REMARK SMILES IDX 5 13 6 14 7 15 8 16 12 17 10 18 9 19 11 21 31 23 18 25 27 26
REMARK SMILES IDX 19 27 25 28 20 29 23 30 28 31 26 33 21 35 22 36 24 38
REMARK H PARENT 9 20 11 22 31 24 28 32 26 34 22 37 24 39
REMARK Flexibility Score: inf
ROOT
ATOM      1  O   UNL     1       4.038  79.398  66.285  1.00  0.00    -0.462 OA
ENDROOT
BRANCH   1   2
ATOM      2  C   UNL     1       3.225  80.487  65.930  1.00  0.00     0.130 A 
ATOM      3  C   UNL     1       2.905  84.539  63.435  1.00  0.00     0.138 A 
ATOM      4  C   UNL     1       1.589  84.775  63.864  1.00  0.00     0.100 A 
ATOM      5  O   UNL     1       3.549  83.456  63.862  1.00  0.00    -0.456 OA
ATOM      6  C   UNL     1       0.973  83.862  64.722  1.00  0.00     0.197 A 
ATOM      7  C   UNL     1       3.006  82.558  64.679  1.00  0.00     0.146 A 
ATOM      8  O   UNL     1      -0.208  84.082  65.103  1.00  0.00    -0.289 OA
ATOM      9  C   UNL     1       1.681  82.720  65.146  1.00  0.00     0.107 A 
ATOM     10  C   UNL     1       3.761  81.450  65.072  1.00  0.00     0.094 A 
ATOM     11  C   UNL     1       1.133  81.746  66.011  1.00  0.00     0.134 A 
ATOM     12  C   UNL     1       1.905  80.638  66.394  1.00  0.00     0.093 A 
BRANCH   3  13
ATOM     13  C   UNL     1       3.611  85.476  62.524  1.00  0.00     0.021 A 
ATOM     14  C   UNL     1       4.610  84.985  61.666  1.00  0.00     0.016 A 
ATOM     15  C   UNL     1       5.284  85.843  60.794  1.00  0.00     0.051 A 
ATOM     16  C   UNL     1       4.967  87.204  60.755  1.00  0.00     0.157 A 
ATOM     17  C   UNL     1       3.285  86.845  62.471  1.00  0.00     0.062 A 
ATOM     18  C   UNL     1       3.961  87.708  61.595  1.00  0.00     0.158 A 
BRANCH  16  19
ATOM     19  O   UNL     1       5.658  88.037  59.876  1.00  0.00    -0.504 OA
ATOM     20  H   UNL     1       5.427  88.090  58.892  1.00  0.00     0.293 HD
ENDBRANCH  16  19
BRANCH  18  21
ATOM     21  O   UNL     1       3.631  89.062  61.553  1.00  0.00    -0.504 OA
ATOM     22  H   UNL     1       3.460  89.594  62.398  1.00  0.00     0.293 HD
ENDBRANCH  18  21
ENDBRANCH   3  13
BRANCH  11  23
ATOM     23  O   UNL     1      -0.172  81.869  66.491  1.00  0.00    -0.507 OA
ATOM     24  H   UNL     1      -0.571  82.769  66.732  1.00  0.00     0.293 HD
ENDBRANCH  11  23
ENDBRANCH   1   2
BRANCH   1  25
ATOM     25  C   UNL     1       4.561  79.126  67.591  1.00  0.00     0.339 C 
ATOM     26  C   UNL     1       5.881  78.319  67.517  1.00  0.00     0.214 C 
ATOM     27  O   UNL     1       3.592  78.449  68.377  1.00  0.00    -0.332 OA
ATOM     28  C   UNL     1       5.616  76.881  67.026  1.00  0.00     0.180 C 
ATOM     29  C   UNL     1       3.243  77.191  67.817  1.00  0.00     0.179 C 
ATOM     30  C   UNL     1       4.461  76.234  67.803  1.00  0.00     0.177 C 
BRANCH  26  31
ATOM     31  O   UNL     1       6.549  78.324  68.756  1.00  0.00    -0.384 OA
ATOM     32  H   UNL     1       6.427  77.435  69.179  1.00  0.00     0.211 HD
ENDBRANCH  26  31
BRANCH  28  33
ATOM     33  O   UNL     1       6.772  76.095  67.166  1.00  0.00    -0.387 OA
ATOM     34  H   UNL     1       7.088  75.885  66.249  1.00  0.00     0.211 HD
ENDBRANCH  28  33
BRANCH  29  35
ATOM     35  C   UNL     1       2.078  76.610  68.629  1.00  0.00     0.191 C 
BRANCH  35  36
ATOM     36  O   UNL     1       1.316  75.739  67.838  1.00  0.00    -0.394 OA
ATOM     37  H   UNL     1       0.429  76.170  67.731  1.00  0.00     0.210 HD
ENDBRANCH  35  36
ENDBRANCH  29  35
BRANCH  30  38
ATOM     38  O   UNL     1       4.119  75.023  67.176  1.00  0.00    -0.387 OA
ATOM     39  H   UNL     1       4.967  74.564  66.940  1.00  0.00     0.211 HD
ENDBRANCH  30  38
ENDBRANCH   1  25
TORSDOF 11
ENDMDL
MODEL 8
REMARK VINA RESULT:    -6.493      5.586     11.735
REMARK INTER + INTRA:         -10.332
REMARK INTER:                  -9.483
REMARK INTRA:                  -0.849
REMARK UNBOUND:                -0.991
REMARK SMILES O=c1cc(-c2ccc(O)c(O)c2)oc2cc(O[C@H]3O[C@H](CO)[C@@H](O)[C@H](O)[C@@H]3O)cc(O)c12
REMARK SMILES IDX 17 1 16 2 4 3 3 4 13 5 2 6 14 7 1 8 32 9 15 10 30 11 29 12
REMARK SMILES IDX 5 13 6 14 7 15 8 16 12 17 10 18 9 19 11 21 31 23 18 25 27 26
REMARK SMILES IDX 19 27 25 28 20 29 23 30 28 31 26 33 21 35 22 36 24 38
REMARK H PARENT 9 20 11 22 31 24 28 32 26 34 22 37 24 39
REMARK Flexibility Score: inf
ROOT
ATOM      1  O   UNL     1       2.253  80.641  68.369  1.00  0.00    -0.462 OA
ENDROOT
BRANCH   1   2
ATOM      2  C   UNL     1       3.298  79.870  67.832  1.00  0.00     0.130 A 
ATOM      3  C   UNL     1       5.604  78.544  63.872  1.00  0.00     0.138 A 
ATOM      4  C   UNL     1       6.489  77.721  64.587  1.00  0.00     0.100 A 
ATOM      5  O   UNL     1       4.660  79.214  64.528  1.00  0.00    -0.456 OA
ATOM      6  C   UNL     1       6.372  77.629  65.975  1.00  0.00     0.197 A 
ATOM      7  C   UNL     1       4.508  79.160  65.848  1.00  0.00     0.146 A 
ATOM      8  O   UNL     1       7.170  76.887  66.608  1.00  0.00    -0.289 OA
ATOM      9  C   UNL     1       5.368  78.362  66.638  1.00  0.00     0.107 A 
ATOM     10  C   UNL     1       3.488  79.903  66.448  1.00  0.00     0.094 A 
ATOM     11  C   UNL     1       5.182  78.328  68.039  1.00  0.00     0.134 A 
ATOM     12  C   UNL     1       4.153  79.082  68.625  1.00  0.00     0.093 A 
BRANCH   3  13
ATOM     13  C   UNL     1       5.679  78.678  62.395  1.00  0.00     0.021 A 
ATOM     14  C   UNL     1       6.886  79.082  61.799  1.00  0.00     0.016 A 
ATOM     15  C   UNL     1       6.985  79.208  60.412  1.00  0.00     0.051 A 
ATOM     16  C   UNL     1       5.888  78.925  59.594  1.00  0.00     0.157 A 
ATOM     17  C   UNL     1       4.579  78.381  61.567  1.00  0.00     0.062 A 
ATOM     18  C   UNL     1       4.679  78.506  60.173  1.00  0.00     0.158 A 
BRANCH  16  19
ATOM     19  O   UNL     1       6.017  79.063  58.213  1.00  0.00    -0.504 OA
ATOM     20  H   UNL     1       5.878  78.285  57.579  1.00  0.00     0.293 HD
ENDBRANCH  16  19
BRANCH  18  21
ATOM     21  O   UNL     1       3.583  78.211  59.364  1.00  0.00    -0.504 OA
ATOM     22  H   UNL     1       2.633  78.285  59.707  1.00  0.00     0.293 HD
ENDBRANCH  18  21
ENDBRANCH   3  13
BRANCH  11  23
ATOM     23  O   UNL     1       6.011  77.555  68.852  1.00  0.00    -0.507 OA
ATOM     24  H   UNL     1       6.691  77.976  69.476  1.00  0.00     0.293 HD
ENDBRANCH  11  23
ENDBRANCH   1   2
BRANCH   1  25
ATOM     25  C   UNL     1       0.854  80.454  68.123  1.00  0.00     0.339 C 
ATOM     26  C   UNL     1       0.353  81.363  66.975  1.00  0.00     0.214 C 
ATOM     27  O   UNL     1       0.112  80.677  69.312  1.00  0.00    -0.332 OA
ATOM     28  C   UNL     1       0.356  82.843  67.408  1.00  0.00     0.180 C 
ATOM     29  C   UNL     1       0.259  82.009  69.784  1.00  0.00     0.179 C 
ATOM     30  C   UNL     1      -0.327  83.023  68.771  1.00  0.00     0.177 C 
BRANCH  26  31
ATOM     31  O   UNL     1      -0.919  80.961  66.527  1.00  0.00    -0.384 OA
ATOM     32  H   UNL     1      -1.556  81.045  67.283  1.00  0.00     0.211 HD
ENDBRANCH  26  31
BRANCH  28  33
ATOM     33  O   UNL     1      -0.297  83.635  66.449  1.00  0.00    -0.387 OA
ATOM     34  H   UNL     1      -0.281  83.126  65.597  1.00  0.00     0.211 HD
ENDBRANCH  28  33
BRANCH  29  35
ATOM     35  C   UNL     1      -0.430  82.114  71.151  1.00  0.00     0.191 C 
BRANCH  35  36
ATOM     36  O   UNL     1      -0.021  83.277  71.818  1.00  0.00    -0.394 OA
ATOM     37  H   UNL     1      -0.853  83.741  72.096  1.00  0.00     0.210 HD
ENDBRANCH  35  36
ENDBRANCH  29  35
BRANCH  30  38
ATOM     38  O   UNL     1      -0.104  84.338  69.216  1.00  0.00    -0.387 OA
ATOM     39  H   UNL     1       0.098  84.889  68.416  1.00  0.00     0.211 HD
ENDBRANCH  30  38
ENDBRANCH   1  25
TORSDOF 11
ENDMDL
MODEL 9
REMARK VINA RESULT:    -6.471      8.128     10.488
REMARK INTER + INTRA:         -10.300
REMARK INTER:                  -9.400
REMARK INTRA:                  -0.899
REMARK UNBOUND:                -0.991
REMARK SMILES O=c1cc(-c2ccc(O)c(O)c2)oc2cc(O[C@H]3O[C@H](CO)[C@@H](O)[C@H](O)[C@@H]3O)cc(O)c12
REMARK SMILES IDX 17 1 16 2 4 3 3 4 13 5 2 6 14 7 1 8 32 9 15 10 30 11 29 12
REMARK SMILES IDX 5 13 6 14 7 15 8 16 12 17 10 18 9 19 11 21 31 23 18 25 27 26
REMARK SMILES IDX 19 27 25 28 20 29 23 30 28 31 26 33 21 35 22 36 24 38
REMARK H PARENT 9 20 11 22 31 24 28 32 26 34 22 37 24 39
REMARK Flexibility Score: inf
ROOT
ATOM      1  O   UNL     1       1.613  83.389  65.383  1.00  0.00    -0.462 OA
ENDROOT
BRANCH   1   2
ATOM      2  C   UNL     1       1.479  82.650  66.571  1.00  0.00     0.130 A 
ATOM      3  C   UNL     1       2.012  78.399  68.667  1.00  0.00     0.138 A 
ATOM      4  C   UNL     1       1.539  78.877  69.900  1.00  0.00     0.100 A 
ATOM      5  O   UNL     1       2.079  79.226  67.627  1.00  0.00    -0.456 OA
ATOM      6  C   UNL     1       1.160  80.214  70.018  1.00  0.00     0.197 A 
ATOM      7  C   UNL     1       1.730  80.508  67.689  1.00  0.00     0.146 A 
ATOM      8  O   UNL     1       0.736  80.634  71.129  1.00  0.00    -0.289 OA
ATOM      9  C   UNL     1       1.255  81.066  68.899  1.00  0.00     0.107 A 
ATOM     10  C   UNL     1       1.838  81.301  66.544  1.00  0.00     0.094 A 
ATOM     11  C   UNL     1       0.895  82.432  68.933  1.00  0.00     0.134 A 
ATOM     12  C   UNL     1       1.011  83.213  67.773  1.00  0.00     0.093 A 
BRANCH   3  13
ATOM     13  C   UNL     1       2.427  76.985  68.482  1.00  0.00     0.021 A 
ATOM     14  C   UNL     1       3.793  76.657  68.514  1.00  0.00     0.016 A 
ATOM     15  C   UNL     1       4.210  75.333  68.351  1.00  0.00     0.051 A 
ATOM     16  C   UNL     1       3.272  74.314  68.163  1.00  0.00     0.157 A 
ATOM     17  C   UNL     1       1.485  75.953  68.306  1.00  0.00     0.062 A 
ATOM     18  C   UNL     1       1.902  74.624  68.143  1.00  0.00     0.158 A 
BRANCH  16  19
ATOM     19  O   UNL     1       3.718  73.003  68.000  1.00  0.00    -0.504 OA
ATOM     20  H   UNL     1       4.013  72.434  68.784  1.00  0.00     0.293 HD
ENDBRANCH  16  19
BRANCH  18  21
ATOM     21  O   UNL     1       0.961  73.611  67.968  1.00  0.00    -0.504 OA
ATOM     22  H   UNL     1       1.229  72.634  67.945  1.00  0.00     0.293 HD
ENDBRANCH  18  21
ENDBRANCH   3  13
BRANCH  11  23
ATOM     23  O   UNL     1       0.424  83.020  70.108  1.00  0.00    -0.507 OA
ATOM     24  H   UNL     1       0.502  82.555  71.006  1.00  0.00     0.293 HD
ENDBRANCH  11  23
ENDBRANCH   1   2
BRANCH   1  25
ATOM     25  C   UNL     1       2.193  82.920  64.159  1.00  0.00     0.339 C 
ATOM     26  C   UNL     1       3.729  83.112  64.149  1.00  0.00     0.214 C 
ATOM     27  O   UNL     1       1.590  83.568  63.050  1.00  0.00    -0.332 OA
ATOM     28  C   UNL     1       4.093  84.608  64.065  1.00  0.00     0.180 C 
ATOM     29  C   UNL     1       1.802  84.973  63.079  1.00  0.00     0.179 C 
ATOM     30  C   UNL     1       3.308  85.307  62.946  1.00  0.00     0.177 C 
BRANCH  26  31
ATOM     31  O   UNL     1       4.326  82.379  63.106  1.00  0.00    -0.384 OA
ATOM     32  H   UNL     1       3.905  82.655  62.252  1.00  0.00     0.211 HD
ENDBRANCH  26  31
BRANCH  28  33
ATOM     33  O   UNL     1       5.471  84.765  63.840  1.00  0.00    -0.387 OA
ATOM     34  H   UNL     1       5.585  85.620  63.348  1.00  0.00     0.211 HD
ENDBRANCH  28  33
BRANCH  29  35
ATOM     35  C   UNL     1       0.981  85.606  61.949  1.00  0.00     0.191 C 
BRANCH  35  36
ATOM     36  O   UNL     1       0.748  86.963  62.215  1.00  0.00    -0.394 OA
ATOM     37  H   UNL     1       0.709  87.047  63.202  1.00  0.00     0.210 HD
ENDBRANCH  35  36
ENDBRANCH  29  35
BRANCH  30  38
ATOM     38  O   UNL     1       3.508  86.695  63.055  1.00  0.00    -0.387 OA
ATOM     39  H   UNL     1       4.250  86.835  63.700  1.00  0.00     0.211 HD
ENDBRANCH  30  38
ENDBRANCH   1  25
TORSDOF 11
ENDMDL
