MODEL 1
REMARK VINA RESULT:    -2.848      0.000      0.000
REMARK INTER + INTRA:          -6.181
REMARK INTER:                  -4.513
REMARK INTRA:                  -1.668
REMARK UNBOUND:                -1.668
REMARK SMILES CCCCCCCCCCCC(=O)[O-]
REMARK SMILES IDX 7 1 8 2 9 3 10 4 11 5 12 6 13 7 14 8 6 9 5 10 4 11 3 12 2 13
REMARK SMILES IDX 1 14
REMARK H PARENT
REMARK Flexibility Score: inf
ROOT
ATOM      1  C   UNL     1     -34.685  -3.753 -29.846  1.00  0.00     0.000 C 
ENDROOT
BRANCH   1   2
ATOM      2  C   UNL     1     -34.609  -5.291 -29.765  1.00  0.00     0.000 C 
BRANCH   2   3
ATOM      3  C   UNL     1     -35.405  -6.039 -30.850  1.00  0.00     0.000 C 
BRANCH   3   4
ATOM      4  C   UNL     1     -34.601  -7.170 -31.507  1.00  0.00     0.006 C 
BRANCH   4   5
ATOM      5  C   UNL     1     -33.258  -7.372 -30.800  1.00  0.00     0.053 C 
BRANCH   5   6
ATOM      6  C   UNL     1     -32.975  -8.829 -30.616  1.00  0.00     0.041 C 
ATOM      7  O   UNL     1     -33.186  -9.638 -31.557  1.00  0.00    -0.550 OA
ATOM      8  O   UNL     1     -32.432  -9.288 -29.423  1.00  0.00    -0.550 OA
ENDBRANCH   5   6
ENDBRANCH   4   5
ENDBRANCH   3   4
ENDBRANCH   2   3
ENDBRANCH   1   2
BRANCH   1   9
ATOM      9  C   UNL     1     -33.324  -3.038 -29.966  1.00  0.00     0.000 C 
BRANCH   9  10
ATOM     10  C   UNL     1     -32.092  -3.941 -29.758  1.00  0.00    -0.000 C 
BRANCH  10  11
ATOM     11  C   UNL     1     -31.260  -4.215 -31.023  1.00  0.00    -0.000 C 
BRANCH  11  12
ATOM     12  C   UNL     1     -31.828  -3.521 -32.274  1.00  0.00    -0.000 C 
BRANCH  12  13
ATOM     13  C   UNL     1     -32.532  -4.502 -33.223  1.00  0.00    -0.003 C 
ATOM     14  C   UNL     1     -33.964  -4.082 -33.556  1.00  0.00     0.004 C 
ENDBRANCH  12  13
ENDBRANCH  11  12
ENDBRANCH  10  11
ENDBRANCH   9  10
ENDBRANCH   1   9
TORSDOF 10
ENDMDL
MODEL 2
REMARK VINA RESULT:    -2.751     12.617     14.504
REMARK INTER + INTRA:          -6.027
REMARK INTER:                  -4.788
REMARK INTRA:                  -1.239
REMARK UNBOUND:                -1.668
REMARK SMILES CCCCCCCCCCCC(=O)[O-]
REMARK SMILES IDX 7 1 8 2 9 3 10 4 11 5 12 6 13 7 14 8 6 9 5 10 4 11 3 12 2 13
REMARK SMILES IDX 1 14
REMARK H PARENT
REMARK Flexibility Score: inf
ROOT
ATOM      1  C   UNL     1     -27.621   4.581 -30.270  1.00  0.00     0.000 C 
ENDROOT
BRANCH   1   2
ATOM      2  C   UNL     1     -26.334   3.924 -30.811  1.00  0.00     0.000 C 
BRANCH   2   3
ATOM      3  C   UNL     1     -25.066   4.201 -29.984  1.00  0.00     0.000 C 
BRANCH   3   4
ATOM      4  C   UNL     1     -23.854   4.568 -30.853  1.00  0.00     0.006 C 
BRANCH   4   5
ATOM      5  C   UNL     1     -24.209   5.674 -31.851  1.00  0.00     0.053 C 
BRANCH   5   6
ATOM      6  C   UNL     1     -24.251   5.130 -33.244  1.00  0.00     0.041 C 
ATOM      7  O   UNL     1     -23.347   4.351 -33.647  1.00  0.00    -0.550 OA
ATOM      8  O   UNL     1     -25.314   5.441 -34.081  1.00  0.00    -0.550 OA
ENDBRANCH   5   6
ENDBRANCH   4   5
ENDBRANCH   3   4
ENDBRANCH   2   3
ENDBRANCH   1   2
BRANCH   1   9
ATOM      9  C   UNL     1     -27.438   5.408 -28.982  1.00  0.00     0.000 C 
BRANCH   9  10
ATOM     10  C   UNL     1     -28.029   6.831 -29.030  1.00  0.00    -0.000 C 
BRANCH  10  11
ATOM     11  C   UNL     1     -27.045   7.960 -28.678  1.00  0.00    -0.000 C 
BRANCH  11  12
ATOM     12  C   UNL     1     -25.671   7.787 -29.347  1.00  0.00    -0.000 C 
BRANCH  12  13
ATOM     13  C   UNL     1     -24.508   8.115 -28.397  1.00  0.00    -0.003 C 
ATOM     14  C   UNL     1     -24.122   6.936 -27.503  1.00  0.00     0.004 C 
ENDBRANCH  12  13
ENDBRANCH  11  12
ENDBRANCH  10  11
ENDBRANCH   9  10
ENDBRANCH   1   9
TORSDOF 10
ENDMDL
MODEL 3
REMARK VINA RESULT:    -2.709      1.494      3.442
REMARK INTER + INTRA:          -5.961
REMARK INTER:                  -4.437
REMARK INTRA:                  -1.524
REMARK UNBOUND:                -1.668
REMARK SMILES CCCCCCCCCCCC(=O)[O-]
REMARK SMILES IDX 7 1 8 2 9 3 10 4 11 5 12 6 13 7 14 8 6 9 5 10 4 11 3 12 2 13
REMARK SMILES IDX 1 14
REMARK H PARENT
REMARK Flexibility Score: inf
ROOT
ATOM      1  C   UNL     1     -31.516  -4.838 -32.984  1.00  0.00     0.000 C 
ENDROOT
BRANCH   1   2
ATOM      2  C   UNL     1     -31.068  -4.571 -31.533  1.00  0.00     0.000 C 
BRANCH   2   3
ATOM      3  C   UNL     1     -31.251  -5.756 -30.568  1.00  0.00     0.000 C 
BRANCH   3   4
ATOM      4  C   UNL     1     -31.568  -7.072 -31.292  1.00  0.00     0.006 C 
BRANCH   4   5
ATOM      5  C   UNL     1     -32.610  -7.887 -30.519  1.00  0.00     0.053 C 
BRANCH   5   6
ATOM      6  C   UNL     1     -31.974  -9.082 -29.882  1.00  0.00     0.041 C 
ATOM      7  O   UNL     1     -30.826  -9.455 -30.241  1.00  0.00    -0.550 OA
ATOM      8  O   UNL     1     -32.627  -9.753 -28.857  1.00  0.00    -0.550 OA
ENDBRANCH   5   6
ENDBRANCH   4   5
ENDBRANCH   3   4
ENDBRANCH   2   3
ENDBRANCH   1   2
BRANCH   1   9
ATOM      9  C   UNL     1     -32.331  -3.702 -33.634  1.00  0.00     0.000 C 
BRANCH   9  10
ATOM     10  C   UNL     1     -33.851  -3.762 -33.381  1.00  0.00    -0.000 C 
BRANCH  10  11
ATOM     11  C   UNL     1     -34.481  -5.161 -33.512  1.00  0.00    -0.000 C 
BRANCH  11  12
ATOM     12  C   UNL     1     -35.012  -5.705 -32.175  1.00  0.00    -0.000 C 
BRANCH  12  13
ATOM     13  C   UNL     1     -34.758  -4.742 -31.005  1.00  0.00    -0.003 C 
ATOM     14  C   UNL     1     -35.119  -5.347 -29.648  1.00  0.00     0.004 C 
ENDBRANCH  12  13
ENDBRANCH  11  12
ENDBRANCH  10  11
ENDBRANCH   9  10
ENDBRANCH   1   9
TORSDOF 10
ENDMDL
MODEL 4
REMARK VINA RESULT:    -2.703     10.627     12.784
REMARK INTER + INTRA:          -5.952
REMARK INTER:                  -4.565
REMARK INTRA:                  -1.386
REMARK UNBOUND:                -1.668
REMARK SMILES CCCCCCCCCCCC(=O)[O-]
REMARK SMILES IDX 7 1 8 2 9 3 10 4 11 5 12 6 13 7 14 8 6 9 5 10 4 11 3 12 2 13
REMARK SMILES IDX 1 14
REMARK H PARENT
REMARK Flexibility Score: inf
ROOT
ATOM      1  C   UNL     1     -28.702   0.373 -38.820  1.00  0.00     0.000 C 
ENDROOT
BRANCH   1   2
ATOM      2  C   UNL     1     -28.561   1.889 -38.573  1.00  0.00     0.000 C 
BRANCH   2   3
ATOM      3  C   UNL     1     -29.244   2.405 -37.294  1.00  0.00     0.000 C 
BRANCH   3   4
ATOM      4  C   UNL     1     -29.110   3.924 -37.117  1.00  0.00     0.006 C 
BRANCH   4   5
ATOM      5  C   UNL     1     -28.538   4.576 -38.380  1.00  0.00     0.053 C 
BRANCH   5   6
ATOM      6  C   UNL     1     -29.535   5.515 -38.983  1.00  0.00     0.041 C 
ATOM      7  O   UNL     1     -29.306   6.049 -40.100  1.00  0.00    -0.550 OA
ATOM      8  O   UNL     1     -30.738   5.761 -38.336  1.00  0.00    -0.550 OA
ENDBRANCH   5   6
ENDBRANCH   4   5
ENDBRANCH   3   4
ENDBRANCH   2   3
ENDBRANCH   1   2
BRANCH   1   9
ATOM      9  C   UNL     1     -29.790  -0.023 -39.838  1.00  0.00     0.000 C 
BRANCH   9  10
ATOM     10  C   UNL     1     -30.919  -0.908 -39.275  1.00  0.00    -0.000 C 
BRANCH  10  11
ATOM     11  C   UNL     1     -31.730  -0.282 -38.127  1.00  0.00    -0.000 C 
BRANCH  11  12
ATOM     12  C   UNL     1     -32.934   0.539 -38.623  1.00  0.00    -0.000 C 
BRANCH  12  13
ATOM     13  C   UNL     1     -32.765   2.044 -38.365  1.00  0.00    -0.003 C 
ATOM     14  C   UNL     1     -32.254   2.803 -39.591  1.00  0.00     0.004 C 
ENDBRANCH  12  13
ENDBRANCH  11  12
ENDBRANCH  10  11
ENDBRANCH   9  10
ENDBRANCH   1   9
TORSDOF 10
ENDMDL
MODEL 5
REMARK VINA RESULT:    -2.650     12.684     14.358
REMARK INTER + INTRA:          -5.868
REMARK INTER:                  -4.612
REMARK INTRA:                  -1.255
REMARK UNBOUND:                -1.668
REMARK SMILES CCCCCCCCCCCC(=O)[O-]
REMARK SMILES IDX 7 1 8 2 9 3 10 4 11 5 12 6 13 7 14 8 6 9 5 10 4 11 3 12 2 13
REMARK SMILES IDX 1 14
REMARK H PARENT
REMARK Flexibility Score: inf
ROOT
ATOM      1  C   UNL     1     -26.118   4.386 -29.860  1.00  0.00     0.000 C 
ENDROOT
BRANCH   1   2
ATOM      2  C   UNL     1     -25.033   4.251 -30.949  1.00  0.00     0.000 C 
BRANCH   2   3
ATOM      3  C   UNL     1     -24.610   5.575 -31.612  1.00  0.00     0.000 C 
BRANCH   3   4
ATOM      4  C   UNL     1     -24.420   5.449 -33.130  1.00  0.00     0.006 C 
BRANCH   4   5
ATOM      5  C   UNL     1     -25.247   4.288 -33.692  1.00  0.00     0.053 C 
BRANCH   5   6
ATOM      6  C   UNL     1     -26.529   4.792 -34.275  1.00  0.00     0.041 C 
ATOM      7  O   UNL     1     -27.626   4.278 -33.931  1.00  0.00    -0.550 OA
ATOM      8  O   UNL     1     -26.518   5.861 -35.161  1.00  0.00    -0.550 OA
ENDBRANCH   5   6
ENDBRANCH   4   5
ENDBRANCH   3   4
ENDBRANCH   2   3
ENDBRANCH   1   2
BRANCH   1   9
ATOM      9  C   UNL     1     -27.139   5.517 -30.094  1.00  0.00     0.000 C 
BRANCH   9  10
ATOM     10  C   UNL     1     -27.679   6.183 -28.813  1.00  0.00    -0.000 C 
BRANCH  10  11
ATOM     11  C   UNL     1     -27.354   7.680 -28.668  1.00  0.00    -0.000 C 
BRANCH  11  12
ATOM     12  C   UNL     1     -25.960   8.045 -29.207  1.00  0.00    -0.000 C 
BRANCH  12  13
ATOM     13  C   UNL     1     -24.891   8.068 -28.103  1.00  0.00    -0.003 C 
ATOM     14  C   UNL     1     -23.877   6.930 -28.235  1.00  0.00     0.004 C 
ENDBRANCH  12  13
ENDBRANCH  11  12
ENDBRANCH  10  11
ENDBRANCH   9  10
ENDBRANCH   1   9
TORSDOF 10
ENDMDL
MODEL 6
REMARK VINA RESULT:    -2.620     12.984     14.505
REMARK INTER + INTRA:          -5.819
REMARK INTER:                  -4.559
REMARK INTRA:                  -1.260
REMARK UNBOUND:                -1.668
REMARK SMILES CCCCCCCCCCCC(=O)[O-]
REMARK SMILES IDX 7 1 8 2 9 3 10 4 11 5 12 6 13 7 14 8 6 9 5 10 4 11 3 12 2 13
REMARK SMILES IDX 1 14
REMARK H PARENT
REMARK Flexibility Score: inf
ROOT
ATOM      1  C   UNL     1     -20.774  -0.432 -34.156  1.00  0.00     0.000 C 
ENDROOT
BRANCH   1   2
ATOM      2  C   UNL     1     -19.978   0.451 -33.173  1.00  0.00     0.000 C 
BRANCH   2   3
ATOM      3  C   UNL     1     -20.837   1.340 -32.256  1.00  0.00     0.000 C 
BRANCH   3   4
ATOM      4  C   UNL     1     -22.342   1.074 -32.405  1.00  0.00     0.006 C 
BRANCH   4   5
ATOM      5  C   UNL     1     -23.143   2.374 -32.281  1.00  0.00     0.053 C 
BRANCH   5   6
ATOM      6  C   UNL     1     -23.318   3.012 -33.623  1.00  0.00     0.041 C 
ATOM      7  O   UNL     1     -23.498   2.299 -34.645  1.00  0.00    -0.550 OA
ATOM      8  O   UNL     1     -23.331   4.396 -33.739  1.00  0.00    -0.550 OA
ENDBRANCH   5   6
ENDBRANCH   4   5
ENDBRANCH   3   4
ENDBRANCH   2   3
ENDBRANCH   1   2
BRANCH   1   9
ATOM      9  C   UNL     1     -20.316  -1.903 -34.228  1.00  0.00     0.000 C 
BRANCH   9  10
ATOM     10  C   UNL     1     -19.257  -2.308 -33.184  1.00  0.00    -0.000 C 
BRANCH  10  11
ATOM     11  C   UNL     1     -19.561  -3.607 -32.415  1.00  0.00    -0.000 C 
BRANCH  11  12
ATOM     12  C   UNL     1     -19.552  -3.414 -30.888  1.00  0.00    -0.000 C 
BRANCH  12  13
ATOM     13  C   UNL     1     -20.027  -2.014 -30.470  1.00  0.00    -0.003 C 
ATOM     14  C   UNL     1     -21.542  -1.935 -30.275  1.00  0.00     0.004 C 
ENDBRANCH  12  13
ENDBRANCH  11  12
ENDBRANCH  10  11
ENDBRANCH   9  10
ENDBRANCH   1   9
TORSDOF 10
ENDMDL
MODEL 7
REMARK VINA RESULT:    -2.598      2.574      4.241
REMARK INTER + INTRA:          -5.786
REMARK INTER:                  -5.029
REMARK INTRA:                  -0.757
REMARK UNBOUND:                -1.668
REMARK SMILES CCCCCCCCCCCC(=O)[O-]
REMARK SMILES IDX 7 1 8 2 9 3 10 4 11 5 12 6 13 7 14 8 6 9 5 10 4 11 3 12 2 13
REMARK SMILES IDX 1 14
REMARK H PARENT
REMARK Flexibility Score: inf
ROOT
ATOM      1  C   UNL     1     -32.025  -7.263 -30.900  1.00  0.00     0.000 C 
ENDROOT
BRANCH   1   2
ATOM      2  C   UNL     1     -31.557  -8.692 -30.555  1.00  0.00     0.000 C 
BRANCH   2   3
ATOM      3  C   UNL     1     -32.450  -9.444 -29.552  1.00  0.00     0.000 C 
BRANCH   3   4
ATOM      4  C   UNL     1     -31.731  -9.760 -28.232  1.00  0.00     0.006 C 
BRANCH   4   5
ATOM      5  C   UNL     1     -32.389  -9.026 -27.060  1.00  0.00     0.053 C 
BRANCH   5   6
ATOM      6  C   UNL     1     -32.882 -10.002 -26.039  1.00  0.00     0.041 C 
ATOM      7  O   UNL     1     -33.136 -11.190 -26.371  1.00  0.00    -0.550 OA
ATOM      8  O   UNL     1     -33.013  -9.616 -24.712  1.00  0.00    -0.550 OA
ENDBRANCH   5   6
ENDBRANCH   4   5
ENDBRANCH   3   4
ENDBRANCH   2   3
ENDBRANCH   1   2
BRANCH   1   9
ATOM      9  C   UNL     1     -33.456  -6.918 -30.440  1.00  0.00     0.000 C 
BRANCH   9  10
ATOM     10  C   UNL     1     -34.543  -7.065 -31.522  1.00  0.00    -0.000 C 
BRANCH  10  11
ATOM     11  C   UNL     1     -35.188  -5.747 -31.986  1.00  0.00    -0.000 C 
BRANCH  11  12
ATOM     12  C   UNL     1     -34.715  -5.308 -33.383  1.00  0.00    -0.000 C 
BRANCH  12  13
ATOM     13  C   UNL     1     -33.958  -3.972 -33.354  1.00  0.00    -0.003 C 
ATOM     14  C   UNL     1     -32.439  -4.149 -33.395  1.00  0.00     0.004 C 
ENDBRANCH  12  13
ENDBRANCH  11  12
ENDBRANCH  10  11
ENDBRANCH   9  10
ENDBRANCH   1   9
TORSDOF 10
ENDMDL
MODEL 8
REMARK VINA RESULT:    -2.590     13.135     14.310
REMARK INTER + INTRA:          -5.773
REMARK INTER:                  -4.624
REMARK INTRA:                  -1.149
REMARK UNBOUND:                -1.668
REMARK SMILES CCCCCCCCCCCC(=O)[O-]
REMARK SMILES IDX 7 1 8 2 9 3 10 4 11 5 12 6 13 7 14 8 6 9 5 10 4 11 3 12 2 13
REMARK SMILES IDX 1 14
REMARK H PARENT
REMARK Flexibility Score: inf
ROOT
ATOM      1  C   UNL     1     -25.006   4.540 -29.875  1.00  0.00     0.000 C 
ENDROOT
BRANCH   1   2
ATOM      2  C   UNL     1     -25.859   5.148 -31.008  1.00  0.00     0.000 C 
BRANCH   2   3
ATOM      3  C   UNL     1     -25.477   4.687 -32.427  1.00  0.00     0.000 C 
BRANCH   3   4
ATOM      4  C   UNL     1     -24.034   5.050 -32.805  1.00  0.00     0.006 C 
BRANCH   4   5
ATOM      5  C   UNL     1     -23.445   4.019 -33.773  1.00  0.00     0.053 C 
BRANCH   5   6
ATOM      6  C   UNL     1     -23.278   2.697 -33.094  1.00  0.00     0.041 C 
ATOM      7  O   UNL     1     -23.595   1.634 -33.691  1.00  0.00    -0.550 OA
ATOM      8  O   UNL     1     -22.727   2.633 -31.821  1.00  0.00    -0.550 OA
ENDBRANCH   5   6
ENDBRANCH   4   5
ENDBRANCH   3   4
ENDBRANCH   2   3
ENDBRANCH   1   2
BRANCH   1   9
ATOM      9  C   UNL     1     -24.154   5.553 -29.087  1.00  0.00     0.000 C 
BRANCH   9  10
ATOM     10  C   UNL     1     -24.094   6.969 -29.694  1.00  0.00    -0.000 C 
BRANCH  10  11
ATOM     11  C   UNL     1     -24.803   8.062 -28.876  1.00  0.00    -0.000 C 
BRANCH  11  12
ATOM     12  C   UNL     1     -26.317   8.123 -29.145  1.00  0.00    -0.000 C 
BRANCH  12  13
ATOM     13  C   UNL     1     -27.150   7.821 -27.889  1.00  0.00    -0.003 C 
ATOM     14  C   UNL     1     -27.692   6.391 -27.865  1.00  0.00     0.004 C 
ENDBRANCH  12  13
ENDBRANCH  11  12
ENDBRANCH  10  11
ENDBRANCH   9  10
ENDBRANCH   1   9
TORSDOF 10
ENDMDL
