MODEL 1
REMARK VINA RESULT:    -4.406      0.000      0.000
REMARK INTER + INTRA:         -14.010
REMARK INTER:                 -10.074
REMARK INTRA:                  -3.936
REMARK UNBOUND:                -3.936
REMARK SMILES CCCCCCCCCCCCCCCCCCCCCCCC(=O)[O-]
REMARK SMILES IDX 13 1 14 2 15 3 16 4 17 5 18 6 19 7 20 8 21 9 22 10 23 11
REMARK SMILES IDX 24 12 25 13 26 14 12 15 11 16 10 17 9 18 8 19 7 20 6 21 5 22
REMARK SMILES IDX 4 23 3 24 2 25 1 26
REMARK H PARENT
REMARK Flexibility Score: inf
ROOT
ATOM      1  C   UNL     1     -51.780  12.818 -29.342  1.00  0.00     0.000 C 
ENDROOT
BRANCH   1   2
ATOM      2  C   UNL     1     -51.672  14.161 -30.079  1.00  0.00     0.000 C 
BRANCH   2   3
ATOM      3  C   UNL     1     -52.785  14.369 -31.123  1.00  0.00     0.000 C 
BRANCH   3   4
ATOM      4  C   UNL     1     -53.302  13.084 -31.800  1.00  0.00     0.000 C 
BRANCH   4   5
ATOM      5  C   UNL     1     -54.788  12.751 -31.554  1.00  0.00     0.000 C 
BRANCH   5   6
ATOM      6  C   UNL     1     -55.463  13.624 -30.476  1.00  0.00     0.000 C 
BRANCH   6   7
ATOM      7  C   UNL     1     -55.452  12.970 -29.084  1.00  0.00     0.000 C 
BRANCH   7   8
ATOM      8  C   UNL     1     -55.022  13.942 -27.970  1.00  0.00     0.000 C 
BRANCH   8   9
ATOM      9  C   UNL     1     -55.629  15.360 -28.065  1.00  0.00     0.000 C 
BRANCH   9  10
ATOM     10  C   UNL     1     -54.610  16.494 -28.279  1.00  0.00     0.006 C 
BRANCH  10  11
ATOM     11  C   UNL     1     -54.829  17.249 -29.597  1.00  0.00     0.053 C 
BRANCH  11  12
ATOM     12  C   UNL     1     -54.202  18.608 -29.534  1.00  0.00     0.041 C 
ATOM     13  O   UNL     1     -54.675  19.490 -28.769  1.00  0.00    -0.550 OA
ATOM     14  O   UNL     1     -53.084  18.895 -30.308  1.00  0.00    -0.550 OA
ENDBRANCH  11  12
ENDBRANCH  10  11
ENDBRANCH   9  10
ENDBRANCH   8   9
ENDBRANCH   7   8
ENDBRANCH   6   7
ENDBRANCH   5   6
ENDBRANCH   4   5
ENDBRANCH   3   4
ENDBRANCH   2   3
ENDBRANCH   1   2
BRANCH   1  15
ATOM     15  C   UNL     1     -50.505  12.537 -28.534  1.00  0.00     0.000 C 
BRANCH  15  16
ATOM     16  C   UNL     1     -49.599  11.477 -29.186  1.00  0.00     0.000 C 
BRANCH  16  17
ATOM     17  C   UNL     1     -50.200  10.060 -29.268  1.00  0.00     0.000 C 
BRANCH  17  18
ATOM     18  C   UNL     1     -49.884   9.282 -30.562  1.00  0.00    -0.000 C 
BRANCH  18  19
ATOM     19  C   UNL     1     -49.797  10.141 -31.835  1.00  0.00    -0.000 C 
BRANCH  19  20
ATOM     20  C   UNL     1     -51.043  10.019 -32.733  1.00  0.00    -0.000 C 
BRANCH  20  21
ATOM     21  C   UNL     1     -51.406   8.549 -33.035  1.00  0.00    -0.000 C 
BRANCH  21  22
ATOM     22  C   UNL     1     -52.896   8.307 -33.353  1.00  0.00    -0.000 C 
BRANCH  22  23
ATOM     23  C   UNL     1     -53.877   9.350 -32.787  1.00  0.00    -0.000 C 
BRANCH  23  24
ATOM     24  C   UNL     1     -55.047   8.743 -31.978  1.00  0.00    -0.000 C 
BRANCH  24  25
ATOM     25  C   UNL     1     -55.045   9.151 -30.495  1.00  0.00    -0.003 C 
ATOM     26  C   UNL     1     -53.689   9.671 -30.025  1.00  0.00     0.004 C 
ENDBRANCH  24  25
ENDBRANCH  23  24
ENDBRANCH  22  23
ENDBRANCH  21  22
ENDBRANCH  20  21
ENDBRANCH  19  20
ENDBRANCH  18  19
ENDBRANCH  17  18
ENDBRANCH  16  17
ENDBRANCH  15  16
ENDBRANCH   1  15
TORSDOF 22
ENDMDL
MODEL 2
REMARK VINA RESULT:    -4.193      2.513      4.656
REMARK INTER + INTRA:         -13.523
REMARK INTER:                 -10.234
REMARK INTRA:                  -3.289
REMARK UNBOUND:                -3.936
REMARK SMILES CCCCCCCCCCCCCCCCCCCCCCCC(=O)[O-]
REMARK SMILES IDX 13 1 14 2 15 3 16 4 17 5 18 6 19 7 20 8 21 9 22 10 23 11
REMARK SMILES IDX 24 12 25 13 26 14 12 15 11 16 10 17 9 18 8 19 7 20 6 21 5 22
REMARK SMILES IDX 4 23 3 24 2 25 1 26
REMARK H PARENT
REMARK Flexibility Score: inf
ROOT
ATOM      1  C   UNL     1     -52.399  16.413 -31.135  1.00  0.00     0.000 C 
ENDROOT
BRANCH   1   2
ATOM      2  C   UNL     1     -53.687  17.250 -31.129  1.00  0.00     0.000 C 
BRANCH   2   3
ATOM      3  C   UNL     1     -53.497  18.647 -30.507  1.00  0.00     0.000 C 
BRANCH   3   4
ATOM      4  C   UNL     1     -54.717  19.584 -30.609  1.00  0.00     0.000 C 
BRANCH   4   5
ATOM      5  C   UNL     1     -55.607  19.659 -29.352  1.00  0.00     0.000 C 
BRANCH   5   6
ATOM      6  C   UNL     1     -54.948  19.102 -28.073  1.00  0.00     0.000 C 
BRANCH   6   7
ATOM      7  C   UNL     1     -55.817  18.052 -27.361  1.00  0.00     0.000 C 
BRANCH   7   8
ATOM      8  C   UNL     1     -56.049  16.790 -28.213  1.00  0.00     0.000 C 
BRANCH   8   9
ATOM      9  C   UNL     1     -54.949  15.712 -28.103  1.00  0.00     0.000 C 
BRANCH   9  10
ATOM     10  C   UNL     1     -55.458  14.260 -28.041  1.00  0.00     0.006 C 
BRANCH  10  11
ATOM     11  C   UNL     1     -56.005  13.764 -29.387  1.00  0.00     0.053 C 
BRANCH  11  12
ATOM     12  C   UNL     1     -55.330  12.490 -29.790  1.00  0.00     0.041 C 
ATOM     13  O   UNL     1     -54.965  11.660 -28.915  1.00  0.00    -0.550 OA
ATOM     14  O   UNL     1     -55.118  12.210 -31.135  1.00  0.00    -0.550 OA
ENDBRANCH  11  12
ENDBRANCH  10  11
ENDBRANCH   9  10
ENDBRANCH   8   9
ENDBRANCH   7   8
ENDBRANCH   6   7
ENDBRANCH   5   6
ENDBRANCH   4   5
ENDBRANCH   3   4
ENDBRANCH   2   3
ENDBRANCH   1   2
BRANCH   1  15
ATOM     15  C   UNL     1     -52.725  14.913 -31.092  1.00  0.00     0.000 C 
BRANCH  15  16
ATOM     16  C   UNL     1     -51.630  14.077 -30.408  1.00  0.00     0.000 C 
BRANCH  16  17
ATOM     17  C   UNL     1     -51.974  13.578 -28.990  1.00  0.00     0.000 C 
BRANCH  17  18
ATOM     18  C   UNL     1     -50.879  12.738 -28.302  1.00  0.00    -0.000 C 
BRANCH  18  19
ATOM     19  C   UNL     1     -49.780  12.204 -29.237  1.00  0.00    -0.000 C 
BRANCH  19  20
ATOM     20  C   UNL     1     -49.643  10.671 -29.196  1.00  0.00    -0.000 C 
BRANCH  20  21
ATOM     21  C   UNL     1     -48.703  10.137 -30.299  1.00  0.00    -0.000 C 
BRANCH  21  22
ATOM     22  C   UNL     1     -49.094   8.756 -30.865  1.00  0.00    -0.000 C 
BRANCH  22  23
ATOM     23  C   UNL     1     -50.226   8.759 -31.910  1.00  0.00    -0.000 C 
BRANCH  23  24
ATOM     24  C   UNL     1     -51.636   8.540 -31.314  1.00  0.00    -0.000 C 
BRANCH  24  25
ATOM     25  C   UNL     1     -52.492   9.816 -31.275  1.00  0.00    -0.003 C 
ATOM     26  C   UNL     1     -52.006  10.886 -32.250  1.00  0.00     0.004 C 
ENDBRANCH  24  25
ENDBRANCH  23  24
ENDBRANCH  22  23
ENDBRANCH  21  22
ENDBRANCH  20  21
ENDBRANCH  19  20
ENDBRANCH  18  19
ENDBRANCH  17  18
ENDBRANCH  16  17
ENDBRANCH  15  16
ENDBRANCH   1  15
TORSDOF 22
ENDMDL
MODEL 3
REMARK VINA RESULT:    -4.161      3.211      8.134
REMARK INTER + INTRA:         -13.449
REMARK INTER:                 -10.660
REMARK INTRA:                  -2.788
REMARK UNBOUND:                -3.936
REMARK SMILES CCCCCCCCCCCCCCCCCCCCCCCC(=O)[O-]
REMARK SMILES IDX 13 1 14 2 15 3 16 4 17 5 18 6 19 7 20 8 21 9 22 10 23 11
REMARK SMILES IDX 24 12 25 13 26 14 12 15 11 16 10 17 9 18 8 19 7 20 6 21 5 22
REMARK SMILES IDX 4 23 3 24 2 25 1 26
REMARK H PARENT
REMARK Flexibility Score: inf
ROOT
ATOM      1  C   UNL     1     -51.612  14.637 -29.989  1.00  0.00     0.000 C 
ENDROOT
BRANCH   1   2
ATOM      2  C   UNL     1     -51.807  13.243 -29.372  1.00  0.00     0.000 C 
BRANCH   2   3
ATOM      3  C   UNL     1     -51.645  12.102 -30.394  1.00  0.00     0.000 C 
BRANCH   3   4
ATOM      4  C   UNL     1     -52.961  11.463 -30.880  1.00  0.00     0.000 C 
BRANCH   4   5
ATOM      5  C   UNL     1     -52.987  11.030 -32.360  1.00  0.00     0.000 C 
BRANCH   5   6
ATOM      6  C   UNL     1     -53.572   9.622 -32.599  1.00  0.00     0.000 C 
BRANCH   6   7
ATOM      7  C   UNL     1     -52.489   8.535 -32.709  1.00  0.00     0.000 C 
BRANCH   7   8
ATOM      8  C   UNL     1     -51.076   9.117 -32.900  1.00  0.00     0.000 C 
BRANCH   8   9
ATOM      9  C   UNL     1     -49.932   8.079 -32.891  1.00  0.00     0.000 C 
BRANCH   9  10
ATOM     10  C   UNL     1     -49.138   7.992 -31.575  1.00  0.00     0.006 C 
BRANCH  10  11
ATOM     11  C   UNL     1     -49.741   8.853 -30.457  1.00  0.00     0.053 C 
BRANCH  11  12
ATOM     12  C   UNL     1     -48.660   9.417 -29.587  1.00  0.00     0.041 C 
ATOM     13  O   UNL     1     -48.099   8.693 -28.723  1.00  0.00    -0.550 OA
ATOM     14  O   UNL     1     -48.260  10.738 -29.743  1.00  0.00    -0.550 OA
ENDBRANCH  11  12
ENDBRANCH  10  11
ENDBRANCH   9  10
ENDBRANCH   8   9
ENDBRANCH   7   8
ENDBRANCH   6   7
ENDBRANCH   5   6
ENDBRANCH   4   5
ENDBRANCH   3   4
ENDBRANCH   2   3
ENDBRANCH   1   2
BRANCH   1  15
ATOM     15  C   UNL     1     -52.224  14.699 -31.395  1.00  0.00     0.000 C 
BRANCH  15  16
ATOM     16  C   UNL     1     -52.486  16.136 -31.877  1.00  0.00     0.000 C 
BRANCH  16  17
ATOM     17  C   UNL     1     -52.514  17.206 -30.767  1.00  0.00     0.000 C 
BRANCH  17  18
ATOM     18  C   UNL     1     -53.805  18.046 -30.691  1.00  0.00    -0.000 C 
BRANCH  18  19
ATOM     19  C   UNL     1     -53.864  19.050 -29.528  1.00  0.00    -0.000 C 
BRANCH  19  20
ATOM     20  C   UNL     1     -55.292  19.277 -28.996  1.00  0.00    -0.000 C 
BRANCH  20  21
ATOM     21  C   UNL     1     -55.480  18.721 -27.567  1.00  0.00    -0.000 C 
BRANCH  21  22
ATOM     22  C   UNL     1     -54.970  17.278 -27.367  1.00  0.00    -0.000 C 
BRANCH  22  23
ATOM     23  C   UNL     1     -55.941  16.162 -27.797  1.00  0.00    -0.000 C 
BRANCH  23  24
ATOM     24  C   UNL     1     -55.277  14.774 -27.956  1.00  0.00    -0.000 C 
BRANCH  24  25
ATOM     25  C   UNL     1     -55.350  14.218 -29.388  1.00  0.00    -0.003 C 
ATOM     26  C   UNL     1     -55.887  15.235 -30.392  1.00  0.00     0.004 C 
ENDBRANCH  24  25
ENDBRANCH  23  24
ENDBRANCH  22  23
ENDBRANCH  21  22
ENDBRANCH  20  21
ENDBRANCH  19  20
ENDBRANCH  18  19
ENDBRANCH  17  18
ENDBRANCH  16  17
ENDBRANCH  15  16
ENDBRANCH   1  15
TORSDOF 22
ENDMDL
MODEL 4
REMARK VINA RESULT:    -4.093      2.863      8.135
REMARK INTER + INTRA:         -13.293
REMARK INTER:                 -10.552
REMARK INTRA:                  -2.741
REMARK UNBOUND:                -3.936
REMARK SMILES CCCCCCCCCCCCCCCCCCCCCCCC(=O)[O-]
REMARK SMILES IDX 13 1 14 2 15 3 16 4 17 5 18 6 19 7 20 8 21 9 22 10 23 11
REMARK SMILES IDX 24 12 25 13 26 14 12 15 11 16 10 17 9 18 8 19 7 20 6 21 5 22
REMARK SMILES IDX 4 23 3 24 2 25 1 26
REMARK H PARENT
REMARK Flexibility Score: inf
ROOT
ATOM      1  C   UNL     1     -52.125  14.465 -29.689  1.00  0.00     0.000 C 
ENDROOT
BRANCH   1   2
ATOM      2  C   UNL     1     -51.921  13.201 -28.840  1.00  0.00     0.000 C 
BRANCH   2   3
ATOM      3  C   UNL     1     -50.449  12.755 -28.764  1.00  0.00     0.000 C 
BRANCH   3   4
ATOM      4  C   UNL     1     -50.216  11.234 -28.858  1.00  0.00     0.000 C 
BRANCH   4   5
ATOM      5  C   UNL     1     -48.890  10.801 -29.515  1.00  0.00     0.000 C 
BRANCH   5   6
ATOM      6  C   UNL     1     -48.603   9.287 -29.426  1.00  0.00     0.000 C 
BRANCH   6   7
ATOM      7  C   UNL     1     -49.084   8.513 -30.665  1.00  0.00     0.000 C 
BRANCH   7   8
ATOM      8  C   UNL     1     -49.324   9.424 -31.883  1.00  0.00     0.000 C 
BRANCH   8   9
ATOM      9  C   UNL     1     -50.188   8.807 -33.005  1.00  0.00     0.000 C 
BRANCH   9  10
ATOM     10  C   UNL     1     -51.703   9.051 -32.873  1.00  0.00     0.006 C 
BRANCH  10  11
ATOM     11  C   UNL     1     -52.045  10.134 -31.842  1.00  0.00     0.053 C 
BRANCH  11  12
ATOM     12  C   UNL     1     -53.127   9.661 -30.921  1.00  0.00     0.041 C 
ATOM     13  O   UNL     1     -53.550  10.409 -30.000  1.00  0.00    -0.550 OA
ATOM     14  O   UNL     1     -53.681   8.398 -31.092  1.00  0.00    -0.550 OA
ENDBRANCH  11  12
ENDBRANCH  10  11
ENDBRANCH   9  10
ENDBRANCH   8   9
ENDBRANCH   7   8
ENDBRANCH   6   7
ENDBRANCH   5   6
ENDBRANCH   4   5
ENDBRANCH   3   4
ENDBRANCH   2   3
ENDBRANCH   1   2
BRANCH   1  15
ATOM     15  C   UNL     1     -52.503  14.098 -31.130  1.00  0.00     0.000 C 
BRANCH  15  16
ATOM     16  C   UNL     1     -53.948  13.588 -31.264  1.00  0.00     0.000 C 
BRANCH  16  17
ATOM     17  C   UNL     1     -55.014  14.439 -30.545  1.00  0.00     0.000 C 
BRANCH  17  18
ATOM     18  C   UNL     1     -55.753  13.734 -29.389  1.00  0.00    -0.000 C 
BRANCH  18  19
ATOM     19  C   UNL     1     -55.413  14.255 -27.982  1.00  0.00    -0.000 C 
BRANCH  19  20
ATOM     20  C   UNL     1     -55.954  15.672 -27.715  1.00  0.00    -0.000 C 
BRANCH  20  21
ATOM     21  C   UNL     1     -54.833  16.735 -27.708  1.00  0.00    -0.000 C 
BRANCH  21  22
ATOM     22  C   UNL     1     -55.280  18.137 -27.243  1.00  0.00    -0.000 C 
BRANCH  22  23
ATOM     23  C   UNL     1     -55.572  19.151 -28.365  1.00  0.00    -0.000 C 
BRANCH  23  24
ATOM     24  C   UNL     1     -55.205  18.649 -29.781  1.00  0.00    -0.000 C 
BRANCH  24  25
ATOM     25  C   UNL     1     -53.715  18.805 -30.121  1.00  0.00    -0.003 C 
ATOM     26  C   UNL     1     -53.202  17.712 -31.057  1.00  0.00     0.004 C 
ENDBRANCH  24  25
ENDBRANCH  23  24
ENDBRANCH  22  23
ENDBRANCH  21  22
ENDBRANCH  20  21
ENDBRANCH  19  20
ENDBRANCH  18  19
ENDBRANCH  17  18
ENDBRANCH  16  17
ENDBRANCH  15  16
ENDBRANCH   1  15
TORSDOF 22
ENDMDL
MODEL 5
REMARK VINA RESULT:    -4.092      3.390      7.594
REMARK INTER + INTRA:         -13.291
REMARK INTER:                  -9.630
REMARK INTRA:                  -3.662
REMARK UNBOUND:                -3.936
REMARK SMILES CCCCCCCCCCCCCCCCCCCCCCCC(=O)[O-]
REMARK SMILES IDX 13 1 14 2 15 3 16 4 17 5 18 6 19 7 20 8 21 9 22 10 23 11
REMARK SMILES IDX 24 12 25 13 26 14 12 15 11 16 10 17 9 18 8 19 7 20 6 21 5 22
REMARK SMILES IDX 4 23 3 24 2 25 1 26
REMARK H PARENT
REMARK Flexibility Score: inf
ROOT
ATOM      1  C   UNL     1     -52.016  14.610 -31.559  1.00  0.00     0.000 C 
ENDROOT
BRANCH   1   2
ATOM      2  C   UNL     1     -53.446  14.148 -31.876  1.00  0.00     0.000 C 
BRANCH   2   3
ATOM      3  C   UNL     1     -53.512  12.695 -32.385  1.00  0.00     0.000 C 
BRANCH   3   4
ATOM      4  C   UNL     1     -54.290  11.717 -31.483  1.00  0.00     0.000 C 
BRANCH   4   5
ATOM      5  C   UNL     1     -53.521  10.452 -31.051  1.00  0.00     0.000 C 
BRANCH   5   6
ATOM      6  C   UNL     1     -53.860   9.191 -31.873  1.00  0.00     0.000 C 
BRANCH   6   7
ATOM      7  C   UNL     1     -53.025   9.072 -33.159  1.00  0.00     0.000 C 
BRANCH   7   8
ATOM      8  C   UNL     1     -51.574   8.630 -32.891  1.00  0.00     0.000 C 
BRANCH   8   9
ATOM      9  C   UNL     1     -50.521   9.758 -32.957  1.00  0.00     0.000 C 
BRANCH   9  10
ATOM     10  C   UNL     1     -49.443   9.712 -31.859  1.00  0.00     0.006 C 
BRANCH  10  11
ATOM     11  C   UNL     1     -49.167   8.290 -31.354  1.00  0.00     0.053 C 
BRANCH  11  12
ATOM     12  C   UNL     1     -49.470   8.184 -29.891  1.00  0.00     0.041 C 
ATOM     13  O   UNL     1     -48.533   8.122 -29.051  1.00  0.00    -0.550 OA
ATOM     14  O   UNL     1     -50.789   8.170 -29.454  1.00  0.00    -0.550 OA
ENDBRANCH  11  12
ENDBRANCH  10  11
ENDBRANCH   9  10
ENDBRANCH   8   9
ENDBRANCH   7   8
ENDBRANCH   6   7
ENDBRANCH   5   6
ENDBRANCH   4   5
ENDBRANCH   3   4
ENDBRANCH   2   3
ENDBRANCH   1   2
BRANCH   1  15
ATOM     15  C   UNL     1     -51.999  16.093 -31.163  1.00  0.00     0.000 C 
BRANCH  15  16
ATOM     16  C   UNL     1     -53.299  16.830 -31.527  1.00  0.00     0.000 C 
BRANCH  16  17
ATOM     17  C   UNL     1     -53.746  17.910 -30.521  1.00  0.00     0.000 C 
BRANCH  17  18
ATOM     18  C   UNL     1     -54.896  17.500 -29.579  1.00  0.00    -0.000 C 
BRANCH  18  19
ATOM     19  C   UNL     1     -55.903  16.501 -30.174  1.00  0.00    -0.000 C 
BRANCH  19  20
ATOM     20  C   UNL     1     -55.957  15.166 -29.407  1.00  0.00    -0.000 C 
BRANCH  20  21
ATOM     21  C   UNL     1     -54.680  14.918 -28.574  1.00  0.00    -0.000 C 
BRANCH  21  22
ATOM     22  C   UNL     1     -54.520  13.472 -28.058  1.00  0.00    -0.000 C 
BRANCH  22  23
ATOM     23  C   UNL     1     -53.178  12.790 -28.388  1.00  0.00    -0.000 C 
BRANCH  23  24
ATOM     24  C   UNL     1     -51.968  13.754 -28.404  1.00  0.00    -0.000 C 
BRANCH  24  25
ATOM     25  C   UNL     1     -50.610  13.034 -28.366  1.00  0.00    -0.003 C 
ATOM     26  C   UNL     1     -50.658  11.644 -28.995  1.00  0.00     0.004 C 
ENDBRANCH  24  25
ENDBRANCH  23  24
ENDBRANCH  22  23
ENDBRANCH  21  22
ENDBRANCH  20  21
ENDBRANCH  19  20
ENDBRANCH  18  19
ENDBRANCH  17  18
ENDBRANCH  16  17
ENDBRANCH  15  16
ENDBRANCH   1  15
TORSDOF 22
ENDMDL
MODEL 6
REMARK VINA RESULT:    -4.072      2.483      5.857
REMARK INTER + INTRA:         -13.245
REMARK INTER:                  -9.999
REMARK INTRA:                  -3.245
REMARK UNBOUND:                -3.936
REMARK SMILES CCCCCCCCCCCCCCCCCCCCCCCC(=O)[O-]
REMARK SMILES IDX 13 1 14 2 15 3 16 4 17 5 18 6 19 7 20 8 21 9 22 10 23 11
REMARK SMILES IDX 24 12 25 13 26 14 12 15 11 16 10 17 9 18 8 19 7 20 6 21 5 22
REMARK SMILES IDX 4 23 3 24 2 25 1 26
REMARK H PARENT
REMARK Flexibility Score: inf
ROOT
ATOM      1  C   UNL     1     -56.125  17.221 -27.595  1.00  0.00     0.000 C 
ENDROOT
BRANCH   1   2
ATOM      2  C   UNL     1     -55.292  18.511 -27.585  1.00  0.00     0.000 C 
BRANCH   2   3
ATOM      3  C   UNL     1     -55.842  19.593 -28.534  1.00  0.00     0.000 C 
BRANCH   3   4
ATOM      4  C   UNL     1     -55.758  19.256 -30.036  1.00  0.00     0.000 C 
BRANCH   4   5
ATOM      5  C   UNL     1     -54.475  19.721 -30.753  1.00  0.00     0.000 C 
BRANCH   5   6
ATOM      6  C   UNL     1     -53.291  18.738 -30.636  1.00  0.00     0.000 C 
BRANCH   6   7
ATOM      7  C   UNL     1     -53.672  17.295 -31.007  1.00  0.00     0.000 C 
BRANCH   7   8
ATOM      8  C   UNL     1     -52.484  16.486 -31.559  1.00  0.00     0.000 C 
BRANCH   8   9
ATOM      9  C   UNL     1     -52.588  14.956 -31.373  1.00  0.00     0.000 C 
BRANCH   9  10
ATOM     10  C   UNL     1     -51.499  14.330 -30.482  1.00  0.00     0.006 C 
BRANCH  10  11
ATOM     11  C   UNL     1     -51.897  12.953 -29.934  1.00  0.00     0.053 C 
BRANCH  11  12
ATOM     12  C   UNL     1     -50.810  12.399 -29.066  1.00  0.00     0.041 C 
ATOM     13  O   UNL     1     -50.110  11.431 -29.465  1.00  0.00    -0.550 OA
ATOM     14  O   UNL     1     -50.558  12.964 -27.822  1.00  0.00    -0.550 OA
ENDBRANCH  11  12
ENDBRANCH  10  11
ENDBRANCH   9  10
ENDBRANCH   8   9
ENDBRANCH   7   8
ENDBRANCH   6   7
ENDBRANCH   5   6
ENDBRANCH   4   5
ENDBRANCH   3   4
ENDBRANCH   2   3
ENDBRANCH   1   2
BRANCH   1  15
ATOM     15  C   UNL     1     -55.298  16.043 -28.130  1.00  0.00     0.000 C 
BRANCH  15  16
ATOM     16  C   UNL     1     -56.019  15.250 -29.233  1.00  0.00     0.000 C 
BRANCH  16  17
ATOM     17  C   UNL     1     -55.579  13.780 -29.380  1.00  0.00     0.000 C 
BRANCH  17  18
ATOM     18  C   UNL     1     -55.865  13.139 -30.753  1.00  0.00    -0.000 C 
BRANCH  18  19
ATOM     19  C   UNL     1     -55.261  11.740 -30.960  1.00  0.00    -0.000 C 
BRANCH  19  20
ATOM     20  C   UNL     1     -55.101  10.950 -29.647  1.00  0.00    -0.000 C 
BRANCH  20  21
ATOM     21  C   UNL     1     -54.557   9.524 -29.883  1.00  0.00    -0.000 C 
BRANCH  21  22
ATOM     22  C   UNL     1     -53.021   9.400 -29.801  1.00  0.00    -0.000 C 
BRANCH  22  23
ATOM     23  C   UNL     1     -52.311   9.014 -31.112  1.00  0.00    -0.000 C 
BRANCH  23  24
ATOM     24  C   UNL     1     -52.237  10.158 -32.150  1.00  0.00    -0.000 C 
BRANCH  24  25
ATOM     25  C   UNL     1     -50.850  10.313 -32.797  1.00  0.00    -0.003 C 
ATOM     26  C   UNL     1     -49.906   9.163 -32.455  1.00  0.00     0.004 C 
ENDBRANCH  24  25
ENDBRANCH  23  24
ENDBRANCH  22  23
ENDBRANCH  21  22
ENDBRANCH  20  21
ENDBRANCH  19  20
ENDBRANCH  18  19
ENDBRANCH  17  18
ENDBRANCH  16  17
ENDBRANCH  15  16
ENDBRANCH   1  15
TORSDOF 22
ENDMDL
MODEL 7
REMARK VINA RESULT:    -4.062      2.700      7.704
REMARK INTER + INTRA:         -13.222
REMARK INTER:                 -10.153
REMARK INTRA:                  -3.069
REMARK UNBOUND:                -3.936
REMARK SMILES CCCCCCCCCCCCCCCCCCCCCCCC(=O)[O-]
REMARK SMILES IDX 13 1 14 2 15 3 16 4 17 5 18 6 19 7 20 8 21 9 22 10 23 11
REMARK SMILES IDX 24 12 25 13 26 14 12 15 11 16 10 17 9 18 8 19 7 20 6 21 5 22
REMARK SMILES IDX 4 23 3 24 2 25 1 26
REMARK H PARENT
REMARK Flexibility Score: inf
ROOT
ATOM      1  C   UNL     1     -51.799  15.635 -31.495  1.00  0.00     0.000 C 
ENDROOT
BRANCH   1   2
ATOM      2  C   UNL     1     -52.217  14.343 -30.778  1.00  0.00     0.000 C 
BRANCH   2   3
ATOM      3  C   UNL     1     -51.879  14.348 -29.275  1.00  0.00     0.000 C 
BRANCH   3   4
ATOM      4  C   UNL     1     -51.644  12.959 -28.648  1.00  0.00     0.000 C 
BRANCH   4   5
ATOM      5  C   UNL     1     -50.223  12.385 -28.810  1.00  0.00     0.000 C 
BRANCH   5   6
ATOM      6  C   UNL     1     -50.183  10.911 -29.268  1.00  0.00     0.000 C 
BRANCH   6   7
ATOM      7  C   UNL     1     -48.803  10.488 -29.801  1.00  0.00     0.000 C 
BRANCH   7   8
ATOM      8  C   UNL     1     -48.866   9.908 -31.226  1.00  0.00     0.000 C 
BRANCH   8   9
ATOM      9  C   UNL     1     -50.145   9.105 -31.553  1.00  0.00     0.000 C 
BRANCH   9  10
ATOM     10  C   UNL     1     -50.769   9.401 -32.929  1.00  0.00     0.006 C 
BRANCH  10  11
ATOM     11  C   UNL     1     -52.225   8.926 -33.037  1.00  0.00     0.053 C 
BRANCH  11  12
ATOM     12  C   UNL     1     -53.157   9.964 -32.493  1.00  0.00     0.041 C 
ATOM     13  O   UNL     1     -54.291   9.631 -32.054  1.00  0.00    -0.550 OA
ATOM     14  O   UNL     1     -52.768  11.297 -32.454  1.00  0.00    -0.550 OA
ENDBRANCH  11  12
ENDBRANCH  10  11
ENDBRANCH   9  10
ENDBRANCH   8   9
ENDBRANCH   7   8
ENDBRANCH   6   7
ENDBRANCH   5   6
ENDBRANCH   4   5
ENDBRANCH   3   4
ENDBRANCH   2   3
ENDBRANCH   1   2
BRANCH   1  15
ATOM     15  C   UNL     1     -52.394  16.864 -30.791  1.00  0.00     0.000 C 
BRANCH  15  16
ATOM     16  C   UNL     1     -53.921  16.969 -30.949  1.00  0.00     0.000 C 
BRANCH  16  17
ATOM     17  C   UNL     1     -54.477  18.406 -31.012  1.00  0.00     0.000 C 
BRANCH  17  18
ATOM     18  C   UNL     1     -55.334  18.837 -29.805  1.00  0.00    -0.000 C 
BRANCH  18  19
ATOM     19  C   UNL     1     -54.574  18.952 -28.472  1.00  0.00    -0.000 C 
BRANCH  19  20
ATOM     20  C   UNL     1     -55.238  18.166 -27.326  1.00  0.00    -0.000 C 
BRANCH  20  21
ATOM     21  C   UNL     1     -54.828  16.676 -27.323  1.00  0.00    -0.000 C 
BRANCH  21  22
ATOM     22  C   UNL     1     -55.912  15.710 -27.845  1.00  0.00    -0.000 C 
BRANCH  22  23
ATOM     23  C   UNL     1     -55.400  14.358 -28.378  1.00  0.00    -0.000 C 
BRANCH  23  24
ATOM     24  C   UNL     1     -55.843  14.042 -29.827  1.00  0.00    -0.000 C 
BRANCH  24  25
ATOM     25  C   UNL     1     -55.409  12.650 -30.311  1.00  0.00    -0.003 C 
ATOM     26  C   UNL     1     -55.011  11.720 -29.167  1.00  0.00     0.004 C 
ENDBRANCH  24  25
ENDBRANCH  23  24
ENDBRANCH  22  23
ENDBRANCH  21  22
ENDBRANCH  20  21
ENDBRANCH  19  20
ENDBRANCH  18  19
ENDBRANCH  17  18
ENDBRANCH  16  17
ENDBRANCH  15  16
ENDBRANCH   1  15
TORSDOF 22
ENDMDL
MODEL 8
REMARK VINA RESULT:    -4.060      2.631      7.541
REMARK INTER + INTRA:         -13.217
REMARK INTER:                  -9.542
REMARK INTRA:                  -3.675
REMARK UNBOUND:                -3.936
REMARK SMILES CCCCCCCCCCCCCCCCCCCCCCCC(=O)[O-]
REMARK SMILES IDX 13 1 14 2 15 3 16 4 17 5 18 6 19 7 20 8 21 9 22 10 23 11
REMARK SMILES IDX 24 12 25 13 26 14 12 15 11 16 10 17 9 18 8 19 7 20 6 21 5 22
REMARK SMILES IDX 4 23 3 24 2 25 1 26
REMARK H PARENT
REMARK Flexibility Score: inf
ROOT
ATOM      1  C   UNL     1     -54.395  12.489 -29.193  1.00  0.00     0.000 C 
ENDROOT
BRANCH   1   2
ATOM      2  C   UNL     1     -55.772  12.202 -29.810  1.00  0.00     0.000 C 
BRANCH   2   3
ATOM      3  C   UNL     1     -55.882  10.788 -30.410  1.00  0.00     0.000 C 
BRANCH   3   4
ATOM      4  C   UNL     1     -55.107   9.690 -29.656  1.00  0.00     0.000 C 
BRANCH   4   5
ATOM      5  C   UNL     1     -54.463   8.601 -30.537  1.00  0.00     0.000 C 
BRANCH   5   6
ATOM      6  C   UNL     1     -55.033   8.525 -31.969  1.00  0.00     0.000 C 
BRANCH   6   7
ATOM      7  C   UNL     1     -53.992   8.874 -33.047  1.00  0.00     0.000 C 
BRANCH   7   8
ATOM      8  C   UNL     1     -52.679   9.420 -32.455  1.00  0.00     0.000 C 
BRANCH   8   9
ATOM      9  C   UNL     1     -52.526  10.956 -32.503  1.00  0.00     0.000 C 
BRANCH   9  10
ATOM     10  C   UNL     1     -51.535  11.546 -31.482  1.00  0.00     0.006 C 
BRANCH  10  11
ATOM     11  C   UNL     1     -51.376  10.671 -30.232  1.00  0.00     0.053 C 
BRANCH  11  12
ATOM     12  C   UNL     1     -50.250  11.171 -29.381  1.00  0.00     0.041 C 
ATOM     13  O   UNL     1     -49.090  10.698 -29.520  1.00  0.00    -0.550 OA
ATOM     14  O   UNL     1     -50.477  12.174 -28.446  1.00  0.00    -0.550 OA
ENDBRANCH  11  12
ENDBRANCH  10  11
ENDBRANCH   9  10
ENDBRANCH   8   9
ENDBRANCH   7   8
ENDBRANCH   6   7
ENDBRANCH   5   6
ENDBRANCH   4   5
ENDBRANCH   3   4
ENDBRANCH   2   3
ENDBRANCH   1   2
BRANCH   1  15
ATOM     15  C   UNL     1     -54.511  13.515 -28.057  1.00  0.00     0.000 C 
BRANCH  15  16
ATOM     16  C   UNL     1     -55.869  14.237 -28.031  1.00  0.00     0.000 C 
BRANCH  16  17
ATOM     17  C   UNL     1     -55.848  15.696 -28.530  1.00  0.00     0.000 C 
BRANCH  17  18
ATOM     18  C   UNL     1     -54.716  16.573 -27.958  1.00  0.00    -0.000 C 
BRANCH  18  19
ATOM     19  C   UNL     1     -55.162  17.940 -27.411  1.00  0.00    -0.000 C 
BRANCH  19  20
ATOM     20  C   UNL     1     -54.718  19.120 -28.296  1.00  0.00    -0.000 C 
BRANCH  20  21
ATOM     21  C   UNL     1     -54.855  18.806 -29.802  1.00  0.00    -0.000 C 
BRANCH  21  22
ATOM     22  C   UNL     1     -53.549  18.954 -30.611  1.00  0.00    -0.000 C 
BRANCH  22  23
ATOM     23  C   UNL     1     -52.761  17.652 -30.850  1.00  0.00    -0.000 C 
BRANCH  23  24
ATOM     24  C   UNL     1     -53.611  16.497 -31.428  1.00  0.00    -0.000 C 
BRANCH  24  25
ATOM     25  C   UNL     1     -52.880  15.145 -31.444  1.00  0.00    -0.003 C 
ATOM     26  C   UNL     1     -51.853  15.012 -30.323  1.00  0.00     0.004 C 
ENDBRANCH  24  25
ENDBRANCH  23  24
ENDBRANCH  22  23
ENDBRANCH  21  22
ENDBRANCH  20  21
ENDBRANCH  19  20
ENDBRANCH  18  19
ENDBRANCH  17  18
ENDBRANCH  16  17
ENDBRANCH  15  16
ENDBRANCH   1  15
TORSDOF 22
ENDMDL
MODEL 9
REMARK VINA RESULT:    -3.999      2.047      3.308
REMARK INTER + INTRA:         -13.078
REMARK INTER:                 -10.008
REMARK INTRA:                  -3.071
REMARK UNBOUND:                -3.936
REMARK SMILES CCCCCCCCCCCCCCCCCCCCCCCC(=O)[O-]
REMARK SMILES IDX 13 1 14 2 15 3 16 4 17 5 18 6 19 7 20 8 21 9 22 10 23 11
REMARK SMILES IDX 24 12 25 13 26 14 12 15 11 16 10 17 9 18 8 19 7 20 6 21 5 22
REMARK SMILES IDX 4 23 3 24 2 25 1 26
REMARK H PARENT
REMARK Flexibility Score: inf
ROOT
ATOM      1  C   UNL     1     -52.454  13.719 -30.769  1.00  0.00     0.000 C 
ENDROOT
BRANCH   1   2
ATOM      2  C   UNL     1     -51.680  15.009 -30.460  1.00  0.00     0.000 C 
BRANCH   2   3
ATOM      3  C   UNL     1     -51.948  16.133 -31.478  1.00  0.00     0.000 C 
BRANCH   3   4
ATOM      4  C   UNL     1     -53.378  16.708 -31.464  1.00  0.00     0.000 C 
BRANCH   4   5
ATOM      5  C   UNL     1     -53.557  18.035 -30.701  1.00  0.00     0.000 C 
BRANCH   5   6
ATOM      6  C   UNL     1     -55.003  18.574 -30.695  1.00  0.00     0.000 C 
BRANCH   6   7
ATOM      7  C   UNL     1     -55.373  19.281 -29.380  1.00  0.00     0.000 C 
BRANCH   7   8
ATOM      8  C   UNL     1     -54.526  18.804 -28.186  1.00  0.00     0.000 C 
BRANCH   8   9
ATOM      9  C   UNL     1     -55.281  17.949 -27.145  1.00  0.00     0.000 C 
BRANCH   9  10
ATOM     10  C   UNL     1     -55.901  16.649 -27.691  1.00  0.00     0.006 C 
BRANCH  10  11
ATOM     11  C   UNL     1     -54.850  15.672 -28.237  1.00  0.00     0.053 C 
BRANCH  11  12
ATOM     12  C   UNL     1     -55.510  14.564 -28.999  1.00  0.00     0.041 C 
ATOM     13  O   UNL     1     -55.660  13.431 -28.469  1.00  0.00    -0.550 OA
ATOM     14  O   UNL     1     -55.975  14.788 -30.289  1.00  0.00    -0.550 OA
ENDBRANCH  11  12
ENDBRANCH  10  11
ENDBRANCH   9  10
ENDBRANCH   8   9
ENDBRANCH   7   8
ENDBRANCH   6   7
ENDBRANCH   5   6
ENDBRANCH   4   5
ENDBRANCH   3   4
ENDBRANCH   2   3
ENDBRANCH   1   2
BRANCH   1  15
ATOM     15  C   UNL     1     -52.119  12.625 -29.745  1.00  0.00     0.000 C 
BRANCH  15  16
ATOM     16  C   UNL     1     -50.786  12.867 -29.017  1.00  0.00     0.000 C 
BRANCH  16  17
ATOM     17  C   UNL     1     -50.149  11.616 -28.380  1.00  0.00     0.000 C 
BRANCH  17  18
ATOM     18  C   UNL     1     -50.089  10.370 -29.287  1.00  0.00    -0.000 C 
BRANCH  18  19
ATOM     19  C   UNL     1     -49.158  10.492 -30.505  1.00  0.00    -0.000 C 
BRANCH  19  20
ATOM     20  C   UNL     1     -49.057   9.191 -31.323  1.00  0.00    -0.000 C 
BRANCH  20  21
ATOM     21  C   UNL     1     -50.141   9.104 -32.420  1.00  0.00    -0.000 C 
BRANCH  21  22
ATOM     22  C   UNL     1     -51.016  10.367 -32.561  1.00  0.00    -0.000 C 
BRANCH  22  23
ATOM     23  C   UNL     1     -52.529  10.119 -32.704  1.00  0.00    -0.000 C 
BRANCH  23  24
ATOM     24  C   UNL     1     -53.238   9.755 -31.378  1.00  0.00    -0.000 C 
BRANCH  24  25
ATOM     25  C   UNL     1     -53.270   8.244 -31.093  1.00  0.00    -0.003 C 
ATOM     26  C   UNL     1     -52.639   7.880 -29.752  1.00  0.00     0.004 C 
ENDBRANCH  24  25
ENDBRANCH  23  24
ENDBRANCH  22  23
ENDBRANCH  21  22
ENDBRANCH  20  21
ENDBRANCH  19  20
ENDBRANCH  18  19
ENDBRANCH  17  18
ENDBRANCH  16  17
ENDBRANCH  15  16
ENDBRANCH   1  15
TORSDOF 22
ENDMDL
