MODEL 1
REMARK VINA RESULT:    72.859      0.000      0.000
REMARK INTER + INTRA:         101.971
REMARK INTER:                 102.674
REMARK INTRA:                  -0.703
REMARK UNBOUND:                -0.703
REMARK SMILES O=c1cc(-c2ccc(O)c(O)c2)oc2cc(O)c([C@@H]3O[C@H](CO)[C@@H](O)[C@@H](O)[C@@H]3O)c(O)c12
REMARK SMILES IDX 4 1 3 2 2 3 1 4 32 5 14 6 13 7 15 8 16 9 18 10 30 11 5 12
REMARK SMILES IDX 6 13 7 14 8 15 12 16 10 17 9 18 11 20 31 22 17 24 19 26
REMARK SMILES IDX 28 27 20 28 26 29 21 30 24 31 29 32 27 34 22 36 23 37 25 39
REMARK H PARENT 9 19 11 21 31 23 17 25 29 33 27 35 23 38 25 40
REMARK Flexibility Score: inf
ROOT
ATOM      1  C   UNL     1       3.201   0.431   3.955  1.00  0.00     0.138 A 
ATOM      2  C   UNL     1       2.919  -0.510   4.954  1.00  0.00     0.100 A 
ATOM      3  C   UNL     1       1.642  -1.062   5.040  1.00  0.00     0.197 A 
ATOM      4  O   UNL     1       1.396  -1.829   6.004  1.00  0.00    -0.289 OA
ATOM      5  C   UNL     1       0.655  -0.712   4.085  1.00  0.00     0.107 A 
ATOM      6  C   UNL     1       1.014   0.271   3.131  1.00  0.00     0.146 A 
ATOM      7  O   UNL     1       2.245   0.774   3.096  1.00  0.00    -0.456 OA
ATOM      8  C   UNL     1       0.071   0.767   2.240  1.00  0.00     0.094 A 
ATOM      9  C   UNL     1      -1.256   0.345   2.297  1.00  0.00     0.128 A 
ATOM     10  C   UNL     1      -1.627  -0.735   3.143  1.00  0.00     0.068 A 
ATOM     11  C   UNL     1      -0.663  -1.250   4.050  1.00  0.00     0.140 A 
ENDROOT
BRANCH   1  12
ATOM     12  C   UNL     1       4.535   1.082   3.841  1.00  0.00     0.021 A 
ATOM     13  C   UNL     1       5.439   1.004   4.918  1.00  0.00     0.016 A 
ATOM     14  C   UNL     1       6.724   1.542   4.810  1.00  0.00     0.051 A 
ATOM     15  C   UNL     1       7.133   2.160   3.619  1.00  0.00     0.157 A 
ATOM     16  C   UNL     1       4.947   1.719   2.650  1.00  0.00     0.062 A 
ATOM     17  C   UNL     1       6.241   2.253   2.539  1.00  0.00     0.158 A 
BRANCH  15  18
ATOM     18  O   UNL     1       8.424   2.663   3.495  1.00  0.00    -0.504 OA
ATOM     19  H   UNL     1       9.238   2.083   3.661  1.00  0.00     0.293 HD
ENDBRANCH  15  18
BRANCH  17  20
ATOM     20  O   UNL     1       6.651   2.857   1.352  1.00  0.00    -0.504 OA
ATOM     21  H   UNL     1       7.172   3.726   1.347  1.00  0.00     0.293 HD
ENDBRANCH  17  20
ENDBRANCH   1  12
BRANCH  11  22
ATOM     22  O   UNL     1      -1.049  -2.305   4.881  1.00  0.00    -0.506 OA
ATOM     23  H   UNL     1      -1.333  -2.194   5.846  1.00  0.00     0.293 HD
ENDBRANCH  11  22
BRANCH   9  24
ATOM     24  O   UNL     1      -2.181   1.049   1.523  1.00  0.00    -0.507 OA
ATOM     25  H   UNL     1      -3.118   1.249   1.853  1.00  0.00     0.293 HD
ENDBRANCH   9  24
BRANCH  10  26
ATOM     26  C   UNL     1      -3.042  -1.334   3.065  1.00  0.00     0.188 C 
ATOM     27  C   UNL     1      -4.200  -0.329   3.453  1.00  0.00     0.179 C 
ATOM     28  O   UNL     1      -3.162  -2.024   1.823  1.00  0.00    -0.362 OA
ATOM     29  C   UNL     1      -5.064   0.213   2.280  1.00  0.00     0.177 C 
ATOM     30  C   UNL     1      -4.486  -2.057   1.327  1.00  0.00     0.176 C 
ATOM     31  C   UNL     1      -4.909  -0.618   0.983  1.00  0.00     0.177 C 
BRANCH  27  32
ATOM     32  O   UNL     1      -3.715   0.748   4.218  1.00  0.00    -0.387 OA
ATOM     33  H   UNL     1      -2.728   0.698   4.177  1.00  0.00     0.211 HD
ENDBRANCH  27  32
BRANCH  29  34
ATOM     34  O   UNL     1      -6.416   0.226   2.692  1.00  0.00    -0.387 OA
ATOM     35  H   UNL     1      -6.938  -0.275   2.010  1.00  0.00     0.211 HD
ENDBRANCH  29  34
BRANCH  30  36
ATOM     36  C   UNL     1      -4.481  -2.970   0.085  1.00  0.00     0.191 C 
BRANCH  36  37
ATOM     37  O   UNL     1      -4.488  -2.228  -1.107  1.00  0.00    -0.394 OA
ATOM     38  H   UNL     1      -3.621  -1.745  -1.138  1.00  0.00     0.210 HD
ENDBRANCH  36  37
ENDBRANCH  30  36
BRANCH  31  39
ATOM     39  O   UNL     1      -6.102  -0.592   0.230  1.00  0.00    -0.388 OA
ATOM     40  H   UNL     1      -5.839  -0.523  -0.726  1.00  0.00     0.211 HD
ENDBRANCH  31  39
ENDBRANCH  10  26
TORSDOF 11
ENDMDL
