MODEL 1
REMARK VINA RESULT:    -4.452      0.000      0.000
REMARK INTER + INTRA:         -12.181
REMARK INTER:                  -9.658
REMARK INTRA:                  -2.524
REMARK UNBOUND:                -2.524
REMARK SMILES CCCCCCCCCCCCCCCCCCCCCC(=O)[O-]
REMARK SMILES IDX 12 1 11 2 10 3 9 4 8 5 7 6 6 7 5 8 4 9 3 10 2 11 1 12 13 13
REMARK SMILES IDX 14 14 15 15 16 16 17 17 18 18 19 19 20 20 21 21 22 22 23 23
REMARK SMILES IDX 24 24
REMARK H PARENT
REMARK Flexibility Score: inf
ROOT
ATOM      1  C   UNL     1      44.377  -8.499   8.016  1.00  0.00     0.000 C 
ENDROOT
BRANCH   1   2
ATOM      2  C   UNL     1      44.191 -10.026   8.003  1.00  0.00     0.000 C 
BRANCH   2   3
ATOM      3  C   UNL     1      45.324 -10.750   7.256  1.00  0.00     0.000 C 
BRANCH   3   4
ATOM      4  C   UNL     1      44.951 -11.120   5.809  1.00  0.00    -0.000 C 
BRANCH   4   5
ATOM      5  C   UNL     1      45.301 -10.058   4.751  1.00  0.00    -0.000 C 
BRANCH   5   6
ATOM      6  C   UNL     1      44.086  -9.231   4.306  1.00  0.00    -0.000 C 
BRANCH   6   7
ATOM      7  C   UNL     1      42.801 -10.064   4.361  1.00  0.00    -0.000 C 
BRANCH   7   8
ATOM      8  C   UNL     1      41.561  -9.167   4.227  1.00  0.00    -0.000 C 
BRANCH   8   9
ATOM      9  C   UNL     1      41.898  -7.756   3.717  1.00  0.00    -0.000 C 
BRANCH   9  10
ATOM     10  C   UNL     1      41.205  -7.362   2.398  1.00  0.00    -0.000 C 
BRANCH  10  11
ATOM     11  C   UNL     1      41.185  -5.841   2.139  1.00  0.00    -0.003 C 
ATOM     12  C   UNL     1      40.287  -5.093   3.123  1.00  0.00     0.004 C 
ENDBRANCH  10  11
ENDBRANCH   9  10
ENDBRANCH   8   9
ENDBRANCH   7   8
ENDBRANCH   6   7
ENDBRANCH   5   6
ENDBRANCH   4   5
ENDBRANCH   3   4
ENDBRANCH   2   3
ENDBRANCH   1   2
BRANCH   1  13
ATOM     13  C   UNL     1      43.192  -7.755   7.374  1.00  0.00     0.000 C 
BRANCH  13  14
ATOM     14  C   UNL     1      41.842  -8.159   7.987  1.00  0.00     0.000 C 
BRANCH  14  15
ATOM     15  C   UNL     1      40.657  -7.403   7.365  1.00  0.00     0.000 C 
BRANCH  15  16
ATOM     16  C   UNL     1      39.645  -6.986   8.444  1.00  0.00     0.000 C 
BRANCH  16  17
ATOM     17  C   UNL     1      40.286  -6.823   9.833  1.00  0.00     0.000 C 
BRANCH  17  18
ATOM     18  C   UNL     1      39.569  -7.576  10.974  1.00  0.00     0.000 C 
BRANCH  18  19
ATOM     19  C   UNL     1      38.822  -8.854  10.546  1.00  0.00     0.000 C 
BRANCH  19  20
ATOM     20  C   UNL     1      37.301  -8.835  10.799  1.00  0.00     0.006 C 
BRANCH  20  21
ATOM     21  C   UNL     1      36.759  -7.489  11.305  1.00  0.00     0.053 C 
BRANCH  21  22
ATOM     22  C   UNL     1      35.780  -7.661  12.426  1.00  0.00     0.041 C 
ATOM     23  O   UNL     1      35.625  -8.789  12.964  1.00  0.00    -0.550 OA
ATOM     24  O   UNL     1      35.024  -6.580  12.862  1.00  0.00    -0.550 OA
ENDBRANCH  21  22
ENDBRANCH  20  21
ENDBRANCH  19  20
ENDBRANCH  18  19
ENDBRANCH  17  18
ENDBRANCH  16  17
ENDBRANCH  15  16
ENDBRANCH  14  15
ENDBRANCH  13  14
ENDBRANCH   1  13
TORSDOF 20
ENDMDL
MODEL 2
REMARK VINA RESULT:    -4.430      3.678      8.717
REMARK INTER + INTRA:         -12.133
REMARK INTER:                  -9.410
REMARK INTRA:                  -2.723
REMARK UNBOUND:                -2.524
REMARK SMILES CCCCCCCCCCCCCCCCCCCCCC(=O)[O-]
REMARK SMILES IDX 12 1 11 2 10 3 9 4 8 5 7 6 6 7 5 8 4 9 3 10 2 11 1 12 13 13
REMARK SMILES IDX 14 14 15 15 16 16 17 17 18 18 19 19 20 20 21 21 22 22 23 23
REMARK SMILES IDX 24 24
REMARK H PARENT
REMARK Flexibility Score: inf
ROOT
ATOM      1  C   UNL     1      39.524  -6.765   8.053  1.00  0.00     0.000 C 
ENDROOT
BRANCH   1   2
ATOM      2  C   UNL     1      39.803  -6.404   9.521  1.00  0.00     0.000 C 
BRANCH   2   3
ATOM      3  C   UNL     1      38.821  -7.083  10.491  1.00  0.00     0.000 C 
BRANCH   3   4
ATOM      4  C   UNL     1      38.132  -8.319   9.884  1.00  0.00    -0.000 C 
BRANCH   4   5
ATOM      5  C   UNL     1      38.744  -9.673  10.286  1.00  0.00    -0.000 C 
BRANCH   5   6
ATOM      6  C   UNL     1      39.077  -9.761  11.782  1.00  0.00    -0.000 C 
BRANCH   6   7
ATOM      7  C   UNL     1      38.313 -10.909  12.452  1.00  0.00    -0.000 C 
BRANCH   7   8
ATOM      8  C   UNL     1      37.270 -10.368  13.442  1.00  0.00    -0.000 C 
BRANCH   8   9
ATOM      9  C   UNL     1      35.994  -9.862  12.748  1.00  0.00    -0.000 C 
BRANCH   9  10
ATOM     10  C   UNL     1      35.781  -8.337  12.816  1.00  0.00    -0.000 C 
BRANCH  10  11
ATOM     11  C   UNL     1      36.566  -7.652  13.953  1.00  0.00    -0.003 C 
ATOM     12  C   UNL     1      36.832  -6.174  13.671  1.00  0.00     0.004 C 
ENDBRANCH  10  11
ENDBRANCH   9  10
ENDBRANCH   8   9
ENDBRANCH   7   8
ENDBRANCH   6   7
ENDBRANCH   5   6
ENDBRANCH   4   5
ENDBRANCH   3   4
ENDBRANCH   2   3
ENDBRANCH   1   2
BRANCH   1  13
ATOM     13  C   UNL     1      40.745  -7.395   7.359  1.00  0.00     0.000 C 
BRANCH  13  14
ATOM     14  C   UNL     1      41.610  -8.221   8.324  1.00  0.00     0.000 C 
BRANCH  14  15
ATOM     15  C   UNL     1      43.099  -8.218   7.940  1.00  0.00     0.000 C 
BRANCH  15  16
ATOM     16  C   UNL     1      43.291  -7.736   6.494  1.00  0.00     0.000 C 
BRANCH  16  17
ATOM     17  C   UNL     1      43.978  -8.785   5.601  1.00  0.00     0.000 C 
BRANCH  17  18
ATOM     18  C   UNL     1      43.370  -8.939   4.192  1.00  0.00     0.000 C 
BRANCH  18  19
ATOM     19  C   UNL     1      41.840  -8.776   4.117  1.00  0.00     0.000 C 
BRANCH  19  20
ATOM     20  C   UNL     1      41.348  -7.661   3.172  1.00  0.00     0.006 C 
BRANCH  20  21
ATOM     21  C   UNL     1      40.678  -6.476   3.884  1.00  0.00     0.053 C 
BRANCH  21  22
ATOM     22  C   UNL     1      40.622  -5.255   3.017  1.00  0.00     0.041 C 
ATOM     23  O   UNL     1      40.329  -5.359   1.797  1.00  0.00    -0.550 OA
ATOM     24  O   UNL     1      40.916  -4.007   3.551  1.00  0.00    -0.550 OA
ENDBRANCH  21  22
ENDBRANCH  20  21
ENDBRANCH  19  20
ENDBRANCH  18  19
ENDBRANCH  17  18
ENDBRANCH  16  17
ENDBRANCH  15  16
ENDBRANCH  14  15
ENDBRANCH  13  14
ENDBRANCH   1  13
TORSDOF 20
ENDMDL
MODEL 3
REMARK VINA RESULT:    -4.391      1.427      3.426
REMARK INTER + INTRA:         -12.047
REMARK INTER:                  -9.594
REMARK INTRA:                  -2.454
REMARK UNBOUND:                -2.524
REMARK SMILES CCCCCCCCCCCCCCCCCCCCCC(=O)[O-]
REMARK SMILES IDX 12 1 11 2 10 3 9 4 8 5 7 6 6 7 5 8 4 9 3 10 2 11 1 12 13 13
REMARK SMILES IDX 14 14 15 15 16 16 17 17 18 18 19 19 20 20 21 21 22 22 23 23
REMARK SMILES IDX 24 24
REMARK H PARENT
REMARK Flexibility Score: inf
ROOT
ATOM      1  C   UNL     1      39.790  -6.971   7.690  1.00  0.00     0.000 C 
ENDROOT
BRANCH   1   2
ATOM      2  C   UNL     1      41.170  -7.648   7.754  1.00  0.00     0.000 C 
BRANCH   2   3
ATOM      3  C   UNL     1      41.071  -9.181   7.825  1.00  0.00     0.000 C 
BRANCH   3   4
ATOM      4  C   UNL     1      42.420  -9.858   8.130  1.00  0.00    -0.000 C 
BRANCH   4   5
ATOM      5  C   UNL     1      43.649  -8.934   8.048  1.00  0.00    -0.000 C 
BRANCH   5   6
ATOM      6  C   UNL     1      44.868  -9.611   7.407  1.00  0.00    -0.000 C 
BRANCH   6   7
ATOM      7  C   UNL     1      44.441 -10.586   6.303  1.00  0.00    -0.000 C 
BRANCH   7   8
ATOM      8  C   UNL     1      44.935 -10.107   4.929  1.00  0.00    -0.000 C 
BRANCH   8   9
ATOM      9  C   UNL     1      44.029  -9.028   4.312  1.00  0.00    -0.000 C 
BRANCH   9  10
ATOM     10  C   UNL     1      42.518  -9.284   4.471  1.00  0.00    -0.000 C 
BRANCH  10  11
ATOM     11  C   UNL     1      41.651  -8.542   3.432  1.00  0.00    -0.003 C 
ATOM     12  C   UNL     1      40.941  -7.326   4.026  1.00  0.00     0.004 C 
ENDBRANCH  10  11
ENDBRANCH   9  10
ENDBRANCH   8   9
ENDBRANCH   7   8
ENDBRANCH   6   7
ENDBRANCH   5   6
ENDBRANCH   4   5
ENDBRANCH   3   4
ENDBRANCH   2   3
ENDBRANCH   1   2
BRANCH   1  13
ATOM     13  C   UNL     1      39.428  -6.247   8.999  1.00  0.00     0.000 C 
BRANCH  13  14
ATOM     14  C   UNL     1      40.264  -6.736  10.193  1.00  0.00     0.000 C 
BRANCH  14  15
ATOM     15  C   UNL     1      39.531  -7.787  11.042  1.00  0.00     0.000 C 
BRANCH  15  16
ATOM     16  C   UNL     1      38.021  -7.508  11.075  1.00  0.00     0.000 C 
BRANCH  16  17
ATOM     17  C   UNL     1      37.178  -8.732  10.676  1.00  0.00     0.000 C 
BRANCH  17  18
ATOM     18  C   UNL     1      37.072  -9.831  11.754  1.00  0.00     0.000 C 
BRANCH  18  19
ATOM     19  C   UNL     1      36.853  -9.319  13.191  1.00  0.00     0.000 C 
BRANCH  19  20
ATOM     20  C   UNL     1      35.409  -8.886  13.515  1.00  0.00     0.006 C 
BRANCH  20  21
ATOM     21  C   UNL     1      35.184  -7.366  13.496  1.00  0.00     0.053 C 
BRANCH  21  22
ATOM     22  C   UNL     1      36.015  -6.661  14.524  1.00  0.00     0.041 C 
ATOM     23  O   UNL     1      35.675  -6.682  15.736  1.00  0.00    -0.550 OA
ATOM     24  O   UNL     1      37.152  -5.960  14.140  1.00  0.00    -0.550 OA
ENDBRANCH  21  22
ENDBRANCH  20  21
ENDBRANCH  19  20
ENDBRANCH  18  19
ENDBRANCH  17  18
ENDBRANCH  16  17
ENDBRANCH  15  16
ENDBRANCH  14  15
ENDBRANCH  13  14
ENDBRANCH   1  13
TORSDOF 20
ENDMDL
MODEL 4
REMARK VINA RESULT:    -4.365      1.679      3.880
REMARK INTER + INTRA:         -11.992
REMARK INTER:                  -9.340
REMARK INTRA:                  -2.652
REMARK UNBOUND:                -2.524
REMARK SMILES CCCCCCCCCCCCCCCCCCCCCC(=O)[O-]
REMARK SMILES IDX 12 1 11 2 10 3 9 4 8 5 7 6 6 7 5 8 4 9 3 10 2 11 1 12 13 13
REMARK SMILES IDX 14 14 15 15 16 16 17 17 18 18 19 19 20 20 21 21 22 22 23 23
REMARK SMILES IDX 24 24
REMARK H PARENT
REMARK Flexibility Score: inf
ROOT
ATOM      1  C   UNL     1      39.491  -6.263   8.656  1.00  0.00     0.000 C 
ENDROOT
BRANCH   1   2
ATOM      2  C   UNL     1      40.161  -7.034   7.506  1.00  0.00     0.000 C 
BRANCH   2   3
ATOM      3  C   UNL     1      41.452  -7.745   7.946  1.00  0.00     0.000 C 
BRANCH   3   4
ATOM      4  C   UNL     1      41.300  -9.275   8.025  1.00  0.00    -0.000 C 
BRANCH   4   5
ATOM      5  C   UNL     1      42.622 -10.061   8.098  1.00  0.00    -0.000 C 
BRANCH   5   6
ATOM      6  C   UNL     1      43.854  -9.190   7.814  1.00  0.00    -0.000 C 
BRANCH   6   7
ATOM      7  C   UNL     1      44.612  -9.690   6.579  1.00  0.00    -0.000 C 
BRANCH   7   8
ATOM      8  C   UNL     1      44.309  -8.809   5.357  1.00  0.00    -0.000 C 
BRANCH   8   9
ATOM      9  C   UNL     1      43.131  -9.334   4.520  1.00  0.00    -0.000 C 
BRANCH   9  10
ATOM     10  C   UNL     1      41.984  -8.326   4.312  1.00  0.00    -0.000 C 
BRANCH  10  11
ATOM     11  C   UNL     1      41.058  -8.676   3.129  1.00  0.00    -0.003 C 
ATOM     12  C   UNL     1      40.830 -10.181   2.991  1.00  0.00     0.004 C 
ENDBRANCH  10  11
ENDBRANCH   9  10
ENDBRANCH   8   9
ENDBRANCH   7   8
ENDBRANCH   6   7
ENDBRANCH   5   6
ENDBRANCH   4   5
ENDBRANCH   3   4
ENDBRANCH   2   3
ENDBRANCH   1   2
BRANCH   1  13
ATOM     13  C   UNL     1      38.471  -7.120   9.426  1.00  0.00     0.000 C 
BRANCH  13  14
ATOM     14  C   UNL     1      38.872  -7.336  10.894  1.00  0.00     0.000 C 
BRANCH  14  15
ATOM     15  C   UNL     1      39.273  -8.789  11.195  1.00  0.00     0.000 C 
BRANCH  15  16
ATOM     16  C   UNL     1      38.421  -9.773  10.380  1.00  0.00     0.000 C 
BRANCH  16  17
ATOM     17  C   UNL     1      37.798 -10.883  11.244  1.00  0.00     0.000 C 
BRANCH  17  18
ATOM     18  C   UNL     1      38.198 -10.851  12.734  1.00  0.00     0.000 C 
BRANCH  18  19
ATOM     19  C   UNL     1      37.028 -10.677  13.722  1.00  0.00     0.000 C 
BRANCH  19  20
ATOM     20  C   UNL     1      36.028  -9.560  13.358  1.00  0.00     0.006 C 
BRANCH  20  21
ATOM     21  C   UNL     1      36.514  -8.142  13.692  1.00  0.00     0.053 C 
BRANCH  21  22
ATOM     22  C   UNL     1      35.506  -7.375  14.492  1.00  0.00     0.041 C 
ATOM     23  O   UNL     1      35.885  -6.571  15.384  1.00  0.00    -0.550 OA
ATOM     24  O   UNL     1      34.148  -7.565  14.269  1.00  0.00    -0.550 OA
ENDBRANCH  21  22
ENDBRANCH  20  21
ENDBRANCH  19  20
ENDBRANCH  18  19
ENDBRANCH  17  18
ENDBRANCH  16  17
ENDBRANCH  15  16
ENDBRANCH  14  15
ENDBRANCH  13  14
ENDBRANCH   1  13
TORSDOF 20
ENDMDL
MODEL 5
REMARK VINA RESULT:    -4.358      3.470      8.798
REMARK INTER + INTRA:         -11.976
REMARK INTER:                  -9.046
REMARK INTRA:                  -2.930
REMARK UNBOUND:                -2.524
REMARK SMILES CCCCCCCCCCCCCCCCCCCCCC(=O)[O-]
REMARK SMILES IDX 12 1 11 2 10 3 9 4 8 5 7 6 6 7 5 8 4 9 3 10 2 11 1 12 13 13
REMARK SMILES IDX 14 14 15 15 16 16 17 17 18 18 19 19 20 20 21 21 22 22 23 23
REMARK SMILES IDX 24 24
REMARK H PARENT
REMARK Flexibility Score: inf
ROOT
ATOM      1  C   UNL     1      40.423  -6.787   9.495  1.00  0.00     0.000 C 
ENDROOT
BRANCH   1   2
ATOM      2  C   UNL     1      38.927  -7.078   9.288  1.00  0.00     0.000 C 
BRANCH   2   3
ATOM      3  C   UNL     1      38.169  -7.242  10.616  1.00  0.00     0.000 C 
BRANCH   3   4
ATOM      4  C   UNL     1      38.723  -8.384  11.488  1.00  0.00    -0.000 C 
BRANCH   4   5
ATOM      5  C   UNL     1      37.997  -9.733  11.336  1.00  0.00    -0.000 C 
BRANCH   5   6
ATOM      6  C   UNL     1      38.213 -10.669  12.534  1.00  0.00    -0.000 C 
BRANCH   6   7
ATOM      7  C   UNL     1      37.211 -10.369  13.655  1.00  0.00    -0.000 C 
BRANCH   7   8
ATOM      8  C   UNL     1      35.806 -10.127  13.084  1.00  0.00    -0.000 C 
BRANCH   8   9
ATOM      9  C   UNL     1      35.132  -8.874  13.668  1.00  0.00    -0.000 C 
BRANCH   9  10
ATOM     10  C   UNL     1      35.292  -7.597  12.819  1.00  0.00    -0.000 C 
BRANCH  10  11
ATOM     11  C   UNL     1      35.592  -6.333  13.651  1.00  0.00    -0.003 C 
ATOM     12  C   UNL     1      37.070  -6.215  14.022  1.00  0.00     0.004 C 
ENDBRANCH  10  11
ENDBRANCH   9  10
ENDBRANCH   8   9
ENDBRANCH   7   8
ENDBRANCH   6   7
ENDBRANCH   5   6
ENDBRANCH   4   5
ENDBRANCH   3   4
ENDBRANCH   2   3
ENDBRANCH   1   2
BRANCH   1  13
ATOM     13  C   UNL     1      41.325  -7.734   8.683  1.00  0.00     0.000 C 
BRANCH  13  14
ATOM     14  C   UNL     1      40.634  -9.066   8.352  1.00  0.00     0.000 C 
BRANCH  14  15
ATOM     15  C   UNL     1      41.329 -10.275   8.998  1.00  0.00     0.000 C 
BRANCH  15  16
ATOM     16  C   UNL     1      42.299 -10.942   8.012  1.00  0.00     0.000 C 
BRANCH  16  17
ATOM     17  C   UNL     1      43.776 -10.732   8.390  1.00  0.00     0.000 C 
BRANCH  17  18
ATOM     18  C   UNL     1      44.642 -10.072   7.297  1.00  0.00     0.000 C 
BRANCH  18  19
ATOM     19  C   UNL     1      44.043  -8.799   6.668  1.00  0.00     0.000 C 
BRANCH  19  20
ATOM     20  C   UNL     1      43.670  -8.922   5.177  1.00  0.00     0.006 C 
BRANCH  20  21
ATOM     21  C   UNL     1      42.159  -8.983   4.905  1.00  0.00     0.053 C 
BRANCH  21  22
ATOM     22  C   UNL     1      41.607  -7.653   4.490  1.00  0.00     0.041 C 
ATOM     23  O   UNL     1      41.532  -6.712   5.322  1.00  0.00    -0.550 OA
ATOM     24  O   UNL     1      41.156  -7.461   3.190  1.00  0.00    -0.550 OA
ENDBRANCH  21  22
ENDBRANCH  20  21
ENDBRANCH  19  20
ENDBRANCH  18  19
ENDBRANCH  17  18
ENDBRANCH  16  17
ENDBRANCH  15  16
ENDBRANCH  14  15
ENDBRANCH  13  14
ENDBRANCH   1  13
TORSDOF 20
ENDMDL
MODEL 6
REMARK VINA RESULT:    -4.315      3.683      8.433
REMARK INTER + INTRA:         -11.885
REMARK INTER:                  -9.976
REMARK INTRA:                  -1.909
REMARK UNBOUND:                -2.524
REMARK SMILES CCCCCCCCCCCCCCCCCCCCCC(=O)[O-]
REMARK SMILES IDX 12 1 11 2 10 3 9 4 8 5 7 6 6 7 5 8 4 9 3 10 2 11 1 12 13 13
REMARK SMILES IDX 14 14 15 15 16 16 17 17 18 18 19 19 20 20 21 21 22 22 23 23
REMARK SMILES IDX 24 24
REMARK H PARENT
REMARK Flexibility Score: inf
ROOT
ATOM      1  C   UNL     1      43.390  -7.801   6.518  1.00  0.00     0.000 C 
ENDROOT
BRANCH   1   2
ATOM      2  C   UNL     1      43.119  -8.438   7.892  1.00  0.00     0.000 C 
BRANCH   2   3
ATOM      3  C   UNL     1      41.647  -8.306   8.321  1.00  0.00     0.000 C 
BRANCH   3   4
ATOM      4  C   UNL     1      40.820  -7.421   7.371  1.00  0.00    -0.000 C 
BRANCH   4   5
ATOM      5  C   UNL     1      39.478  -6.927   7.940  1.00  0.00    -0.000 C 
BRANCH   5   6
ATOM      6  C   UNL     1      38.958  -7.797   9.094  1.00  0.00    -0.000 C 
BRANCH   6   7
ATOM      7  C   UNL     1      38.794  -6.974  10.377  1.00  0.00    -0.000 C 
BRANCH   7   8
ATOM      8  C   UNL     1      37.585  -7.462  11.189  1.00  0.00    -0.000 C 
BRANCH   8   9
ATOM      9  C   UNL     1      37.794  -7.329  12.707  1.00  0.00    -0.000 C 
BRANCH   9  10
ATOM     10  C   UNL     1      36.740  -6.471  13.433  1.00  0.00    -0.000 C 
BRANCH  10  11
ATOM     11  C   UNL     1      35.291  -6.762  12.990  1.00  0.00    -0.003 C 
ATOM     12  C   UNL     1      34.734  -8.039  13.619  1.00  0.00     0.004 C 
ENDBRANCH  10  11
ENDBRANCH   9  10
ENDBRANCH   8   9
ENDBRANCH   7   8
ENDBRANCH   6   7
ENDBRANCH   5   6
ENDBRANCH   4   5
ENDBRANCH   3   4
ENDBRANCH   2   3
ENDBRANCH   1   2
BRANCH   1  13
ATOM     13  C   UNL     1      43.930  -8.817   5.495  1.00  0.00     0.000 C 
BRANCH  13  14
ATOM     14  C   UNL     1      43.316 -10.214   5.672  1.00  0.00     0.000 C 
BRANCH  14  15
ATOM     15  C   UNL     1      41.874 -10.302   5.148  1.00  0.00     0.000 C 
BRANCH  15  16
ATOM     16  C   UNL     1      41.848 -10.302   3.612  1.00  0.00     0.000 C 
BRANCH  16  17
ATOM     17  C   UNL     1      40.743  -9.402   3.031  1.00  0.00     0.000 C 
BRANCH  17  18
ATOM     18  C   UNL     1      41.186  -7.964   2.692  1.00  0.00     0.000 C 
BRANCH  18  19
ATOM     19  C   UNL     1      40.865  -6.909   3.768  1.00  0.00     0.000 C 
BRANCH  19  20
ATOM     20  C   UNL     1      41.140  -5.449   3.353  1.00  0.00     0.006 C 
BRANCH  20  21
ATOM     21  C   UNL     1      39.933  -4.728   2.735  1.00  0.00     0.053 C 
BRANCH  21  22
ATOM     22  C   UNL     1      40.096  -3.239   2.753  1.00  0.00     0.041 C 
ATOM     23  O   UNL     1      39.105  -2.496   2.983  1.00  0.00    -0.550 OA
ATOM     24  O   UNL     1      41.337  -2.671   2.493  1.00  0.00    -0.550 OA
ENDBRANCH  21  22
ENDBRANCH  20  21
ENDBRANCH  19  20
ENDBRANCH  18  19
ENDBRANCH  17  18
ENDBRANCH  16  17
ENDBRANCH  15  16
ENDBRANCH  14  15
ENDBRANCH  13  14
ENDBRANCH   1  13
TORSDOF 20
ENDMDL
MODEL 7
REMARK VINA RESULT:    -4.295      2.297      3.020
REMARK INTER + INTRA:         -11.841
REMARK INTER:                  -8.984
REMARK INTRA:                  -2.857
REMARK UNBOUND:                -2.524
REMARK SMILES CCCCCCCCCCCCCCCCCCCCCC(=O)[O-]
REMARK SMILES IDX 12 1 11 2 10 3 9 4 8 5 7 6 6 7 5 8 4 9 3 10 2 11 1 12 13 13
REMARK SMILES IDX 14 14 15 15 16 16 17 17 18 18 19 19 20 20 21 21 22 22 23 23
REMARK SMILES IDX 24 24
REMARK H PARENT
REMARK Flexibility Score: inf
ROOT
ATOM      1  C   UNL     1      42.936  -8.445   7.996  1.00  0.00     0.000 C 
ENDROOT
BRANCH   1   2
ATOM      2  C   UNL     1      44.299  -9.155   8.020  1.00  0.00     0.000 C 
BRANCH   2   3
ATOM      3  C   UNL     1      44.365 -10.338   7.039  1.00  0.00     0.000 C 
BRANCH   3   4
ATOM      4  C   UNL     1      45.115  -9.999   5.737  1.00  0.00    -0.000 C 
BRANCH   4   5
ATOM      5  C   UNL     1      44.223  -9.554   4.564  1.00  0.00    -0.000 C 
BRANCH   5   6
ATOM      6  C   UNL     1      42.968 -10.425   4.401  1.00  0.00    -0.000 C 
BRANCH   6   7
ATOM      7  C   UNL     1      41.753  -9.574   4.012  1.00  0.00    -0.000 C 
BRANCH   7   8
ATOM      8  C   UNL     1      42.141  -8.094   3.880  1.00  0.00    -0.000 C 
BRANCH   8   9
ATOM      9  C   UNL     1      41.425  -7.196   4.903  1.00  0.00    -0.000 C 
BRANCH   9  10
ATOM     10  C   UNL     1      40.454  -6.166   4.292  1.00  0.00    -0.000 C 
BRANCH  10  11
ATOM     11  C   UNL     1      41.011  -5.455   3.042  1.00  0.00    -0.003 C 
ATOM     12  C   UNL     1      41.345  -3.987   3.306  1.00  0.00     0.004 C 
ENDBRANCH  10  11
ENDBRANCH   9  10
ENDBRANCH   8   9
ENDBRANCH   7   8
ENDBRANCH   6   7
ENDBRANCH   5   6
ENDBRANCH   4   5
ENDBRANCH   3   4
ENDBRANCH   2   3
ENDBRANCH   1   2
BRANCH   1  13
ATOM     13  C   UNL     1      41.773  -9.410   7.704  1.00  0.00     0.000 C 
BRANCH  13  14
ATOM     14  C   UNL     1      41.131  -9.963   8.986  1.00  0.00     0.000 C 
BRANCH  14  15
ATOM     15  C   UNL     1      39.735 -10.560   8.743  1.00  0.00     0.000 C 
BRANCH  15  16
ATOM     16  C   UNL     1      39.027 -10.858  10.073  1.00  0.00     0.000 C 
BRANCH  16  17
ATOM     17  C   UNL     1      37.500 -10.691   9.988  1.00  0.00     0.000 C 
BRANCH  17  18
ATOM     18  C   UNL     1      36.933  -9.481  10.759  1.00  0.00     0.000 C 
BRANCH  18  19
ATOM     19  C   UNL     1      37.936  -8.768  11.687  1.00  0.00     0.000 C 
BRANCH  19  20
ATOM     20  C   UNL     1      38.344  -7.350  11.238  1.00  0.00     0.006 C 
BRANCH  20  21
ATOM     21  C   UNL     1      38.144  -7.078   9.739  1.00  0.00     0.053 C 
BRANCH  21  22
ATOM     22  C   UNL     1      39.426  -6.706   9.058  1.00  0.00     0.041 C 
ATOM     23  O   UNL     1      39.483  -6.652   7.802  1.00  0.00    -0.550 OA
ATOM     24  O   UNL     1      40.564  -6.442   9.811  1.00  0.00    -0.550 OA
ENDBRANCH  21  22
ENDBRANCH  20  21
ENDBRANCH  19  20
ENDBRANCH  18  19
ENDBRANCH  17  18
ENDBRANCH  16  17
ENDBRANCH  15  16
ENDBRANCH  14  15
ENDBRANCH  13  14
ENDBRANCH   1  13
TORSDOF 20
ENDMDL
MODEL 8
REMARK VINA RESULT:    -4.294      1.721      3.598
REMARK INTER + INTRA:         -11.838
REMARK INTER:                  -9.059
REMARK INTRA:                  -2.779
REMARK UNBOUND:                -2.524
REMARK SMILES CCCCCCCCCCCCCCCCCCCCCC(=O)[O-]
REMARK SMILES IDX 12 1 11 2 10 3 9 4 8 5 7 6 6 7 5 8 4 9 3 10 2 11 1 12 13 13
REMARK SMILES IDX 14 14 15 15 16 16 17 17 18 18 19 19 20 20 21 21 22 22 23 23
REMARK SMILES IDX 24 24
REMARK H PARENT
REMARK Flexibility Score: inf
ROOT
ATOM      1  C   UNL     1      39.231  -6.229   8.946  1.00  0.00     0.000 C 
ENDROOT
BRANCH   1   2
ATOM      2  C   UNL     1      39.759  -7.071   7.772  1.00  0.00     0.000 C 
BRANCH   2   3
ATOM      3  C   UNL     1      41.225  -7.493   7.963  1.00  0.00     0.000 C 
BRANCH   3   4
ATOM      4  C   UNL     1      41.416  -9.021   7.962  1.00  0.00    -0.000 C 
BRANCH   4   5
ATOM      5  C   UNL     1      42.007  -9.606   6.666  1.00  0.00    -0.000 C 
BRANCH   5   6
ATOM      6  C   UNL     1      43.260  -8.858   6.187  1.00  0.00    -0.000 C 
BRANCH   6   7
ATOM      7  C   UNL     1      43.174  -8.541   4.689  1.00  0.00    -0.000 C 
BRANCH   7   8
ATOM      8  C   UNL     1      41.835  -9.017   4.105  1.00  0.00    -0.000 C 
BRANCH   8   9
ATOM      9  C   UNL     1      41.000  -7.869   3.513  1.00  0.00    -0.000 C 
BRANCH   9  10
ATOM     10  C   UNL     1      41.001  -6.572   4.345  1.00  0.00    -0.000 C 
BRANCH  10  11
ATOM     11  C   UNL     1      40.604  -5.317   3.539  1.00  0.00    -0.003 C 
ATOM     12  C   UNL     1      41.377  -5.200   2.225  1.00  0.00     0.004 C 
ENDBRANCH  10  11
ENDBRANCH   9  10
ENDBRANCH   8   9
ENDBRANCH   7   8
ENDBRANCH   6   7
ENDBRANCH   5   6
ENDBRANCH   4   5
ENDBRANCH   3   4
ENDBRANCH   2   3
ENDBRANCH   1   2
BRANCH   1  13
ATOM     13  C   UNL     1      38.334  -7.042   9.897  1.00  0.00     0.000 C 
BRANCH  13  14
ATOM     14  C   UNL     1      39.131  -7.719  11.023  1.00  0.00     0.000 C 
BRANCH  14  15
ATOM     15  C   UNL     1      39.182  -9.248  10.878  1.00  0.00     0.000 C 
BRANCH  15  16
ATOM     16  C   UNL     1      38.198  -9.731   9.802  1.00  0.00     0.000 C 
BRANCH  16  17
ATOM     17  C   UNL     1      37.219 -10.798  10.323  1.00  0.00     0.000 C 
BRANCH  17  18
ATOM     18  C   UNL     1      36.132 -10.273  11.283  1.00  0.00     0.000 C 
BRANCH  18  19
ATOM     19  C   UNL     1      36.425 -10.481  12.781  1.00  0.00     0.000 C 
BRANCH  19  20
ATOM     20  C   UNL     1      35.908  -9.363  13.708  1.00  0.00     0.006 C 
BRANCH  20  21
ATOM     21  C   UNL     1      35.851  -7.974  13.055  1.00  0.00     0.053 C 
BRANCH  21  22
ATOM     22  C   UNL     1      36.378  -6.903  13.960  1.00  0.00     0.041 C 
ATOM     23  O   UNL     1      37.406  -6.250  13.638  1.00  0.00    -0.550 OA
ATOM     24  O   UNL     1      35.747  -6.641  15.170  1.00  0.00    -0.550 OA
ENDBRANCH  21  22
ENDBRANCH  20  21
ENDBRANCH  19  20
ENDBRANCH  18  19
ENDBRANCH  17  18
ENDBRANCH  16  17
ENDBRANCH  15  16
ENDBRANCH  14  15
ENDBRANCH  13  14
ENDBRANCH   1  13
TORSDOF 20
ENDMDL
MODEL 9
REMARK VINA RESULT:    -4.245      4.123      8.031
REMARK INTER + INTRA:         -11.733
REMARK INTER:                  -8.929
REMARK INTRA:                  -2.804
REMARK UNBOUND:                -2.524
REMARK SMILES CCCCCCCCCCCCCCCCCCCCCC(=O)[O-]
REMARK SMILES IDX 12 1 11 2 10 3 9 4 8 5 7 6 6 7 5 8 4 9 3 10 2 11 1 12 13 13
REMARK SMILES IDX 14 14 15 15 16 16 17 17 18 18 19 19 20 20 21 21 22 22 23 23
REMARK SMILES IDX 24 24
REMARK H PARENT
REMARK Flexibility Score: inf
ROOT
ATOM      1  C   UNL     1      37.106  -6.677  13.950  1.00  0.00     0.000 C 
ENDROOT
BRANCH   1   2
ATOM      2  C   UNL     1      37.238  -6.959  12.444  1.00  0.00     0.000 C 
BRANCH   2   3
ATOM      3  C   UNL     1      38.474  -7.812  12.111  1.00  0.00     0.000 C 
BRANCH   3   4
ATOM      4  C   UNL     1      38.182  -9.324  12.117  1.00  0.00    -0.000 C 
BRANCH   4   5
ATOM      5  C   UNL     1      37.183  -9.801  11.047  1.00  0.00    -0.000 C 
BRANCH   5   6
ATOM      6  C   UNL     1      37.836 -10.030   9.676  1.00  0.00    -0.000 C 
BRANCH   6   7
ATOM      7  C   UNL     1      39.170 -10.773   9.817  1.00  0.00    -0.000 C 
BRANCH   7   8
ATOM      8  C   UNL     1      40.232 -10.172   8.883  1.00  0.00    -0.000 C 
BRANCH   8   9
ATOM      9  C   UNL     1      40.581  -8.716   9.235  1.00  0.00    -0.000 C 
BRANCH   9  10
ATOM     10  C   UNL     1      40.392  -7.709   8.084  1.00  0.00    -0.000 C 
BRANCH  10  11
ATOM     11  C   UNL     1      39.807  -6.355   8.535  1.00  0.00    -0.003 C 
ATOM     12  C   UNL     1      38.319  -6.445   8.872  1.00  0.00     0.004 C 
ENDBRANCH  10  11
ENDBRANCH   9  10
ENDBRANCH   8   9
ENDBRANCH   7   8
ENDBRANCH   6   7
ENDBRANCH   5   6
ENDBRANCH   4   5
ENDBRANCH   3   4
ENDBRANCH   2   3
ENDBRANCH   1   2
BRANCH   1  13
ATOM     13  C   UNL     1      35.676  -6.910  14.470  1.00  0.00     0.000 C 
BRANCH  13  14
ATOM     14  C   UNL     1      34.942  -8.016  13.696  1.00  0.00     0.000 C 
BRANCH  14  15
ATOM     15  C   UNL     1      35.210  -9.419  14.264  1.00  0.00     0.000 C 
BRANCH  15  16
ATOM     16  C   UNL     1      34.102 -10.399  13.851  1.00  0.00     0.000 C 
BRANCH  16  17
ATOM     17  C   UNL     1      33.227 -10.847  15.035  1.00  0.00     0.000 C 
BRANCH  17  18
ATOM     18  C   UNL     1      31.715 -10.593  14.862  1.00  0.00     0.000 C 
BRANCH  18  19
ATOM     19  C   UNL     1      31.312  -9.112  14.719  1.00  0.00     0.000 C 
BRANCH  19  20
ATOM     20  C   UNL     1      31.920  -8.167  15.776  1.00  0.00     0.006 C 
BRANCH  20  21
ATOM     21  C   UNL     1      31.831  -8.688  17.218  1.00  0.00     0.053 C 
BRANCH  21  22
ATOM     22  C   UNL     1      33.117  -8.506  17.964  1.00  0.00     0.041 C 
ATOM     23  O   UNL     1      33.960  -7.656  17.574  1.00  0.00    -0.550 OA
ATOM     24  O   UNL     1      33.395  -9.292  19.075  1.00  0.00    -0.550 OA
ENDBRANCH  21  22
ENDBRANCH  20  21
ENDBRANCH  19  20
ENDBRANCH  18  19
ENDBRANCH  17  18
ENDBRANCH  16  17
ENDBRANCH  15  16
ENDBRANCH  14  15
ENDBRANCH  13  14
ENDBRANCH   1  13
TORSDOF 20
ENDMDL
