MODEL 1
REMARK VINA RESULT:    14.692      0.000      0.000
REMARK INTER + INTRA:          37.717
REMARK INTER:                  37.023
REMARK INTRA:                   0.694
REMARK UNBOUND:                 0.694
REMARK SMILES CCCCCCCCCCCCCCCCCCCCCCCCCCCC(=O)[O-]
REMARK SMILES IDX 15 1 16 2 17 3 18 4 19 5 20 6 21 7 22 8 23 9 24 10 25 11
REMARK SMILES IDX 26 12 27 13 28 14 29 15 30 16 14 17 13 18 12 19 11 20 10 21
REMARK SMILES IDX 9 22 8 23 7 24 6 25 5 26 4 27 3 28 2 29 1 30
REMARK H PARENT
REMARK Flexibility Score: inf
ROOT
ATOM      1  C   UNL     1      51.169 147.509  -0.258  1.00  0.00     0.000 C 
ENDROOT
BRANCH   1   2
ATOM      2  C   UNL     1      49.856 148.074   0.315  1.00  0.00     0.000 C 
BRANCH   2   3
ATOM      3  C   UNL     1      48.570 147.611  -0.405  1.00  0.00     0.000 C 
BRANCH   3   4
ATOM      4  C   UNL     1      48.785 147.014  -1.808  1.00  0.00     0.000 C 
BRANCH   4   5
ATOM      5  C   UNL     1      49.319 148.002  -2.864  1.00  0.00     0.000 C 
BRANCH   5   6
ATOM      6  C   UNL     1      48.432 148.109  -4.122  1.00  0.00     0.000 C 
BRANCH   6   7
ATOM      7  C   UNL     1      49.191 147.754  -5.415  1.00  0.00     0.000 C 
BRANCH   7   8
ATOM      8  C   UNL     1      48.255 147.283  -6.539  1.00  0.00     0.000 C 
BRANCH   8   9
ATOM      9  C   UNL     1      48.877 147.442  -7.938  1.00  0.00     0.000 C 
BRANCH   9  10
ATOM     10  C   UNL     1      50.300 148.022  -7.884  1.00  0.00     0.000 C 
BRANCH  10  11
ATOM     11  C   UNL     1      51.034 147.666  -6.579  1.00  0.00     0.000 C 
BRANCH  11  12
ATOM     12  C   UNL     1      52.536 147.404  -6.795  1.00  0.00     0.006 C 
BRANCH  12  13
ATOM     13  C   UNL     1      53.239 146.727  -5.607  1.00  0.00     0.053 C 
BRANCH  13  14
ATOM     14  C   UNL     1      54.579 147.333  -5.325  1.00  0.00     0.041 C 
ATOM     15  O   UNL     1      54.726 148.125  -4.358  1.00  0.00    -0.550 OA
ATOM     16  O   UNL     1      55.666 147.022  -6.132  1.00  0.00    -0.550 OA
ENDBRANCH  13  14
ENDBRANCH  12  13
ENDBRANCH  11  12
ENDBRANCH  10  11
ENDBRANCH   9  10
ENDBRANCH   8   9
ENDBRANCH   7   8
ENDBRANCH   6   7
ENDBRANCH   5   6
ENDBRANCH   4   5
ENDBRANCH   3   4
ENDBRANCH   2   3
ENDBRANCH   1   2
BRANCH   1  17
ATOM     17  C   UNL     1      52.442 147.886   0.523  1.00  0.00     0.000 C 
BRANCH  17  18
ATOM     18  C   UNL     1      53.744 147.319  -0.081  1.00  0.00     0.000 C 
BRANCH  18  19
ATOM     19  C   UNL     1      53.819 145.784  -0.019  1.00  0.00     0.000 C 
BRANCH  19  20
ATOM     20  C   UNL     1      54.887 145.197  -0.960  1.00  0.00     0.000 C 
BRANCH  20  21
ATOM     21  C   UNL     1      54.825 143.661  -1.102  1.00  0.00     0.000 C 
BRANCH  21  22
ATOM     22  C   UNL     1      54.420 142.968   0.211  1.00  0.00    -0.000 C 
BRANCH  22  23
ATOM     23  C   UNL     1      53.400 141.838  -0.008  1.00  0.00    -0.000 C 
BRANCH  23  24
ATOM     24  C   UNL     1      53.167 141.003   1.260  1.00  0.00    -0.000 C 
BRANCH  24  25
ATOM     25  C   UNL     1      51.781 140.342   1.229  1.00  0.00    -0.000 C 
BRANCH  25  26
ATOM     26  C   UNL     1      51.704 139.079   2.101  1.00  0.00    -0.000 C 
BRANCH  26  27
ATOM     27  C   UNL     1      52.084 137.800   1.332  1.00  0.00    -0.000 C 
BRANCH  27  28
ATOM     28  C   UNL     1      51.366 137.708  -0.032  1.00  0.00    -0.000 C 
BRANCH  28  29
ATOM     29  C   UNL     1      49.876 137.341   0.084  1.00  0.00    -0.003 C 
ATOM     30  C   UNL     1      49.648 135.864   0.398  1.00  0.00     0.004 C 
ENDBRANCH  28  29
ENDBRANCH  27  28
ENDBRANCH  26  27
ENDBRANCH  25  26
ENDBRANCH  24  25
ENDBRANCH  23  24
ENDBRANCH  22  23
ENDBRANCH  21  22
ENDBRANCH  20  21
ENDBRANCH  19  20
ENDBRANCH  18  19
ENDBRANCH  17  18
ENDBRANCH   1  17
TORSDOF 26
ENDMDL
MODEL 2
REMARK VINA RESULT:    15.025      1.523      2.027
REMARK INTER + INTRA:          38.556
REMARK INTER:                  39.190
REMARK INTRA:                  -0.633
REMARK UNBOUND:                 0.694
REMARK SMILES CCCCCCCCCCCCCCCCCCCCCCCCCCCC(=O)[O-]
REMARK SMILES IDX 15 1 16 2 17 3 18 4 19 5 20 6 21 7 22 8 23 9 24 10 25 11
REMARK SMILES IDX 26 12 27 13 28 14 29 15 30 16 14 17 13 18 12 19 11 20 10 21
REMARK SMILES IDX 9 22 8 23 7 24 6 25 5 26 4 27 3 28 2 29 1 30
REMARK H PARENT
REMARK Flexibility Score: inf
ROOT
ATOM      1  C   UNL     1      50.576 147.407  -1.161  1.00  0.00     0.000 C 
ENDROOT
BRANCH   1   2
ATOM      2  C   UNL     1      49.355 147.493  -0.228  1.00  0.00     0.000 C 
BRANCH   2   3
ATOM      3  C   UNL     1      47.983 147.373  -0.925  1.00  0.00     0.000 C 
BRANCH   3   4
ATOM      4  C   UNL     1      48.035 146.928  -2.399  1.00  0.00     0.000 C 
BRANCH   4   5
ATOM      5  C   UNL     1      48.322 148.054  -3.412  1.00  0.00     0.000 C 
BRANCH   5   6
ATOM      6  C   UNL     1      47.456 147.981  -4.687  1.00  0.00     0.000 C 
BRANCH   6   7
ATOM      7  C   UNL     1      48.286 147.700  -5.953  1.00  0.00     0.000 C 
BRANCH   7   8
ATOM      8  C   UNL     1      47.412 147.348  -7.167  1.00  0.00     0.000 C 
BRANCH   8   9
ATOM      9  C   UNL     1      47.758 145.976  -7.772  1.00  0.00     0.000 C 
BRANCH   9  10
ATOM     10  C   UNL     1      49.262 145.823  -8.056  1.00  0.00     0.000 C 
BRANCH  10  11
ATOM     11  C   UNL     1      50.006 147.170  -8.042  1.00  0.00     0.000 C 
BRANCH  11  12
ATOM     12  C   UNL     1      51.530 147.004  -7.898  1.00  0.00     0.006 C 
BRANCH  12  13
ATOM     13  C   UNL     1      52.168 147.907  -6.829  1.00  0.00     0.053 C 
BRANCH  13  14
ATOM     14  C   UNL     1      52.218 147.243  -5.488  1.00  0.00     0.041 C 
ATOM     15  O   UNL     1      52.659 146.068  -5.378  1.00  0.00    -0.550 OA
ATOM     16  O   UNL     1      51.779 147.921  -4.358  1.00  0.00    -0.550 OA
ENDBRANCH  13  14
ENDBRANCH  12  13
ENDBRANCH  11  12
ENDBRANCH  10  11
ENDBRANCH   9  10
ENDBRANCH   8   9
ENDBRANCH   7   8
ENDBRANCH   6   7
ENDBRANCH   5   6
ENDBRANCH   4   5
ENDBRANCH   3   4
ENDBRANCH   2   3
ENDBRANCH   1   2
BRANCH   1  17
ATOM     17  C   UNL     1      51.912 147.854  -0.537  1.00  0.00     0.000 C 
BRANCH  17  18
ATOM     18  C   UNL     1      53.154 147.486  -1.376  1.00  0.00     0.000 C 
BRANCH  18  19
ATOM     19  C   UNL     1      54.045 146.427  -0.704  1.00  0.00     0.000 C 
BRANCH  19  20
ATOM     20  C   UNL     1      54.127 145.116  -1.507  1.00  0.00     0.000 C 
BRANCH  20  21
ATOM     21  C   UNL     1      54.666 143.916  -0.699  1.00  0.00     0.000 C 
BRANCH  21  22
ATOM     22  C   UNL     1      55.895 143.269  -1.363  1.00  0.00    -0.000 C 
BRANCH  22  23
ATOM     23  C   UNL     1      55.605 141.853  -1.888  1.00  0.00    -0.000 C 
BRANCH  23  24
ATOM     24  C   UNL     1      55.279 140.862  -0.761  1.00  0.00    -0.000 C 
BRANCH  24  25
ATOM     25  C   UNL     1      54.395 139.719  -1.280  1.00  0.00    -0.000 C 
BRANCH  25  26
ATOM     26  C   UNL     1      53.608 139.020  -0.160  1.00  0.00    -0.000 C 
BRANCH  26  27
ATOM     27  C   UNL     1      52.487 139.902   0.419  1.00  0.00    -0.000 C 
BRANCH  27  28
ATOM     28  C   UNL     1      51.083 139.361   0.069  1.00  0.00    -0.000 C 
BRANCH  28  29
ATOM     29  C   UNL     1      51.008 137.823   0.049  1.00  0.00    -0.003 C 
ATOM     30  C   UNL     1      49.587 137.292   0.224  1.00  0.00     0.004 C 
ENDBRANCH  28  29
ENDBRANCH  27  28
ENDBRANCH  26  27
ENDBRANCH  25  26
ENDBRANCH  24  25
ENDBRANCH  23  24
ENDBRANCH  22  23
ENDBRANCH  21  22
ENDBRANCH  20  21
ENDBRANCH  19  20
ENDBRANCH  18  19
ENDBRANCH  17  18
ENDBRANCH   1  17
TORSDOF 26
ENDMDL
