MODEL 1
REMARK VINA RESULT:    -6.782      0.000      0.000
REMARK INTER + INTRA:         -11.213
REMARK INTER:                  -8.962
REMARK INTRA:                  -2.251
REMARK UNBOUND:                -2.251
REMARK SMILES CC[C@@H](C=C[C@H](C)[C@@H]1CC[C@H]2C3=CC[C@@H]4C[C@@H](O)CC[C@@]4(C)[C@@H]3CC[C@]21C)C(C)C
REMARK SMILES IDX 6 1 7 2 5 3 4 4 3 5 2 6 1 7 28 8 29 9 30 10 8 11 9 12 26 13
REMARK SMILES IDX 10 14 11 15 25 16 27 17 12 18 24 19 23 20 13 21 21 22 14 23
REMARK SMILES IDX 15 24 20 25 22 26 16 27 19 28 17 29 18 30
REMARK H PARENT 18 31
REMARK Flexibility Score: inf
ROOT
ATOM      1  C   UNL     1     117.171 124.109 130.915  1.00  0.00     0.012 C 
ATOM      2  C   UNL     1     117.273 125.619 131.251  1.00  0.00     0.012 C 
ENDROOT
BRANCH   1   3
ATOM      3  C   UNL     1     115.872 123.490 131.401  1.00  0.00    -0.028 C 
ATOM      4  C   UNL     1     115.769 122.349 132.110  1.00  0.00    -0.027 C 
BRANCH   4   5
ATOM      5  C   UNL     1     116.917 121.412 132.455  1.00  0.00     0.014 C 
BRANCH   5   6
ATOM      6  C   UNL     1     116.758 120.131 131.588  1.00  0.00     0.004 C 
ATOM      7  C   UNL     1     115.412 120.056 130.868  1.00  0.00     0.004 C 
ENDBRANCH   5   6
BRANCH   5   8
ATOM      8  C   UNL     1     116.898 121.119 133.989  1.00  0.00    -0.011 C 
ATOM      9  C   UNL     1     115.593 120.462 134.461  1.00  0.00     0.008 C 
ATOM     10  C   UNL     1     118.079 120.223 134.393  1.00  0.00     0.008 C 
ENDBRANCH   5   8
ENDBRANCH   4   5
ENDBRANCH   1   3
BRANCH   1  11
ATOM     11  C   UNL     1     117.462 123.757 129.416  1.00  0.00     0.002 C 
ATOM     12  C   UNL     1     116.186 123.253 128.702  1.00  0.00     0.005 C 
ATOM     13  C   UNL     1     118.612 122.743 129.026  1.00  0.00    -0.023 C 
ATOM     14  C   UNL     1     116.575 122.038 127.875  1.00  0.00     0.009 C 
ATOM     15  C   UNL     1     117.849 121.500 128.510  1.00  0.00     0.021 C 
ATOM     16  C   UNL     1     119.449 123.386 127.874  1.00  0.00     0.008 C 
ATOM     17  C   UNL     1     119.574 122.315 130.168  1.00  0.00     0.012 C 
ATOM     18  C   UNL     1     118.629 120.611 127.549  1.00  0.00    -0.067 C 
ATOM     19  C   UNL     1     120.359 122.392 127.152  1.00  0.00     0.009 C 
ATOM     20  C   UNL     1     119.532 121.263 126.501  1.00  0.00     0.021 C 
ATOM     21  C   UNL     1     118.306 119.298 127.492  1.00  0.00    -0.027 C 
ATOM     22  C   UNL     1     120.403 120.233 125.689  1.00  0.00    -0.023 C 
ATOM     23  C   UNL     1     118.904 118.335 126.500  1.00  0.00     0.031 C 
ATOM     24  C   UNL     1     119.452 119.068 125.266  1.00  0.00     0.002 C 
ATOM     25  C   UNL     1     120.952 120.917 124.399  1.00  0.00     0.010 C 
ATOM     26  C   UNL     1     121.592 119.723 126.555  1.00  0.00     0.012 C 
ATOM     27  C   UNL     1     120.095 118.078 124.272  1.00  0.00     0.036 C 
ATOM     28  C   UNL     1     121.609 119.924 123.427  1.00  0.00     0.032 C 
ATOM     29  C   UNL     1     120.645 118.801 123.030  1.00  0.00     0.114 C 
BRANCH  29  30
ATOM     30  O   UNL     1     119.594 119.334 122.260  1.00  0.00    -0.393 OA
ATOM     31  H   UNL     1     118.763 119.198 122.786  1.00  0.00     0.210 HD
ENDBRANCH  29  30
ENDBRANCH   1  11
TORSDOF 6
ENDMDL
MODEL 2
REMARK VINA RESULT:    -6.684      5.205      8.792
REMARK INTER + INTRA:         -11.084
REMARK INTER:                 -10.608
REMARK INTRA:                  -0.476
REMARK UNBOUND:                -2.251
REMARK SMILES CC[C@@H](C=C[C@H](C)[C@@H]1CC[C@H]2C3=CC[C@@H]4C[C@@H](O)CC[C@@]4(C)[C@@H]3CC[C@]21C)C(C)C
REMARK SMILES IDX 6 1 7 2 5 3 4 4 3 5 2 6 1 7 28 8 29 9 30 10 8 11 9 12 26 13
REMARK SMILES IDX 10 14 11 15 25 16 27 17 12 18 24 19 23 20 13 21 21 22 14 23
REMARK SMILES IDX 15 24 20 25 22 26 16 27 19 28 17 29 18 30
REMARK H PARENT 18 31
REMARK Flexibility Score: inf
ROOT
ATOM      1  C   UNL     1     119.027 130.122 130.093  1.00  0.00     0.012 C 
ATOM      2  C   UNL     1     120.208 130.094 131.097  1.00  0.00     0.012 C 
ENDROOT
BRANCH   1   3
ATOM      3  C   UNL     1     119.489 130.282 128.655  1.00  0.00    -0.028 C 
ATOM      4  C   UNL     1     120.138 131.353 128.159  1.00  0.00    -0.027 C 
BRANCH   4   5
ATOM      5  C   UNL     1     120.427 132.643 128.911  1.00  0.00     0.014 C 
BRANCH   5   6
ATOM      6  C   UNL     1     119.383 133.701 128.453  1.00  0.00     0.004 C 
ATOM      7  C   UNL     1     118.975 133.547 126.988  1.00  0.00     0.004 C 
ENDBRANCH   5   6
BRANCH   5   8
ATOM      8  C   UNL     1     121.901 133.078 128.638  1.00  0.00    -0.011 C 
ATOM      9  C   UNL     1     122.501 133.918 129.774  1.00  0.00     0.008 C 
ATOM     10  C   UNL     1     122.800 131.856 128.397  1.00  0.00     0.008 C 
ENDBRANCH   5   8
ENDBRANCH   4   5
ENDBRANCH   1   3
BRANCH   1  11
ATOM     11  C   UNL     1     118.010 128.940 130.254  1.00  0.00     0.002 C 
ATOM     12  C   UNL     1     117.665 128.698 131.741  1.00  0.00     0.005 C 
ATOM     13  C   UNL     1     118.314 127.515 129.637  1.00  0.00    -0.023 C 
ATOM     14  C   UNL     1     117.696 127.197 131.980  1.00  0.00     0.009 C 
ATOM     15  C   UNL     1     118.572 126.624 130.875  1.00  0.00     0.021 C 
ATOM     16  C   UNL     1     117.034 127.038 128.879  1.00  0.00     0.008 C 
ATOM     17  C   UNL     1     119.531 127.423 128.677  1.00  0.00     0.012 C 
ATOM     18  C   UNL     1     118.322 125.135 130.668  1.00  0.00    -0.067 C 
ATOM     19  C   UNL     1     117.045 125.547 128.541  1.00  0.00     0.009 C 
ATOM     20  C   UNL     1     117.125 124.694 129.825  1.00  0.00     0.021 C 
ATOM     21  C   UNL     1     119.013 124.261 131.435  1.00  0.00    -0.027 C 
ATOM     22  C   UNL     1     117.081 123.143 129.554  1.00  0.00    -0.023 C 
ATOM     23  C   UNL     1     118.774 122.774 131.427  1.00  0.00     0.031 C 
ATOM     24  C   UNL     1     117.364 122.435 130.918  1.00  0.00     0.002 C 
ATOM     25  C   UNL     1     115.653 122.738 129.073  1.00  0.00     0.010 C 
ATOM     26  C   UNL     1     118.128 122.750 128.471  1.00  0.00     0.012 C 
ATOM     27  C   UNL     1     117.140 120.909 130.878  1.00  0.00     0.036 C 
ATOM     28  C   UNL     1     115.449 121.216 129.016  1.00  0.00     0.032 C 
ATOM     29  C   UNL     1     115.730 120.558 130.372  1.00  0.00     0.114 C 
BRANCH  29  30
ATOM     30  O   UNL     1     114.753 120.965 131.303  1.00  0.00    -0.393 OA
ATOM     31  H   UNL     1     115.206 121.007 132.185  1.00  0.00     0.210 HD
ENDBRANCH  29  30
ENDBRANCH   1  11
TORSDOF 6
ENDMDL
MODEL 3
REMARK VINA RESULT:    -6.481      5.568     12.059
REMARK INTER + INTRA:         -10.815
REMARK INTER:                  -8.582
REMARK INTRA:                  -2.233
REMARK UNBOUND:                -2.251
REMARK SMILES CC[C@@H](C=C[C@H](C)[C@@H]1CC[C@H]2C3=CC[C@@H]4C[C@@H](O)CC[C@@]4(C)[C@@H]3CC[C@]21C)C(C)C
REMARK SMILES IDX 6 1 7 2 5 3 4 4 3 5 2 6 1 7 28 8 29 9 30 10 8 11 9 12 26 13
REMARK SMILES IDX 10 14 11 15 25 16 27 17 12 18 24 19 23 20 13 21 21 22 14 23
REMARK SMILES IDX 15 24 20 25 22 26 16 27 19 28 17 29 18 30
REMARK H PARENT 18 31
REMARK Flexibility Score: inf
ROOT
ATOM      1  C   UNL     1     127.814 117.192 120.532  1.00  0.00     0.012 C 
ATOM      2  C   UNL     1     129.054 116.292 120.768  1.00  0.00     0.012 C 
ENDROOT
BRANCH   1   3
ATOM      3  C   UNL     1     127.499 117.376 119.058  1.00  0.00    -0.028 C 
ATOM      4  C   UNL     1     127.237 118.554 118.458  1.00  0.00    -0.027 C 
BRANCH   4   5
ATOM      5  C   UNL     1     127.095 119.896 119.161  1.00  0.00     0.014 C 
BRANCH   5   6
ATOM      6  C   UNL     1     125.827 120.594 118.594  1.00  0.00     0.004 C 
ATOM      7  C   UNL     1     124.600 119.682 118.567  1.00  0.00     0.004 C 
ENDBRANCH   5   6
BRANCH   5   8
ATOM      8  C   UNL     1     128.399 120.728 118.949  1.00  0.00    -0.011 C 
ATOM      9  C   UNL     1     128.228 122.214 119.294  1.00  0.00     0.008 C 
ATOM     10  C   UNL     1     129.558 120.156 119.781  1.00  0.00     0.008 C 
ENDBRANCH   5   8
ENDBRANCH   4   5
ENDBRANCH   1   3
BRANCH   1  11
ATOM     11  C   UNL     1     126.545 116.776 121.354  1.00  0.00     0.002 C 
ATOM     12  C   UNL     1     125.431 116.236 120.427  1.00  0.00     0.005 C 
ATOM     13  C   UNL     1     125.841 117.796 122.337  1.00  0.00    -0.023 C 
ATOM     14  C   UNL     1     124.119 116.855 120.883  1.00  0.00     0.009 C 
ATOM     15  C   UNL     1     124.501 118.121 121.636  1.00  0.00     0.021 C 
ATOM     16  C   UNL     1     125.585 117.059 123.691  1.00  0.00     0.008 C 
ATOM     17  C   UNL     1     126.604 119.119 122.623  1.00  0.00     0.012 C 
ATOM     18  C   UNL     1     123.383 118.591 122.558  1.00  0.00    -0.067 C 
ATOM     19  C   UNL     1     124.601 117.787 124.606  1.00  0.00     0.009 C 
ATOM     20  C   UNL     1     123.222 117.929 123.928  1.00  0.00     0.021 C 
ATOM     21  C   UNL     1     122.426 119.394 122.039  1.00  0.00    -0.027 C 
ATOM     22  C   UNL     1     122.140 118.621 124.840  1.00  0.00    -0.023 C 
ATOM     23  C   UNL     1     121.199 119.827 122.798  1.00  0.00     0.031 C 
ATOM     24  C   UNL     1     120.879 118.859 123.948  1.00  0.00     0.002 C 
ATOM     25  C   UNL     1     121.749 117.660 126.005  1.00  0.00     0.010 C 
ATOM     26  C   UNL     1     122.693 119.953 125.426  1.00  0.00     0.012 C 
ATOM     27  C   UNL     1     119.643 119.329 124.742  1.00  0.00     0.036 C 
ATOM     28  C   UNL     1     120.530 118.150 126.802  1.00  0.00     0.032 C 
ATOM     29  C   UNL     1     119.312 118.366 125.896  1.00  0.00     0.114 C 
BRANCH  29  30
ATOM     30  O   UNL     1     118.873 117.125 125.395  1.00  0.00    -0.393 OA
ATOM     31  H   UNL     1     119.140 117.097 124.439  1.00  0.00     0.210 HD
ENDBRANCH  29  30
ENDBRANCH   1  11
TORSDOF 6
ENDMDL
MODEL 4
REMARK VINA RESULT:    -6.342      4.699      8.281
REMARK INTER + INTRA:         -10.632
REMARK INTER:                 -10.317
REMARK INTRA:                  -0.315
REMARK UNBOUND:                -2.251
REMARK SMILES CC[C@@H](C=C[C@H](C)[C@@H]1CC[C@H]2C3=CC[C@@H]4C[C@@H](O)CC[C@@]4(C)[C@@H]3CC[C@]21C)C(C)C
REMARK SMILES IDX 6 1 7 2 5 3 4 4 3 5 2 6 1 7 28 8 29 9 30 10 8 11 9 12 26 13
REMARK SMILES IDX 10 14 11 15 25 16 27 17 12 18 24 19 23 20 13 21 21 22 14 23
REMARK SMILES IDX 15 24 20 25 22 26 16 27 19 28 17 29 18 30
REMARK H PARENT 18 31
REMARK Flexibility Score: inf
ROOT
ATOM      1  C   UNL     1     119.550 128.904 129.281  1.00  0.00     0.012 C 
ATOM      2  C   UNL     1     119.625 129.468 130.723  1.00  0.00     0.012 C 
ENDROOT
BRANCH   1   3
ATOM      3  C   UNL     1     120.586 129.522 128.359  1.00  0.00    -0.028 C 
ATOM      4  C   UNL     1     120.882 130.835 128.287  1.00  0.00    -0.027 C 
BRANCH   4   5
ATOM      5  C   UNL     1     120.159 131.949 129.029  1.00  0.00     0.014 C 
BRANCH   5   6
ATOM      6  C   UNL     1     119.100 132.550 128.063  1.00  0.00     0.004 C 
ATOM      7  C   UNL     1     117.782 132.897 128.756  1.00  0.00     0.004 C 
ENDBRANCH   5   6
BRANCH   5   8
ATOM      8  C   UNL     1     121.204 132.999 129.523  1.00  0.00    -0.011 C 
ATOM      9  C   UNL     1     122.648 132.632 129.152  1.00  0.00     0.008 C 
ATOM     10  C   UNL     1     120.888 134.395 128.964  1.00  0.00     0.008 C 
ENDBRANCH   5   8
ENDBRANCH   4   5
ENDBRANCH   1   3
BRANCH   1  11
ATOM     11  C   UNL     1     119.551 127.338 129.196  1.00  0.00     0.002 C 
ATOM     12  C   UNL     1     119.773 126.857 127.744  1.00  0.00     0.005 C 
ATOM     13  C   UNL     1     118.339 126.491 129.759  1.00  0.00    -0.023 C 
ATOM     14  C   UNL     1     118.784 125.732 127.479  1.00  0.00     0.009 C 
ATOM     15  C   UNL     1     117.661 125.927 128.488  1.00  0.00     0.021 C 
ATOM     16  C   UNL     1     118.926 125.330 130.625  1.00  0.00     0.008 C 
ATOM     17  C   UNL     1     117.287 127.264 130.600  1.00  0.00     0.012 C 
ATOM     18  C   UNL     1     116.856 124.650 128.693  1.00  0.00    -0.067 C 
ATOM     19  C   UNL     1     117.913 124.228 130.935  1.00  0.00     0.009 C 
ATOM     20  C   UNL     1     117.398 123.574 129.636  1.00  0.00     0.021 C 
ATOM     21  C   UNL     1     115.826 124.405 127.850  1.00  0.00    -0.027 C 
ATOM     22  C   UNL     1     116.392 122.388 129.884  1.00  0.00    -0.023 C 
ATOM     23  C   UNL     1     115.031 123.126 127.856  1.00  0.00     0.031 C 
ATOM     24  C   UNL     1     115.826 121.973 128.488  1.00  0.00     0.002 C 
ATOM     25  C   UNL     1     117.159 121.172 130.489  1.00  0.00     0.010 C 
ATOM     26  C   UNL     1     115.260 122.828 130.858  1.00  0.00     0.012 C 
ATOM     27  C   UNL     1     114.990 120.676 128.523  1.00  0.00     0.036 C 
ATOM     28  C   UNL     1     116.310 119.892 130.539  1.00  0.00     0.032 C 
ATOM     29  C   UNL     1     115.778 119.513 129.152  1.00  0.00     0.114 C 
BRANCH  29  30
ATOM     30  O   UNL     1     116.853 119.136 128.324  1.00  0.00    -0.393 OA
ATOM     31  H   UNL     1     116.854 118.144 128.298  1.00  0.00     0.210 HD
ENDBRANCH  29  30
ENDBRANCH   1  11
TORSDOF 6
ENDMDL
MODEL 5
REMARK VINA RESULT:    -6.298      2.218      3.362
REMARK INTER + INTRA:         -10.574
REMARK INTER:                  -8.341
REMARK INTRA:                  -2.233
REMARK UNBOUND:                -2.251
REMARK SMILES CC[C@@H](C=C[C@H](C)[C@@H]1CC[C@H]2C3=CC[C@@H]4C[C@@H](O)CC[C@@]4(C)[C@@H]3CC[C@]21C)C(C)C
REMARK SMILES IDX 6 1 7 2 5 3 4 4 3 5 2 6 1 7 28 8 29 9 30 10 8 11 9 12 26 13
REMARK SMILES IDX 10 14 11 15 25 16 27 17 12 18 24 19 23 20 13 21 21 22 14 23
REMARK SMILES IDX 15 24 20 25 22 26 16 27 19 28 17 29 18 30
REMARK H PARENT 18 31
REMARK Flexibility Score: inf
ROOT
ATOM      1  C   UNL     1     117.297 124.579 128.793  1.00  0.00     0.012 C 
ATOM      2  C   UNL     1     117.074 125.997 129.378  1.00  0.00     0.012 C 
ENDROOT
BRANCH   1   3
ATOM      3  C   UNL     1     116.084 124.062 128.039  1.00  0.00    -0.028 C 
ATOM      4  C   UNL     1     115.494 122.867 128.237  1.00  0.00    -0.027 C 
BRANCH   4   5
ATOM      5  C   UNL     1     115.996 121.771 129.166  1.00  0.00     0.014 C 
BRANCH   5   6
ATOM      6  C   UNL     1     115.824 120.413 128.430  1.00  0.00     0.004 C 
ATOM      7  C   UNL     1     117.153 119.782 128.014  1.00  0.00     0.004 C 
ENDBRANCH   5   6
BRANCH   5   8
ATOM      8  C   UNL     1     115.213 121.842 130.514  1.00  0.00    -0.011 C 
ATOM      9  C   UNL     1     115.128 120.487 131.233  1.00  0.00     0.008 C 
ATOM     10  C   UNL     1     115.847 122.868 131.466  1.00  0.00     0.008 C 
ENDBRANCH   5   8
ENDBRANCH   4   5
ENDBRANCH   1   3
BRANCH   1  11
ATOM     11  C   UNL     1     118.615 124.420 127.960  1.00  0.00     0.002 C 
ATOM     12  C   UNL     1     118.317 124.379 126.444  1.00  0.00     0.005 C 
ATOM     13  C   UNL     1     119.618 123.230 128.243  1.00  0.00    -0.023 C 
ATOM     14  C   UNL     1     119.155 123.261 125.844  1.00  0.00     0.009 C 
ATOM     15  C   UNL     1     119.474 122.322 126.998  1.00  0.00     0.021 C 
ATOM     16  C   UNL     1     121.061 123.825 128.319  1.00  0.00     0.008 C 
ATOM     17  C   UNL     1     119.353 122.390 129.523  1.00  0.00     0.012 C 
ATOM     18  C   UNL     1     120.678 121.439 126.694  1.00  0.00    -0.067 C 
ATOM     19  C   UNL     1     122.163 122.770 128.227  1.00  0.00     0.009 C 
ATOM     20  C   UNL     1     122.084 122.009 126.886  1.00  0.00     0.021 C 
ATOM     21  C   UNL     1     120.465 120.278 126.033  1.00  0.00    -0.027 C 
ATOM     22  C   UNL     1     123.228 120.944 126.698  1.00  0.00    -0.023 C 
ATOM     23  C   UNL     1     121.572 119.375 125.556  1.00  0.00     0.031 C 
ATOM     24  C   UNL     1     122.894 120.142 125.400  1.00  0.00     0.002 C 
ATOM     25  C   UNL     1     124.592 121.674 126.493  1.00  0.00     0.010 C 
ATOM     26  C   UNL     1     123.317 120.014 127.944  1.00  0.00     0.012 C 
ATOM     27  C   UNL     1     124.031 119.202 124.946  1.00  0.00     0.036 C 
ATOM     28  C   UNL     1     125.721 120.724 126.063  1.00  0.00     0.032 C 
ATOM     29  C   UNL     1     125.360 119.961 124.783  1.00  0.00     0.114 C 
BRANCH  29  30
ATOM     30  O   UNL     1     125.288 120.862 123.703  1.00  0.00    -0.393 OA
ATOM     31  H   UNL     1     125.732 121.697 124.003  1.00  0.00     0.210 HD
ENDBRANCH  29  30
ENDBRANCH   1  11
TORSDOF 6
ENDMDL
MODEL 6
REMARK VINA RESULT:    -6.253      3.405      7.394
REMARK INTER + INTRA:         -10.514
REMARK INTER:                  -8.336
REMARK INTRA:                  -2.178
REMARK UNBOUND:                -2.251
REMARK SMILES CC[C@@H](C=C[C@H](C)[C@@H]1CC[C@H]2C3=CC[C@@H]4C[C@@H](O)CC[C@@]4(C)[C@@H]3CC[C@]21C)C(C)C
REMARK SMILES IDX 6 1 7 2 5 3 4 4 3 5 2 6 1 7 28 8 29 9 30 10 8 11 9 12 26 13
REMARK SMILES IDX 10 14 11 15 25 16 27 17 12 18 24 19 23 20 13 21 21 22 14 23
REMARK SMILES IDX 15 24 20 25 22 26 16 27 19 28 17 29 18 30
REMARK H PARENT 18 31
REMARK Flexibility Score: inf
ROOT
ATOM      1  C   UNL     1     119.851 120.778 126.765  1.00  0.00     0.012 C 
ATOM      2  C   UNL     1     120.369 120.442 125.343  1.00  0.00     0.012 C 
ENDROOT
BRANCH   1   3
ATOM      3  C   UNL     1     120.139 119.674 127.767  1.00  0.00    -0.028 C 
ATOM      4  C   UNL     1     119.343 119.329 128.798  1.00  0.00    -0.027 C 
BRANCH   4   5
ATOM      5  C   UNL     1     118.071 120.050 129.217  1.00  0.00     0.014 C 
BRANCH   5   6
ATOM      6  C   UNL     1     117.993 120.006 130.769  1.00  0.00     0.004 C 
ATOM      7  C   UNL     1     117.517 121.322 131.384  1.00  0.00     0.004 C 
ENDBRANCH   5   6
BRANCH   5   8
ATOM      8  C   UNL     1     116.846 119.377 128.522  1.00  0.00    -0.011 C 
ATOM      9  C   UNL     1     116.070 118.431 129.451  1.00  0.00     0.008 C 
ATOM     10  C   UNL     1     115.876 120.434 127.971  1.00  0.00     0.008 C 
ENDBRANCH   5   8
ENDBRANCH   4   5
ENDBRANCH   1   3
BRANCH   1  11
ATOM     11  C   UNL     1     120.291 122.184 127.301  1.00  0.00     0.002 C 
ATOM     12  C   UNL     1     121.077 122.056 128.626  1.00  0.00     0.005 C 
ATOM     13  C   UNL     1     119.232 123.337 127.529  1.00  0.00    -0.023 C 
ATOM     14  C   UNL     1     120.555 123.127 129.572  1.00  0.00     0.009 C 
ATOM     15  C   UNL     1     119.163 123.476 129.068  1.00  0.00     0.021 C 
ATOM     16  C   UNL     1     119.800 124.644 126.887  1.00  0.00     0.008 C 
ATOM     17  C   UNL     1     117.804 123.084 126.972  1.00  0.00     0.012 C 
ATOM     18  C   UNL     1     118.701 124.836 129.577  1.00  0.00    -0.067 C 
ATOM     19  C   UNL     1     119.069 125.911 127.334  1.00  0.00     0.009 C 
ATOM     20  C   UNL     1     119.181 126.099 128.861  1.00  0.00     0.021 C 
ATOM     21  C   UNL     1     118.091 124.890 130.784  1.00  0.00    -0.027 C 
ATOM     22  C   UNL     1     118.498 127.419 129.384  1.00  0.00    -0.023 C 
ATOM     23  C   UNL     1     117.701 126.176 131.464  1.00  0.00     0.031 C 
ATOM     24  C   UNL     1     118.531 127.360 130.945  1.00  0.00     0.002 C 
ATOM     25  C   UNL     1     119.327 128.655 128.917  1.00  0.00     0.010 C 
ATOM     26  C   UNL     1     117.043 127.532 128.840  1.00  0.00     0.012 C 
ATOM     27  C   UNL     1     118.100 128.679 131.620  1.00  0.00     0.036 C 
ATOM     28  C   UNL     1     118.875 129.966 129.580  1.00  0.00     0.032 C 
ATOM     29  C   UNL     1     118.926 129.872 131.109  1.00  0.00     0.114 C 
BRANCH  29  30
ATOM     30  O   UNL     1     120.266 129.763 131.528  1.00  0.00    -0.393 OA
ATOM     31  H   UNL     1     120.242 129.588 132.505  1.00  0.00     0.210 HD
ENDBRANCH  29  30
ENDBRANCH   1  11
TORSDOF 6
ENDMDL
MODEL 7
REMARK VINA RESULT:    -6.131      3.521      7.765
REMARK INTER + INTRA:         -10.353
REMARK INTER:                  -8.090
REMARK INTRA:                  -2.263
REMARK UNBOUND:                -2.251
REMARK SMILES CC[C@@H](C=C[C@H](C)[C@@H]1CC[C@H]2C3=CC[C@@H]4C[C@@H](O)CC[C@@]4(C)[C@@H]3CC[C@]21C)C(C)C
REMARK SMILES IDX 6 1 7 2 5 3 4 4 3 5 2 6 1 7 28 8 29 9 30 10 8 11 9 12 26 13
REMARK SMILES IDX 10 14 11 15 25 16 27 17 12 18 24 19 23 20 13 21 21 22 14 23
REMARK SMILES IDX 15 24 20 25 22 26 16 27 19 28 17 29 18 30
REMARK H PARENT 18 31
REMARK Flexibility Score: inf
ROOT
ATOM      1  C   UNL     1     121.634 120.768 126.679  1.00  0.00     0.012 C 
ATOM      2  C   UNL     1     122.866 120.539 125.767  1.00  0.00     0.012 C 
ENDROOT
BRANCH   1   3
ATOM      3  C   UNL     1     121.404 119.621 127.648  1.00  0.00    -0.028 C 
ATOM      4  C   UNL     1     120.293 118.862 127.708  1.00  0.00    -0.027 C 
BRANCH   4   5
ATOM      5  C   UNL     1     119.022 119.082 126.900  1.00  0.00     0.014 C 
BRANCH   5   6
ATOM      6  C   UNL     1     117.819 119.008 127.881  1.00  0.00     0.004 C 
ATOM      7  C   UNL     1     117.897 120.041 129.005  1.00  0.00     0.004 C 
ENDBRANCH   5   6
BRANCH   5   8
ATOM      8  C   UNL     1     118.949 118.019 125.759  1.00  0.00    -0.011 C 
ATOM      9  C   UNL     1     119.647 118.472 124.468  1.00  0.00     0.008 C 
ATOM     10  C   UNL     1     119.560 116.683 126.210  1.00  0.00     0.008 C 
ENDBRANCH   5   8
ENDBRANCH   4   5
ENDBRANCH   1   3
BRANCH   1  11
ATOM     11  C   UNL     1     121.612 122.159 127.403  1.00  0.00     0.002 C 
ATOM     12  C   UNL     1     122.062 122.030 128.876  1.00  0.00     0.005 C 
ATOM     13  C   UNL     1     120.303 123.047 127.420  1.00  0.00    -0.023 C 
ATOM     14  C   UNL     1     121.105 122.857 129.720  1.00  0.00     0.009 C 
ATOM     15  C   UNL     1     119.834 122.985 128.893  1.00  0.00     0.021 C 
ATOM     16  C   UNL     1     120.708 124.507 127.037  1.00  0.00     0.008 C 
ATOM     17  C   UNL     1     119.143 122.588 126.494  1.00  0.00     0.012 C 
ATOM     18  C   UNL     1     118.975 124.157 129.352  1.00  0.00    -0.067 C 
ATOM     19  C   UNL     1     119.631 125.544 127.359  1.00  0.00     0.009 C 
ATOM     20  C   UNL     1     119.325 125.566 128.871  1.00  0.00     0.021 C 
ATOM     21  C   UNL     1     118.096 123.946 130.358  1.00  0.00    -0.027 C 
ATOM     22  C   UNL     1     118.264 126.655 129.282  1.00  0.00    -0.023 C 
ATOM     23  C   UNL     1     117.280 125.041 130.995  1.00  0.00     0.031 C 
ATOM     24  C   UNL     1     117.930 126.418 130.790  1.00  0.00     0.002 C 
ATOM     25  C   UNL     1     118.890 128.077 129.131  1.00  0.00     0.010 C 
ATOM     26  C   UNL     1     116.996 126.546 128.385  1.00  0.00     0.012 C 
ATOM     27  C   UNL     1     117.070 127.537 131.414  1.00  0.00     0.036 C 
ATOM     28  C   UNL     1     118.014 129.184 129.737  1.00  0.00     0.032 C 
ATOM     29  C   UNL     1     117.713 128.921 131.216  1.00  0.00     0.114 C 
BRANCH  29  30
ATOM     30  O   UNL     1     118.901 129.026 131.964  1.00  0.00    -0.393 OA
ATOM     31  H   UNL     1     119.297 128.116 131.994  1.00  0.00     0.210 HD
ENDBRANCH  29  30
ENDBRANCH   1  11
TORSDOF 6
ENDMDL
MODEL 8
REMARK VINA RESULT:    -5.964      2.570      4.212
REMARK INTER + INTRA:         -10.132
REMARK INTER:                  -8.691
REMARK INTRA:                  -1.441
REMARK UNBOUND:                -2.251
REMARK SMILES CC[C@@H](C=C[C@H](C)[C@@H]1CC[C@H]2C3=CC[C@@H]4C[C@@H](O)CC[C@@]4(C)[C@@H]3CC[C@]21C)C(C)C
REMARK SMILES IDX 6 1 7 2 5 3 4 4 3 5 2 6 1 7 28 8 29 9 30 10 8 11 9 12 26 13
REMARK SMILES IDX 10 14 11 15 25 16 27 17 12 18 24 19 23 20 13 21 21 22 14 23
REMARK SMILES IDX 15 24 20 25 22 26 16 27 19 28 17 29 18 30
REMARK H PARENT 18 31
REMARK Flexibility Score: inf
ROOT
ATOM      1  C   UNL     1     118.544 125.485 127.782  1.00  0.00     0.012 C 
ATOM      2  C   UNL     1     119.589 126.471 127.200  1.00  0.00     0.012 C 
ENDROOT
BRANCH   1   3
ATOM      3  C   UNL     1     117.189 126.136 128.004  1.00  0.00    -0.028 C 
ATOM      4  C   UNL     1     116.802 126.767 129.129  1.00  0.00    -0.027 C 
BRANCH   4   5
ATOM      5  C   UNL     1     117.599 126.846 130.422  1.00  0.00     0.014 C 
BRANCH   5   6
ATOM      6  C   UNL     1     117.107 125.702 131.353  1.00  0.00     0.004 C 
ATOM      7  C   UNL     1     117.596 124.321 130.917  1.00  0.00     0.004 C 
ENDBRANCH   5   6
BRANCH   5   8
ATOM      8  C   UNL     1     117.423 128.265 131.049  1.00  0.00    -0.011 C 
ATOM      9  C   UNL     1     117.413 128.248 132.584  1.00  0.00     0.008 C 
ATOM     10  C   UNL     1     118.528 129.220 130.571  1.00  0.00     0.008 C 
ENDBRANCH   5   8
ENDBRANCH   4   5
ENDBRANCH   1   3
BRANCH   1  11
ATOM     11  C   UNL     1     118.423 124.132 127.000  1.00  0.00     0.002 C 
ATOM     12  C   UNL     1     116.984 123.570 127.075  1.00  0.00     0.005 C 
ATOM     13  C   UNL     1     119.385 122.918 127.320  1.00  0.00    -0.023 C 
ATOM     14  C   UNL     1     117.090 122.080 127.359  1.00  0.00     0.009 C 
ATOM     15  C   UNL     1     118.458 121.879 127.995  1.00  0.00     0.021 C 
ATOM     16  C   UNL     1     119.927 122.365 125.963  1.00  0.00     0.008 C 
ATOM     17  C   UNL     1     120.587 123.216 128.257  1.00  0.00     0.012 C 
ATOM     18  C   UNL     1     118.923 120.432 127.895  1.00  0.00    -0.067 C 
ATOM     19  C   UNL     1     120.573 120.984 126.080  1.00  0.00     0.009 C 
ATOM     20  C   UNL     1     119.555 119.943 126.591  1.00  0.00     0.021 C 
ATOM     21  C   UNL     1     118.535 119.571 128.864  1.00  0.00    -0.027 C 
ATOM     22  C   UNL     1     120.139 118.483 126.681  1.00  0.00    -0.023 C 
ATOM     23  C   UNL     1     118.812 118.091 128.825  1.00  0.00     0.031 C 
ATOM     24  C   UNL     1     119.058 117.604 127.388  1.00  0.00     0.002 C 
ATOM     25  C   UNL     1     120.370 117.924 125.243  1.00  0.00     0.010 C 
ATOM     26  C   UNL     1     121.486 118.482 127.462  1.00  0.00     0.012 C 
ATOM     27  C   UNL     1     119.377 116.095 127.360  1.00  0.00     0.036 C 
ATOM     28  C   UNL     1     120.708 116.425 125.229  1.00  0.00     0.032 C 
ATOM     29  C   UNL     1     119.623 115.595 125.925  1.00  0.00     0.114 C 
BRANCH  29  30
ATOM     30  O   UNL     1     118.435 115.649 125.171  1.00  0.00    -0.393 OA
ATOM     31  H   UNL     1     118.600 115.120 124.347  1.00  0.00     0.210 HD
ENDBRANCH  29  30
ENDBRANCH   1  11
TORSDOF 6
ENDMDL
MODEL 9
REMARK VINA RESULT:    -5.725      3.525      5.509
REMARK INTER + INTRA:          -9.816
REMARK INTER:                  -7.323
REMARK INTRA:                  -2.493
REMARK UNBOUND:                -2.251
REMARK SMILES CC[C@@H](C=C[C@H](C)[C@@H]1CC[C@H]2C3=CC[C@@H]4C[C@@H](O)CC[C@@]4(C)[C@@H]3CC[C@]21C)C(C)C
REMARK SMILES IDX 6 1 7 2 5 3 4 4 3 5 2 6 1 7 28 8 29 9 30 10 8 11 9 12 26 13
REMARK SMILES IDX 10 14 11 15 25 16 27 17 12 18 24 19 23 20 13 21 21 22 14 23
REMARK SMILES IDX 15 24 20 25 22 26 16 27 19 28 17 29 18 30
REMARK H PARENT 18 31
REMARK Flexibility Score: inf
ROOT
ATOM      1  C   UNL     1     116.735 121.705 131.444  1.00  0.00     0.012 C 
ATOM      2  C   UNL     1     116.111 121.184 132.763  1.00  0.00     0.012 C 
ENDROOT
BRANCH   1   3
ATOM      3  C   UNL     1     115.872 122.754 130.764  1.00  0.00    -0.028 C 
ATOM      4  C   UNL     1     115.671 122.857 129.436  1.00  0.00    -0.027 C 
BRANCH   4   5
ATOM      5  C   UNL     1     116.356 122.020 128.366  1.00  0.00     0.014 C 
BRANCH   5   6
ATOM      6  C   UNL     1     116.903 122.993 127.284  1.00  0.00     0.004 C 
ATOM      7  C   UNL     1     116.969 124.444 127.759  1.00  0.00     0.004 C 
ENDBRANCH   5   6
BRANCH   5   8
ATOM      8  C   UNL     1     115.340 120.980 127.799  1.00  0.00    -0.011 C 
ATOM      9  C   UNL     1     115.141 119.768 128.721  1.00  0.00     0.008 C 
ATOM     10  C   UNL     1     113.974 121.632 127.535  1.00  0.00     0.008 C 
ENDBRANCH   5   8
ENDBRANCH   4   5
ENDBRANCH   1   3
BRANCH   1  11
ATOM     11  C   UNL     1     118.228 122.168 131.570  1.00  0.00     0.002 C 
ATOM     12  C   UNL     1     118.356 123.698 131.390  1.00  0.00     0.005 C 
ATOM     13  C   UNL     1     119.360 121.524 130.672  1.00  0.00    -0.023 C 
ATOM     14  C   UNL     1     119.549 123.953 130.481  1.00  0.00     0.009 C 
ATOM     15  C   UNL     1     119.753 122.662 129.701  1.00  0.00     0.021 C 
ATOM     16  C   UNL     1     120.562 121.161 131.602  1.00  0.00     0.008 C 
ATOM     17  C   UNL     1     118.960 120.267 129.853  1.00  0.00     0.012 C 
ATOM     18  C   UNL     1     121.159 122.566 129.122  1.00  0.00    -0.067 C 
ATOM     19  C   UNL     1     121.855 120.868 130.841  1.00  0.00     0.009 C 
ATOM     20  C   UNL     1     122.302 122.098 130.024  1.00  0.00     0.021 C 
ATOM     21  C   UNL     1     121.391 123.132 127.915  1.00  0.00    -0.027 C 
ATOM     22  C   UNL     1     123.663 121.886 129.260  1.00  0.00    -0.023 C 
ATOM     23  C   UNL     1     122.756 123.225 127.286  1.00  0.00     0.031 C 
ATOM     24  C   UNL     1     123.868 123.134 128.342  1.00  0.00     0.002 C 
ATOM     25  C   UNL     1     124.835 121.828 130.287  1.00  0.00     0.010 C 
ATOM     26  C   UNL     1     123.625 120.564 128.437  1.00  0.00     0.012 C 
ATOM     27  C   UNL     1     125.264 123.193 127.686  1.00  0.00     0.036 C 
ATOM     28  C   UNL     1     126.219 121.865 129.621  1.00  0.00     0.032 C 
ATOM     29  C   UNL     1     126.386 123.105 128.735  1.00  0.00     0.114 C 
BRANCH  29  30
ATOM     30  O   UNL     1     126.402 124.260 129.541  1.00  0.00    -0.393 OA
ATOM     31  H   UNL     1     127.357 124.457 129.731  1.00  0.00     0.210 HD
ENDBRANCH  29  30
ENDBRANCH   1  11
TORSDOF 6
ENDMDL
