MODEL 1
REMARK VINA RESULT:    -3.985      0.000      0.000
REMARK INTER + INTRA:         -13.565
REMARK INTER:                 -10.042
REMARK INTRA:                  -3.523
REMARK UNBOUND:                -3.523
REMARK SMILES CCCCCCCCCCCCCCCCCCCCCCCCCCCC(=O)[O-]
REMARK SMILES IDX 15 1 16 2 17 3 18 4 19 5 20 6 21 7 22 8 23 9 24 10 25 11
REMARK SMILES IDX 26 12 27 13 28 14 29 15 30 16 14 17 13 18 12 19 11 20 10 21
REMARK SMILES IDX 9 22 8 23 7 24 6 25 5 26 4 27 3 28 2 29 1 30
REMARK H PARENT
REMARK Flexibility Score: inf
ROOT
ATOM      1  C   UNL     1       1.909  43.043   8.694  1.00  0.00     0.000 C 
ENDROOT
BRANCH   1   2
ATOM      2  C   UNL     1       3.380  43.254   9.097  1.00  0.00     0.000 C 
BRANCH   2   3
ATOM      3  C   UNL     1       3.821  42.523  10.380  1.00  0.00     0.000 C 
BRANCH   3   4
ATOM      4  C   UNL     1       4.402  43.468  11.445  1.00  0.00     0.000 C 
BRANCH   4   5
ATOM      5  C   UNL     1       3.334  44.011  12.414  1.00  0.00     0.000 C 
BRANCH   5   6
ATOM      6  C   UNL     1       2.272  44.926  11.777  1.00  0.00     0.000 C 
BRANCH   6   7
ATOM      7  C   UNL     1       0.851  44.359  11.894  1.00  0.00     0.000 C 
BRANCH   7   8
ATOM      8  C   UNL     1       0.872  42.870  12.266  1.00  0.00     0.000 C 
BRANCH   8   9
ATOM      9  C   UNL     1      -0.279  42.472  13.209  1.00  0.00     0.000 C 
BRANCH   9  10
ATOM     10  C   UNL     1       0.132  41.445  14.286  1.00  0.00     0.000 C 
BRANCH  10  11
ATOM     11  C   UNL     1      -0.288  40.014  13.916  1.00  0.00     0.000 C 
BRANCH  11  12
ATOM     12  C   UNL     1       0.868  39.250  13.254  1.00  0.00     0.006 C 
BRANCH  12  13
ATOM     13  C   UNL     1       2.194  40.019  13.338  1.00  0.00     0.053 C 
BRANCH  13  14
ATOM     14  C   UNL     1       3.328  39.229  12.757  1.00  0.00     0.041 C 
ATOM     15  O   UNL     1       3.168  38.015  12.465  1.00  0.00    -0.550 OA
ATOM     16  O   UNL     1       4.573  39.821  12.588  1.00  0.00    -0.550 OA
ENDBRANCH  13  14
ENDBRANCH  12  13
ENDBRANCH  11  12
ENDBRANCH  10  11
ENDBRANCH   9  10
ENDBRANCH   8   9
ENDBRANCH   7   8
ENDBRANCH   6   7
ENDBRANCH   5   6
ENDBRANCH   4   5
ENDBRANCH   3   4
ENDBRANCH   2   3
ENDBRANCH   1   2
BRANCH   1  17
ATOM     17  C   UNL     1       1.115  44.358   8.609  1.00  0.00     0.000 C 
BRANCH  17  18
ATOM     18  C   UNL     1       0.336  44.495   7.292  1.00  0.00     0.000 C 
BRANCH  18  19
ATOM     19  C   UNL     1      -0.630  45.696   7.302  1.00  0.00     0.000 C 
BRANCH  19  20
ATOM     20  C   UNL     1      -0.935  46.203   8.726  1.00  0.00     0.000 C 
BRANCH  20  21
ATOM     21  C   UNL     1      -0.999  47.740   8.844  1.00  0.00     0.000 C 
BRANCH  21  22
ATOM     22  C   UNL     1      -0.279  48.513   7.726  1.00  0.00    -0.000 C 
BRANCH  22  23
ATOM     23  C   UNL     1       1.117  49.051   8.099  1.00  0.00    -0.000 C 
BRANCH  23  24
ATOM     24  C   UNL     1       2.265  48.050   7.832  1.00  0.00    -0.000 C 
BRANCH  24  25
ATOM     25  C   UNL     1       2.876  47.422   9.102  1.00  0.00    -0.000 C 
BRANCH  25  26
ATOM     26  C   UNL     1       4.122  46.545   8.865  1.00  0.00    -0.000 C 
BRANCH  26  27
ATOM     27  C   UNL     1       5.242  46.694   9.915  1.00  0.00    -0.000 C 
BRANCH  27  28
ATOM     28  C   UNL     1       6.528  47.376   9.410  1.00  0.00    -0.000 C 
BRANCH  28  29
ATOM     29  C   UNL     1       6.668  48.860   9.796  1.00  0.00    -0.003 C 
ATOM     30  C   UNL     1       6.380  49.809   8.633  1.00  0.00     0.004 C 
ENDBRANCH  28  29
ENDBRANCH  27  28
ENDBRANCH  26  27
ENDBRANCH  25  26
ENDBRANCH  24  25
ENDBRANCH  23  24
ENDBRANCH  22  23
ENDBRANCH  21  22
ENDBRANCH  20  21
ENDBRANCH  19  20
ENDBRANCH  18  19
ENDBRANCH  17  18
ENDBRANCH   1  17
TORSDOF 26
ENDMDL
MODEL 2
REMARK VINA RESULT:    -3.952      2.665      7.860
REMARK INTER + INTRA:         -13.481
REMARK INTER:                  -9.588
REMARK INTRA:                  -3.893
REMARK UNBOUND:                -3.523
REMARK SMILES CCCCCCCCCCCCCCCCCCCCCCCCCCCC(=O)[O-]
REMARK SMILES IDX 15 1 16 2 17 3 18 4 19 5 20 6 21 7 22 8 23 9 24 10 25 11
REMARK SMILES IDX 26 12 27 13 28 14 29 15 30 16 14 17 13 18 12 19 11 20 10 21
REMARK SMILES IDX 9 22 8 23 7 24 6 25 5 26 4 27 3 28 2 29 1 30
REMARK H PARENT
REMARK Flexibility Score: inf
ROOT
ATOM      1  C   UNL     1       2.929  43.222   8.941  1.00  0.00     0.000 C 
ENDROOT
BRANCH   1   2
ATOM      2  C   UNL     1       1.466  43.252   8.461  1.00  0.00     0.000 C 
BRANCH   2   3
ATOM      3  C   UNL     1       0.867  44.658   8.268  1.00  0.00     0.000 C 
BRANCH   3   4
ATOM      4  C   UNL     1      -0.016  44.772   7.014  1.00  0.00     0.000 C 
BRANCH   4   5
ATOM      5  C   UNL     1      -0.998  45.957   7.076  1.00  0.00     0.000 C 
BRANCH   5   6
ATOM      6  C   UNL     1      -1.054  46.697   8.426  1.00  0.00     0.000 C 
BRANCH   6   7
ATOM      7  C   UNL     1      -0.717  48.189   8.300  1.00  0.00     0.000 C 
BRANCH   7   8
ATOM      8  C   UNL     1       0.698  48.488   8.813  1.00  0.00     0.000 C 
BRANCH   8   9
ATOM      9  C   UNL     1       1.653  48.951   7.697  1.00  0.00     0.000 C 
BRANCH   9  10
ATOM     10  C   UNL     1       2.967  48.143   7.634  1.00  0.00     0.000 C 
BRANCH  10  11
ATOM     11  C   UNL     1       3.129  47.199   8.836  1.00  0.00     0.000 C 
BRANCH  11  12
ATOM     12  C   UNL     1       4.516  46.540   8.840  1.00  0.00     0.006 C 
BRANCH  12  13
ATOM     13  C   UNL     1       5.412  47.084   9.961  1.00  0.00     0.053 C 
BRANCH  13  14
ATOM     14  C   UNL     1       6.547  47.898   9.413  1.00  0.00     0.041 C 
ATOM     15  O   UNL     1       6.316  48.974   8.803  1.00  0.00    -0.550 OA
ATOM     16  O   UNL     1       7.852  47.438   9.532  1.00  0.00    -0.550 OA
ENDBRANCH  13  14
ENDBRANCH  12  13
ENDBRANCH  11  12
ENDBRANCH  10  11
ENDBRANCH   9  10
ENDBRANCH   8   9
ENDBRANCH   7   8
ENDBRANCH   6   7
ENDBRANCH   5   6
ENDBRANCH   4   5
ENDBRANCH   3   4
ENDBRANCH   2   3
ENDBRANCH   1   2
BRANCH   1  17
ATOM     17  C   UNL     1       3.204  42.104   9.963  1.00  0.00     0.000 C 
BRANCH  17  18
ATOM     18  C   UNL     1       3.945  42.611  11.209  1.00  0.00     0.000 C 
BRANCH  18  19
ATOM     19  C   UNL     1       3.923  44.148  11.323  1.00  0.00     0.000 C 
BRANCH  19  20
ATOM     20  C   UNL     1       2.777  44.661  12.218  1.00  0.00     0.000 C 
BRANCH  20  21
ATOM     21  C   UNL     1       1.545  45.160  11.435  1.00  0.00     0.000 C 
BRANCH  21  22
ATOM     22  C   UNL     1       0.243  44.384  11.700  1.00  0.00    -0.000 C 
BRANCH  22  23
ATOM     23  C   UNL     1       0.419  43.057  12.465  1.00  0.00    -0.000 C 
BRANCH  23  24
ATOM     24  C   UNL     1      -0.862  42.578  13.189  1.00  0.00    -0.000 C 
BRANCH  24  25
ATOM     25  C   UNL     1      -0.629  41.465  14.231  1.00  0.00    -0.000 C 
BRANCH  25  26
ATOM     26  C   UNL     1      -0.202  40.101  13.650  1.00  0.00    -0.000 C 
BRANCH  26  27
ATOM     27  C   UNL     1       1.246  39.675  13.968  1.00  0.00    -0.000 C 
BRANCH  27  28
ATOM     28  C   UNL     1       2.288  40.045  12.894  1.00  0.00    -0.000 C 
BRANCH  28  29
ATOM     29  C   UNL     1       3.340  38.956  12.611  1.00  0.00    -0.003 C 
ATOM     30  C   UNL     1       2.723  37.635  12.154  1.00  0.00     0.004 C 
ENDBRANCH  28  29
ENDBRANCH  27  28
ENDBRANCH  26  27
ENDBRANCH  25  26
ENDBRANCH  24  25
ENDBRANCH  23  24
ENDBRANCH  22  23
ENDBRANCH  21  22
ENDBRANCH  20  21
ENDBRANCH  19  20
ENDBRANCH  18  19
ENDBRANCH  17  18
ENDBRANCH   1  17
TORSDOF 26
ENDMDL
MODEL 3
REMARK VINA RESULT:    -3.740      2.712      8.250
REMARK INTER + INTRA:         -12.948
REMARK INTER:                 -10.156
REMARK INTRA:                  -2.792
REMARK UNBOUND:                -3.523
REMARK SMILES CCCCCCCCCCCCCCCCCCCCCCCCCCCC(=O)[O-]
REMARK SMILES IDX 15 1 16 2 17 3 18 4 19 5 20 6 21 7 22 8 23 9 24 10 25 11
REMARK SMILES IDX 26 12 27 13 28 14 29 15 30 16 14 17 13 18 12 19 11 20 10 21
REMARK SMILES IDX 9 22 8 23 7 24 6 25 5 26 4 27 3 28 2 29 1 30
REMARK H PARENT
REMARK Flexibility Score: inf
ROOT
ATOM      1  C   UNL     1       3.655  42.786  10.511  1.00  0.00     0.000 C 
ENDROOT
BRANCH   1   2
ATOM      2  C   UNL     1       3.474  43.201   9.039  1.00  0.00     0.000 C 
BRANCH   2   3
ATOM      3  C   UNL     1       2.050  43.024   8.478  1.00  0.00     0.000 C 
BRANCH   3   4
ATOM      4  C   UNL     1       1.196  44.298   8.585  1.00  0.00     0.000 C 
BRANCH   4   5
ATOM      5  C   UNL     1       0.368  44.575   7.316  1.00  0.00     0.000 C 
BRANCH   5   6
ATOM      6  C   UNL     1      -0.712  45.663   7.459  1.00  0.00     0.000 C 
BRANCH   6   7
ATOM      7  C   UNL     1      -0.752  46.280   8.864  1.00  0.00     0.000 C 
BRANCH   7   8
ATOM      8  C   UNL     1      -0.401  47.773   8.829  1.00  0.00     0.000 C 
BRANCH   8   9
ATOM      9  C   UNL     1       0.929  48.058   8.106  1.00  0.00     0.000 C 
BRANCH   9  10
ATOM     10  C   UNL     1       2.175  47.789   8.977  1.00  0.00     0.000 C 
BRANCH  10  11
ATOM     11  C   UNL     1       3.456  47.662   8.138  1.00  0.00     0.000 C 
BRANCH  11  12
ATOM     12  C   UNL     1       4.446  46.682   8.784  1.00  0.00     0.006 C 
BRANCH  12  13
ATOM     13  C   UNL     1       5.236  47.326   9.931  1.00  0.00     0.053 C 
BRANCH  13  14
ATOM     14  C   UNL     1       6.488  47.986   9.436  1.00  0.00     0.041 C 
ATOM     15  O   UNL     1       7.608  47.448   9.638  1.00  0.00    -0.550 OA
ATOM     16  O   UNL     1       6.420  49.218   8.799  1.00  0.00    -0.550 OA
ENDBRANCH  13  14
ENDBRANCH  12  13
ENDBRANCH  11  12
ENDBRANCH  10  11
ENDBRANCH   9  10
ENDBRANCH   8   9
ENDBRANCH   7   8
ENDBRANCH   6   7
ENDBRANCH   5   6
ENDBRANCH   4   5
ENDBRANCH   3   4
ENDBRANCH   2   3
ENDBRANCH   1   2
BRANCH   1  17
ATOM     17  C   UNL     1       4.181  43.930  11.397  1.00  0.00     0.000 C 
BRANCH  17  18
ATOM     18  C   UNL     1       3.111  44.479  12.352  1.00  0.00     0.000 C 
BRANCH  18  19
ATOM     19  C   UNL     1       1.895  45.058  11.603  1.00  0.00     0.000 C 
BRANCH  19  20
ATOM     20  C   UNL     1       0.624  44.202  11.779  1.00  0.00     0.000 C 
BRANCH  20  21
ATOM     21  C   UNL     1       0.860  42.879  12.537  1.00  0.00     0.000 C 
BRANCH  21  22
ATOM     22  C   UNL     1      -0.368  42.321  13.276  1.00  0.00    -0.000 C 
BRANCH  22  23
ATOM     23  C   UNL     1      -0.079  41.132  14.216  1.00  0.00    -0.000 C 
BRANCH  23  24
ATOM     24  C   UNL     1       0.821  40.043  13.587  1.00  0.00    -0.000 C 
BRANCH  24  25
ATOM     25  C   UNL     1       2.304  40.441  13.445  1.00  0.00    -0.000 C 
BRANCH  25  26
ATOM     26  C   UNL     1       3.110  39.614  12.423  1.00  0.00    -0.000 C 
BRANCH  26  27
ATOM     27  C   UNL     1       3.181  38.100  12.711  1.00  0.00    -0.000 C 
BRANCH  27  28
ATOM     28  C   UNL     1       2.450  37.205  11.691  1.00  0.00    -0.000 C 
BRANCH  28  29
ATOM     29  C   UNL     1       0.997  36.856  12.060  1.00  0.00    -0.003 C 
ATOM     30  C   UNL     1       0.590  35.450  11.620  1.00  0.00     0.004 C 
ENDBRANCH  28  29
ENDBRANCH  27  28
ENDBRANCH  26  27
ENDBRANCH  25  26
ENDBRANCH  24  25
ENDBRANCH  23  24
ENDBRANCH  22  23
ENDBRANCH  21  22
ENDBRANCH  20  21
ENDBRANCH  19  20
ENDBRANCH  18  19
ENDBRANCH  17  18
ENDBRANCH   1  17
TORSDOF 26
ENDMDL
MODEL 4
REMARK VINA RESULT:    -3.584      2.672      8.038
REMARK INTER + INTRA:         -12.555
REMARK INTER:                  -9.504
REMARK INTRA:                  -3.051
REMARK UNBOUND:                -3.523
REMARK SMILES CCCCCCCCCCCCCCCCCCCCCCCCCCCC(=O)[O-]
REMARK SMILES IDX 15 1 16 2 17 3 18 4 19 5 20 6 21 7 22 8 23 9 24 10 25 11
REMARK SMILES IDX 26 12 27 13 28 14 29 15 30 16 14 17 13 18 12 19 11 20 10 21
REMARK SMILES IDX 9 22 8 23 7 24 6 25 5 26 4 27 3 28 2 29 1 30
REMARK H PARENT
REMARK Flexibility Score: inf
ROOT
ATOM      1  C   UNL     1       3.553  43.245   9.099  1.00  0.00     0.000 C 
ENDROOT
BRANCH   1   2
ATOM      2  C   UNL     1       2.072  43.038   8.732  1.00  0.00     0.000 C 
BRANCH   2   3
ATOM      3  C   UNL     1       1.211  44.316   8.732  1.00  0.00     0.000 C 
BRANCH   3   4
ATOM      4  C   UNL     1       0.378  44.482   7.451  1.00  0.00     0.000 C 
BRANCH   4   5
ATOM      5  C   UNL     1      -0.561  45.703   7.500  1.00  0.00     0.000 C 
BRANCH   5   6
ATOM      6  C   UNL     1      -1.093  46.069   8.898  1.00  0.00     0.000 C 
BRANCH   6   7
ATOM      7  C   UNL     1      -0.995  47.572   9.196  1.00  0.00     0.000 C 
BRANCH   7   8
ATOM      8  C   UNL     1      -0.545  48.359   7.959  1.00  0.00     0.000 C 
BRANCH   8   9
ATOM      9  C   UNL     1       0.830  49.028   8.142  1.00  0.00     0.000 C 
BRANCH   9  10
ATOM     10  C   UNL     1       2.006  48.177   7.618  1.00  0.00     0.000 C 
BRANCH  10  11
ATOM     11  C   UNL     1       2.875  47.620   8.757  1.00  0.00     0.000 C 
BRANCH  11  12
ATOM     12  C   UNL     1       4.356  47.577   8.353  1.00  0.00     0.006 C 
BRANCH  12  13
ATOM     13  C   UNL     1       5.286  47.470   9.569  1.00  0.00     0.053 C 
BRANCH  13  14
ATOM     14  C   UNL     1       6.597  48.156   9.323  1.00  0.00     0.041 C 
ATOM     15  O   UNL     1       7.677  47.527   9.471  1.00  0.00    -0.550 OA
ATOM     16  O   UNL     1       6.623  49.503   8.985  1.00  0.00    -0.550 OA
ENDBRANCH  13  14
ENDBRANCH  12  13
ENDBRANCH  11  12
ENDBRANCH  10  11
ENDBRANCH   9  10
ENDBRANCH   8   9
ENDBRANCH   7   8
ENDBRANCH   6   7
ENDBRANCH   5   6
ENDBRANCH   4   5
ENDBRANCH   3   4
ENDBRANCH   2   3
ENDBRANCH   1   2
BRANCH   1  17
ATOM     17  C   UNL     1       3.778  44.446  10.035  1.00  0.00     0.000 C 
BRANCH  17  18
ATOM     18  C   UNL     1       4.337  44.033  11.405  1.00  0.00     0.000 C 
BRANCH  18  19
ATOM     19  C   UNL     1       3.340  44.298  12.551  1.00  0.00     0.000 C 
BRANCH  19  20
ATOM     20  C   UNL     1       1.870  44.161  12.105  1.00  0.00     0.000 C 
BRANCH  20  21
ATOM     21  C   UNL     1       1.296  42.738  12.265  1.00  0.00     0.000 C 
BRANCH  21  22
ATOM     22  C   UNL     1       0.009  42.643  13.103  1.00  0.00    -0.000 C 
BRANCH  22  23
ATOM     23  C   UNL     1       0.017  41.549  14.190  1.00  0.00    -0.000 C 
BRANCH  23  24
ATOM     24  C   UNL     1      -0.725  40.255  13.781  1.00  0.00    -0.000 C 
BRANCH  24  25
ATOM     25  C   UNL     1       0.195  39.042  13.529  1.00  0.00    -0.000 C 
BRANCH  25  26
ATOM     26  C   UNL     1       1.540  39.371  12.848  1.00  0.00    -0.000 C 
BRANCH  26  27
ATOM     27  C   UNL     1       2.402  38.149  12.472  1.00  0.00    -0.000 C 
BRANCH  27  28
ATOM     28  C   UNL     1       3.925  38.364  12.581  1.00  0.00    -0.000 C 
BRANCH  28  29
ATOM     29  C   UNL     1       4.348  39.583  13.421  1.00  0.00    -0.003 C 
ATOM     30  C   UNL     1       4.898  40.730  12.574  1.00  0.00     0.004 C 
ENDBRANCH  28  29
ENDBRANCH  27  28
ENDBRANCH  26  27
ENDBRANCH  25  26
ENDBRANCH  24  25
ENDBRANCH  23  24
ENDBRANCH  22  23
ENDBRANCH  21  22
ENDBRANCH  20  21
ENDBRANCH  19  20
ENDBRANCH  18  19
ENDBRANCH  17  18
ENDBRANCH   1  17
TORSDOF 26
ENDMDL
MODEL 5
REMARK VINA RESULT:    -3.491      1.670      3.539
REMARK INTER + INTRA:         -12.321
REMARK INTER:                  -9.457
REMARK INTRA:                  -2.864
REMARK UNBOUND:                -3.523
REMARK SMILES CCCCCCCCCCCCCCCCCCCCCCCCCCCC(=O)[O-]
REMARK SMILES IDX 15 1 16 2 17 3 18 4 19 5 20 6 21 7 22 8 23 9 24 10 25 11
REMARK SMILES IDX 26 12 27 13 28 14 29 15 30 16 14 17 13 18 12 19 11 20 10 21
REMARK SMILES IDX 9 22 8 23 7 24 6 25 5 26 4 27 3 28 2 29 1 30
REMARK H PARENT
REMARK Flexibility Score: inf
ROOT
ATOM      1  C   UNL     1       4.312  44.156  11.156  1.00  0.00     0.000 C 
ENDROOT
BRANCH   1   2
ATOM      2  C   UNL     1       3.275  44.815  12.084  1.00  0.00     0.000 C 
BRANCH   2   3
ATOM      3  C   UNL     1       1.974  45.273  11.395  1.00  0.00     0.000 C 
BRANCH   3   4
ATOM      4  C   UNL     1       0.722  44.566  11.938  1.00  0.00     0.000 C 
BRANCH   4   5
ATOM      5  C   UNL     1       0.815  43.030  11.856  1.00  0.00     0.000 C 
BRANCH   5   6
ATOM      6  C   UNL     1       1.240  42.325  13.157  1.00  0.00     0.000 C 
BRANCH   6   7
ATOM      7  C   UNL     1       1.963  40.995  12.904  1.00  0.00     0.000 C 
BRANCH   7   8
ATOM      8  C   UNL     1       3.215  41.195  12.040  1.00  0.00     0.000 C 
BRANCH   8   9
ATOM      9  C   UNL     1       4.466  40.520  12.634  1.00  0.00     0.000 C 
BRANCH   9  10
ATOM     10  C   UNL     1       4.189  39.124  13.232  1.00  0.00     0.000 C 
BRANCH  10  11
ATOM     11  C   UNL     1       3.812  38.093  12.157  1.00  0.00     0.000 C 
BRANCH  11  12
ATOM     12  C   UNL     1       2.305  37.796  12.179  1.00  0.00     0.006 C 
BRANCH  12  13
ATOM     13  C   UNL     1       1.986  36.380  11.683  1.00  0.00     0.053 C 
BRANCH  13  14
ATOM     14  C   UNL     1       0.520  36.078  11.781  1.00  0.00     0.041 C 
ATOM     15  O   UNL     1       0.062  35.007  11.306  1.00  0.00    -0.550 OA
ATOM     16  O   UNL     1      -0.343  37.006  12.350  1.00  0.00    -0.550 OA
ENDBRANCH  13  14
ENDBRANCH  12  13
ENDBRANCH  11  12
ENDBRANCH  10  11
ENDBRANCH   9  10
ENDBRANCH   8   9
ENDBRANCH   7   8
ENDBRANCH   6   7
ENDBRANCH   5   6
ENDBRANCH   4   5
ENDBRANCH   3   4
ENDBRANCH   2   3
ENDBRANCH   1   2
BRANCH   1  17
ATOM     17  C   UNL     1       3.944  44.273   9.665  1.00  0.00     0.000 C 
BRANCH  17  18
ATOM     18  C   UNL     1       3.662  42.909   9.016  1.00  0.00     0.000 C 
BRANCH  18  19
ATOM     19  C   UNL     1       2.183  42.742   8.617  1.00  0.00     0.000 C 
BRANCH  19  20
ATOM     20  C   UNL     1       1.423  44.083   8.574  1.00  0.00     0.000 C 
BRANCH  20  21
ATOM     21  C   UNL     1       0.535  44.261   7.325  1.00  0.00     0.000 C 
BRANCH  21  22
ATOM     22  C   UNL     1      -0.324  45.536   7.309  1.00  0.00    -0.000 C 
BRANCH  22  23
ATOM     23  C   UNL     1      -0.390  46.295   8.650  1.00  0.00    -0.000 C 
BRANCH  23  24
ATOM     24  C   UNL     1      -0.057  47.802   8.533  1.00  0.00    -0.000 C 
BRANCH  24  25
ATOM     25  C   UNL     1       1.360  48.104   8.003  1.00  0.00    -0.000 C 
BRANCH  25  26
ATOM     26  C   UNL     1       2.511  47.717   8.955  1.00  0.00    -0.000 C 
BRANCH  26  27
ATOM     27  C   UNL     1       3.891  47.553   8.286  1.00  0.00    -0.000 C 
BRANCH  27  28
ATOM     28  C   UNL     1       5.058  47.268   9.252  1.00  0.00    -0.000 C 
BRANCH  28  29
ATOM     29  C   UNL     1       6.253  48.229   9.125  1.00  0.00    -0.003 C 
ATOM     30  C   UNL     1       7.589  47.569   9.468  1.00  0.00     0.004 C 
ENDBRANCH  28  29
ENDBRANCH  27  28
ENDBRANCH  26  27
ENDBRANCH  25  26
ENDBRANCH  24  25
ENDBRANCH  23  24
ENDBRANCH  22  23
ENDBRANCH  21  22
ENDBRANCH  20  21
ENDBRANCH  19  20
ENDBRANCH  18  19
ENDBRANCH  17  18
ENDBRANCH   1  17
TORSDOF 26
ENDMDL
MODEL 6
REMARK VINA RESULT:    -3.418      1.605      5.784
REMARK INTER + INTRA:         -12.136
REMARK INTER:                  -9.381
REMARK INTRA:                  -2.754
REMARK UNBOUND:                -3.523
REMARK SMILES CCCCCCCCCCCCCCCCCCCCCCCCCCCC(=O)[O-]
REMARK SMILES IDX 15 1 16 2 17 3 18 4 19 5 20 6 21 7 22 8 23 9 24 10 25 11
REMARK SMILES IDX 26 12 27 13 28 14 29 15 30 16 14 17 13 18 12 19 11 20 10 21
REMARK SMILES IDX 9 22 8 23 7 24 6 25 5 26 4 27 3 28 2 29 1 30
REMARK H PARENT
REMARK Flexibility Score: inf
ROOT
ATOM      1  C   UNL     1       0.041  48.001   7.997  1.00  0.00     0.000 C 
ENDROOT
BRANCH   1   2
ATOM      2  C   UNL     1      -0.563  46.589   8.095  1.00  0.00     0.000 C 
BRANCH   2   3
ATOM      3  C   UNL     1       0.367  45.445   7.647  1.00  0.00     0.000 C 
BRANCH   3   4
ATOM      4  C   UNL     1       0.985  44.673   8.823  1.00  0.00     0.000 C 
BRANCH   4   5
ATOM      5  C   UNL     1       1.502  43.277   8.422  1.00  0.00     0.000 C 
BRANCH   5   6
ATOM      6  C   UNL     1       2.922  42.935   8.911  1.00  0.00     0.000 C 
BRANCH   6   7
ATOM      7  C   UNL     1       2.925  41.929  10.070  1.00  0.00     0.000 C 
BRANCH   7   8
ATOM      8  C   UNL     1       4.146  42.126  10.978  1.00  0.00     0.000 C 
BRANCH   8   9
ATOM      9  C   UNL     1       4.006  41.408  12.333  1.00  0.00     0.000 C 
BRANCH   9  10
ATOM     10  C   UNL     1       3.018  40.222  12.305  1.00  0.00     0.000 C 
BRANCH  10  11
ATOM     11  C   UNL     1       3.707  38.883  12.606  1.00  0.00     0.000 C 
BRANCH  11  12
ATOM     12  C   UNL     1       2.823  37.699  12.189  1.00  0.00     0.006 C 
BRANCH  12  13
ATOM     13  C   UNL     1       1.394  37.822  12.734  1.00  0.00     0.053 C 
BRANCH  13  14
ATOM     14  C   UNL     1       0.506  36.735  12.206  1.00  0.00     0.041 C 
ATOM     15  O   UNL     1       0.986  35.821  11.486  1.00  0.00    -0.550 OA
ATOM     16  O   UNL     1      -0.858  36.764  12.467  1.00  0.00    -0.550 OA
ENDBRANCH  13  14
ENDBRANCH  12  13
ENDBRANCH  11  12
ENDBRANCH  10  11
ENDBRANCH   9  10
ENDBRANCH   8   9
ENDBRANCH   7   8
ENDBRANCH   6   7
ENDBRANCH   5   6
ENDBRANCH   4   5
ENDBRANCH   3   4
ENDBRANCH   2   3
ENDBRANCH   1   2
BRANCH   1  17
ATOM     17  C   UNL     1       1.427  48.109   8.657  1.00  0.00     0.000 C 
BRANCH  17  18
ATOM     18  C   UNL     1       2.512  48.588   7.680  1.00  0.00     0.000 C 
BRANCH  18  19
ATOM     19  C   UNL     1       3.753  47.674   7.685  1.00  0.00     0.000 C 
BRANCH  19  20
ATOM     20  C   UNL     1       4.832  48.141   8.684  1.00  0.00     0.000 C 
BRANCH  20  21
ATOM     21  C   UNL     1       5.447  47.001   9.521  1.00  0.00     0.000 C 
BRANCH  21  22
ATOM     22  C   UNL     1       4.480  45.862   9.886  1.00  0.00    -0.000 C 
BRANCH  22  23
ATOM     23  C   UNL     1       3.463  46.200  10.995  1.00  0.00    -0.000 C 
BRANCH  23  24
ATOM     24  C   UNL     1       3.000  44.972  11.814  1.00  0.00    -0.000 C 
BRANCH  24  25
ATOM     25  C   UNL     1       1.486  44.685  11.736  1.00  0.00    -0.000 C 
BRANCH  25  26
ATOM     26  C   UNL     1       1.032  43.373  12.409  1.00  0.00    -0.000 C 
BRANCH  26  27
ATOM     27  C   UNL     1      -0.487  43.241  12.637  1.00  0.00    -0.000 C 
BRANCH  27  28
ATOM     28  C   UNL     1      -0.919  42.033  13.492  1.00  0.00    -0.000 C 
BRANCH  28  29
ATOM     29  C   UNL     1       0.235  41.284  14.183  1.00  0.00    -0.003 C 
ATOM     30  C   UNL     1      -0.085  40.895  15.626  1.00  0.00     0.004 C 
ENDBRANCH  28  29
ENDBRANCH  27  28
ENDBRANCH  26  27
ENDBRANCH  25  26
ENDBRANCH  24  25
ENDBRANCH  23  24
ENDBRANCH  22  23
ENDBRANCH  21  22
ENDBRANCH  20  21
ENDBRANCH  19  20
ENDBRANCH  18  19
ENDBRANCH  17  18
ENDBRANCH   1  17
TORSDOF 26
ENDMDL
MODEL 7
REMARK VINA RESULT:    -3.302      1.133      4.344
REMARK INTER + INTRA:         -11.843
REMARK INTER:                  -8.359
REMARK INTRA:                  -3.483
REMARK UNBOUND:                -3.523
REMARK SMILES CCCCCCCCCCCCCCCCCCCCCCCCCCCC(=O)[O-]
REMARK SMILES IDX 15 1 16 2 17 3 18 4 19 5 20 6 21 7 22 8 23 9 24 10 25 11
REMARK SMILES IDX 26 12 27 13 28 14 29 15 30 16 14 17 13 18 12 19 11 20 10 21
REMARK SMILES IDX 9 22 8 23 7 24 6 25 5 26 4 27 3 28 2 29 1 30
REMARK H PARENT
REMARK Flexibility Score: inf
ROOT
ATOM      1  C   UNL     1       4.292  43.023  11.495  1.00  0.00     0.000 C 
ENDROOT
BRANCH   1   2
ATOM      2  C   UNL     1       2.952  42.450  11.001  1.00  0.00     0.000 C 
BRANCH   2   3
ATOM      3  C   UNL     1       2.742  42.494   9.475  1.00  0.00     0.000 C 
BRANCH   3   4
ATOM      4  C   UNL     1       1.494  43.291   9.060  1.00  0.00     0.000 C 
BRANCH   4   5
ATOM      5  C   UNL     1       1.552  44.768   9.496  1.00  0.00     0.000 C 
BRANCH   5   6
ATOM      6  C   UNL     1       0.343  45.261  10.312  1.00  0.00     0.000 C 
BRANCH   6   7
ATOM      7  C   UNL     1       0.344  44.733  11.753  1.00  0.00     0.000 C 
BRANCH   7   8
ATOM      8  C   UNL     1      -0.823  43.766  11.995  1.00  0.00     0.000 C 
BRANCH   8   9
ATOM      9  C   UNL     1      -0.679  42.969  13.304  1.00  0.00     0.000 C 
BRANCH   9  10
ATOM     10  C   UNL     1       0.431  41.897  13.256  1.00  0.00     0.000 C 
BRANCH  10  11
ATOM     11  C   UNL     1       0.044  40.622  14.022  1.00  0.00     0.000 C 
BRANCH  11  12
ATOM     12  C   UNL     1       0.900  39.427  13.577  1.00  0.00     0.006 C 
BRANCH  12  13
ATOM     13  C   UNL     1       2.265  39.864  13.030  1.00  0.00     0.053 C 
BRANCH  13  14
ATOM     14  C   UNL     1       3.132  38.684  12.706  1.00  0.00     0.041 C 
ATOM     15  O   UNL     1       4.373  38.735  12.913  1.00  0.00    -0.550 OA
ATOM     16  O   UNL     1       2.576  37.551  12.126  1.00  0.00    -0.550 OA
ENDBRANCH  13  14
ENDBRANCH  12  13
ENDBRANCH  11  12
ENDBRANCH  10  11
ENDBRANCH   9  10
ENDBRANCH   8   9
ENDBRANCH   7   8
ENDBRANCH   6   7
ENDBRANCH   5   6
ENDBRANCH   4   5
ENDBRANCH   3   4
ENDBRANCH   2   3
ENDBRANCH   1   2
BRANCH   1  17
ATOM     17  C   UNL     1       4.127  44.315  12.315  1.00  0.00     0.000 C 
BRANCH  17  18
ATOM     18  C   UNL     1       3.856  45.545  11.435  1.00  0.00     0.000 C 
BRANCH  18  19
ATOM     19  C   UNL     1       4.967  45.779  10.393  1.00  0.00     0.000 C 
BRANCH  19  20
ATOM     20  C   UNL     1       4.479  46.587   9.173  1.00  0.00     0.000 C 
BRANCH  20  21
ATOM     21  C   UNL     1       5.445  47.707   8.735  1.00  0.00     0.000 C 
BRANCH  21  22
ATOM     22  C   UNL     1       4.808  48.829   7.898  1.00  0.00    -0.000 C 
BRANCH  22  23
ATOM     23  C   UNL     1       3.492  48.449   7.189  1.00  0.00    -0.000 C 
BRANCH  23  24
ATOM     24  C   UNL     1       2.245  49.166   7.760  1.00  0.00    -0.000 C 
BRANCH  24  25
ATOM     25  C   UNL     1       1.253  48.238   8.490  1.00  0.00    -0.000 C 
BRANCH  25  26
ATOM     26  C   UNL     1      -0.213  48.721   8.496  1.00  0.00    -0.000 C 
BRANCH  26  27
ATOM     27  C   UNL     1      -1.121  48.078   7.428  1.00  0.00    -0.000 C 
BRANCH  27  28
ATOM     28  C   UNL     1      -0.514  46.866   6.695  1.00  0.00    -0.000 C 
BRANCH  28  29
ATOM     29  C   UNL     1      -1.021  45.495   7.180  1.00  0.00    -0.003 C 
ATOM     30  C   UNL     1      -0.660  44.354   6.230  1.00  0.00     0.004 C 
ENDBRANCH  28  29
ENDBRANCH  27  28
ENDBRANCH  26  27
ENDBRANCH  25  26
ENDBRANCH  24  25
ENDBRANCH  23  24
ENDBRANCH  22  23
ENDBRANCH  21  22
ENDBRANCH  20  21
ENDBRANCH  19  20
ENDBRANCH  18  19
ENDBRANCH  17  18
ENDBRANCH   1  17
TORSDOF 26
ENDMDL
MODEL 8
REMARK VINA RESULT:    -3.213      2.113      3.344
REMARK INTER + INTRA:         -11.619
REMARK INTER:                  -9.488
REMARK INTRA:                  -2.131
REMARK UNBOUND:                -3.523
REMARK SMILES CCCCCCCCCCCCCCCCCCCCCCCCCCCC(=O)[O-]
REMARK SMILES IDX 15 1 16 2 17 3 18 4 19 5 20 6 21 7 22 8 23 9 24 10 25 11
REMARK SMILES IDX 26 12 27 13 28 14 29 15 30 16 14 17 13 18 12 19 11 20 10 21
REMARK SMILES IDX 9 22 8 23 7 24 6 25 5 26 4 27 3 28 2 29 1 30
REMARK H PARENT
REMARK Flexibility Score: inf
ROOT
ATOM      1  C   UNL     1       3.204  45.022  11.983  1.00  0.00     0.000 C 
ENDROOT
BRANCH   1   2
ATOM      2  C   UNL     1       3.646  46.032  10.908  1.00  0.00     0.000 C 
BRANCH   2   3
ATOM      3  C   UNL     1       4.518  45.450   9.778  1.00  0.00     0.000 C 
BRANCH   3   4
ATOM      4  C   UNL     1       3.772  44.426   8.906  1.00  0.00     0.000 C 
BRANCH   4   5
ATOM      5  C   UNL     1       4.019  42.970   9.345  1.00  0.00     0.000 C 
BRANCH   5   6
ATOM      6  C   UNL     1       2.755  42.167   9.704  1.00  0.00     0.000 C 
BRANCH   6   7
ATOM      7  C   UNL     1       2.751  41.686  11.161  1.00  0.00     0.000 C 
BRANCH   7   8
ATOM      8  C   UNL     1       4.155  41.753  11.777  1.00  0.00     0.000 C 
BRANCH   8   9
ATOM      9  C   UNL     1       4.490  40.521  12.639  1.00  0.00     0.000 C 
BRANCH   9  10
ATOM     10  C   UNL     1       3.249  39.706  13.061  1.00  0.00     0.000 C 
BRANCH  10  11
ATOM     11  C   UNL     1       3.253  38.289  12.466  1.00  0.00     0.000 C 
BRANCH  11  12
ATOM     12  C   UNL     1       1.850  37.667  12.511  1.00  0.00     0.006 C 
BRANCH  12  13
ATOM     13  C   UNL     1       1.761  36.376  11.685  1.00  0.00     0.053 C 
BRANCH  13  14
ATOM     14  C   UNL     1       0.345  35.901  11.555  1.00  0.00     0.041 C 
ATOM     15  O   UNL     1      -0.526  36.273  12.384  1.00  0.00    -0.550 OA
ATOM     16  O   UNL     1       0.003  35.005  10.550  1.00  0.00    -0.550 OA
ENDBRANCH  13  14
ENDBRANCH  12  13
ENDBRANCH  11  12
ENDBRANCH  10  11
ENDBRANCH   9  10
ENDBRANCH   8   9
ENDBRANCH   7   8
ENDBRANCH   6   7
ENDBRANCH   5   6
ENDBRANCH   4   5
ENDBRANCH   3   4
ENDBRANCH   2   3
ENDBRANCH   1   2
BRANCH   1  17
ATOM     17  C   UNL     1       1.696  44.715  11.935  1.00  0.00     0.000 C 
BRANCH  17  18
ATOM     18  C   UNL     1       1.032  45.209  10.641  1.00  0.00     0.000 C 
BRANCH  18  19
ATOM     19  C   UNL     1      -0.482  45.441  10.808  1.00  0.00     0.000 C 
BRANCH  19  20
ATOM     20  C   UNL     1      -1.109  46.172   9.603  1.00  0.00     0.000 C 
BRANCH  20  21
ATOM     21  C   UNL     1      -0.449  45.831   8.251  1.00  0.00     0.000 C 
BRANCH  21  22
ATOM     22  C   UNL     1      -0.436  46.975   7.223  1.00  0.00    -0.000 C 
BRANCH  22  23
ATOM     23  C   UNL     1      -0.669  48.383   7.809  1.00  0.00    -0.000 C 
BRANCH  23  24
ATOM     24  C   UNL     1       0.634  49.172   8.077  1.00  0.00    -0.000 C 
BRANCH  24  25
ATOM     25  C   UNL     1       1.789  48.324   8.651  1.00  0.00    -0.000 C 
BRANCH  25  26
ATOM     26  C   UNL     1       2.824  47.840   7.615  1.00  0.00    -0.000 C 
BRANCH  26  27
ATOM     27  C   UNL     1       4.192  48.550   7.670  1.00  0.00    -0.000 C 
BRANCH  27  28
ATOM     28  C   UNL     1       5.059  48.207   8.897  1.00  0.00    -0.000 C 
BRANCH  28  29
ATOM     29  C   UNL     1       6.528  48.656   8.797  1.00  0.00    -0.003 C 
ATOM     30  C   UNL     1       7.490  47.713   9.519  1.00  0.00     0.004 C 
ENDBRANCH  28  29
ENDBRANCH  27  28
ENDBRANCH  26  27
ENDBRANCH  25  26
ENDBRANCH  24  25
ENDBRANCH  23  24
ENDBRANCH  22  23
ENDBRANCH  21  22
ENDBRANCH  20  21
ENDBRANCH  19  20
ENDBRANCH  18  19
ENDBRANCH  17  18
ENDBRANCH   1  17
TORSDOF 26
ENDMDL
MODEL 9
REMARK VINA RESULT:    -3.155      1.067      3.211
REMARK INTER + INTRA:         -11.472
REMARK INTER:                  -9.045
REMARK INTRA:                  -2.427
REMARK UNBOUND:                -3.523
REMARK SMILES CCCCCCCCCCCCCCCCCCCCCCCCCCCC(=O)[O-]
REMARK SMILES IDX 15 1 16 2 17 3 18 4 19 5 20 6 21 7 22 8 23 9 24 10 25 11
REMARK SMILES IDX 26 12 27 13 28 14 29 15 30 16 14 17 13 18 12 19 11 20 10 21
REMARK SMILES IDX 9 22 8 23 7 24 6 25 5 26 4 27 3 28 2 29 1 30
REMARK H PARENT
REMARK Flexibility Score: inf
ROOT
ATOM      1  C   UNL     1       4.429  44.117  11.521  1.00  0.00     0.000 C 
ENDROOT
BRANCH   1   2
ATOM      2  C   UNL     1       3.175  43.985  12.404  1.00  0.00     0.000 C 
BRANCH   2   3
ATOM      3  C   UNL     1       1.907  44.662  11.848  1.00  0.00     0.000 C 
BRANCH   3   4
ATOM      4  C   UNL     1       0.629  43.841  12.088  1.00  0.00     0.000 C 
BRANCH   4   5
ATOM      5  C   UNL     1       0.914  42.439  12.661  1.00  0.00     0.000 C 
BRANCH   5   6
ATOM      6  C   UNL     1      -0.192  41.860  13.562  1.00  0.00     0.000 C 
BRANCH   6   7
ATOM      7  C   UNL     1       0.024  40.375  13.887  1.00  0.00     0.000 C 
BRANCH   7   8
ATOM      8  C   UNL     1      -1.046  39.497  13.226  1.00  0.00     0.000 C 
BRANCH   8   9
ATOM      9  C   UNL     1      -0.487  38.155  12.715  1.00  0.00     0.000 C 
BRANCH   9  10
ATOM     10  C   UNL     1       0.984  37.908  13.113  1.00  0.00     0.000 C 
BRANCH  10  11
ATOM     11  C   UNL     1       1.800  37.282  11.971  1.00  0.00     0.000 C 
BRANCH  11  12
ATOM     12  C   UNL     1       3.271  37.716  12.039  1.00  0.00     0.006 C 
BRANCH  12  13
ATOM     13  C   UNL     1       3.505  38.808  13.091  1.00  0.00     0.053 C 
BRANCH  13  14
ATOM     14  C   UNL     1       3.969  40.089  12.464  1.00  0.00     0.041 C 
ATOM     15  O   UNL     1       3.177  40.772  11.763  1.00  0.00    -0.550 OA
ATOM     16  O   UNL     1       5.288  40.497  12.611  1.00  0.00    -0.550 OA
ENDBRANCH  13  14
ENDBRANCH  12  13
ENDBRANCH  11  12
ENDBRANCH  10  11
ENDBRANCH   9  10
ENDBRANCH   8   9
ENDBRANCH   7   8
ENDBRANCH   6   7
ENDBRANCH   5   6
ENDBRANCH   4   5
ENDBRANCH   3   4
ENDBRANCH   2   3
ENDBRANCH   1   2
BRANCH   1  17
ATOM     17  C   UNL     1       4.098  44.398  10.044  1.00  0.00     0.000 C 
BRANCH  17  18
ATOM     18  C   UNL     1       3.797  43.117   9.250  1.00  0.00     0.000 C 
BRANCH  18  19
ATOM     19  C   UNL     1       2.296  42.956   8.940  1.00  0.00     0.000 C 
BRANCH  19  20
ATOM     20  C   UNL     1       1.588  44.306   8.709  1.00  0.00     0.000 C 
BRANCH  20  21
ATOM     21  C   UNL     1       0.541  44.280   7.576  1.00  0.00     0.000 C 
BRANCH  21  22
ATOM     22  C   UNL     1      -0.354  45.527   7.483  1.00  0.00    -0.000 C 
BRANCH  22  23
ATOM     23  C   UNL     1      -0.249  46.496   8.679  1.00  0.00    -0.000 C 
BRANCH  23  24
ATOM     24  C   UNL     1      -0.070  47.977   8.269  1.00  0.00    -0.000 C 
BRANCH  24  25
ATOM     25  C   UNL     1       1.376  48.367   7.897  1.00  0.00    -0.000 C 
BRANCH  25  26
ATOM     26  C   UNL     1       2.472  47.740   8.784  1.00  0.00    -0.000 C 
BRANCH  26  27
ATOM     27  C   UNL     1       3.852  47.585   8.113  1.00  0.00    -0.000 C 
BRANCH  27  28
ATOM     28  C   UNL     1       4.974  47.070   9.035  1.00  0.00    -0.000 C 
BRANCH  28  29
ATOM     29  C   UNL     1       5.987  48.140   9.482  1.00  0.00    -0.003 C 
ATOM     30  C   UNL     1       7.438  47.676   9.360  1.00  0.00     0.004 C 
ENDBRANCH  28  29
ENDBRANCH  27  28
ENDBRANCH  26  27
ENDBRANCH  25  26
ENDBRANCH  24  25
ENDBRANCH  23  24
ENDBRANCH  22  23
ENDBRANCH  21  22
ENDBRANCH  20  21
ENDBRANCH  19  20
ENDBRANCH  18  19
ENDBRANCH  17  18
ENDBRANCH   1  17
TORSDOF 26
ENDMDL
