MODEL 1
REMARK VINA RESULT:    -3.860      0.000      0.000
REMARK INTER + INTRA:          -6.651
REMARK INTER:                  -6.117
REMARK INTRA:                  -0.534
REMARK UNBOUND:                -0.534
REMARK SMILES CCCCCCCCCCCC(=O)[O-]
REMARK SMILES IDX 7 1 8 2 9 3 10 4 11 5 12 6 13 7 14 8 6 9 5 10 4 11 3 12 2 13
REMARK SMILES IDX 1 14
REMARK H PARENT
REMARK Flexibility Score: inf
ROOT
ATOM      1  C   UNL     1      -1.556   5.313   8.871  1.00  0.00     0.000 C 
ENDROOT
BRANCH   1   2
ATOM      2  C   UNL     1      -2.822   5.257   9.746  1.00  0.00     0.000 C 
BRANCH   2   3
ATOM      3  C   UNL     1      -4.136   5.234   8.936  1.00  0.00     0.000 C 
BRANCH   3   4
ATOM      4  C   UNL     1      -4.835   3.864   8.985  1.00  0.00     0.006 C 
BRANCH   4   5
ATOM      5  C   UNL     1      -4.104   2.872   9.899  1.00  0.00     0.053 C 
BRANCH   5   6
ATOM      6  C   UNL     1      -3.432   1.789   9.112  1.00  0.00     0.041 C 
ATOM      7  O   UNL     1      -2.181   1.795   8.964  1.00  0.00    -0.550 OA
ATOM      8  O   UNL     1      -4.184   0.754   8.571  1.00  0.00    -0.550 OA
ENDBRANCH   5   6
ENDBRANCH   4   5
ENDBRANCH   3   4
ENDBRANCH   2   3
ENDBRANCH   1   2
BRANCH   1   9
ATOM      9  C   UNL     1      -0.706   6.587   9.034  1.00  0.00     0.000 C 
BRANCH   9  10
ATOM     10  C   UNL     1       0.701   6.357   9.616  1.00  0.00    -0.000 C 
BRANCH  10  11
ATOM     11  C   UNL     1       1.659   7.529   9.342  1.00  0.00    -0.000 C 
BRANCH  11  12
ATOM     12  C   UNL     1       1.206   8.397   8.158  1.00  0.00    -0.000 C 
BRANCH  12  13
ATOM     13  C   UNL     1       2.294   8.546   7.085  1.00  0.00    -0.003 C 
ATOM     14  C   UNL     1       3.591   7.868   7.517  1.00  0.00     0.004 C 
ENDBRANCH  12  13
ENDBRANCH  11  12
ENDBRANCH  10  11
ENDBRANCH   9  10
ENDBRANCH   1   9
TORSDOF 10
ENDMDL
MODEL 2
REMARK VINA RESULT:    -3.814      1.692      2.011
REMARK INTER + INTRA:          -6.577
REMARK INTER:                  -6.133
REMARK INTRA:                  -0.444
REMARK UNBOUND:                -0.534
REMARK SMILES CCCCCCCCCCCC(=O)[O-]
REMARK SMILES IDX 7 1 8 2 9 3 10 4 11 5 12 6 13 7 14 8 6 9 5 10 4 11 3 12 2 13
REMARK SMILES IDX 1 14
REMARK H PARENT
REMARK Flexibility Score: inf
ROOT
ATOM      1  C   UNL     1      -1.021   5.799   8.992  1.00  0.00     0.000 C 
ENDROOT
BRANCH   1   2
ATOM      2  C   UNL     1      -0.558   4.838  10.104  1.00  0.00     0.000 C 
BRANCH   2   3
ATOM      3  C   UNL     1      -0.825   3.351   9.790  1.00  0.00     0.000 C 
BRANCH   3   4
ATOM      4  C   UNL     1      -2.315   2.982   9.907  1.00  0.00     0.006 C 
BRANCH   4   5
ATOM      5  C   UNL     1      -2.703   1.832   8.969  1.00  0.00     0.053 C 
BRANCH   5   6
ATOM      6  C   UNL     1      -4.176   1.561   9.007  1.00  0.00     0.041 C 
ATOM      7  O   UNL     1      -4.974   2.449   9.408  1.00  0.00    -0.550 OA
ATOM      8  O   UNL     1      -4.669   0.339   8.569  1.00  0.00    -0.550 OA
ENDBRANCH   5   6
ENDBRANCH   4   5
ENDBRANCH   3   4
ENDBRANCH   2   3
ENDBRANCH   1   2
BRANCH   1   9
ATOM      9  C   UNL     1      -1.699   7.090   9.487  1.00  0.00     0.000 C 
BRANCH   9  10
ATOM     10  C   UNL     1      -0.929   8.386   9.174  1.00  0.00    -0.000 C 
BRANCH  10  11
ATOM     11  C   UNL     1      -0.012   8.254   7.946  1.00  0.00    -0.000 C 
BRANCH  11  12
ATOM     12  C   UNL     1       1.329   8.981   8.130  1.00  0.00    -0.000 C 
BRANCH  12  13
ATOM     13  C   UNL     1       2.359   8.602   7.056  1.00  0.00    -0.003 C 
ATOM     14  C   UNL     1       3.526   7.827   7.662  1.00  0.00     0.004 C 
ENDBRANCH  12  13
ENDBRANCH  11  12
ENDBRANCH  10  11
ENDBRANCH   9  10
ENDBRANCH   1   9
TORSDOF 10
ENDMDL
MODEL 3
REMARK VINA RESULT:    -3.773      1.430      1.946
REMARK INTER + INTRA:          -6.512
REMARK INTER:                  -6.012
REMARK INTRA:                  -0.500
REMARK UNBOUND:                -0.534
REMARK SMILES CCCCCCCCCCCC(=O)[O-]
REMARK SMILES IDX 7 1 8 2 9 3 10 4 11 5 12 6 13 7 14 8 6 9 5 10 4 11 3 12 2 13
REMARK SMILES IDX 1 14
REMARK H PARENT
REMARK Flexibility Score: inf
ROOT
ATOM      1  C   UNL     1      -1.274   5.598   8.990  1.00  0.00     0.000 C 
ENDROOT
BRANCH   1   2
ATOM      2  C   UNL     1      -2.092   4.387   9.478  1.00  0.00     0.000 C 
BRANCH   2   3
ATOM      3  C   UNL     1      -1.414   3.028   9.202  1.00  0.00     0.000 C 
BRANCH   3   4
ATOM      4  C   UNL     1      -2.431   1.886   9.028  1.00  0.00     0.006 C 
BRANCH   4   5
ATOM      5  C   UNL     1      -3.683   2.088   9.890  1.00  0.00     0.053 C 
BRANCH   5   6
ATOM      6  C   UNL     1      -4.881   1.418   9.290  1.00  0.00     0.041 C 
ATOM      7  O   UNL     1      -4.742   0.389   8.578  1.00  0.00    -0.550 OA
ATOM      8  O   UNL     1      -6.154   1.911   9.545  1.00  0.00    -0.550 OA
ENDBRANCH   5   6
ENDBRANCH   4   5
ENDBRANCH   3   4
ENDBRANCH   2   3
ENDBRANCH   1   2
BRANCH   1   9
ATOM      9  C   UNL     1       0.094   5.778   9.674  1.00  0.00     0.000 C 
BRANCH   9  10
ATOM     10  C   UNL     1       0.745   7.158   9.467  1.00  0.00    -0.000 C 
BRANCH  10  11
ATOM     11  C   UNL     1       0.032   7.999   8.394  1.00  0.00    -0.000 C 
BRANCH  11  12
ATOM     12  C   UNL     1       0.905   8.234   7.152  1.00  0.00    -0.000 C 
BRANCH  12  13
ATOM     13  C   UNL     1       2.402   8.291   7.485  1.00  0.00    -0.003 C 
ATOM     14  C   UNL     1       2.873   9.732   7.660  1.00  0.00     0.004 C 
ENDBRANCH  12  13
ENDBRANCH  11  12
ENDBRANCH  10  11
ENDBRANCH   9  10
ENDBRANCH   1   9
TORSDOF 10
ENDMDL
MODEL 4
REMARK VINA RESULT:    -3.767      1.314      1.914
REMARK INTER + INTRA:          -6.503
REMARK INTER:                  -5.948
REMARK INTRA:                  -0.556
REMARK UNBOUND:                -0.534
REMARK SMILES CCCCCCCCCCCC(=O)[O-]
REMARK SMILES IDX 7 1 8 2 9 3 10 4 11 5 12 6 13 7 14 8 6 9 5 10 4 11 3 12 2 13
REMARK SMILES IDX 1 14
REMARK H PARENT
REMARK Flexibility Score: inf
ROOT
ATOM      1  C   UNL     1      -0.237   6.698   9.318  1.00  0.00     0.000 C 
ENDROOT
BRANCH   1   2
ATOM      2  C   UNL     1      -1.363   5.897   9.999  1.00  0.00     0.000 C 
BRANCH   2   3
ATOM      3  C   UNL     1      -1.838   4.677   9.182  1.00  0.00     0.000 C 
BRANCH   3   4
ATOM      4  C   UNL     1      -1.534   3.342   9.886  1.00  0.00     0.006 C 
BRANCH   4   5
ATOM      5  C   UNL     1      -2.796   2.496  10.093  1.00  0.00     0.053 C 
BRANCH   5   6
ATOM      6  C   UNL     1      -3.040   1.574   8.937  1.00  0.00     0.041 C 
ATOM      7  O   UNL     1      -2.099   1.275   8.155  1.00  0.00    -0.550 OA
ATOM      8  O   UNL     1      -4.298   1.020   8.742  1.00  0.00    -0.550 OA
ENDBRANCH   5   6
ENDBRANCH   4   5
ENDBRANCH   3   4
ENDBRANCH   2   3
ENDBRANCH   1   2
BRANCH   1   9
ATOM      9  C   UNL     1      -0.114   8.165   9.773  1.00  0.00     0.000 C 
BRANCH   9  10
ATOM     10  C   UNL     1       0.383   9.139   8.689  1.00  0.00    -0.000 C 
BRANCH  10  11
ATOM     11  C   UNL     1       0.903   8.420   7.432  1.00  0.00    -0.000 C 
BRANCH  11  12
ATOM     12  C   UNL     1       2.353   8.798   7.094  1.00  0.00    -0.000 C 
BRANCH  12  13
ATOM     13  C   UNL     1       3.372   7.800   7.663  1.00  0.00    -0.003 C 
ATOM     14  C   UNL     1       4.223   8.444   8.754  1.00  0.00     0.004 C 
ENDBRANCH  12  13
ENDBRANCH  11  12
ENDBRANCH  10  11
ENDBRANCH   9  10
ENDBRANCH   1   9
TORSDOF 10
ENDMDL
MODEL 5
REMARK VINA RESULT:    -3.709      1.374      2.459
REMARK INTER + INTRA:          -6.412
REMARK INTER:                  -5.583
REMARK INTRA:                  -0.829
REMARK UNBOUND:                -0.534
REMARK SMILES CCCCCCCCCCCC(=O)[O-]
REMARK SMILES IDX 7 1 8 2 9 3 10 4 11 5 12 6 13 7 14 8 6 9 5 10 4 11 3 12 2 13
REMARK SMILES IDX 1 14
REMARK H PARENT
REMARK Flexibility Score: inf
ROOT
ATOM      1  C   UNL     1      -0.362   7.368   8.279  1.00  0.00     0.000 C 
ENDROOT
BRANCH   1   2
ATOM      2  C   UNL     1       0.415   6.518   9.301  1.00  0.00     0.000 C 
BRANCH   2   3
ATOM      3  C   UNL     1      -0.431   5.402   9.952  1.00  0.00     0.000 C 
BRANCH   3   4
ATOM      4  C   UNL     1      -1.503   4.844   8.999  1.00  0.00     0.006 C 
BRANCH   4   5
ATOM      5  C   UNL     1      -2.640   4.143   9.752  1.00  0.00     0.053 C 
BRANCH   5   6
ATOM      6  C   UNL     1      -2.579   2.655   9.584  1.00  0.00     0.041 C 
ATOM      7  O   UNL     1      -1.572   2.117   9.053  1.00  0.00    -0.550 OA
ATOM      8  O   UNL     1      -3.621   1.860  10.044  1.00  0.00    -0.550 OA
ENDBRANCH   5   6
ENDBRANCH   4   5
ENDBRANCH   3   4
ENDBRANCH   2   3
ENDBRANCH   1   2
BRANCH   1   9
ATOM      9  C   UNL     1      -0.082   8.882   8.343  1.00  0.00     0.000 C 
BRANCH   9  10
ATOM     10  C   UNL     1       0.994   9.298   9.362  1.00  0.00    -0.000 C 
BRANCH  10  11
ATOM     11  C   UNL     1       2.183  10.025   8.710  1.00  0.00    -0.000 C 
BRANCH  11  12
ATOM     12  C   UNL     1       2.657   9.342   7.419  1.00  0.00    -0.000 C 
BRANCH  12  13
ATOM     13  C   UNL     1       3.462   8.062   7.689  1.00  0.00    -0.003 C 
ATOM     14  C   UNL     1       4.610   8.328   8.658  1.00  0.00     0.004 C 
ENDBRANCH  12  13
ENDBRANCH  11  12
ENDBRANCH  10  11
ENDBRANCH   9  10
ENDBRANCH   1   9
TORSDOF 10
ENDMDL
MODEL 6
REMARK VINA RESULT:    -3.643      3.888      7.445
REMARK INTER + INTRA:          -6.307
REMARK INTER:                  -5.882
REMARK INTRA:                  -0.425
REMARK UNBOUND:                -0.534
REMARK SMILES CCCCCCCCCCCC(=O)[O-]
REMARK SMILES IDX 7 1 8 2 9 3 10 4 11 5 12 6 13 7 14 8 6 9 5 10 4 11 3 12 2 13
REMARK SMILES IDX 1 14
REMARK H PARENT
REMARK Flexibility Score: inf
ROOT
ATOM      1  C   UNL     1       0.495   6.373   9.448  1.00  0.00     0.000 C 
ENDROOT
BRANCH   1   2
ATOM      2  C   UNL     1      -0.633   7.326   9.008  1.00  0.00     0.000 C 
BRANCH   2   3
ATOM      3  C   UNL     1      -0.129   8.592   8.285  1.00  0.00     0.000 C 
BRANCH   3   4
ATOM      4  C   UNL     1       1.012   8.293   7.296  1.00  0.00     0.006 C 
BRANCH   4   5
ATOM      5  C   UNL     1       2.275   9.108   7.603  1.00  0.00     0.053 C 
BRANCH   5   6
ATOM      6  C   UNL     1       3.449   8.222   7.888  1.00  0.00     0.041 C 
ATOM      7  O   UNL     1       3.904   7.464   6.991  1.00  0.00    -0.550 OA
ATOM      8  O   UNL     1       4.061   8.258   9.134  1.00  0.00    -0.550 OA
ENDBRANCH   5   6
ENDBRANCH   4   5
ENDBRANCH   3   4
ENDBRANCH   2   3
ENDBRANCH   1   2
BRANCH   1   9
ATOM      9  C   UNL     1       0.022   5.032  10.041  1.00  0.00     0.000 C 
BRANCH   9  10
ATOM     10  C   UNL     1      -1.308   4.506   9.472  1.00  0.00    -0.000 C 
BRANCH  10  11
ATOM     11  C   UNL     1      -1.467   2.985   9.635  1.00  0.00    -0.000 C 
BRANCH  11  12
ATOM     12  C   UNL     1      -2.915   2.574   9.946  1.00  0.00    -0.000 C 
BRANCH  12  13
ATOM     13  C   UNL     1      -3.466   1.552   8.940  1.00  0.00    -0.003 C 
ATOM     14  C   UNL     1      -4.643   0.780   9.530  1.00  0.00     0.004 C 
ENDBRANCH  12  13
ENDBRANCH  11  12
ENDBRANCH  10  11
ENDBRANCH   9  10
ENDBRANCH   1   9
TORSDOF 10
ENDMDL
MODEL 7
REMARK VINA RESULT:    -3.561      3.607      7.141
REMARK INTER + INTRA:          -6.177
REMARK INTER:                  -5.512
REMARK INTRA:                  -0.665
REMARK UNBOUND:                -0.534
REMARK SMILES CCCCCCCCCCCC(=O)[O-]
REMARK SMILES IDX 7 1 8 2 9 3 10 4 11 5 12 6 13 7 14 8 6 9 5 10 4 11 3 12 2 13
REMARK SMILES IDX 1 14
REMARK H PARENT
REMARK Flexibility Score: inf
ROOT
ATOM      1  C   UNL     1      -2.403   5.509   9.900  1.00  0.00     0.000 C 
ENDROOT
BRANCH   1   2
ATOM      2  C   UNL     1      -1.201   5.799   8.980  1.00  0.00     0.000 C 
BRANCH   2   3
ATOM      3  C   UNL     1      -0.438   7.090   9.344  1.00  0.00     0.000 C 
BRANCH   3   4
ATOM      4  C   UNL     1      -0.007   7.889   8.101  1.00  0.00     0.006 C 
BRANCH   4   5
ATOM      5  C   UNL     1       1.348   8.581   8.298  1.00  0.00     0.053 C 
BRANCH   5   6
ATOM      6  C   UNL     1       2.278   8.310   7.155  1.00  0.00     0.041 C 
ATOM      7  O   UNL     1       1.878   8.439   5.967  1.00  0.00    -0.550 OA
ATOM      8  O   UNL     1       3.595   7.946   7.401  1.00  0.00    -0.550 OA
ENDBRANCH   5   6
ENDBRANCH   4   5
ENDBRANCH   3   4
ENDBRANCH   2   3
ENDBRANCH   1   2
BRANCH   1   9
ATOM      9  C   UNL     1      -3.768   5.964   9.351  1.00  0.00     0.000 C 
BRANCH   9  10
ATOM     10  C   UNL     1      -4.581   4.864   8.645  1.00  0.00    -0.000 C 
BRANCH  10  11
ATOM     11  C   UNL     1      -5.148   3.820   9.622  1.00  0.00    -0.000 C 
BRANCH  11  12
ATOM     12  C   UNL     1      -4.661   2.396   9.310  1.00  0.00    -0.000 C 
BRANCH  12  13
ATOM     13  C   UNL     1      -3.278   2.101   9.908  1.00  0.00    -0.003 C 
ATOM     14  C   UNL     1      -2.225   1.953   8.813  1.00  0.00     0.004 C 
ENDBRANCH  12  13
ENDBRANCH  11  12
ENDBRANCH  10  11
ENDBRANCH   9  10
ENDBRANCH   1   9
TORSDOF 10
ENDMDL
MODEL 8
REMARK VINA RESULT:    -3.437      3.428      6.736
REMARK INTER + INTRA:          -5.981
REMARK INTER:                  -5.071
REMARK INTRA:                  -0.909
REMARK UNBOUND:                -0.534
REMARK SMILES CCCCCCCCCCCC(=O)[O-]
REMARK SMILES IDX 7 1 8 2 9 3 10 4 11 5 12 6 13 7 14 8 6 9 5 10 4 11 3 12 2 13
REMARK SMILES IDX 1 14
REMARK H PARENT
REMARK Flexibility Score: inf
ROOT
ATOM      1  C   UNL     1      -1.084   3.401   9.440  1.00  0.00     0.000 C 
ENDROOT
BRANCH   1   2
ATOM      2  C   UNL     1      -0.854   4.859   9.878  1.00  0.00     0.000 C 
BRANCH   2   3
ATOM      3  C   UNL     1      -1.050   5.887   8.744  1.00  0.00     0.000 C 
BRANCH   3   4
ATOM      4  C   UNL     1      -0.525   7.284   9.117  1.00  0.00     0.006 C 
BRANCH   4   5
ATOM      5  C   UNL     1      -0.044   8.070   7.890  1.00  0.00     0.053 C 
BRANCH   5   6
ATOM      6  C   UNL     1       1.449   8.056   7.775  1.00  0.00     0.041 C 
ATOM      7  O   UNL     1       2.004   8.341   6.681  1.00  0.00    -0.550 OA
ATOM      8  O   UNL     1       2.230   7.759   8.885  1.00  0.00    -0.550 OA
ENDBRANCH   5   6
ENDBRANCH   4   5
ENDBRANCH   3   4
ENDBRANCH   2   3
ENDBRANCH   1   2
BRANCH   1   9
ATOM      9  C   UNL     1      -2.293   2.706  10.095  1.00  0.00     0.000 C 
BRANCH   9  10
ATOM     10  C   UNL     1      -3.358   2.193   9.109  1.00  0.00    -0.000 C 
BRANCH  10  11
ATOM     11  C   UNL     1      -4.782   2.638   9.483  1.00  0.00    -0.000 C 
BRANCH  11  12
ATOM     12  C   UNL     1      -4.855   4.125   9.864  1.00  0.00    -0.000 C 
BRANCH  12  13
ATOM     13  C   UNL     1      -4.734   5.053   8.646  1.00  0.00    -0.003 C 
ATOM     14  C   UNL     1      -5.013   6.503   9.030  1.00  0.00     0.004 C 
ENDBRANCH  12  13
ENDBRANCH  11  12
ENDBRANCH  10  11
ENDBRANCH   9  10
ENDBRANCH   1   9
TORSDOF 10
ENDMDL
