MODEL 1
REMARK VINA RESULT:    13.201      0.000      0.000
REMARK INTER + INTRA:          20.235
REMARK INTER:                  20.918
REMARK INTRA:                  -0.683
REMARK UNBOUND:                -0.683
REMARK SMILES CCCCCCCCCCCC(=O)[O-]
REMARK SMILES IDX 7 1 8 2 9 3 10 4 11 5 12 6 13 7 14 8 6 9 5 10 4 11 3 12 2 13
REMARK SMILES IDX 1 14
REMARK H PARENT
REMARK Flexibility Score: inf
ROOT
ATOM      1  C   UNL     1       4.365 -17.785  12.829  1.00  0.00     0.000 C 
ENDROOT
BRANCH   1   2
ATOM      2  C   UNL     1       4.988 -17.045  14.027  1.00  0.00     0.000 C 
BRANCH   2   3
ATOM      3  C   UNL     1       4.815 -17.741  15.393  1.00  0.00     0.000 C 
BRANCH   3   4
ATOM      4  C   UNL     1       5.125 -16.862  16.617  1.00  0.00     0.006 C 
BRANCH   4   5
ATOM      5  C   UNL     1       4.652 -17.488  17.936  1.00  0.00     0.053 C 
BRANCH   5   6
ATOM      6  C   UNL     1       3.993 -16.458  18.796  1.00  0.00     0.041 C 
ATOM      7  O   UNL     1       4.468 -15.294  18.867  1.00  0.00    -0.550 OA
ATOM      8  O   UNL     1       2.881 -16.795  19.558  1.00  0.00    -0.550 OA
ENDBRANCH   5   6
ENDBRANCH   4   5
ENDBRANCH   3   4
ENDBRANCH   2   3
ENDBRANCH   1   2
BRANCH   1   9
ATOM      9  C   UNL     1       5.118 -19.077  12.469  1.00  0.00     0.000 C 
BRANCH   9  10
ATOM     10  C   UNL     1       4.170 -20.237  12.125  1.00  0.00    -0.000 C 
BRANCH  10  11
ATOM     11  C   UNL     1       2.832 -20.158  12.882  1.00  0.00    -0.000 C 
BRANCH  11  12
ATOM     12  C   UNL     1       1.691 -20.870  12.124  1.00  0.00    -0.000 C 
BRANCH  12  13
ATOM     13  C   UNL     1       0.857 -19.926  11.242  1.00  0.00    -0.003 C 
ATOM     14  C   UNL     1       0.876 -18.478  11.729  1.00  0.00     0.004 C 
ENDBRANCH  12  13
ENDBRANCH  11  12
ENDBRANCH  10  11
ENDBRANCH   9  10
ENDBRANCH   1   9
TORSDOF 10
ENDMDL
MODEL 2
REMARK VINA RESULT:    13.744      1.340      2.311
REMARK INTER + INTRA:          21.096
REMARK INTER:                  21.347
REMARK INTRA:                  -0.251
REMARK UNBOUND:                -0.683
REMARK SMILES CCCCCCCCCCCC(=O)[O-]
REMARK SMILES IDX 7 1 8 2 9 3 10 4 11 5 12 6 13 7 14 8 6 9 5 10 4 11 3 12 2 13
REMARK SMILES IDX 1 14
REMARK H PARENT
REMARK Flexibility Score: inf
ROOT
ATOM      1  C   UNL     1       4.748 -17.470  12.837  1.00  0.00     0.000 C 
ENDROOT
BRANCH   1   2
ATOM      2  C   UNL     1       4.996 -16.917  14.252  1.00  0.00     0.000 C 
BRANCH   2   3
ATOM      3  C   UNL     1       4.685 -17.893  15.405  1.00  0.00     0.000 C 
BRANCH   3   4
ATOM      4  C   UNL     1       4.960 -17.345  16.817  1.00  0.00     0.006 C 
BRANCH   4   5
ATOM      5  C   UNL     1       4.058 -16.159  17.181  1.00  0.00     0.053 C 
BRANCH   5   6
ATOM      6  C   UNL     1       4.049 -15.946  18.662  1.00  0.00     0.041 C 
ATOM      7  O   UNL     1       4.728 -15.018  19.173  1.00  0.00    -0.550 OA
ATOM      8  O   UNL     1       3.327 -16.804  19.484  1.00  0.00    -0.550 OA
ENDBRANCH   5   6
ENDBRANCH   4   5
ENDBRANCH   3   4
ENDBRANCH   2   3
ENDBRANCH   1   2
BRANCH   1   9
ATOM      9  C   UNL     1       4.380 -18.965  12.836  1.00  0.00     0.000 C 
BRANCH   9  10
ATOM     10  C   UNL     1       2.947 -19.220  12.342  1.00  0.00    -0.000 C 
BRANCH  10  11
ATOM     11  C   UNL     1       2.851 -20.423  11.387  1.00  0.00    -0.000 C 
BRANCH  11  12
ATOM     12  C   UNL     1       3.774 -21.583  11.817  1.00  0.00    -0.000 C 
BRANCH  12  13
ATOM     13  C   UNL     1       5.099 -21.636  11.037  1.00  0.00    -0.003 C 
ATOM     14  C   UNL     1       5.125 -22.734   9.976  1.00  0.00     0.004 C 
ENDBRANCH  12  13
ENDBRANCH  11  12
ENDBRANCH  10  11
ENDBRANCH   9  10
ENDBRANCH   1   9
TORSDOF 10
ENDMDL
MODEL 3
REMARK VINA RESULT:    13.968     13.635     15.469
REMARK INTER + INTRA:          21.451
REMARK INTER:                  21.876
REMARK INTRA:                  -0.425
REMARK UNBOUND:                -0.683
REMARK SMILES CCCCCCCCCCCC(=O)[O-]
REMARK SMILES IDX 7 1 8 2 9 3 10 4 11 5 12 6 13 7 14 8 6 9 5 10 4 11 3 12 2 13
REMARK SMILES IDX 1 14
REMARK H PARENT
REMARK Flexibility Score: inf
ROOT
ATOM      1  C   UNL     1      -6.379 -12.853  25.458  1.00  0.00     0.000 C 
ENDROOT
BRANCH   1   2
ATOM      2  C   UNL     1      -5.447 -14.031  25.120  1.00  0.00     0.000 C 
BRANCH   2   3
ATOM      3  C   UNL     1      -5.055 -14.926  26.314  1.00  0.00     0.000 C 
BRANCH   3   4
ATOM      4  C   UNL     1      -4.408 -16.270  25.937  1.00  0.00     0.006 C 
BRANCH   4   5
ATOM      5  C   UNL     1      -5.421 -17.421  25.875  1.00  0.00     0.053 C 
BRANCH   5   6
ATOM      6  C   UNL     1      -5.305 -18.148  24.573  1.00  0.00     0.041 C 
ATOM      7  O   UNL     1      -5.809 -19.294  24.440  1.00  0.00    -0.550 OA
ATOM      8  O   UNL     1      -4.600 -17.580  23.519  1.00  0.00    -0.550 OA
ENDBRANCH   5   6
ENDBRANCH   4   5
ENDBRANCH   3   4
ENDBRANCH   2   3
ENDBRANCH   1   2
BRANCH   1   9
ATOM      9  C   UNL     1      -6.738 -12.004  24.226  1.00  0.00     0.000 C 
BRANCH   9  10
ATOM     10  C   UNL     1      -5.628 -11.008  23.852  1.00  0.00    -0.000 C 
BRANCH  10  11
ATOM     11  C   UNL     1      -5.796  -9.642  24.540  1.00  0.00    -0.000 C 
BRANCH  11  12
ATOM     12  C   UNL     1      -4.484  -9.153  25.190  1.00  0.00    -0.000 C 
BRANCH  12  13
ATOM     13  C   UNL     1      -3.538  -8.442  24.208  1.00  0.00    -0.003 C 
ATOM     14  C   UNL     1      -2.079  -8.862  24.371  1.00  0.00     0.004 C 
ENDBRANCH  12  13
ENDBRANCH  11  12
ENDBRANCH  10  11
ENDBRANCH   9  10
ENDBRANCH   1   9
TORSDOF 10
ENDMDL
MODEL 4
REMARK VINA RESULT:    14.664     14.188     16.004
REMARK INTER + INTRA:          22.555
REMARK INTER:                  22.340
REMARK INTRA:                   0.215
REMARK UNBOUND:                -0.683
REMARK SMILES CCCCCCCCCCCC(=O)[O-]
REMARK SMILES IDX 7 1 8 2 9 3 10 4 11 5 12 6 13 7 14 8 6 9 5 10 4 11 3 12 2 13
REMARK SMILES IDX 1 14
REMARK H PARENT
REMARK Flexibility Score: inf
ROOT
ATOM      1  C   UNL     1      -3.156  -7.677  23.473  1.00  0.00     0.000 C 
ENDROOT
BRANCH   1   2
ATOM      2  C   UNL     1      -3.608  -8.735  24.497  1.00  0.00     0.000 C 
BRANCH   2   3
ATOM      3  C   UNL     1      -5.066  -8.602  24.981  1.00  0.00     0.000 C 
BRANCH   3   4
ATOM      4  C   UNL     1      -5.843  -9.927  25.085  1.00  0.00     0.006 C 
BRANCH   4   5
ATOM      5  C   UNL     1      -5.802 -10.744  23.787  1.00  0.00     0.053 C 
BRANCH   5   6
ATOM      6  C   UNL     1      -6.564 -12.021  23.951  1.00  0.00     0.041 C 
ATOM      7  O   UNL     1      -7.140 -12.546  22.962  1.00  0.00    -0.550 OA
ATOM      8  O   UNL     1      -6.678 -12.608  25.205  1.00  0.00    -0.550 OA
ENDBRANCH   5   6
ENDBRANCH   4   5
ENDBRANCH   3   4
ENDBRANCH   2   3
ENDBRANCH   1   2
BRANCH   1   9
ATOM      9  C   UNL     1      -1.713  -7.898  22.986  1.00  0.00     0.000 C 
BRANCH   9  10
ATOM     10  C   UNL     1      -1.088  -9.182  23.555  1.00  0.00    -0.000 C 
BRANCH  10  11
ATOM     11  C   UNL     1      -0.919  -9.137  25.084  1.00  0.00    -0.000 C 
BRANCH  11  12
ATOM     12  C   UNL     1      -0.032  -7.958  25.537  1.00  0.00    -0.000 C 
BRANCH  12  13
ATOM     13  C   UNL     1       0.552  -8.135  26.949  1.00  0.00    -0.003 C 
ATOM     14  C   UNL     1       1.304  -9.453  27.125  1.00  0.00     0.004 C 
ENDBRANCH  12  13
ENDBRANCH  11  12
ENDBRANCH  10  11
ENDBRANCH   9  10
ENDBRANCH   1   9
TORSDOF 10
ENDMDL
MODEL 5
REMARK VINA RESULT:    14.786     14.538     15.291
REMARK INTER + INTRA:          22.747
REMARK INTER:                  23.161
REMARK INTRA:                  -0.414
REMARK UNBOUND:                -0.683
REMARK SMILES CCCCCCCCCCCC(=O)[O-]
REMARK SMILES IDX 7 1 8 2 9 3 10 4 11 5 12 6 13 7 14 8 6 9 5 10 4 11 3 12 2 13
REMARK SMILES IDX 1 14
REMARK H PARENT
REMARK Flexibility Score: inf
ROOT
ATOM      1  C   UNL     1      -5.039  -9.128  24.328  1.00  0.00     0.000 C 
ENDROOT
BRANCH   1   2
ATOM      2  C   UNL     1      -3.607  -8.889  24.842  1.00  0.00     0.000 C 
BRANCH   2   3
ATOM      3  C   UNL     1      -2.569  -8.529  23.760  1.00  0.00     0.000 C 
BRANCH   3   4
ATOM      4  C   UNL     1      -1.120  -8.406  24.260  1.00  0.00     0.006 C 
BRANCH   4   5
ATOM      5  C   UNL     1      -0.889  -9.121  25.598  1.00  0.00     0.053 C 
BRANCH   5   6
ATOM      6  C   UNL     1       0.297  -8.542  26.301  1.00  0.00     0.041 C 
ATOM      7  O   UNL     1       0.972  -9.250  27.094  1.00  0.00    -0.550 OA
ATOM      8  O   UNL     1       0.632  -7.206  26.118  1.00  0.00    -0.550 OA
ENDBRANCH   5   6
ENDBRANCH   4   5
ENDBRANCH   3   4
ENDBRANCH   2   3
ENDBRANCH   1   2
BRANCH   1   9
ATOM      9  C   UNL     1      -5.762 -10.257  25.082  1.00  0.00     0.000 C 
BRANCH   9  10
ATOM     10  C   UNL     1      -6.541 -11.191  24.141  1.00  0.00    -0.000 C 
BRANCH  10  11
ATOM     11  C   UNL     1      -6.021 -12.639  24.173  1.00  0.00    -0.000 C 
BRANCH  11  12
ATOM     12  C   UNL     1      -6.212 -13.296  25.557  1.00  0.00    -0.000 C 
BRANCH  12  13
ATOM     13  C   UNL     1      -4.959 -14.022  26.072  1.00  0.00    -0.003 C 
ATOM     14  C   UNL     1      -5.053 -15.542  25.948  1.00  0.00     0.004 C 
ENDBRANCH  12  13
ENDBRANCH  11  12
ENDBRANCH  10  11
ENDBRANCH   9  10
ENDBRANCH   1   9
TORSDOF 10
ENDMDL
MODEL 6
REMARK VINA RESULT:    14.974     13.285     14.338
REMARK INTER + INTRA:          23.046
REMARK INTER:                  23.423
REMARK INTRA:                  -0.377
REMARK UNBOUND:                -0.683
REMARK SMILES CCCCCCCCCCCC(=O)[O-]
REMARK SMILES IDX 7 1 8 2 9 3 10 4 11 5 12 6 13 7 14 8 6 9 5 10 4 11 3 12 2 13
REMARK SMILES IDX 1 14
REMARK H PARENT
REMARK Flexibility Score: inf
ROOT
ATOM      1  C   UNL     1      -6.409 -12.465  24.782  1.00  0.00     0.000 C 
ENDROOT
BRANCH   1   2
ATOM      2  C   UNL     1      -5.736 -13.848  24.845  1.00  0.00     0.000 C 
BRANCH   2   3
ATOM      3  C   UNL     1      -5.229 -14.272  26.238  1.00  0.00     0.000 C 
BRANCH   3   4
ATOM      4  C   UNL     1      -5.050 -15.788  26.434  1.00  0.00     0.006 C 
BRANCH   4   5
ATOM      5  C   UNL     1      -4.307 -16.455  25.269  1.00  0.00     0.053 C 
BRANCH   5   6
ATOM      6  C   UNL     1      -5.031 -17.686  24.826  1.00  0.00     0.041 C 
ATOM      7  O   UNL     1      -5.519 -18.476  25.677  1.00  0.00    -0.550 OA
ATOM      8  O   UNL     1      -5.127 -17.989  23.473  1.00  0.00    -0.550 OA
ENDBRANCH   5   6
ENDBRANCH   4   5
ENDBRANCH   3   4
ENDBRANCH   2   3
ENDBRANCH   1   2
BRANCH   1   9
ATOM      9  C   UNL     1      -6.783 -12.048  23.349  1.00  0.00     0.000 C 
BRANCH   9  10
ATOM     10  C   UNL     1      -7.288 -13.228  22.504  1.00  0.00    -0.000 C 
BRANCH  10  11
ATOM     11  C   UNL     1      -8.373 -12.817  21.493  1.00  0.00    -0.000 C 
BRANCH  11  12
ATOM     12  C   UNL     1      -8.754 -13.975  20.545  1.00  0.00    -0.000 C 
BRANCH  12  13
ATOM     13  C   UNL     1      -8.503 -13.663  19.061  1.00  0.00    -0.003 C 
ATOM     14  C   UNL     1      -9.263 -14.592  18.116  1.00  0.00     0.004 C 
ENDBRANCH  12  13
ENDBRANCH  11  12
ENDBRANCH  10  11
ENDBRANCH   9  10
ENDBRANCH   1   9
TORSDOF 10
ENDMDL
MODEL 7
REMARK VINA RESULT:    15.096     12.992     15.195
REMARK INTER + INTRA:          23.239
REMARK INTER:                  23.834
REMARK INTRA:                  -0.595
REMARK UNBOUND:                -0.683
REMARK SMILES CCCCCCCCCCCC(=O)[O-]
REMARK SMILES IDX 7 1 8 2 9 3 10 4 11 5 12 6 13 7 14 8 6 9 5 10 4 11 3 12 2 13
REMARK SMILES IDX 1 14
REMARK H PARENT
REMARK Flexibility Score: inf
ROOT
ATOM      1  C   UNL     1      -2.484  -9.142  24.634  1.00  0.00     0.000 C 
ENDROOT
BRANCH   1   2
ATOM      2  C   UNL     1      -3.887  -8.510  24.589  1.00  0.00     0.000 C 
BRANCH   2   3
ATOM      3  C   UNL     1      -4.933  -9.159  25.518  1.00  0.00     0.000 C 
BRANCH   3   4
ATOM      4  C   UNL     1      -6.130  -9.807  24.801  1.00  0.00     0.006 C 
BRANCH   4   5
ATOM      5  C   UNL     1      -5.708 -10.871  23.779  1.00  0.00     0.053 C 
BRANCH   5   6
ATOM      6  C   UNL     1      -6.532 -12.108  23.944  1.00  0.00     0.041 C 
ATOM      7  O   UNL     1      -7.219 -12.545  22.982  1.00  0.00    -0.550 OA
ATOM      8  O   UNL     1      -6.581 -12.754  25.173  1.00  0.00    -0.550 OA
ENDBRANCH   5   6
ENDBRANCH   4   5
ENDBRANCH   3   4
ENDBRANCH   2   3
ENDBRANCH   1   2
BRANCH   1   9
ATOM      9  C   UNL     1      -1.548  -8.595  23.542  1.00  0.00     0.000 C 
BRANCH   9  10
ATOM     10  C   UNL     1      -2.088  -7.312  22.890  1.00  0.00    -0.000 C 
BRANCH  10  11
ATOM     11  C   UNL     1      -2.026  -7.352  21.353  1.00  0.00    -0.000 C 
BRANCH  11  12
ATOM     12  C   UNL     1      -3.381  -6.990  20.706  1.00  0.00    -0.000 C 
BRANCH  12  13
ATOM     13  C   UNL     1      -3.437  -7.277  19.196  1.00  0.00    -0.003 C 
ATOM     14  C   UNL     1      -2.589  -8.477  18.782  1.00  0.00     0.004 C 
ENDBRANCH  12  13
ENDBRANCH  11  12
ENDBRANCH  10  11
ENDBRANCH   9  10
ENDBRANCH   1   9
TORSDOF 10
ENDMDL
MODEL 8
REMARK VINA RESULT:    15.167      3.265      6.570
REMARK INTER + INTRA:          23.351
REMARK INTER:                  23.734
REMARK INTRA:                  -0.383
REMARK UNBOUND:                -0.683
REMARK SMILES CCCCCCCCCCCC(=O)[O-]
REMARK SMILES IDX 7 1 8 2 9 3 10 4 11 5 12 6 13 7 14 8 6 9 5 10 4 11 3 12 2 13
REMARK SMILES IDX 1 14
REMARK H PARENT
REMARK Flexibility Score: inf
ROOT
ATOM      1  C   UNL     1       4.200 -17.362  14.299  1.00  0.00     0.000 C 
ENDROOT
BRANCH   1   2
ATOM      2  C   UNL     1       5.047 -17.355  13.013  1.00  0.00     0.000 C 
BRANCH   2   3
ATOM      3  C   UNL     1       4.798 -18.536  12.052  1.00  0.00     0.000 C 
BRANCH   3   4
ATOM      4  C   UNL     1       4.296 -19.827  12.721  1.00  0.00     0.006 C 
BRANCH   4   5
ATOM      5  C   UNL     1       3.279 -20.587  11.860  1.00  0.00     0.053 C 
BRANCH   5   6
ATOM      6  C   UNL     1       1.921 -19.974  11.993  1.00  0.00     0.041 C 
ATOM      7  O   UNL     1       0.897 -20.705  12.040  1.00  0.00    -0.550 OA
ATOM      8  O   UNL     1       1.781 -18.592  12.018  1.00  0.00    -0.550 OA
ENDBRANCH   5   6
ENDBRANCH   4   5
ENDBRANCH   3   4
ENDBRANCH   2   3
ENDBRANCH   1   2
BRANCH   1   9
ATOM      9  C   UNL     1       5.031 -17.078  15.562  1.00  0.00     0.000 C 
BRANCH   9  10
ATOM     10  C   UNL     1       4.777 -18.104  16.679  1.00  0.00    -0.000 C 
BRANCH  10  11
ATOM     11  C   UNL     1       5.125 -17.563  18.077  1.00  0.00    -0.000 C 
BRANCH  11  12
ATOM     12  C   UNL     1       3.880 -17.037  18.823  1.00  0.00    -0.000 C 
BRANCH  12  13
ATOM     13  C   UNL     1       3.563 -15.561  18.526  1.00  0.00    -0.003 C 
ATOM     14  C   UNL     1       4.699 -14.615  18.911  1.00  0.00     0.004 C 
ENDBRANCH  12  13
ENDBRANCH  11  12
ENDBRANCH  10  11
ENDBRANCH   9  10
ENDBRANCH   1   9
TORSDOF 10
ENDMDL
MODEL 9
REMARK VINA RESULT:    15.266     13.571     14.928
REMARK INTER + INTRA:          23.508
REMARK INTER:                  23.878
REMARK INTRA:                  -0.369
REMARK UNBOUND:                -0.683
REMARK SMILES CCCCCCCCCCCC(=O)[O-]
REMARK SMILES IDX 7 1 8 2 9 3 10 4 11 5 12 6 13 7 14 8 6 9 5 10 4 11 3 12 2 13
REMARK SMILES IDX 1 14
REMARK H PARENT
REMARK Flexibility Score: inf
ROOT
ATOM      1  C   UNL     1      -6.230 -11.844  24.256  1.00  0.00     0.000 C 
ENDROOT
BRANCH   1   2
ATOM      2  C   UNL     1      -6.092 -10.451  24.897  1.00  0.00     0.000 C 
BRANCH   2   3
ATOM      3  C   UNL     1      -5.191  -9.460  24.132  1.00  0.00     0.000 C 
BRANCH   3   4
ATOM      4  C   UNL     1      -4.031  -8.866  24.950  1.00  0.00     0.006 C 
BRANCH   4   5
ATOM      5  C   UNL     1      -2.850  -8.426  24.075  1.00  0.00     0.053 C 
BRANCH   5   6
ATOM      6  C   UNL     1      -1.636  -9.240  24.390  1.00  0.00     0.041 C 
ATOM      7  O   UNL     1      -0.882  -8.912  25.344  1.00  0.00    -0.550 OA
ATOM      8  O   UNL     1      -1.308 -10.335  23.600  1.00  0.00    -0.550 OA
ENDBRANCH   5   6
ENDBRANCH   4   5
ENDBRANCH   3   4
ENDBRANCH   2   3
ENDBRANCH   1   2
BRANCH   1   9
ATOM      9  C   UNL     1      -6.414 -12.964  25.295  1.00  0.00     0.000 C 
BRANCH   9  10
ATOM     10  C   UNL     1      -5.400 -14.105  25.120  1.00  0.00    -0.000 C 
BRANCH  10  11
ATOM     11  C   UNL     1      -4.983 -14.744  26.456  1.00  0.00    -0.000 C 
BRANCH  11  12
ATOM     12  C   UNL     1      -5.041 -16.286  26.407  1.00  0.00    -0.000 C 
BRANCH  12  13
ATOM     13  C   UNL     1      -4.700 -16.870  25.026  1.00  0.00    -0.003 C 
ATOM     14  C   UNL     1      -5.439 -18.173  24.727  1.00  0.00     0.004 C 
ENDBRANCH  12  13
ENDBRANCH  11  12
ENDBRANCH  10  11
ENDBRANCH   9  10
ENDBRANCH   1   9
TORSDOF 10
ENDMDL
