MODEL 1
REMARK VINA RESULT:    -5.900      0.000      0.000
REMARK INTER + INTRA:          -8.937
REMARK INTER:                  -7.798
REMARK INTRA:                  -1.140
REMARK UNBOUND:                -1.140
REMARK SMILES CC[C@H](C=C[C@H](C)[C@H]1CC[C@@H]2C3=CC[C@H]4C[C@@H](O)CC[C@@]4(C)[C@@H]3CC[C@@]21C)C(C)C
REMARK SMILES IDX 6 1 7 2 5 3 4 4 3 5 2 6 1 7 28 8 29 9 30 10 8 11 9 12 26 13
REMARK SMILES IDX 10 14 11 15 25 16 27 17 12 18 24 19 23 20 13 21 21 22 14 23
REMARK SMILES IDX 15 24 20 25 22 26 16 27 19 28 17 29 18 30
REMARK H PARENT 18 31
REMARK Flexibility Score: inf
ROOT
ATOM      1  C   UNL     1       9.795  -5.500  -1.384  1.00  0.00     0.012 C 
ATOM      2  C   UNL     1      10.050  -7.016  -1.350  1.00  0.00     0.012 C 
ENDROOT
BRANCH   1   3
ATOM      3  C   UNL     1       9.834  -5.029  -2.825  1.00  0.00    -0.028 C 
ATOM      4  C   UNL     1       8.724  -4.644  -3.478  1.00  0.00    -0.027 C 
BRANCH   4   5
ATOM      5  C   UNL     1       8.696  -4.195  -4.932  1.00  0.00     0.014 C 
BRANCH   5   6
ATOM      6  C   UNL     1       9.905  -3.320  -5.374  1.00  0.00     0.004 C 
ATOM      7  C   UNL     1       9.581  -2.050  -6.169  1.00  0.00     0.004 C 
ENDBRANCH   5   6
BRANCH   5   8
ATOM      8  C   UNL     1       8.267  -5.292  -5.962  1.00  0.00    -0.011 C 
ATOM      9  C   UNL     1       8.000  -6.685  -5.373  1.00  0.00     0.008 C 
ATOM     10  C   UNL     1       7.061  -4.839  -6.802  1.00  0.00     0.008 C 
ENDBRANCH   5   8
ENDBRANCH   4   5
ENDBRANCH   1   3
BRANCH   1  11
ATOM     11  C   UNL     1       8.459  -5.024  -0.698  1.00  0.00     0.002 C 
ATOM     12  C   UNL     1       7.623  -6.198  -0.172  1.00  0.00     0.005 C 
ATOM     13  C   UNL     1       8.567  -4.034   0.516  1.00  0.00    -0.023 C 
ATOM     14  C   UNL     1       7.798  -6.224   1.342  1.00  0.00     0.009 C 
ATOM     15  C   UNL     1       8.594  -4.967   1.762  1.00  0.00     0.021 C 
ATOM     16  C   UNL     1       7.275  -3.155   0.568  1.00  0.00     0.008 C 
ATOM     17  C   UNL     1       9.804  -3.102   0.383  1.00  0.00     0.012 C 
ATOM     18  C   UNL     1       8.043  -4.335   3.045  1.00  0.00    -0.067 C 
ATOM     19  C   UNL     1       7.039  -2.376   1.890  1.00  0.00     0.009 C 
ATOM     20  C   UNL     1       7.905  -2.824   3.101  1.00  0.00     0.021 C 
ATOM     21  C   UNL     1       7.661  -5.127   4.065  1.00  0.00    -0.027 C 
ATOM     22  C   UNL     1       7.477  -2.222   4.510  1.00  0.00    -0.023 C 
ATOM     23  C   UNL     1       7.071  -4.623   5.343  1.00  0.00     0.031 C 
ATOM     24  C   UNL     1       6.505  -3.189   5.245  1.00  0.00     0.002 C 
ATOM     25  C   UNL     1       8.744  -2.029   5.402  1.00  0.00     0.010 C 
ATOM     26  C   UNL     1       6.807  -0.825   4.308  1.00  0.00     0.012 C 
ATOM     27  C   UNL     1       6.126  -2.672   6.659  1.00  0.00     0.036 C 
ATOM     28  C   UNL     1       8.433  -1.516   6.822  1.00  0.00     0.032 C 
ATOM     29  C   UNL     1       7.336  -2.318   7.557  1.00  0.00     0.114 C 
BRANCH  29  30
ATOM     30  O   UNL     1       7.877  -3.483   8.125  1.00  0.00    -0.393 OA
ATOM     31  H   UNL     1       8.842  -3.310   8.284  1.00  0.00     0.210 HD
ENDBRANCH  29  30
ENDBRANCH   1  11
TORSDOF 6
ENDMDL
MODEL 2
REMARK VINA RESULT:    -5.863      8.015     12.329
REMARK INTER + INTRA:          -8.887
REMARK INTER:                  -7.900
REMARK INTRA:                  -0.987
REMARK UNBOUND:                -1.140
REMARK SMILES CC[C@H](C=C[C@H](C)[C@H]1CC[C@@H]2C3=CC[C@H]4C[C@@H](O)CC[C@@]4(C)[C@@H]3CC[C@@]21C)C(C)C
REMARK SMILES IDX 6 1 7 2 5 3 4 4 3 5 2 6 1 7 28 8 29 9 30 10 8 11 9 12 26 13
REMARK SMILES IDX 10 14 11 15 25 16 27 17 12 18 24 19 23 20 13 21 21 22 14 23
REMARK SMILES IDX 15 24 20 25 22 26 16 27 19 28 17 29 18 30
REMARK H PARENT 18 31
REMARK Flexibility Score: inf
ROOT
ATOM      1  C   UNL     1       5.382   1.661 -10.906  1.00  0.00     0.012 C 
ATOM      2  C   UNL     1       4.190   0.996 -11.615  1.00  0.00     0.012 C 
ENDROOT
BRANCH   1   3
ATOM      3  C   UNL     1       5.244   3.166 -11.024  1.00  0.00    -0.028 C 
ATOM      4  C   UNL     1       4.079   3.751 -11.351  1.00  0.00    -0.027 C 
BRANCH   4   5
ATOM      5  C   UNL     1       3.888   5.252 -11.517  1.00  0.00     0.014 C 
BRANCH   5   6
ATOM      6  C   UNL     1       2.477   5.784 -11.133  1.00  0.00     0.004 C 
ATOM      7  C   UNL     1       1.367   4.739 -10.977  1.00  0.00     0.004 C 
ENDBRANCH   5   6
BRANCH   5   8
ATOM      8  C   UNL     1       5.081   6.135 -11.022  1.00  0.00    -0.011 C 
ATOM      9  C   UNL     1       5.847   6.889 -12.119  1.00  0.00     0.008 C 
ATOM     10  C   UNL     1       4.641   7.117  -9.923  1.00  0.00     0.008 C 
ENDBRANCH   5   8
ENDBRANCH   4   5
ENDBRANCH   1   3
BRANCH   1  11
ATOM     11  C   UNL     1       5.583   1.256  -9.397  1.00  0.00     0.002 C 
ATOM     12  C   UNL     1       4.307   0.673  -8.775  1.00  0.00     0.005 C 
ATOM     13  C   UNL     1       6.706   0.214  -9.057  1.00  0.00    -0.023 C 
ATOM     14  C   UNL     1       4.509  -0.835  -8.682  1.00  0.00     0.009 C 
ATOM     15  C   UNL     1       5.968  -1.157  -9.079  1.00  0.00     0.021 C 
ATOM     16  C   UNL     1       7.228   0.486  -7.609  1.00  0.00     0.008 C 
ATOM     17  C   UNL     1       7.898   0.318 -10.050  1.00  0.00     0.012 C 
ATOM     18  C   UNL     1       6.590  -2.231  -8.179  1.00  0.00    -0.067 C 
ATOM     19  C   UNL     1       8.076  -0.647  -6.971  1.00  0.00     0.009 C 
ATOM     20  C   UNL     1       8.012  -2.025  -7.688  1.00  0.00     0.021 C 
ATOM     21  C   UNL     1       5.855  -3.301  -7.816  1.00  0.00    -0.027 C 
ATOM     22  C   UNL     1       8.650  -3.244  -6.891  1.00  0.00    -0.023 C 
ATOM     23  C   UNL     1       6.344  -4.385  -6.911  1.00  0.00     0.031 C 
ATOM     24  C   UNL     1       7.564  -3.979  -6.055  1.00  0.00     0.002 C 
ATOM     25  C   UNL     1       9.265  -4.264  -7.902  1.00  0.00     0.010 C 
ATOM     26  C   UNL     1       9.796  -2.728  -5.963  1.00  0.00     0.012 C 
ATOM     27  C   UNL     1       8.134  -5.224  -5.324  1.00  0.00     0.036 C 
ATOM     28  C   UNL     1       9.849  -5.525  -7.235  1.00  0.00     0.032 C 
ATOM     29  C   UNL     1       8.889  -6.216  -6.241  1.00  0.00     0.114 C 
BRANCH  29  30
ATOM     30  O   UNL     1       7.977  -7.034  -6.927  1.00  0.00    -0.393 OA
ATOM     31  H   UNL     1       7.227  -6.452  -7.221  1.00  0.00     0.210 HD
ENDBRANCH  29  30
ENDBRANCH   1  11
TORSDOF 6
ENDMDL
MODEL 3
REMARK VINA RESULT:    -5.749     10.981     14.331
REMARK INTER + INTRA:          -8.737
REMARK INTER:                  -7.607
REMARK INTRA:                  -1.130
REMARK UNBOUND:                -1.140
REMARK SMILES CC[C@H](C=C[C@H](C)[C@H]1CC[C@@H]2C3=CC[C@H]4C[C@@H](O)CC[C@@]4(C)[C@@H]3CC[C@@]21C)C(C)C
REMARK SMILES IDX 6 1 7 2 5 3 4 4 3 5 2 6 1 7 28 8 29 9 30 10 8 11 9 12 26 13
REMARK SMILES IDX 10 14 11 15 25 16 27 17 12 18 24 19 23 20 13 21 21 22 14 23
REMARK SMILES IDX 15 24 20 25 22 26 16 27 19 28 17 29 18 30
REMARK H PARENT 18 31
REMARK Flexibility Score: inf
ROOT
ATOM      1  C   UNL     1      -1.524   0.573  -8.060  1.00  0.00     0.012 C 
ATOM      2  C   UNL     1      -2.223   1.895  -8.420  1.00  0.00     0.012 C 
ENDROOT
BRANCH   1   3
ATOM      3  C   UNL     1      -2.578  -0.461  -7.718  1.00  0.00    -0.028 C 
ATOM      4  C   UNL     1      -2.428  -1.319  -6.695  1.00  0.00    -0.027 C 
BRANCH   4   5
ATOM      5  C   UNL     1      -3.435  -2.399  -6.325  1.00  0.00     0.014 C 
BRANCH   5   6
ATOM      6  C   UNL     1      -2.880  -3.853  -6.348  1.00  0.00     0.004 C 
ATOM      7  C   UNL     1      -1.619  -4.096  -7.185  1.00  0.00     0.004 C 
ENDBRANCH   5   6
BRANCH   5   8
ATOM      8  C   UNL     1      -4.354  -2.065  -5.104  1.00  0.00    -0.011 C 
ATOM      9  C   UNL     1      -3.625  -1.625  -3.827  1.00  0.00     0.008 C 
ATOM     10  C   UNL     1      -5.433  -1.034  -5.473  1.00  0.00     0.008 C 
ENDBRANCH   5   8
ENDBRANCH   4   5
ENDBRANCH   1   3
BRANCH   1  11
ATOM     11  C   UNL     1      -0.549   0.004  -9.159  1.00  0.00     0.002 C 
ATOM     12  C   UNL     1      -0.428   0.936 -10.371  1.00  0.00     0.005 C 
ATOM     13  C   UNL     1       0.933  -0.302  -8.741  1.00  0.00    -0.023 C 
ATOM     14  C   UNL     1       0.920   1.639 -10.259  1.00  0.00     0.009 C 
ATOM     15  C   UNL     1       1.700   1.010  -9.081  1.00  0.00     0.021 C 
ATOM     16  C   UNL     1       1.484  -1.458  -9.638  1.00  0.00     0.008 C 
ATOM     17  C   UNL     1       1.027  -0.733  -7.250  1.00  0.00     0.012 C 
ATOM     18  C   UNL     1       3.185   0.816  -9.408  1.00  0.00    -0.067 C 
ATOM     19  C   UNL     1       3.023  -1.656  -9.618  1.00  0.00     0.009 C 
ATOM     20  C   UNL     1       3.846  -0.489  -9.002  1.00  0.00     0.021 C 
ATOM     21  C   UNL     1       3.851   1.779 -10.074  1.00  0.00    -0.027 C 
ATOM     22  C   UNL     1       5.419  -0.565  -9.228  1.00  0.00    -0.023 C 
ATOM     23  C   UNL     1       5.285   1.678 -10.482  1.00  0.00     0.031 C 
ATOM     24  C   UNL     1       5.827   0.232 -10.500  1.00  0.00     0.002 C 
ATOM     25  C   UNL     1       6.154   0.061  -8.000  1.00  0.00     0.010 C 
ATOM     26  C   UNL     1       5.865  -2.057  -9.353  1.00  0.00     0.012 C 
ATOM     27  C   UNL     1       7.366   0.247 -10.710  1.00  0.00     0.036 C 
ATOM     28  C   UNL     1       7.687   0.104  -8.149  1.00  0.00     0.032 C 
ATOM     29  C   UNL     1       8.176   0.719  -9.479  1.00  0.00     0.114 C 
BRANCH  29  30
ATOM     30  O   UNL     1       8.170   2.122  -9.403  1.00  0.00    -0.393 OA
ATOM     31  H   UNL     1       9.090   2.430  -9.618  1.00  0.00     0.210 HD
ENDBRANCH  29  30
ENDBRANCH   1  11
TORSDOF 6
ENDMDL
MODEL 4
REMARK VINA RESULT:    -5.726     10.370     13.078
REMARK INTER + INTRA:          -8.706
REMARK INTER:                  -7.721
REMARK INTRA:                  -0.985
REMARK UNBOUND:                -1.140
REMARK SMILES CC[C@H](C=C[C@H](C)[C@H]1CC[C@@H]2C3=CC[C@H]4C[C@@H](O)CC[C@@]4(C)[C@@H]3CC[C@@]21C)C(C)C
REMARK SMILES IDX 6 1 7 2 5 3 4 4 3 5 2 6 1 7 28 8 29 9 30 10 8 11 9 12 26 13
REMARK SMILES IDX 10 14 11 15 25 16 27 17 12 18 24 19 23 20 13 21 21 22 14 23
REMARK SMILES IDX 15 24 20 25 22 26 16 27 19 28 17 29 18 30
REMARK H PARENT 18 31
REMARK Flexibility Score: inf
ROOT
ATOM      1  C   UNL     1       2.948  -3.259  -8.691  1.00  0.00     0.012 C 
ATOM      2  C   UNL     1       3.657  -4.614  -8.856  1.00  0.00     0.012 C 
ENDROOT
BRANCH   1   3
ATOM      3  C   UNL     1       3.809  -2.177  -9.313  1.00  0.00    -0.028 C 
ATOM      4  C   UNL     1       4.412  -1.233  -8.570  1.00  0.00    -0.027 C 
BRANCH   4   5
ATOM      5  C   UNL     1       5.258  -0.103  -9.140  1.00  0.00     0.014 C 
BRANCH   5   6
ATOM      6  C   UNL     1       4.453   1.090  -9.731  1.00  0.00     0.004 C 
ATOM      7  C   UNL     1       3.072   1.357  -9.123  1.00  0.00     0.004 C 
ENDBRANCH   5   6
BRANCH   5   8
ATOM      8  C   UNL     1       6.498   0.303  -8.276  1.00  0.00    -0.011 C 
ATOM      9  C   UNL     1       7.223  -0.854  -7.573  1.00  0.00     0.008 C 
ATOM     10  C   UNL     1       7.504   1.136  -9.087  1.00  0.00     0.008 C 
ENDBRANCH   5   8
ENDBRANCH   4   5
ENDBRANCH   1   3
BRANCH   1  11
ATOM     11  C   UNL     1       1.487  -3.186  -9.276  1.00  0.00     0.002 C 
ATOM     12  C   UNL     1       0.901  -4.576  -9.556  1.00  0.00     0.005 C 
ATOM     13  C   UNL     1       0.389  -2.454  -8.425  1.00  0.00    -0.023 C 
ATOM     14  C   UNL     1      -0.100  -4.869  -8.445  1.00  0.00     0.009 C 
ATOM     15  C   UNL     1      -0.260  -3.593  -7.585  1.00  0.00     0.021 C 
ATOM     16  C   UNL     1      -0.687  -1.860  -9.391  1.00  0.00     0.008 C 
ATOM     17  C   UNL     1       0.999  -1.300  -7.581  1.00  0.00     0.012 C 
ATOM     18  C   UNL     1      -1.719  -3.342  -7.188  1.00  0.00    -0.067 C 
ATOM     19  C   UNL     1      -2.019  -1.416  -8.730  1.00  0.00     0.009 C 
ATOM     20  C   UNL     1      -2.256  -1.925  -7.280  1.00  0.00     0.021 C 
ATOM     21  C   UNL     1      -2.493  -4.378  -6.809  1.00  0.00    -0.027 C 
ATOM     22  C   UNL     1      -3.724  -1.704  -6.707  1.00  0.00    -0.023 C 
ATOM     23  C   UNL     1      -3.936  -4.255  -6.442  1.00  0.00     0.031 C 
ATOM     24  C   UNL     1      -4.604  -2.962  -6.960  1.00  0.00     0.002 C 
ATOM     25  C   UNL     1      -3.650  -1.458  -5.166  1.00  0.00     0.010 C 
ATOM     26  C   UNL     1      -4.368  -0.446  -7.370  1.00  0.00     0.012 C 
ATOM     27  C   UNL     1      -6.021  -2.815  -6.344  1.00  0.00     0.036 C 
ATOM     28  C   UNL     1      -5.030  -1.304  -4.495  1.00  0.00     0.032 C 
ATOM     29  C   UNL     1      -6.032  -2.426  -4.846  1.00  0.00     0.114 C 
BRANCH  29  30
ATOM     30  O   UNL     1      -5.800  -3.559  -4.048  1.00  0.00    -0.393 OA
ATOM     31  H   UNL     1      -6.563  -4.178  -4.192  1.00  0.00     0.210 HD
ENDBRANCH  29  30
ENDBRANCH   1  11
TORSDOF 6
ENDMDL
MODEL 5
REMARK VINA RESULT:    -5.664      9.257     12.398
REMARK INTER + INTRA:          -8.625
REMARK INTER:                  -7.864
REMARK INTRA:                  -0.762
REMARK UNBOUND:                -1.140
REMARK SMILES CC[C@H](C=C[C@H](C)[C@H]1CC[C@@H]2C3=CC[C@H]4C[C@@H](O)CC[C@@]4(C)[C@@H]3CC[C@@]21C)C(C)C
REMARK SMILES IDX 6 1 7 2 5 3 4 4 3 5 2 6 1 7 28 8 29 9 30 10 8 11 9 12 26 13
REMARK SMILES IDX 10 14 11 15 25 16 27 17 12 18 24 19 23 20 13 21 21 22 14 23
REMARK SMILES IDX 15 24 20 25 22 26 16 27 19 28 17 29 18 30
REMARK H PARENT 18 31
REMARK Flexibility Score: inf
ROOT
ATOM      1  C   UNL     1       7.731  -1.816  -7.505  1.00  0.00     0.012 C 
ATOM      2  C   UNL     1       8.162  -3.222  -7.056  1.00  0.00     0.012 C 
ENDROOT
BRANCH   1   3
ATOM      3  C   UNL     1       8.968  -1.010  -7.848  1.00  0.00    -0.028 C 
ATOM      4  C   UNL     1       9.095   0.282  -7.499  1.00  0.00    -0.027 C 
BRANCH   4   5
ATOM      5  C   UNL     1      10.297   1.150  -7.844  1.00  0.00     0.014 C 
BRANCH   5   6
ATOM      6  C   UNL     1      10.258   1.796  -9.260  1.00  0.00     0.004 C 
ATOM      7  C   UNL     1       8.893   1.849  -9.955  1.00  0.00     0.004 C 
ENDBRANCH   5   6
BRANCH   5   8
ATOM      8  C   UNL     1      10.785   2.100  -6.701  1.00  0.00    -0.011 C 
ATOM      9  C   UNL     1      10.602   3.602  -6.965  1.00  0.00     0.008 C 
ATOM     10  C   UNL     1      10.158   1.726  -5.348  1.00  0.00     0.008 C 
ENDBRANCH   5   8
ENDBRANCH   4   5
ENDBRANCH   1   3
BRANCH   1  11
ATOM     11  C   UNL     1       6.712  -1.774  -8.706  1.00  0.00     0.002 C 
ATOM     12  C   UNL     1       5.969  -3.105  -8.888  1.00  0.00     0.005 C 
ATOM     13  C   UNL     1       5.580  -0.687  -8.675  1.00  0.00    -0.023 C 
ATOM     14  C   UNL     1       4.560  -2.905  -8.344  1.00  0.00     0.009 C 
ATOM     15  C   UNL     1       4.381  -1.409  -7.993  1.00  0.00     0.021 C 
ATOM     16  C   UNL     1       5.186  -0.324 -10.143  1.00  0.00     0.008 C 
ATOM     17  C   UNL     1       6.051   0.604  -7.946  1.00  0.00     0.012 C 
ATOM     18  C   UNL     1       3.001  -0.880  -8.401  1.00  0.00    -0.067 C 
ATOM     19  C   UNL     1       3.856   0.459 -10.314  1.00  0.00     0.009 C 
ATOM     20  C   UNL     1       2.921   0.480  -9.071  1.00  0.00     0.021 C 
ATOM     21  C   UNL     1       1.909  -1.642  -8.195  1.00  0.00    -0.027 C 
ATOM     22  C   UNL     1       1.453   1.039  -9.327  1.00  0.00    -0.023 C 
ATOM     23  C   UNL     1       0.524  -1.245  -8.591  1.00  0.00     0.031 C 
ATOM     24  C   UNL     1       0.475  -0.126  -9.654  1.00  0.00     0.002 C 
ATOM     25  C   UNL     1       0.941   1.764  -8.042  1.00  0.00     0.010 C 
ATOM     26  C   UNL     1       1.477   2.076 -10.494  1.00  0.00     0.012 C 
ATOM     27  C   UNL     1      -0.984   0.372  -9.832  1.00  0.00     0.036 C 
ATOM     28  C   UNL     1      -0.507   2.282  -8.157  1.00  0.00     0.032 C 
ATOM     29  C   UNL     1      -1.518   1.227  -8.658  1.00  0.00     0.114 C 
BRANCH  29  30
ATOM     30  O   UNL     1      -1.927   0.398  -7.600  1.00  0.00    -0.393 OA
ATOM     31  H   UNL     1      -1.713   0.875  -6.756  1.00  0.00     0.210 HD
ENDBRANCH  29  30
ENDBRANCH   1  11
TORSDOF 6
ENDMDL
MODEL 6
REMARK VINA RESULT:    -5.651      9.447     12.845
REMARK INTER + INTRA:          -8.607
REMARK INTER:                  -7.595
REMARK INTRA:                  -1.012
REMARK UNBOUND:                -1.140
REMARK SMILES CC[C@H](C=C[C@H](C)[C@H]1CC[C@@H]2C3=CC[C@H]4C[C@@H](O)CC[C@@]4(C)[C@@H]3CC[C@@]21C)C(C)C
REMARK SMILES IDX 6 1 7 2 5 3 4 4 3 5 2 6 1 7 28 8 29 9 30 10 8 11 9 12 26 13
REMARK SMILES IDX 10 14 11 15 25 16 27 17 12 18 24 19 23 20 13 21 21 22 14 23
REMARK SMILES IDX 15 24 20 25 22 26 16 27 19 28 17 29 18 30
REMARK H PARENT 18 31
REMARK Flexibility Score: inf
ROOT
ATOM      1  C   UNL     1      10.095   1.474  -9.106  1.00  0.00     0.012 C 
ATOM      2  C   UNL     1      11.112   1.601 -10.252  1.00  0.00     0.012 C 
ENDROOT
BRANCH   1   3
ATOM      3  C   UNL     1      10.391   2.537  -8.067  1.00  0.00    -0.028 C 
ATOM      4  C   UNL     1      11.313   2.356  -7.106  1.00  0.00    -0.027 C 
BRANCH   4   5
ATOM      5  C   UNL     1      11.629   3.372  -6.017  1.00  0.00     0.014 C 
BRANCH   5   6
ATOM      6  C   UNL     1      11.012   4.784  -6.235  1.00  0.00     0.004 C 
ATOM      7  C   UNL     1      11.988   5.920  -6.561  1.00  0.00     0.004 C 
ENDBRANCH   5   6
BRANCH   5   8
ATOM      8  C   UNL     1      11.536   2.832  -4.552  1.00  0.00    -0.011 C 
ATOM      9  C   UNL     1      11.334   3.897  -3.465  1.00  0.00     0.008 C 
ATOM     10  C   UNL     1      10.463   1.738  -4.419  1.00  0.00     0.008 C 
ENDBRANCH   5   8
ENDBRANCH   4   5
ENDBRANCH   1   3
BRANCH   1  11
ATOM     11  C   UNL     1       8.581   1.550  -9.536  1.00  0.00     0.002 C 
ATOM     12  C   UNL     1       8.401   1.465 -11.057  1.00  0.00     0.005 C 
ATOM     13  C   UNL     1       7.596   0.473  -8.957  1.00  0.00    -0.023 C 
ATOM     14  C   UNL     1       7.896   0.061 -11.367  1.00  0.00     0.009 C 
ATOM     15  C   UNL     1       7.597  -0.655 -10.030  1.00  0.00     0.021 C 
ATOM     16  C   UNL     1       6.163   1.091  -8.872  1.00  0.00     0.008 C 
ATOM     17  C   UNL     1       8.029   0.010  -7.537  1.00  0.00     0.012 C 
ATOM     18  C   UNL     1       6.306  -1.480 -10.091  1.00  0.00    -0.067 C 
ATOM     19  C   UNL     1       5.001   0.082  -8.664  1.00  0.00     0.009 C 
ATOM     20  C   UNL     1       5.353  -1.412  -8.911  1.00  0.00     0.021 C 
ATOM     21  C   UNL     1       6.032  -2.206 -11.192  1.00  0.00    -0.027 C 
ATOM     22  C   UNL     1       4.113  -2.408  -8.968  1.00  0.00    -0.023 C 
ATOM     23  C   UNL     1       4.787  -3.011 -11.377  1.00  0.00     0.031 C 
ATOM     24  C   UNL     1       3.634  -2.601 -10.435  1.00  0.00     0.002 C 
ATOM     25  C   UNL     1       4.537  -3.801  -8.403  1.00  0.00     0.010 C 
ATOM     26  C   UNL     1       2.951  -1.858  -8.082  1.00  0.00     0.012 C 
ATOM     27  C   UNL     1       2.475  -3.628 -10.539  1.00  0.00     0.036 C 
ATOM     28  C   UNL     1       3.426  -4.867  -8.479  1.00  0.00     0.032 C 
ATOM     29  C   UNL     1       2.766  -4.993  -9.870  1.00  0.00     0.114 C 
BRANCH  29  30
ATOM     30  O   UNL     1       3.553  -5.791 -10.717  1.00  0.00    -0.393 OA
ATOM     31  H   UNL     1       2.943  -6.191 -11.391  1.00  0.00     0.210 HD
ENDBRANCH  29  30
ENDBRANCH   1  11
TORSDOF 6
ENDMDL
MODEL 7
REMARK VINA RESULT:    -5.583      9.029     11.903
REMARK INTER + INTRA:          -8.517
REMARK INTER:                  -7.413
REMARK INTRA:                  -1.104
REMARK UNBOUND:                -1.140
REMARK SMILES CC[C@H](C=C[C@H](C)[C@H]1CC[C@@H]2C3=CC[C@H]4C[C@@H](O)CC[C@@]4(C)[C@@H]3CC[C@@]21C)C(C)C
REMARK SMILES IDX 6 1 7 2 5 3 4 4 3 5 2 6 1 7 28 8 29 9 30 10 8 11 9 12 26 13
REMARK SMILES IDX 10 14 11 15 25 16 27 17 12 18 24 19 23 20 13 21 21 22 14 23
REMARK SMILES IDX 15 24 20 25 22 26 16 27 19 28 17 29 18 30
REMARK H PARENT 18 31
REMARK Flexibility Score: inf
ROOT
ATOM      1  C   UNL     1       9.566  -0.192  -6.835  1.00  0.00     0.012 C 
ATOM      2  C   UNL     1      10.289  -1.049  -5.783  1.00  0.00     0.012 C 
ENDROOT
BRANCH   1   3
ATOM      3  C   UNL     1      10.515   0.882  -7.330  1.00  0.00    -0.028 C 
ATOM      4  C   UNL     1      10.236   1.638  -8.405  1.00  0.00    -0.027 C 
BRANCH   4   5
ATOM      5  C   UNL     1      11.164   2.706  -8.968  1.00  0.00     0.014 C 
BRANCH   5   6
ATOM      6  C   UNL     1      11.889   3.576  -7.902  1.00  0.00     0.004 C 
ATOM      7  C   UNL     1      11.003   4.289  -6.875  1.00  0.00     0.004 C 
ENDBRANCH   5   6
BRANCH   5   8
ATOM      8  C   UNL     1      12.061   2.247 -10.164  1.00  0.00    -0.011 C 
ATOM      9  C   UNL     1      11.704   0.884 -10.776  1.00  0.00     0.008 C 
ATOM     10  C   UNL     1      12.125   3.316 -11.268  1.00  0.00     0.008 C 
ENDBRANCH   5   8
ENDBRANCH   4   5
ENDBRANCH   1   3
BRANCH   1  11
ATOM     11  C   UNL     1       8.967  -0.985  -8.057  1.00  0.00     0.002 C 
ATOM     12  C   UNL     1       9.275  -2.487  -7.985  1.00  0.00     0.005 C 
ATOM     13  C   UNL     1       7.418  -0.907  -8.299  1.00  0.00    -0.023 C 
ATOM     14  C   UNL     1       7.991  -3.183  -7.551  1.00  0.00     0.009 C 
ATOM     15  C   UNL     1       6.853  -2.137  -7.529  1.00  0.00     0.021 C 
ATOM     16  C   UNL     1       7.133  -1.090  -9.825  1.00  0.00     0.008 C 
ATOM     17  C   UNL     1       6.838   0.460  -7.838  1.00  0.00     0.012 C 
ATOM     18  C   UNL     1       5.542  -2.696  -8.092  1.00  0.00    -0.067 C 
ATOM     19  C   UNL     1       5.660  -1.396 -10.207  1.00  0.00     0.009 C 
ATOM     20  C   UNL     1       4.733  -1.823  -9.035  1.00  0.00     0.021 C 
ATOM     21  C   UNL     1       5.162  -3.949  -7.774  1.00  0.00    -0.027 C 
ATOM     22  C   UNL     1       3.311  -2.397  -9.459  1.00  0.00    -0.023 C 
ATOM     23  C   UNL     1       3.928  -4.610  -8.299  1.00  0.00     0.031 C 
ATOM     24  C   UNL     1       3.361  -3.948  -9.574  1.00  0.00     0.002 C 
ATOM     25  C   UNL     1       2.252  -2.019  -8.376  1.00  0.00     0.010 C 
ATOM     26  C   UNL     1       2.867  -1.764 -10.816  1.00  0.00     0.012 C 
ATOM     27  C   UNL     1       1.970  -4.552  -9.909  1.00  0.00     0.036 C 
ATOM     28  C   UNL     1       0.847  -2.591  -8.654  1.00  0.00     0.032 C 
ATOM     29  C   UNL     1       0.832  -4.105  -8.962  1.00  0.00     0.114 C 
BRANCH  29  30
ATOM     30  O   UNL     1       0.870  -4.849  -7.770  1.00  0.00    -0.393 OA
ATOM     31  H   UNL     1       0.315  -5.660  -7.915  1.00  0.00     0.210 HD
ENDBRANCH  29  30
ENDBRANCH   1  11
TORSDOF 6
ENDMDL
MODEL 8
REMARK VINA RESULT:    -5.569     11.444     14.614
REMARK INTER + INTRA:          -8.500
REMARK INTER:                  -7.137
REMARK INTRA:                  -1.363
REMARK UNBOUND:                -1.140
REMARK SMILES CC[C@H](C=C[C@H](C)[C@H]1CC[C@@H]2C3=CC[C@H]4C[C@@H](O)CC[C@@]4(C)[C@@H]3CC[C@@]21C)C(C)C
REMARK SMILES IDX 6 1 7 2 5 3 4 4 3 5 2 6 1 7 28 8 29 9 30 10 8 11 9 12 26 13
REMARK SMILES IDX 10 14 11 15 25 16 27 17 12 18 24 19 23 20 13 21 21 22 14 23
REMARK SMILES IDX 15 24 20 25 22 26 16 27 19 28 17 29 18 30
REMARK H PARENT 18 31
REMARK Flexibility Score: inf
ROOT
ATOM      1  C   UNL     1       1.719   1.858 -10.368  1.00  0.00     0.012 C 
ATOM      2  C   UNL     1       1.600   3.254 -11.001  1.00  0.00     0.012 C 
ENDROOT
BRANCH   1   3
ATOM      3  C   UNL     1       3.186   1.492 -10.260  1.00  0.00    -0.028 C 
ATOM      4  C   UNL     1       3.719   1.014  -9.122  1.00  0.00    -0.027 C 
BRANCH   4   5
ATOM      5  C   UNL     1       5.189   0.663  -8.945  1.00  0.00     0.014 C 
BRANCH   5   6
ATOM      6  C   UNL     1       5.461  -0.726  -8.297  1.00  0.00     0.004 C 
ATOM      7  C   UNL     1       4.264  -1.676  -8.177  1.00  0.00     0.004 C 
ENDBRANCH   5   6
BRANCH   5   8
ATOM      8  C   UNL     1       6.111   1.014 -10.159  1.00  0.00    -0.011 C 
ATOM      9  C   UNL     1       7.423   1.732  -9.809  1.00  0.00     0.008 C 
ATOM     10  C   UNL     1       6.406  -0.224 -11.022  1.00  0.00     0.008 C 
ENDBRANCH   5   8
ENDBRANCH   4   5
ENDBRANCH   1   3
BRANCH   1  11
ATOM     11  C   UNL     1       1.018   1.689  -8.967  1.00  0.00     0.002 C 
ATOM     12  C   UNL     1       0.155   2.902  -8.597  1.00  0.00     0.005 C 
ATOM     13  C   UNL     1       0.076   0.450  -8.759  1.00  0.00    -0.023 C 
ATOM     14  C   UNL     1      -1.298   2.494  -8.808  1.00  0.00     0.009 C 
ATOM     15  C   UNL     1      -1.338   0.983  -9.136  1.00  0.00     0.021 C 
ATOM     16  C   UNL     1       0.083   0.056  -7.247  1.00  0.00     0.008 C 
ATOM     17  C   UNL     1       0.547  -0.770  -9.600  1.00  0.00     0.012 C 
ATOM     18  C   UNL     1      -2.498   0.268  -8.433  1.00  0.00    -0.067 C 
ATOM     19  C   UNL     1      -1.047  -0.906  -6.792  1.00  0.00     0.009 C 
ATOM     20  C   UNL     1      -2.228  -1.079  -7.788  1.00  0.00     0.021 C 
ATOM     21  C   UNL     1      -3.705   0.863  -8.371  1.00  0.00    -0.027 C 
ATOM     22  C   UNL     1      -3.503  -1.838  -7.215  1.00  0.00    -0.023 C 
ATOM     23  C   UNL     1      -4.892   0.279  -7.677  1.00  0.00     0.031 C 
ATOM     24  C   UNL     1      -4.536  -0.820  -6.651  1.00  0.00     0.002 C 
ATOM     25  C   UNL     1      -4.187  -2.648  -8.361  1.00  0.00     0.010 C 
ATOM     26  C   UNL     1      -3.066  -2.843  -6.103  1.00  0.00     0.012 C 
ATOM     27  C   UNL     1      -5.830  -1.519  -6.154  1.00  0.00     0.036 C 
ATOM     28  C   UNL     1      -5.481  -3.366  -7.928  1.00  0.00     0.032 C 
ATOM     29  C   UNL     1      -6.491  -2.458  -7.191  1.00  0.00     0.114 C 
BRANCH  29  30
ATOM     30  O   UNL     1      -7.245  -1.712  -8.112  1.00  0.00    -0.393 OA
ATOM     31  H   UNL     1      -6.743  -0.873  -8.288  1.00  0.00     0.210 HD
ENDBRANCH  29  30
ENDBRANCH   1  11
TORSDOF 6
ENDMDL
MODEL 9
REMARK VINA RESULT:    -5.533     10.900     14.897
REMARK INTER + INTRA:          -8.452
REMARK INTER:                  -7.228
REMARK INTRA:                  -1.223
REMARK UNBOUND:                -1.140
REMARK SMILES CC[C@H](C=C[C@H](C)[C@H]1CC[C@@H]2C3=CC[C@H]4C[C@@H](O)CC[C@@]4(C)[C@@H]3CC[C@@]21C)C(C)C
REMARK SMILES IDX 6 1 7 2 5 3 4 4 3 5 2 6 1 7 28 8 29 9 30 10 8 11 9 12 26 13
REMARK SMILES IDX 10 14 11 15 25 16 27 17 12 18 24 19 23 20 13 21 21 22 14 23
REMARK SMILES IDX 15 24 20 25 22 26 16 27 19 28 17 29 18 30
REMARK H PARENT 18 31
REMARK Flexibility Score: inf
ROOT
ATOM      1  C   UNL     1      -1.263   2.647  -8.865  1.00  0.00     0.012 C 
ATOM      2  C   UNL     1      -1.487   3.980  -9.598  1.00  0.00     0.012 C 
ENDROOT
BRANCH   1   3
ATOM      3  C   UNL     1      -2.609   2.074  -8.468  1.00  0.00    -0.028 C 
ATOM      4  C   UNL     1      -2.756   0.789  -8.102  1.00  0.00    -0.027 C 
BRANCH   4   5
ATOM      5  C   UNL     1      -4.085   0.150  -7.726  1.00  0.00     0.014 C 
BRANCH   5   6
ATOM      6  C   UNL     1      -5.162   0.161  -8.850  1.00  0.00     0.004 C 
ATOM      7  C   UNL     1      -6.244   1.241  -8.757  1.00  0.00     0.004 C 
ENDBRANCH   5   6
BRANCH   5   8
ATOM      8  C   UNL     1      -3.980  -1.192  -6.929  1.00  0.00    -0.011 C 
ATOM      9  C   UNL     1      -2.556  -1.630  -6.555  1.00  0.00     0.008 C 
ATOM     10  C   UNL     1      -4.869  -1.177  -5.675  1.00  0.00     0.008 C 
ENDBRANCH   5   8
ENDBRANCH   4   5
ENDBRANCH   1   3
BRANCH   1  11
ATOM     11  C   UNL     1      -0.433   1.570  -9.661  1.00  0.00     0.002 C 
ATOM     12  C   UNL     1      -0.057   2.047 -11.070  1.00  0.00     0.005 C 
ATOM     13  C   UNL     1       0.918   1.070  -9.035  1.00  0.00    -0.023 C 
ATOM     14  C   UNL     1       1.419   2.423 -11.033  1.00  0.00     0.009 C 
ATOM     15  C   UNL     1       1.992   2.010  -9.657  1.00  0.00     0.021 C 
ATOM     16  C   UNL     1       1.186  -0.393  -9.514  1.00  0.00     0.008 C 
ATOM     17  C   UNL     1       0.867   1.091  -7.482  1.00  0.00     0.012 C 
ATOM     18  C   UNL     1       3.390   1.393  -9.773  1.00  0.00    -0.067 C 
ATOM     19  C   UNL     1       2.628  -0.924  -9.293  1.00  0.00     0.009 C 
ATOM     20  C   UNL     1       3.699   0.151  -8.955  1.00  0.00     0.021 C 
ATOM     21  C   UNL     1       4.289   1.935 -10.618  1.00  0.00    -0.027 C 
ATOM     22  C   UNL     1       5.209  -0.347  -9.001  1.00  0.00    -0.023 C 
ATOM     23  C   UNL     1       5.663   1.392 -10.842  1.00  0.00     0.031 C 
ATOM     24  C   UNL     1       5.832  -0.078 -10.401  1.00  0.00     0.002 C 
ATOM     25  C   UNL     1       6.047   0.429  -7.935  1.00  0.00     0.010 C 
ATOM     26  C   UNL     1       5.276  -1.869  -8.657  1.00  0.00     0.012 C 
ATOM     27  C   UNL     1       7.330  -0.479 -10.459  1.00  0.00     0.036 C 
ATOM     28  C   UNL     1       7.547   0.073  -7.943  1.00  0.00     0.032 C 
ATOM     29  C   UNL     1       8.203   0.138  -9.340  1.00  0.00     0.114 C 
BRANCH  29  30
ATOM     30  O   UNL     1       8.542   1.462  -9.663  1.00  0.00    -0.393 OA
ATOM     31  H   UNL     1       8.956   1.863  -8.854  1.00  0.00     0.210 HD
ENDBRANCH  29  30
ENDBRANCH   1  11
TORSDOF 6
ENDMDL
