MODEL 1
REMARK VINA RESULT:    61.122      0.000      0.000
REMARK INTER + INTRA:          82.047
REMARK INTER:                  80.775
REMARK INTRA:                   1.272
REMARK UNBOUND:                 1.272
REMARK SMILES CC[C@@H](C=C[C@@H](C)[C@H]1CC[C@H]2C3=CC[C@H]4C[C@@H](O)CC[C@]4(C)[C@@H]3CC[C@@]12C)C(C)C
REMARK SMILES IDX 6 1 7 2 5 3 4 4 3 5 2 6 1 7 28 8 29 9 30 10 8 11 9 12 26 13
REMARK SMILES IDX 10 14 11 15 25 16 27 17 12 18 24 19 23 20 13 21 21 22 14 23
REMARK SMILES IDX 15 24 20 25 22 26 16 27 19 28 17 29 18 30
REMARK H PARENT 18 31
REMARK Flexibility Score: inf
ROOT
ATOM      1  C   UNL     1     -30.556  32.466  -3.487  1.00  0.00     0.012 C 
ATOM      2  C   UNL     1     -31.194  32.776  -4.850  1.00  0.00     0.012 C 
ENDROOT
BRANCH   1   3
ATOM      3  C   UNL     1     -29.241  31.739  -3.707  1.00  0.00    -0.028 C 
ATOM      4  C   UNL     1     -28.974  30.795  -4.635  1.00  0.00    -0.027 C 
BRANCH   4   5
ATOM      5  C   UNL     1     -29.926  30.237  -5.685  1.00  0.00     0.014 C 
BRANCH   5   6
ATOM      6  C   UNL     1     -30.157  28.736  -5.384  1.00  0.00     0.004 C 
ATOM      7  C   UNL     1     -30.564  27.923  -6.613  1.00  0.00     0.004 C 
ENDBRANCH   5   6
BRANCH   5   8
ATOM      8  C   UNL     1     -29.413  30.513  -7.134  1.00  0.00    -0.011 C 
ATOM      9  C   UNL     1     -30.531  30.861  -8.130  1.00  0.00     0.008 C 
ATOM     10  C   UNL     1     -28.585  29.336  -7.671  1.00  0.00     0.008 C 
ENDBRANCH   5   8
ENDBRANCH   4   5
ENDBRANCH   1   3
BRANCH   1  11
ATOM     11  C   UNL     1     -31.453  31.743  -2.423  1.00  0.00     0.002 C 
ATOM     12  C   UNL     1     -31.866  32.664  -1.261  1.00  0.00     0.005 C 
ATOM     13  C   UNL     1     -32.741  30.937  -2.793  1.00  0.00    -0.023 C 
ATOM     14  C   UNL     1     -33.090  32.025  -0.607  1.00  0.00     0.009 C 
ATOM     15  C   UNL     1     -33.367  30.739  -1.389  1.00  0.00     0.021 C 
ATOM     16  C   UNL     1     -33.708  31.721  -3.732  1.00  0.00     0.008 C 
ATOM     17  C   UNL     1     -32.415  29.551  -3.407  1.00  0.00     0.012 C 
ATOM     18  C   UNL     1     -34.837  30.357  -1.442  1.00  0.00    -0.067 C 
ATOM     19  C   UNL     1     -35.156  31.191  -3.737  1.00  0.00     0.009 C 
ATOM     20  C   UNL     1     -35.757  31.204  -2.316  1.00  0.00     0.021 C 
ATOM     21  C   UNL     1     -35.219  29.165  -0.928  1.00  0.00    -0.027 C 
ATOM     22  C   UNL     1     -37.276  30.787  -2.197  1.00  0.00    -0.023 C 
ATOM     23  C   UNL     1     -36.610  28.606  -1.051  1.00  0.00     0.031 C 
ATOM     24  C   UNL     1     -37.382  29.231  -2.223  1.00  0.00     0.002 C 
ATOM     25  C   UNL     1     -38.133  31.362  -3.367  1.00  0.00     0.010 C 
ATOM     26  C   UNL     1     -37.809  31.379  -0.856  1.00  0.00     0.012 C 
ATOM     27  C   UNL     1     -38.840  28.720  -2.236  1.00  0.00     0.036 C 
ATOM     28  C   UNL     1     -39.590  30.874  -3.333  1.00  0.00     0.032 C 
ATOM     29  C   UNL     1     -39.653  29.340  -3.381  1.00  0.00     0.114 C 
BRANCH  29  30
ATOM     30  O   UNL     1     -40.988  28.914  -3.274  1.00  0.00    -0.393 OA
ATOM     31  H   UNL     1     -40.975  27.922  -3.296  1.00  0.00     0.210 HD
ENDBRANCH  29  30
ENDBRANCH   1  11
TORSDOF 6
ENDMDL
MODEL 2
REMARK VINA RESULT:    62.223      1.782      2.986
REMARK INTER + INTRA:          83.502
REMARK INTER:                  84.390
REMARK INTRA:                  -0.889
REMARK UNBOUND:                 1.272
REMARK SMILES CC[C@@H](C=C[C@@H](C)[C@H]1CC[C@H]2C3=CC[C@H]4C[C@@H](O)CC[C@]4(C)[C@@H]3CC[C@@]12C)C(C)C
REMARK SMILES IDX 6 1 7 2 5 3 4 4 3 5 2 6 1 7 28 8 29 9 30 10 8 11 9 12 26 13
REMARK SMILES IDX 10 14 11 15 25 16 27 17 12 18 24 19 23 20 13 21 21 22 14 23
REMARK SMILES IDX 15 24 20 25 22 26 16 27 19 28 17 29 18 30
REMARK H PARENT 18 31
REMARK Flexibility Score: inf
ROOT
ATOM      1  C   UNL     1     -30.797  32.486  -3.749  1.00  0.00     0.012 C 
ATOM      2  C   UNL     1     -29.338  32.029  -3.910  1.00  0.00     0.012 C 
ENDROOT
BRANCH   1   3
ATOM      3  C   UNL     1     -30.833  33.998  -3.623  1.00  0.00    -0.028 C 
ATOM      4  C   UNL     1     -30.264  34.902  -4.450  1.00  0.00    -0.027 C 
BRANCH   4   5
ATOM      5  C   UNL     1     -29.453  34.619  -5.708  1.00  0.00     0.014 C 
BRANCH   5   6
ATOM      6  C   UNL     1     -28.166  35.480  -5.659  1.00  0.00     0.004 C 
ATOM      7  C   UNL     1     -27.750  35.875  -4.242  1.00  0.00     0.004 C 
ENDBRANCH   5   6
BRANCH   5   8
ATOM      8  C   UNL     1     -30.301  34.834  -7.002  1.00  0.00    -0.011 C 
ATOM      9  C   UNL     1     -29.468  34.825  -8.294  1.00  0.00     0.008 C 
ATOM     10  C   UNL     1     -31.129  36.124  -6.925  1.00  0.00     0.008 C 
ENDBRANCH   5   8
ENDBRANCH   4   5
ENDBRANCH   1   3
BRANCH   1  11
ATOM     11  C   UNL     1     -31.649  31.785  -2.633  1.00  0.00     0.002 C 
ATOM     12  C   UNL     1     -32.054  32.744  -1.499  1.00  0.00     0.005 C 
ATOM     13  C   UNL     1     -32.925  30.935  -2.936  1.00  0.00    -0.023 C 
ATOM     14  C   UNL     1     -33.245  32.103  -0.787  1.00  0.00     0.009 C 
ATOM     15  C   UNL     1     -33.510  30.780  -1.509  1.00  0.00     0.021 C 
ATOM     16  C   UNL     1     -33.936  31.658  -3.879  1.00  0.00     0.008 C 
ATOM     17  C   UNL     1     -32.582  29.534  -3.503  1.00  0.00     0.012 C 
ATOM     18  C   UNL     1     -34.971  30.362  -1.507  1.00  0.00    -0.067 C 
ATOM     19  C   UNL     1     -35.369  31.094  -3.825  1.00  0.00     0.009 C 
ATOM     20  C   UNL     1     -35.934  31.151  -2.389  1.00  0.00     0.021 C 
ATOM     21  C   UNL     1     -35.311  29.183  -0.935  1.00  0.00    -0.027 C 
ATOM     22  C   UNL     1     -37.438  30.704  -2.213  1.00  0.00    -0.023 C 
ATOM     23  C   UNL     1     -36.689  28.587  -0.999  1.00  0.00     0.031 C 
ATOM     24  C   UNL     1     -37.507  29.145  -2.174  1.00  0.00     0.002 C 
ATOM     25  C   UNL     1     -38.339  31.210  -3.381  1.00  0.00     0.010 C 
ATOM     26  C   UNL     1     -37.951  31.337  -0.882  1.00  0.00     0.012 C 
ATOM     27  C   UNL     1     -38.952  28.600  -2.127  1.00  0.00     0.036 C 
ATOM     28  C   UNL     1     -39.783  30.690  -3.289  1.00  0.00     0.032 C 
ATOM     29  C   UNL     1     -39.810  29.154  -3.274  1.00  0.00     0.114 C 
BRANCH  29  30
ATOM     30  O   UNL     1     -41.130  28.702  -3.114  1.00  0.00    -0.393 OA
ATOM     31  H   UNL     1     -41.085  27.873  -2.570  1.00  0.00     0.210 HD
ENDBRANCH  29  30
ENDBRANCH   1  11
TORSDOF 6
ENDMDL
MODEL 3
REMARK VINA RESULT:    62.425      3.375      8.016
REMARK INTER + INTRA:          83.768
REMARK INTER:                  81.202
REMARK INTRA:                   2.567
REMARK UNBOUND:                 1.272
REMARK SMILES CC[C@@H](C=C[C@@H](C)[C@H]1CC[C@H]2C3=CC[C@H]4C[C@@H](O)CC[C@]4(C)[C@@H]3CC[C@@]12C)C(C)C
REMARK SMILES IDX 6 1 7 2 5 3 4 4 3 5 2 6 1 7 28 8 29 9 30 10 8 11 9 12 26 13
REMARK SMILES IDX 10 14 11 15 25 16 27 17 12 18 24 19 23 20 13 21 21 22 14 23
REMARK SMILES IDX 15 24 20 25 22 26 16 27 19 28 17 29 18 30
REMARK H PARENT 18 31
REMARK Flexibility Score: inf
ROOT
ATOM      1  C   UNL     1     -35.644  31.643  -0.582  1.00  0.00     0.012 C 
ATOM      2  C   UNL     1     -35.609  32.274   0.819  1.00  0.00     0.012 C 
ENDROOT
BRANCH   1   3
ATOM      3  C   UNL     1     -36.720  30.572  -0.618  1.00  0.00    -0.028 C 
ATOM      4  C   UNL     1     -37.636  30.366  -1.589  1.00  0.00    -0.027 C 
BRANCH   4   5
ATOM      5  C   UNL     1     -37.808  31.157  -2.879  1.00  0.00     0.014 C 
BRANCH   5   6
ATOM      6  C   UNL     1     -39.296  31.081  -3.302  1.00  0.00     0.004 C 
ATOM      7  C   UNL     1     -39.894  29.678  -3.176  1.00  0.00     0.004 C 
ENDBRANCH   5   6
BRANCH   5   8
ATOM      8  C   UNL     1     -36.818  30.677  -3.987  1.00  0.00    -0.011 C 
ATOM      9  C   UNL     1     -37.484  30.445  -5.353  1.00  0.00     0.008 C 
ATOM     10  C   UNL     1     -36.061  29.412  -3.555  1.00  0.00     0.008 C 
ENDBRANCH   5   8
ENDBRANCH   4   5
ENDBRANCH   1   3
BRANCH   1  11
ATOM     11  C   UNL     1     -34.284  31.126  -1.170  1.00  0.00     0.002 C 
ATOM     12  C   UNL     1     -34.473  30.148  -2.344  1.00  0.00     0.005 C 
ATOM     13  C   UNL     1     -33.120  32.076  -1.602  1.00  0.00    -0.023 C 
ATOM     14  C   UNL     1     -33.153  30.128  -3.115  1.00  0.00     0.009 C 
ATOM     15  C   UNL     1     -32.214  31.085  -2.375  1.00  0.00     0.021 C 
ATOM     16  C   UNL     1     -33.590  33.242  -2.525  1.00  0.00     0.008 C 
ATOM     17  C   UNL     1     -32.339  32.643  -0.389  1.00  0.00     0.012 C 
ATOM     18  C   UNL     1     -31.209  31.779  -3.279  1.00  0.00    -0.067 C 
ATOM     19  C   UNL     1     -32.459  33.900  -3.341  1.00  0.00     0.009 C 
ATOM     20  C   UNL     1     -31.732  32.860  -4.220  1.00  0.00     0.021 C 
ATOM     21  C   UNL     1     -29.888  31.596  -3.045  1.00  0.00    -0.027 C 
ATOM     22  C   UNL     1     -30.620  33.423  -5.190  1.00  0.00    -0.023 C 
ATOM     23  C   UNL     1     -28.799  32.340  -3.767  1.00  0.00     0.031 C 
ATOM     24  C   UNL     1     -29.305  33.654  -4.382  1.00  0.00     0.002 C 
ATOM     25  C   UNL     1     -31.043  34.775  -5.843  1.00  0.00     0.010 C 
ATOM     26  C   UNL     1     -30.424  32.367  -6.322  1.00  0.00     0.012 C 
ATOM     27  C   UNL     1     -28.188  34.320  -5.215  1.00  0.00     0.036 C 
ATOM     28  C   UNL     1     -29.931  35.396  -6.702  1.00  0.00     0.032 C 
ATOM     29  C   UNL     1     -28.662  35.626  -5.867  1.00  0.00     0.114 C 
BRANCH  29  30
ATOM     30  O   UNL     1     -27.635  36.124  -6.687  1.00  0.00    -0.393 OA
ATOM     31  H   UNL     1     -26.791  35.708  -6.373  1.00  0.00     0.210 HD
ENDBRANCH  29  30
ENDBRANCH   1  11
TORSDOF 6
ENDMDL
