MODEL 1
REMARK VINA RESULT:    -9.362      0.000      0.000
REMARK INTER + INTRA:         -14.845
REMARK INTER:                 -13.467
REMARK INTRA:                  -1.378
REMARK UNBOUND:                -1.378
REMARK SMILES O=c1c(O[C@@H]2O[C@H](CO)[C@@H](O)[C@@H](O)[C@H]2O)c(-c2ccc(O)cc2)oc2cc(O)cc(O)c12
REMARK SMILES IDX 4 1 3 2 16 3 24 4 2 5 25 6 1 7 32 8 26 9 30 10 27 11 29 12
REMARK SMILES IDX 17 13 18 14 19 15 20 16 23 17 22 18 21 19 31 21 28 23 5 25
REMARK SMILES IDX 14 26 6 27 12 28 7 29 10 30 15 31 13 33 8 35 9 36 11 38
REMARK H PARENT 21 20 31 22 28 24 15 32 13 34 9 37 11 39
REMARK Flexibility Score: inf
ROOT
ATOM      1  O   UNL     1     132.278 133.911 114.982  1.00  0.00    -0.454 OA
ENDROOT
BRANCH   1   2
ATOM      2  C   UNL     1     133.526 133.928 114.353  1.00  0.00     0.214 A 
ATOM      3  C   UNL     1     133.629 133.876 112.957  1.00  0.00     0.180 A 
ATOM      4  O   UNL     1     134.801 134.084 112.366  1.00  0.00    -0.452 OA
ATOM      5  C   UNL     1     134.705 133.976 115.105  1.00  0.00     0.239 A 
ATOM      6  C   UNL     1     135.920 134.309 113.045  1.00  0.00     0.146 A 
ATOM      7  O   UNL     1     134.659 133.685 116.329  1.00  0.00    -0.285 OA
ATOM      8  C   UNL     1     135.923 134.271 114.465  1.00  0.00     0.111 A 
ATOM      9  C   UNL     1     137.107 134.516 112.340  1.00  0.00     0.094 A 
ATOM     10  C   UNL     1     137.160 134.447 115.147  1.00  0.00     0.134 A 
ATOM     11  C   UNL     1     138.324 134.638 113.021  1.00  0.00     0.123 A 
ATOM     12  C   UNL     1     138.343 134.597 114.414  1.00  0.00     0.093 A 
BRANCH   3  13
ATOM     13  C   UNL     1     132.503 133.431 112.126  1.00  0.00     0.021 A 
ATOM     14  C   UNL     1     132.275 132.053 111.993  1.00  0.00     0.016 A 
ATOM     15  C   UNL     1     131.291 131.575 111.122  1.00  0.00     0.047 A 
ATOM     16  C   UNL     1     130.525 132.474 110.372  1.00  0.00     0.115 A 
ATOM     17  C   UNL     1     131.733 134.327 111.374  1.00  0.00     0.016 A 
ATOM     18  C   UNL     1     130.730 133.852 110.522  1.00  0.00     0.047 A 
BRANCH  16  19
ATOM     19  O   UNL     1     129.555 132.016 109.485  1.00  0.00    -0.508 OA
ATOM     20  H   UNL     1     128.573 131.978 109.741  1.00  0.00     0.293 HD
ENDBRANCH  16  19
ENDBRANCH   3  13
BRANCH  10  21
ATOM     21  O   UNL     1     137.269 134.494 116.539  1.00  0.00    -0.507 OA
ATOM     22  H   UNL     1     137.958 133.965 117.069  1.00  0.00     0.293 HD
ENDBRANCH  10  21
BRANCH  11  23
ATOM     23  O   UNL     1     139.521 134.801 112.322  1.00  0.00    -0.508 OA
ATOM     24  H   UNL     1     139.945 135.713 112.204  1.00  0.00     0.293 HD
ENDBRANCH  11  23
ENDBRANCH   1   2
BRANCH   1  25
ATOM     25  C   UNL     1     131.588 135.104 115.394  1.00  0.00     0.339 C 
ATOM     26  C   UNL     1     130.200 135.171 114.708  1.00  0.00     0.214 C 
ATOM     27  O   UNL     1     131.589 135.204 116.822  1.00  0.00    -0.332 OA
ATOM     28  C   UNL     1     129.149 134.358 115.489  1.00  0.00     0.180 C 
ATOM     29  C   UNL     1     130.353 135.561 117.421  1.00  0.00     0.179 C 
ATOM     30  C   UNL     1     129.231 134.561 117.031  1.00  0.00     0.177 C 
BRANCH  26  31
ATOM     31  O   UNL     1     129.790 136.512 114.587  1.00  0.00    -0.384 OA
ATOM     32  H   UNL     1     130.313 136.916 113.844  1.00  0.00     0.211 HD
ENDBRANCH  26  31
BRANCH  28  33
ATOM     33  O   UNL     1     127.854 134.590 114.983  1.00  0.00    -0.387 OA
ATOM     34  H   UNL     1     127.914 134.531 113.996  1.00  0.00     0.211 HD
ENDBRANCH  28  33
BRANCH  29  35
ATOM     35  C   UNL     1     130.595 135.617 118.952  1.00  0.00     0.191 C 
BRANCH  35  36
ATOM     36  O   UNL     1     129.499 136.152 119.659  1.00  0.00    -0.394 OA
ATOM     37  H   UNL     1     129.073 136.828 119.061  1.00  0.00     0.210 HD
ENDBRANCH  35  36
ENDBRANCH  29  35
BRANCH  30  38
ATOM     38  O   UNL     1     127.999 135.026 117.518  1.00  0.00    -0.387 OA
ATOM     39  H   UNL     1     127.290 134.513 117.049  1.00  0.00     0.211 HD
ENDBRANCH  30  38
ENDBRANCH   1  25
TORSDOF 11
ENDMDL
MODEL 2
REMARK VINA RESULT:    -9.206      3.181      4.813
REMARK INTER + INTRA:         -14.620
REMARK INTER:                 -13.265
REMARK INTRA:                  -1.355
REMARK UNBOUND:                -1.378
REMARK SMILES O=c1c(O[C@@H]2O[C@H](CO)[C@@H](O)[C@@H](O)[C@H]2O)c(-c2ccc(O)cc2)oc2cc(O)cc(O)c12
REMARK SMILES IDX 4 1 3 2 16 3 24 4 2 5 25 6 1 7 32 8 26 9 30 10 27 11 29 12
REMARK SMILES IDX 17 13 18 14 19 15 20 16 23 17 22 18 21 19 31 21 28 23 5 25
REMARK SMILES IDX 14 26 6 27 12 28 7 29 10 30 15 31 13 33 8 35 9 36 11 38
REMARK H PARENT 21 20 31 22 28 24 15 32 13 34 9 37 11 39
REMARK Flexibility Score: inf
ROOT
ATOM      1  O   UNL     1     128.408 134.021 112.389  1.00  0.00    -0.454 OA
ENDROOT
BRANCH   1   2
ATOM      2  C   UNL     1     129.804 134.085 112.447  1.00  0.00     0.214 A 
ATOM      3  C   UNL     1     130.566 134.231 111.281  1.00  0.00     0.180 A 
ATOM      4  O   UNL     1     131.870 134.480 111.363  1.00  0.00    -0.452 OA
ATOM      5  C   UNL     1     130.474 133.981 113.672  1.00  0.00     0.239 A 
ATOM      6  C   UNL     1     132.515 134.564 112.521  1.00  0.00     0.146 A 
ATOM      7  O   UNL     1     129.856 133.518 114.667  1.00  0.00    -0.285 OA
ATOM      8  C   UNL     1     131.837 134.321 113.746  1.00  0.00     0.111 A 
ATOM      9  C   UNL     1     133.886 134.828 112.511  1.00  0.00     0.094 A 
ATOM     10  C   UNL     1     132.586 134.352 114.955  1.00  0.00     0.134 A 
ATOM     11  C   UNL     1     134.621 134.806 113.703  1.00  0.00     0.123 A 
ATOM     12  C   UNL     1     133.970 134.564 114.911  1.00  0.00     0.093 A 
BRANCH   3  13
ATOM     13  C   UNL     1     129.997 133.951 109.958  1.00  0.00     0.021 A 
ATOM     14  C   UNL     1     129.760 132.615 109.601  1.00  0.00     0.016 A 
ATOM     15  C   UNL     1     129.330 132.288 108.311  1.00  0.00     0.047 A 
ATOM     16  C   UNL     1     129.131 133.297 107.363  1.00  0.00     0.115 A 
ATOM     17  C   UNL     1     129.796 134.958 109.006  1.00  0.00     0.016 A 
ATOM     18  C   UNL     1     129.339 134.636 107.723  1.00  0.00     0.047 A 
BRANCH  16  19
ATOM     19  O   UNL     1     128.722 132.988 106.070  1.00  0.00    -0.508 OA
ATOM     20  H   UNL     1     128.179 133.640 105.512  1.00  0.00     0.293 HD
ENDBRANCH  16  19
ENDBRANCH   3  13
BRANCH  10  21
ATOM     21  O   UNL     1     132.012 134.194 116.219  1.00  0.00    -0.507 OA
ATOM     22  H   UNL     1     132.410 134.578 117.072  1.00  0.00     0.293 HD
ENDBRANCH  10  21
BRANCH  11  23
ATOM     23  O   UNL     1     135.998 135.026 113.697  1.00  0.00    -0.508 OA
ATOM     24  H   UNL     1     136.389 135.945 113.865  1.00  0.00     0.293 HD
ENDBRANCH  11  23
ENDBRANCH   1   2
BRANCH   1  25
ATOM     25  C   UNL     1     127.562 135.172 112.552  1.00  0.00     0.339 C 
ATOM     26  C   UNL     1     126.836 135.483 111.218  1.00  0.00     0.214 C 
ATOM     27  O   UNL     1     126.723 135.007 113.700  1.00  0.00    -0.332 OA
ATOM     28  C   UNL     1     125.560 134.633 111.063  1.00  0.00     0.180 C 
ATOM     29  C   UNL     1     125.357 135.352 113.526  1.00  0.00     0.179 C 
ATOM     30  C   UNL     1     124.717 134.540 112.368  1.00  0.00     0.177 C 
BRANCH  26  31
ATOM     31  O   UNL     1     126.522 136.853 111.151  1.00  0.00    -0.384 OA
ATOM     32  H   UNL     1     127.381 137.353 111.114  1.00  0.00     0.211 HD
ENDBRANCH  26  31
BRANCH  28  33
ATOM     33  O   UNL     1     124.798 135.064 109.958  1.00  0.00    -0.387 OA
ATOM     34  H   UNL     1     123.878 135.229 110.287  1.00  0.00     0.211 HD
ENDBRANCH  28  33
BRANCH  29  35
ATOM     35  C   UNL     1     124.655 135.104 114.887  1.00  0.00     0.191 C 
BRANCH  35  36
ATOM     36  O   UNL     1     123.714 134.055 114.833  1.00  0.00    -0.394 OA
ATOM     37  H   UNL     1     124.226 133.217 114.653  1.00  0.00     0.210 HD
ENDBRANCH  35  36
ENDBRANCH  29  35
BRANCH  30  38
ATOM     38  O   UNL     1     123.414 135.011 112.131  1.00  0.00    -0.387 OA
ATOM     39  H   UNL     1     122.899 134.869 112.967  1.00  0.00     0.211 HD
ENDBRANCH  30  38
ENDBRANCH   1  25
TORSDOF 11
ENDMDL
MODEL 3
REMARK VINA RESULT:    -9.204      3.811      8.958
REMARK INTER + INTRA:         -14.618
REMARK INTER:                 -13.614
REMARK INTRA:                  -1.004
REMARK UNBOUND:                -1.378
REMARK SMILES O=c1c(O[C@@H]2O[C@H](CO)[C@@H](O)[C@@H](O)[C@H]2O)c(-c2ccc(O)cc2)oc2cc(O)cc(O)c12
REMARK SMILES IDX 4 1 3 2 16 3 24 4 2 5 25 6 1 7 32 8 26 9 30 10 27 11 29 12
REMARK SMILES IDX 17 13 18 14 19 15 20 16 23 17 22 18 21 19 31 21 28 23 5 25
REMARK SMILES IDX 14 26 6 27 12 28 7 29 10 30 15 31 13 33 8 35 9 36 11 38
REMARK H PARENT 21 20 31 22 28 24 15 32 13 34 9 37 11 39
REMARK Flexibility Score: inf
ROOT
ATOM      1  O   UNL     1     128.039 135.390 110.924  1.00  0.00    -0.454 OA
ENDROOT
BRANCH   1   2
ATOM      2  C   UNL     1     127.809 134.773 112.157  1.00  0.00     0.214 A 
ATOM      3  C   UNL     1     128.863 134.207 112.886  1.00  0.00     0.180 A 
ATOM      4  O   UNL     1     128.665 133.794 114.134  1.00  0.00    -0.452 OA
ATOM      5  C   UNL     1     126.514 134.686 112.682  1.00  0.00     0.239 A 
ATOM      6  C   UNL     1     127.481 133.857 114.733  1.00  0.00     0.146 A 
ATOM      7  O   UNL     1     125.532 134.872 111.916  1.00  0.00    -0.285 OA
ATOM      8  C   UNL     1     126.337 134.318 114.028  1.00  0.00     0.111 A 
ATOM      9  C   UNL     1     127.366 133.400 116.048  1.00  0.00     0.094 A 
ATOM     10  C   UNL     1     125.077 134.299 114.690  1.00  0.00     0.134 A 
ATOM     11  C   UNL     1     126.113 133.340 116.670  1.00  0.00     0.123 A 
ATOM     12  C   UNL     1     124.981 133.782 115.988  1.00  0.00     0.093 A 
BRANCH   3  13
ATOM     13  C   UNL     1     130.150 133.900 112.251  1.00  0.00     0.021 A 
ATOM     14  C   UNL     1     130.261 132.720 111.500  1.00  0.00     0.016 A 
ATOM     15  C   UNL     1     131.495 132.324 110.974  1.00  0.00     0.047 A 
ATOM     16  C   UNL     1     132.633 133.107 111.196  1.00  0.00     0.115 A 
ATOM     17  C   UNL     1     131.292 134.681 112.470  1.00  0.00     0.016 A 
ATOM     18  C   UNL     1     132.522 134.301 111.921  1.00  0.00     0.047 A 
BRANCH  16  19
ATOM     19  O   UNL     1     133.872 132.718 110.697  1.00  0.00    -0.508 OA
ATOM     20  H   UNL     1     134.008 132.501 109.714  1.00  0.00     0.293 HD
ENDBRANCH  16  19
ENDBRANCH   3  13
BRANCH  10  21
ATOM     21  O   UNL     1     123.901 134.789 114.117  1.00  0.00    -0.507 OA
ATOM     22  H   UNL     1     123.397 134.315 113.371  1.00  0.00     0.293 HD
ENDBRANCH  10  21
BRANCH  11  23
ATOM     23  O   UNL     1     125.983 132.843 117.967  1.00  0.00    -0.508 OA
ATOM     24  H   UNL     1     125.269 132.166 118.206  1.00  0.00     0.293 HD
ENDBRANCH  11  23
ENDBRANCH   1   2
BRANCH   1  25
ATOM     25  C   UNL     1     127.465 134.924 109.691  1.00  0.00     0.339 C 
ATOM     26  C   UNL     1     127.054 136.133 108.813  1.00  0.00     0.214 C 
ATOM     27  O   UNL     1     128.331 133.965 109.076  1.00  0.00    -0.332 OA
ATOM     28  C   UNL     1     128.249 136.662 107.994  1.00  0.00     0.180 C 
ATOM     29  C   UNL     1     128.542 134.123 107.681  1.00  0.00     0.179 C 
ATOM     30  C   UNL     1     129.108 135.531 107.355  1.00  0.00     0.177 C 
BRANCH  26  31
ATOM     31  O   UNL     1     125.998 135.769 107.958  1.00  0.00    -0.384 OA
ATOM     32  H   UNL     1     126.403 135.419 107.119  1.00  0.00     0.211 HD
ENDBRANCH  26  31
BRANCH  28  33
ATOM     33  O   UNL     1     127.828 137.619 107.049  1.00  0.00    -0.387 OA
ATOM     34  H   UNL     1     127.098 138.141 107.470  1.00  0.00     0.211 HD
ENDBRANCH  28  33
BRANCH  29  35
ATOM     35  C   UNL     1     129.494 132.981 107.238  1.00  0.00     0.191 C 
BRANCH  35  36
ATOM     36  O   UNL     1     129.845 133.060 105.875  1.00  0.00    -0.394 OA
ATOM     37  H   UNL     1     129.959 132.123 105.552  1.00  0.00     0.210 HD
ENDBRANCH  35  36
ENDBRANCH  29  35
BRANCH  30  38
ATOM     38  O   UNL     1     129.165 135.703 105.962  1.00  0.00    -0.387 OA
ATOM     39  H   UNL     1     129.977 135.229 105.645  1.00  0.00     0.211 HD
ENDBRANCH  30  38
ENDBRANCH   1  25
TORSDOF 11
ENDMDL
MODEL 4
REMARK VINA RESULT:    -9.187      3.327      6.213
REMARK INTER + INTRA:         -14.593
REMARK INTER:                 -13.253
REMARK INTRA:                  -1.340
REMARK UNBOUND:                -1.378
REMARK SMILES O=c1c(O[C@@H]2O[C@H](CO)[C@@H](O)[C@@H](O)[C@H]2O)c(-c2ccc(O)cc2)oc2cc(O)cc(O)c12
REMARK SMILES IDX 4 1 3 2 16 3 24 4 2 5 25 6 1 7 32 8 26 9 30 10 27 11 29 12
REMARK SMILES IDX 17 13 18 14 19 15 20 16 23 17 22 18 21 19 31 21 28 23 5 25
REMARK SMILES IDX 14 26 6 27 12 28 7 29 10 30 15 31 13 33 8 35 9 36 11 38
REMARK H PARENT 21 20 31 22 28 24 15 32 13 34 9 37 11 39
REMARK Flexibility Score: inf
ROOT
ATOM      1  O   UNL     1     128.700 133.953 113.387  1.00  0.00    -0.454 OA
ENDROOT
BRANCH   1   2
ATOM      2  C   UNL     1     129.541 134.034 114.501  1.00  0.00     0.214 A 
ATOM      3  C   UNL     1     130.923 133.846 114.374  1.00  0.00     0.180 A 
ATOM      4  O   UNL     1     131.730 134.112 115.397  1.00  0.00    -0.452 OA
ATOM      5  C   UNL     1     129.018 134.283 115.775  1.00  0.00     0.239 A 
ATOM      6  C   UNL     1     131.282 134.521 116.578  1.00  0.00     0.146 A 
ATOM      7  O   UNL     1     127.785 134.118 115.970  1.00  0.00    -0.285 OA
ATOM      8  C   UNL     1     129.887 134.634 116.824  1.00  0.00     0.111 A 
ATOM      9  C   UNL     1     132.203 134.776 117.597  1.00  0.00     0.094 A 
ATOM     10  C   UNL     1     129.454 135.007 118.127  1.00  0.00     0.134 A 
ATOM     11  C   UNL     1     131.762 135.094 118.887  1.00  0.00     0.123 A 
ATOM     12  C   UNL     1     130.397 135.201 119.145  1.00  0.00     0.093 A 
BRANCH   3  13
ATOM     13  C   UNL     1     131.499 133.202 113.187  1.00  0.00     0.021 A 
ATOM     14  C   UNL     1     132.166 134.003 112.249  1.00  0.00     0.016 A 
ATOM     15  C   UNL     1     132.629 133.458 111.047  1.00  0.00     0.047 A 
ATOM     16  C   UNL     1     132.428 132.101 110.772  1.00  0.00     0.115 A 
ATOM     17  C   UNL     1     131.301 131.844 112.908  1.00  0.00     0.016 A 
ATOM     18  C   UNL     1     131.787 131.290 111.719  1.00  0.00     0.047 A 
BRANCH  16  19
ATOM     19  O   UNL     1     132.865 131.546 109.573  1.00  0.00    -0.508 OA
ATOM     20  H   UNL     1     133.684 131.898 109.089  1.00  0.00     0.293 HD
ENDBRANCH  16  19
ENDBRANCH   3  13
BRANCH  10  21
ATOM     21  O   UNL     1     128.113 135.211 118.462  1.00  0.00    -0.507 OA
ATOM     22  H   UNL     1     127.640 134.723 119.219  1.00  0.00     0.293 HD
ENDBRANCH  10  21
BRANCH  11  23
ATOM     23  O   UNL     1     132.675 135.306 119.921  1.00  0.00    -0.508 OA
ATOM     24  H   UNL     1     133.146 134.536 120.379  1.00  0.00     0.293 HD
ENDBRANCH  11  23
ENDBRANCH   1   2
BRANCH   1  25
ATOM     25  C   UNL     1     128.512 135.039 112.463  1.00  0.00     0.339 C 
ATOM     26  C   UNL     1     128.862 134.573 111.027  1.00  0.00     0.214 C 
ATOM     27  O   UNL     1     127.214 135.615 112.639  1.00  0.00    -0.332 OA
ATOM     28  C   UNL     1     127.664 133.869 110.359  1.00  0.00     0.180 C 
ATOM     29  C   UNL     1     126.487 135.882 111.449  1.00  0.00     0.179 C 
ATOM     30  C   UNL     1     126.308 134.594 110.600  1.00  0.00     0.177 C 
BRANCH  26  31
ATOM     31  O   UNL     1     129.276 135.673 110.253  1.00  0.00    -0.384 OA
ATOM     32  H   UNL     1     129.165 135.421 109.297  1.00  0.00     0.211 HD
ENDBRANCH  26  31
BRANCH  28  33
ATOM     33  O   UNL     1     127.915 133.634 108.993  1.00  0.00    -0.387 OA
ATOM     34  H   UNL     1     128.900 133.609 108.879  1.00  0.00     0.211 HD
ENDBRANCH  28  33
BRANCH  29  35
ATOM     35  C   UNL     1     125.132 136.503 111.880  1.00  0.00     0.191 C 
BRANCH  35  36
ATOM     36  O   UNL     1     124.086 135.560 111.917  1.00  0.00    -0.394 OA
ATOM     37  H   UNL     1     123.468 135.843 112.648  1.00  0.00     0.210 HD
ENDBRANCH  35  36
ENDBRANCH  29  35
BRANCH  30  38
ATOM     38  O   UNL     1     125.716 134.923 109.369  1.00  0.00    -0.387 OA
ATOM     39  H   UNL     1     125.983 134.218 108.723  1.00  0.00     0.211 HD
ENDBRANCH  30  38
ENDBRANCH   1  25
TORSDOF 11
ENDMDL
MODEL 5
REMARK VINA RESULT:    -9.137      2.901      7.431
REMARK INTER + INTRA:         -14.522
REMARK INTER:                 -13.989
REMARK INTRA:                  -0.533
REMARK UNBOUND:                -1.378
REMARK SMILES O=c1c(O[C@@H]2O[C@H](CO)[C@@H](O)[C@@H](O)[C@H]2O)c(-c2ccc(O)cc2)oc2cc(O)cc(O)c12
REMARK SMILES IDX 4 1 3 2 16 3 24 4 2 5 25 6 1 7 32 8 26 9 30 10 27 11 29 12
REMARK SMILES IDX 17 13 18 14 19 15 20 16 23 17 22 18 21 19 31 21 28 23 5 25
REMARK SMILES IDX 14 26 6 27 12 28 7 29 10 30 15 31 13 33 8 35 9 36 11 38
REMARK H PARENT 21 20 31 22 28 24 15 32 13 34 9 37 11 39
REMARK Flexibility Score: inf
ROOT
ATOM      1  O   UNL     1     130.491 133.056 112.699  1.00  0.00    -0.454 OA
ENDROOT
BRANCH   1   2
ATOM      2  C   UNL     1     129.488 133.657 111.932  1.00  0.00     0.214 A 
ATOM      3  C   UNL     1     128.394 134.283 112.543  1.00  0.00     0.180 A 
ATOM      4  O   UNL     1     127.551 135.012 111.817  1.00  0.00    -0.452 OA
ATOM      5  C   UNL     1     129.541 133.627 110.534  1.00  0.00     0.239 A 
ATOM      6  C   UNL     1     127.670 135.152 110.502  1.00  0.00     0.146 A 
ATOM      7  O   UNL     1     130.306 132.800 109.971  1.00  0.00    -0.285 OA
ATOM      8  C   UNL     1     128.688 134.462 109.790  1.00  0.00     0.111 A 
ATOM      9  C   UNL     1     126.737 135.936 109.821  1.00  0.00     0.094 A 
ATOM     10  C   UNL     1     128.731 134.588 108.374  1.00  0.00     0.134 A 
ATOM     11  C   UNL     1     126.760 136.011 108.423  1.00  0.00     0.123 A 
ATOM     12  C   UNL     1     127.749 135.335 107.711  1.00  0.00     0.093 A 
BRANCH   3  13
ATOM     13  C   UNL     1     128.053 134.023 113.947  1.00  0.00     0.021 A 
ATOM     14  C   UNL     1     126.712 134.144 114.342  1.00  0.00     0.016 A 
ATOM     15  C   UNL     1     126.353 134.021 115.688  1.00  0.00     0.047 A 
ATOM     16  C   UNL     1     127.334 133.776 116.654  1.00  0.00     0.115 A 
ATOM     17  C   UNL     1     129.032 133.777 114.917  1.00  0.00     0.016 A 
ATOM     18  C   UNL     1     128.671 133.627 116.261  1.00  0.00     0.047 A 
BRANCH  16  19
ATOM     19  O   UNL     1     126.998 133.671 118.000  1.00  0.00    -0.508 OA
ATOM     20  H   UNL     1     126.116 133.266 118.300  1.00  0.00     0.293 HD
ENDBRANCH  16  19
ENDBRANCH   3  13
BRANCH  10  21
ATOM     21  O   UNL     1     129.725 134.008 107.581  1.00  0.00    -0.507 OA
ATOM     22  H   UNL     1     129.852 133.005 107.479  1.00  0.00     0.293 HD
ENDBRANCH  10  21
BRANCH  11  23
ATOM     23  O   UNL     1     125.805 136.757 107.731  1.00  0.00    -0.508 OA
ATOM     24  H   UNL     1     125.160 136.322 107.083  1.00  0.00     0.293 HD
ENDBRANCH  11  23
ENDBRANCH   1   2
BRANCH   1  25
ATOM     25  C   UNL     1     131.834 133.563 112.772  1.00  0.00     0.339 C 
ATOM     26  C   UNL     1     131.845 135.074 112.431  1.00  0.00     0.214 C 
ATOM     27  O   UNL     1     132.432 133.195 114.019  1.00  0.00    -0.332 OA
ATOM     28  C   UNL     1     131.512 135.930 113.669  1.00  0.00     0.180 C 
ATOM     29  C   UNL     1     133.143 134.222 114.694  1.00  0.00     0.179 C 
ATOM     30  C   UNL     1     132.233 135.451 114.963  1.00  0.00     0.177 C 
BRANCH  26  31
ATOM     31  O   UNL     1     133.098 135.440 111.907  1.00  0.00    -0.384 OA
ATOM     32  H   UNL     1     133.035 135.375 110.916  1.00  0.00     0.211 HD
ENDBRANCH  26  31
BRANCH  28  33
ATOM     33  O   UNL     1     131.724 137.299 113.409  1.00  0.00    -0.387 OA
ATOM     34  H   UNL     1     132.596 137.373 112.943  1.00  0.00     0.211 HD
ENDBRANCH  28  33
BRANCH  29  35
ATOM     35  C   UNL     1     133.703 133.598 115.999  1.00  0.00     0.191 C 
BRANCH  35  36
ATOM     36  O   UNL     1     132.966 133.970 117.141  1.00  0.00    -0.394 OA
ATOM     37  H   UNL     1     133.391 133.511 117.920  1.00  0.00     0.210 HD
ENDBRANCH  35  36
ENDBRANCH  29  35
BRANCH  30  38
ATOM     38  O   UNL     1     133.004 136.497 115.496  1.00  0.00    -0.387 OA
ATOM     39  H   UNL     1     133.946 136.324 115.236  1.00  0.00     0.211 HD
ENDBRANCH  30  38
ENDBRANCH   1  25
TORSDOF 11
ENDMDL
MODEL 6
REMARK VINA RESULT:    -9.000      3.343      8.244
REMARK INTER + INTRA:         -14.325
REMARK INTER:                 -13.759
REMARK INTRA:                  -0.565
REMARK UNBOUND:                -1.378
REMARK SMILES O=c1c(O[C@@H]2O[C@H](CO)[C@@H](O)[C@@H](O)[C@H]2O)c(-c2ccc(O)cc2)oc2cc(O)cc(O)c12
REMARK SMILES IDX 4 1 3 2 16 3 24 4 2 5 25 6 1 7 32 8 26 9 30 10 27 11 29 12
REMARK SMILES IDX 17 13 18 14 19 15 20 16 23 17 22 18 21 19 31 21 28 23 5 25
REMARK SMILES IDX 14 26 6 27 12 28 7 29 10 30 15 31 13 33 8 35 9 36 11 38
REMARK H PARENT 21 20 31 22 28 24 15 32 13 34 9 37 11 39
REMARK Flexibility Score: inf
ROOT
ATOM      1  O   UNL     1     129.695 134.288 111.815  1.00  0.00    -0.454 OA
ENDROOT
BRANCH   1   2
ATOM      2  C   UNL     1     128.345 134.481 112.123  1.00  0.00     0.214 A 
ATOM      3  C   UNL     1     127.382 134.570 111.110  1.00  0.00     0.180 A 
ATOM      4  O   UNL     1     126.088 134.563 111.417  1.00  0.00    -0.452 OA
ATOM      5  C   UNL     1     127.926 134.613 113.453  1.00  0.00     0.239 A 
ATOM      6  C   UNL     1     125.645 134.512 112.668  1.00  0.00     0.146 A 
ATOM      7  O   UNL     1     128.783 134.874 114.338  1.00  0.00    -0.285 OA
ATOM      8  C   UNL     1     126.556 134.528 113.759  1.00  0.00     0.111 A 
ATOM      9  C   UNL     1     124.268 134.509 112.896  1.00  0.00     0.094 A 
ATOM     10  C   UNL     1     126.032 134.544 115.082  1.00  0.00     0.134 A 
ATOM     11  C   UNL     1     123.765 134.576 114.202  1.00  0.00     0.123 A 
ATOM     12  C   UNL     1     124.647 134.599 115.281  1.00  0.00     0.093 A 
BRANCH   3  13
ATOM     13  C   UNL     1     127.762 134.840 109.718  1.00  0.00     0.021 A 
ATOM     14  C   UNL     1     128.743 134.033 109.125  1.00  0.00     0.016 A 
ATOM     15  C   UNL     1     129.224 134.321 107.844  1.00  0.00     0.047 A 
ATOM     16  C   UNL     1     128.726 135.425 107.143  1.00  0.00     0.115 A 
ATOM     17  C   UNL     1     127.266 135.944 109.013  1.00  0.00     0.016 A 
ATOM     18  C   UNL     1     127.726 136.219 107.720  1.00  0.00     0.047 A 
BRANCH  16  19
ATOM     19  O   UNL     1     129.207 135.739 105.875  1.00  0.00    -0.508 OA
ATOM     20  H   UNL     1     130.196 135.685 105.651  1.00  0.00     0.293 HD
ENDBRANCH  16  19
ENDBRANCH   3  13
BRANCH  10  21
ATOM     21  O   UNL     1     126.833 134.495 116.225  1.00  0.00    -0.507 OA
ATOM     22  H   UNL     1     127.005 133.646 116.757  1.00  0.00     0.293 HD
ENDBRANCH  10  21
BRANCH  11  23
ATOM     23  O   UNL     1     122.391 134.618 114.437  1.00  0.00    -0.508 OA
ATOM     24  H   UNL     1     121.732 134.172 113.811  1.00  0.00     0.293 HD
ENDBRANCH  11  23
ENDBRANCH   1   2
BRANCH   1  25
ATOM     25  C   UNL     1     130.482 133.219 112.368  1.00  0.00     0.339 C 
ATOM     26  C   UNL     1     131.005 132.308 111.229  1.00  0.00     0.214 C 
ATOM     27  O   UNL     1     131.472 133.746 113.257  1.00  0.00    -0.332 OA
ATOM     28  C   UNL     1     132.300 132.871 110.612  1.00  0.00     0.180 C 
ATOM     29  C   UNL     1     132.780 133.210 113.118  1.00  0.00     0.179 C 
ATOM     30  C   UNL     1     133.312 133.397 111.672  1.00  0.00     0.177 C 
BRANCH  26  31
ATOM     31  O   UNL     1     131.221 131.006 111.716  1.00  0.00    -0.384 OA
ATOM     32  H   UNL     1     131.696 130.498 111.005  1.00  0.00     0.211 HD
ENDBRANCH  26  31
BRANCH  28  33
ATOM     33  O   UNL     1     132.882 131.942 109.726  1.00  0.00    -0.387 OA
ATOM     34  H   UNL     1     132.321 131.125 109.752  1.00  0.00     0.211 HD
ENDBRANCH  28  33
BRANCH  29  35
ATOM     35  C   UNL     1     133.669 133.916 114.176  1.00  0.00     0.191 C 
BRANCH  35  36
ATOM     36  O   UNL     1     134.698 134.686 113.598  1.00  0.00    -0.394 OA
ATOM     37  H   UNL     1     135.425 134.051 113.343  1.00  0.00     0.210 HD
ENDBRANCH  35  36
ENDBRANCH  29  35
BRANCH  30  38
ATOM     38  O   UNL     1     134.540 132.729 111.535  1.00  0.00    -0.387 OA
ATOM     39  H   UNL     1     134.764 132.351 112.425  1.00  0.00     0.211 HD
ENDBRANCH  30  38
ENDBRANCH   1  25
TORSDOF 11
ENDMDL
MODEL 7
REMARK VINA RESULT:    -8.968      1.703      5.587
REMARK INTER + INTRA:         -14.278
REMARK INTER:                 -14.701
REMARK INTRA:                   0.424
REMARK UNBOUND:                -1.378
REMARK SMILES O=c1c(O[C@@H]2O[C@H](CO)[C@@H](O)[C@@H](O)[C@H]2O)c(-c2ccc(O)cc2)oc2cc(O)cc(O)c12
REMARK SMILES IDX 4 1 3 2 16 3 24 4 2 5 25 6 1 7 32 8 26 9 30 10 27 11 29 12
REMARK SMILES IDX 17 13 18 14 19 15 20 16 23 17 22 18 21 19 31 21 28 23 5 25
REMARK SMILES IDX 14 26 6 27 12 28 7 29 10 30 15 31 13 33 8 35 9 36 11 38
REMARK H PARENT 21 20 31 22 28 24 15 32 13 34 9 37 11 39
REMARK Flexibility Score: inf
ROOT
ATOM      1  O   UNL     1     132.914 134.220 113.433  1.00  0.00    -0.454 OA
ENDROOT
BRANCH   1   2
ATOM      2  C   UNL     1     134.099 134.381 114.157  1.00  0.00     0.214 A 
ATOM      3  C   UNL     1     134.109 134.269 115.553  1.00  0.00     0.180 A 
ATOM      4  O   UNL     1     135.263 134.235 116.212  1.00  0.00    -0.452 OA
ATOM      5  C   UNL     1     135.301 134.680 113.505  1.00  0.00     0.239 A 
ATOM      6  C   UNL     1     136.440 134.341 115.607  1.00  0.00     0.146 A 
ATOM      7  O   UNL     1     135.261 135.114 112.324  1.00  0.00    -0.285 OA
ATOM      8  C   UNL     1     136.515 134.565 114.205  1.00  0.00     0.111 A 
ATOM      9  C   UNL     1     137.603 134.295 116.379  1.00  0.00     0.094 A 
ATOM     10  C   UNL     1     137.797 134.743 113.613  1.00  0.00     0.134 A 
ATOM     11  C   UNL     1     138.853 134.522 115.792  1.00  0.00     0.123 A 
ATOM     12  C   UNL     1     138.942 134.749 114.420  1.00  0.00     0.093 A 
BRANCH   3  13
ATOM     13  C   UNL     1     132.868 134.356 116.334  1.00  0.00     0.021 A 
ATOM     14  C   UNL     1     131.736 134.920 115.729  1.00  0.00     0.016 A 
ATOM     15  C   UNL     1     130.566 135.133 116.465  1.00  0.00     0.047 A 
ATOM     16  C   UNL     1     130.519 134.782 117.818  1.00  0.00     0.115 A 
ATOM     17  C   UNL     1     132.816 134.006 117.689  1.00  0.00     0.016 A 
ATOM     18  C   UNL     1     131.639 134.193 118.421  1.00  0.00     0.047 A 
BRANCH  16  19
ATOM     19  O   UNL     1     129.370 135.005 118.571  1.00  0.00    -0.508 OA
ATOM     20  H   UNL     1     129.062 134.348 119.282  1.00  0.00     0.293 HD
ENDBRANCH  16  19
ENDBRANCH   3  13
BRANCH  10  21
ATOM     21  O   UNL     1     137.992 134.904 112.239  1.00  0.00    -0.507 OA
ATOM     22  H   UNL     1     137.289 134.683 111.539  1.00  0.00     0.293 HD
ENDBRANCH  10  21
BRANCH  11  23
ATOM     23  O   UNL     1     140.015 134.521 116.564  1.00  0.00    -0.508 OA
ATOM     24  H   UNL     1     140.144 133.868 117.327  1.00  0.00     0.293 HD
ENDBRANCH  11  23
ENDBRANCH   1   2
BRANCH   1  25
ATOM     25  C   UNL     1     132.881 134.064 112.004  1.00  0.00     0.339 C 
ATOM     26  C   UNL     1     133.042 132.568 111.635  1.00  0.00     0.214 C 
ATOM     27  O   UNL     1     131.733 134.725 111.462  1.00  0.00    -0.332 OA
ATOM     28  C   UNL     1     131.691 131.828 111.693  1.00  0.00     0.180 C 
ATOM     29  C   UNL     1     130.997 133.997 110.492  1.00  0.00     0.179 C 
ATOM     30  C   UNL     1     130.519 132.632 111.058  1.00  0.00     0.177 C 
BRANCH  26  31
ATOM     31  O   UNL     1     133.611 132.447 110.354  1.00  0.00    -0.384 OA
ATOM     32  H   UNL     1     132.877 132.564 109.691  1.00  0.00     0.211 HD
ENDBRANCH  26  31
BRANCH  28  33
ATOM     33  O   UNL     1     131.804 130.528 111.160  1.00  0.00    -0.387 OA
ATOM     34  H   UNL     1     130.894 130.248 110.883  1.00  0.00     0.211 HD
ENDBRANCH  28  33
BRANCH  29  35
ATOM     35  C   UNL     1     129.818 134.903 110.048  1.00  0.00     0.191 C 
BRANCH  35  36
ATOM     36  O   UNL     1     130.246 136.057 109.360  1.00  0.00    -0.394 OA
ATOM     37  H   UNL     1     130.858 135.749 108.634  1.00  0.00     0.210 HD
ENDBRANCH  35  36
ENDBRANCH  29  35
BRANCH  30  38
ATOM     38  O   UNL     1     129.925 131.881 110.030  1.00  0.00    -0.387 OA
ATOM     39  H   UNL     1     129.268 131.273 110.459  1.00  0.00     0.211 HD
ENDBRANCH  30  38
ENDBRANCH   1  25
TORSDOF 11
ENDMDL
MODEL 8
REMARK VINA RESULT:    -8.873      3.093      5.056
REMARK INTER + INTRA:         -14.141
REMARK INTER:                 -12.990
REMARK INTRA:                  -1.152
REMARK UNBOUND:                -1.378
REMARK SMILES O=c1c(O[C@@H]2O[C@H](CO)[C@@H](O)[C@@H](O)[C@H]2O)c(-c2ccc(O)cc2)oc2cc(O)cc(O)c12
REMARK SMILES IDX 4 1 3 2 16 3 24 4 2 5 25 6 1 7 32 8 26 9 30 10 27 11 29 12
REMARK SMILES IDX 17 13 18 14 19 15 20 16 23 17 22 18 21 19 31 21 28 23 5 25
REMARK SMILES IDX 14 26 6 27 12 28 7 29 10 30 15 31 13 33 8 35 9 36 11 38
REMARK H PARENT 21 20 31 22 28 24 15 32 13 34 9 37 11 39
REMARK Flexibility Score: inf
ROOT
ATOM      1  O   UNL     1     128.759 135.524 112.339  1.00  0.00    -0.454 OA
ENDROOT
BRANCH   1   2
ATOM      2  C   UNL     1     130.122 135.225 112.430  1.00  0.00     0.214 A 
ATOM      3  C   UNL     1     130.844 134.811 111.303  1.00  0.00     0.180 A 
ATOM      4  O   UNL     1     132.168 134.713 111.358  1.00  0.00    -0.452 OA
ATOM      5  C   UNL     1     130.793 135.312 113.655  1.00  0.00     0.239 A 
ATOM      6  C   UNL     1     132.863 134.959 112.463  1.00  0.00     0.146 A 
ATOM      7  O   UNL     1     130.119 135.348 114.718  1.00  0.00    -0.285 OA
ATOM      8  C   UNL     1     132.199 135.280 113.678  1.00  0.00     0.111 A 
ATOM      9  C   UNL     1     134.253 134.831 112.429  1.00  0.00     0.094 A 
ATOM     10  C   UNL     1     132.982 135.465 114.852  1.00  0.00     0.134 A 
ATOM     11  C   UNL     1     135.007 134.965 113.601  1.00  0.00     0.123 A 
ATOM     12  C   UNL     1     134.369 135.275 114.801  1.00  0.00     0.093 A 
BRANCH   3  13
ATOM     13  C   UNL     1     130.162 134.316 110.101  1.00  0.00     0.021 A 
ATOM     14  C   UNL     1     129.941 132.936 109.978  1.00  0.00     0.016 A 
ATOM     15  C   UNL     1     129.403 132.403 108.803  1.00  0.00     0.047 A 
ATOM     16  C   UNL     1     129.080 133.248 107.736  1.00  0.00     0.115 A 
ATOM     17  C   UNL     1     129.837 135.158 109.031  1.00  0.00     0.016 A 
ATOM     18  C   UNL     1     129.273 134.630 107.864  1.00  0.00     0.047 A 
BRANCH  16  19
ATOM     19  O   UNL     1     128.562 132.732 106.552  1.00  0.00    -0.508 OA
ATOM     20  H   UNL     1     128.343 131.746 106.449  1.00  0.00     0.293 HD
ENDBRANCH  16  19
ENDBRANCH   3  13
BRANCH  10  21
ATOM     21  O   UNL     1     132.442 135.847 116.083  1.00  0.00    -0.507 OA
ATOM     22  H   UNL     1     131.895 136.692 116.221  1.00  0.00     0.293 HD
ENDBRANCH  10  21
BRANCH  11  23
ATOM     23  O   UNL     1     136.391 134.795 113.583  1.00  0.00    -0.508 OA
ATOM     24  H   UNL     1     136.834 134.006 114.037  1.00  0.00     0.293 HD
ENDBRANCH  11  23
ENDBRANCH   1   2
BRANCH   1  25
ATOM     25  C   UNL     1     127.728 134.525 112.411  1.00  0.00     0.339 C 
ATOM     26  C   UNL     1     126.947 134.670 113.742  1.00  0.00     0.214 C 
ATOM     27  O   UNL     1     126.942 134.542 111.215  1.00  0.00    -0.332 OA
ATOM     28  C   UNL     1     125.835 135.732 113.625  1.00  0.00     0.180 C 
ATOM     29  C   UNL     1     125.535 134.480 111.396  1.00  0.00     0.179 C 
ATOM     30  C   UNL     1     125.033 135.643 112.294  1.00  0.00     0.177 C 
BRANCH  26  31
ATOM     31  O   UNL     1     126.401 133.429 114.116  1.00  0.00    -0.384 OA
ATOM     32  H   UNL     1     127.081 132.732 113.914  1.00  0.00     0.211 HD
ENDBRANCH  26  31
BRANCH  28  33
ATOM     33  O   UNL     1     125.000 135.714 114.760  1.00  0.00    -0.387 OA
ATOM     34  H   UNL     1     124.066 135.759 114.433  1.00  0.00     0.211 HD
ENDBRANCH  28  33
BRANCH  29  35
ATOM     35  C   UNL     1     124.899 134.503 109.981  1.00  0.00     0.191 C 
BRANCH  35  36
ATOM     36  O   UNL     1     123.491 134.532 110.016  1.00  0.00    -0.394 OA
ATOM     37  H   UNL     1     123.208 133.937 110.766  1.00  0.00     0.210 HD
ENDBRANCH  35  36
ENDBRANCH  29  35
BRANCH  30  38
ATOM     38  O   UNL     1     123.667 135.465 112.569  1.00  0.00    -0.387 OA
ATOM     39  H   UNL     1     123.232 136.350 112.453  1.00  0.00     0.211 HD
ENDBRANCH  30  38
ENDBRANCH   1  25
TORSDOF 11
ENDMDL
MODEL 9
REMARK VINA RESULT:    -8.733      3.144      5.977
REMARK INTER + INTRA:         -13.940
REMARK INTER:                 -12.981
REMARK INTRA:                  -0.959
REMARK UNBOUND:                -1.378
REMARK SMILES O=c1c(O[C@@H]2O[C@H](CO)[C@@H](O)[C@@H](O)[C@H]2O)c(-c2ccc(O)cc2)oc2cc(O)cc(O)c12
REMARK SMILES IDX 4 1 3 2 16 3 24 4 2 5 25 6 1 7 32 8 26 9 30 10 27 11 29 12
REMARK SMILES IDX 17 13 18 14 19 15 20 16 23 17 22 18 21 19 31 21 28 23 5 25
REMARK SMILES IDX 14 26 6 27 12 28 7 29 10 30 15 31 13 33 8 35 9 36 11 38
REMARK H PARENT 21 20 31 22 28 24 15 32 13 34 9 37 11 39
REMARK Flexibility Score: inf
ROOT
ATOM      1  O   UNL     1     128.363 134.128 112.852  1.00  0.00    -0.454 OA
ENDROOT
BRANCH   1   2
ATOM      2  C   UNL     1     129.690 134.256 113.273  1.00  0.00     0.214 A 
ATOM      3  C   UNL     1     130.069 133.896 114.573  1.00  0.00     0.180 A 
ATOM      4  O   UNL     1     131.356 133.842 114.902  1.00  0.00    -0.452 OA
ATOM      5  C   UNL     1     130.668 134.768 112.413  1.00  0.00     0.239 A 
ATOM      6  C   UNL     1     132.329 134.154 114.054  1.00  0.00     0.146 A 
ATOM      7  O   UNL     1     130.305 135.402 111.387  1.00  0.00    -0.285 OA
ATOM      8  C   UNL     1     132.027 134.632 112.750  1.00  0.00     0.111 A 
ATOM      9  C   UNL     1     133.654 134.068 114.486  1.00  0.00     0.094 A 
ATOM     10  C   UNL     1     133.101 135.021 111.902  1.00  0.00     0.134 A 
ATOM     11  C   UNL     1     134.699 134.502 113.661  1.00  0.00     0.123 A 
ATOM     12  C   UNL     1     134.417 134.979 112.382  1.00  0.00     0.093 A 
BRANCH   3  13
ATOM     13  C   UNL     1     129.075 133.736 115.641  1.00  0.00     0.021 A 
ATOM     14  C   UNL     1     129.124 134.610 116.737  1.00  0.00     0.016 A 
ATOM     15  C   UNL     1     128.276 134.426 117.833  1.00  0.00     0.047 A 
ATOM     16  C   UNL     1     127.367 133.363 117.843  1.00  0.00     0.115 A 
ATOM     17  C   UNL     1     128.163 132.673 115.655  1.00  0.00     0.016 A 
ATOM     18  C   UNL     1     127.294 132.504 116.738  1.00  0.00     0.047 A 
BRANCH  16  19
ATOM     19  O   UNL     1     126.529 133.153 118.934  1.00  0.00    -0.508 OA
ATOM     20  H   UNL     1     125.601 132.755 118.825  1.00  0.00     0.293 HD
ENDBRANCH  16  19
ENDBRANCH   3  13
BRANCH  10  21
ATOM     21  O   UNL     1     132.925 135.442 110.582  1.00  0.00    -0.507 OA
ATOM     22  H   UNL     1     132.265 135.015 109.937  1.00  0.00     0.293 HD
ENDBRANCH  10  21
BRANCH  11  23
ATOM     23  O   UNL     1     136.022 134.461 114.102  1.00  0.00    -0.508 OA
ATOM     24  H   UNL     1     136.651 135.241 113.962  1.00  0.00     0.293 HD
ENDBRANCH  11  23
ENDBRANCH   1   2
BRANCH   1  25
ATOM     25  C   UNL     1     127.413 135.206 112.907  1.00  0.00     0.339 C 
ATOM     26  C   UNL     1     126.921 135.546 111.477  1.00  0.00     0.214 C 
ATOM     27  O   UNL     1     126.395 134.916 113.870  1.00  0.00    -0.332 OA
ATOM     28  C   UNL     1     125.766 134.620 111.048  1.00  0.00     0.180 C 
ATOM     29  C   UNL     1     125.061 135.176 113.460  1.00  0.00     0.179 C 
ATOM     30  C   UNL     1     124.708 134.393 112.167  1.00  0.00     0.177 C 
BRANCH  26  31
ATOM     31  O   UNL     1     126.518 136.892 111.415  1.00  0.00    -0.384 OA
ATOM     32  H   UNL     1     126.625 137.276 112.327  1.00  0.00     0.211 HD
ENDBRANCH  26  31
BRANCH  28  33
ATOM     33  O   UNL     1     125.187 135.063 109.841  1.00  0.00    -0.387 OA
ATOM     34  H   UNL     1     125.271 136.050 109.824  1.00  0.00     0.211 HD
ENDBRANCH  28  33
BRANCH  29  35
ATOM     35  C   UNL     1     124.144 134.799 114.654  1.00  0.00     0.191 C 
BRANCH  35  36
ATOM     36  O   UNL     1     122.773 134.902 114.342  1.00  0.00    -0.394 OA
ATOM     37  H   UNL     1     122.270 134.580 115.143  1.00  0.00     0.210 HD
ENDBRANCH  35  36
ENDBRANCH  29  35
BRANCH  30  38
ATOM     38  O   UNL     1     123.438 134.786 111.713  1.00  0.00    -0.387 OA
ATOM     39  H   UNL     1     123.099 134.054 111.135  1.00  0.00     0.211 HD
ENDBRANCH  30  38
ENDBRANCH   1  25
TORSDOF 11
ENDMDL
