MODEL 1
REMARK VINA RESULT:    -5.465      0.000      0.000
REMARK INTER + INTRA:          -6.724
REMARK INTER:                  -6.423
REMARK INTRA:                  -0.300
REMARK UNBOUND:                -0.300
REMARK SMILES O=c1cc(-c2ccc(O)c(O)c2)oc2cc(O)cc(O)c12
REMARK SMILES IDX 4 1 3 2 2 3 1 4 21 5 19 6 18 7 16 8 15 9 14 10 13 11 5 12
REMARK SMILES IDX 6 13 7 14 8 15 12 16 10 17 9 18 11 20 20 22 17 24
REMARK H PARENT 9 19 11 21 20 23 17 25
REMARK Flexibility Score: inf
ROOT
ATOM      1  C   UNL     1     110.749 108.246 113.583  1.00  0.00     0.138 A 
ATOM      2  C   UNL     1     109.975 107.077 113.609  1.00  0.00     0.100 A 
ATOM      3  C   UNL     1     108.600 107.163 113.828  1.00  0.00     0.197 A 
ATOM      4  O   UNL     1     107.943 106.093 113.908  1.00  0.00    -0.289 OA
ATOM      5  C   UNL     1     107.993 108.431 113.992  1.00  0.00     0.107 A 
ATOM      6  C   UNL     1     106.594 108.643 114.181  1.00  0.00     0.134 A 
ATOM      7  C   UNL     1     106.123 109.934 114.448  1.00  0.00     0.093 A 
ATOM      8  C   UNL     1     106.991 111.028 114.472  1.00  0.00     0.123 A 
ATOM      9  C   UNL     1     108.350 110.839 114.235  1.00  0.00     0.094 A 
ATOM     10  C   UNL     1     108.856 109.558 114.000  1.00  0.00     0.146 A 
ATOM     11  O   UNL     1     110.162 109.419 113.794  1.00  0.00    -0.456 OA
ENDROOT
BRANCH   1  12
ATOM     12  C   UNL     1     112.215 108.211 113.352  1.00  0.00     0.021 A 
ATOM     13  C   UNL     1     112.752 107.270 112.456  1.00  0.00     0.016 A 
ATOM     14  C   UNL     1     114.129 107.212 112.227  1.00  0.00     0.051 A 
ATOM     15  C   UNL     1     114.994 108.085 112.898  1.00  0.00     0.157 A 
ATOM     16  C   UNL     1     113.092 109.078 114.033  1.00  0.00     0.062 A 
ATOM     17  C   UNL     1     114.475 109.017 113.805  1.00  0.00     0.158 A 
BRANCH  15  18
ATOM     18  O   UNL     1     116.368 108.030 112.672  1.00  0.00    -0.504 OA
ATOM     19  H   UNL     1     117.003 108.693 113.102  1.00  0.00     0.293 HD
ENDBRANCH  15  18
BRANCH  17  20
ATOM     20  O   UNL     1     115.339 109.878 114.479  1.00  0.00    -0.504 OA
ATOM     21  H   UNL     1     115.419 110.855 114.226  1.00  0.00     0.293 HD
ENDBRANCH  17  20
ENDBRANCH   1  12
BRANCH   6  22
ATOM     22  O   UNL     1     105.631 107.633 114.093  1.00  0.00    -0.507 OA
ATOM     23  H   UNL     1     105.512 107.018 113.302  1.00  0.00     0.293 HD
ENDBRANCH   6  22
BRANCH   8  24
ATOM     24  O   UNL     1     106.510 112.312 114.724  1.00  0.00    -0.508 OA
ATOM     25  H   UNL     1     105.528 112.484 114.904  1.00  0.00     0.293 HD
ENDBRANCH   8  24
TORSDOF 5
ENDMDL
MODEL 2
REMARK VINA RESULT:    -5.237      1.941      2.391
REMARK INTER + INTRA:          -6.456
REMARK INTER:                  -6.191
REMARK INTRA:                  -0.265
REMARK UNBOUND:                -0.300
REMARK SMILES O=c1cc(-c2ccc(O)c(O)c2)oc2cc(O)cc(O)c12
REMARK SMILES IDX 4 1 3 2 2 3 1 4 21 5 19 6 18 7 16 8 15 9 14 10 13 11 5 12
REMARK SMILES IDX 6 13 7 14 8 15 12 16 10 17 9 18 11 20 20 22 17 24
REMARK H PARENT 9 19 11 21 20 23 17 25
REMARK Flexibility Score: inf
ROOT
ATOM      1  C   UNL     1     110.992 107.825 114.975  1.00  0.00     0.138 A 
ATOM      2  C   UNL     1     110.807 107.605 116.347  1.00  0.00     0.100 A 
ATOM      3  C   UNL     1     109.514 107.525 116.866  1.00  0.00     0.197 A 
ATOM      4  O   UNL     1     109.381 107.388 118.109  1.00  0.00    -0.289 OA
ATOM      5  C   UNL     1     108.401 107.637 116.000  1.00  0.00     0.107 A 
ATOM      6  C   UNL     1     107.038 107.532 116.410  1.00  0.00     0.134 A 
ATOM      7  C   UNL     1     106.018 107.775 115.483  1.00  0.00     0.093 A 
ATOM      8  C   UNL     1     106.311 108.061 114.147  1.00  0.00     0.123 A 
ATOM      9  C   UNL     1     107.637 108.113 113.725  1.00  0.00     0.094 A 
ATOM     10  C   UNL     1     108.677 107.908 114.633  1.00  0.00     0.146 A 
ATOM     11  O   UNL     1     109.930 107.983 114.192  1.00  0.00    -0.456 OA
ENDROOT
BRANCH   1  12
ATOM     12  C   UNL     1     112.345 107.917 114.371  1.00  0.00     0.021 A 
ATOM     13  C   UNL     1     112.785 106.904 113.502  1.00  0.00     0.016 A 
ATOM     14  C   UNL     1     114.056 106.963 112.926  1.00  0.00     0.051 A 
ATOM     15  C   UNL     1     114.914 108.030 113.218  1.00  0.00     0.157 A 
ATOM     16  C   UNL     1     113.218 108.982 114.669  1.00  0.00     0.062 A 
ATOM     17  C   UNL     1     114.496 109.039 114.093  1.00  0.00     0.158 A 
BRANCH  15  18
ATOM     18  O   UNL     1     116.183 108.094 112.644  1.00  0.00    -0.504 OA
ATOM     19  H   UNL     1     117.009 108.271 113.204  1.00  0.00     0.293 HD
ENDBRANCH  15  18
BRANCH  17  20
ATOM     20  O   UNL     1     115.356 110.095 114.389  1.00  0.00    -0.504 OA
ATOM     21  H   UNL     1     115.085 111.059 114.237  1.00  0.00     0.293 HD
ENDBRANCH  17  20
ENDBRANCH   1  12
BRANCH   6  22
ATOM     22  O   UNL     1     106.636 107.168 117.699  1.00  0.00    -0.507 OA
ATOM     23  H   UNL     1     106.757 106.252 118.104  1.00  0.00     0.293 HD
ENDBRANCH   6  22
BRANCH   8  24
ATOM     24  O   UNL     1     105.287 108.287 113.228  1.00  0.00    -0.508 OA
ATOM     25  H   UNL     1     105.405 108.083 112.243  1.00  0.00     0.293 HD
ENDBRANCH   8  24
TORSDOF 5
ENDMDL
MODEL 3
REMARK VINA RESULT:    -5.232      1.328      1.328
REMARK INTER + INTRA:          -6.450
REMARK INTER:                  -6.133
REMARK INTRA:                  -0.317
REMARK UNBOUND:                -0.300
REMARK SMILES O=c1cc(-c2ccc(O)c(O)c2)oc2cc(O)cc(O)c12
REMARK SMILES IDX 4 1 3 2 2 3 1 4 21 5 19 6 18 7 16 8 15 9 14 10 13 11 5 12
REMARK SMILES IDX 6 13 7 14 8 15 12 16 10 17 9 18 11 20 20 22 17 24
REMARK H PARENT 9 19 11 21 20 23 17 25
REMARK Flexibility Score: inf
ROOT
ATOM      1  C   UNL     1     110.936 107.834 114.226  1.00  0.00     0.138 A 
ATOM      2  C   UNL     1     110.181 106.712 113.854  1.00  0.00     0.100 A 
ATOM      3  C   UNL     1     108.841 106.626 114.232  1.00  0.00     0.197 A 
ATOM      4  O   UNL     1     108.207 105.580 113.936  1.00  0.00    -0.289 OA
ATOM      5  C   UNL     1     108.246 107.683 114.961  1.00  0.00     0.107 A 
ATOM      6  C   UNL     1     106.878 107.722 115.365  1.00  0.00     0.134 A 
ATOM      7  C   UNL     1     106.430 108.766 116.183  1.00  0.00     0.093 A 
ATOM      8  C   UNL     1     107.286 109.804 116.560  1.00  0.00     0.123 A 
ATOM      9  C   UNL     1     108.609 109.803 116.126  1.00  0.00     0.094 A 
ATOM     10  C   UNL     1     109.094 108.757 115.338  1.00  0.00     0.146 A 
ATOM     11  O   UNL     1     110.368 108.787 114.958  1.00  0.00    -0.456 OA
ENDROOT
BRANCH   1  12
ATOM     12  C   UNL     1     112.365 107.977 113.849  1.00  0.00     0.021 A 
ATOM     13  C   UNL     1     112.941 107.056 112.957  1.00  0.00     0.016 A 
ATOM     14  C   UNL     1     114.285 107.165 112.592  1.00  0.00     0.051 A 
ATOM     15  C   UNL     1     115.079 108.189 113.122  1.00  0.00     0.157 A 
ATOM     16  C   UNL     1     113.173 108.998 114.387  1.00  0.00     0.062 A 
ATOM     17  C   UNL     1     114.524 109.105 114.023  1.00  0.00     0.158 A 
BRANCH  15  18
ATOM     18  O   UNL     1     116.421 108.302 112.760  1.00  0.00    -0.504 OA
ATOM     19  H   UNL     1     117.036 108.971 113.208  1.00  0.00     0.293 HD
ENDBRANCH  15  18
BRANCH  17  20
ATOM     20  O   UNL     1     115.320 110.117 114.556  1.00  0.00    -0.504 OA
ATOM     21  H   UNL     1     116.330 110.077 114.511  1.00  0.00     0.293 HD
ENDBRANCH  17  20
ENDBRANCH   1  12
BRANCH   6  22
ATOM     22  O   UNL     1     105.920 106.781 114.973  1.00  0.00    -0.507 OA
ATOM     23  H   UNL     1     105.330 106.864 114.160  1.00  0.00     0.293 HD
ENDBRANCH   6  22
BRANCH   8  24
ATOM     24  O   UNL     1     106.826 110.847 117.362  1.00  0.00    -0.508 OA
ATOM     25  H   UNL     1     106.952 110.838 118.367  1.00  0.00     0.293 HD
ENDBRANCH   8  24
TORSDOF 5
ENDMDL
MODEL 4
REMARK VINA RESULT:    -5.166      1.637      2.241
REMARK INTER + INTRA:          -6.372
REMARK INTER:                  -6.097
REMARK INTRA:                  -0.275
REMARK UNBOUND:                -0.300
REMARK SMILES O=c1cc(-c2ccc(O)c(O)c2)oc2cc(O)cc(O)c12
REMARK SMILES IDX 4 1 3 2 2 3 1 4 21 5 19 6 18 7 16 8 15 9 14 10 13 11 5 12
REMARK SMILES IDX 6 13 7 14 8 15 12 16 10 17 9 18 11 20 20 22 17 24
REMARK H PARENT 9 19 11 21 20 23 17 25
REMARK Flexibility Score: inf
ROOT
ATOM      1  C   UNL     1     110.518 108.216 113.572  1.00  0.00     0.138 A 
ATOM      2  C   UNL     1     109.619 108.569 112.555  1.00  0.00     0.100 A 
ATOM      3  C   UNL     1     108.250 108.597 112.823  1.00  0.00     0.197 A 
ATOM      4  O   UNL     1     107.465 108.857 111.875  1.00  0.00    -0.289 OA
ATOM      5  C   UNL     1     107.782 108.299 114.125  1.00  0.00     0.107 A 
ATOM      6  C   UNL     1     106.412 108.335 114.524  1.00  0.00     0.134 A 
ATOM      7  C   UNL     1     106.057 107.908 115.809  1.00  0.00     0.093 A 
ATOM      8  C   UNL     1     107.028 107.504 116.728  1.00  0.00     0.123 A 
ATOM      9  C   UNL     1     108.373 107.516 116.366  1.00  0.00     0.094 A 
ATOM     10  C   UNL     1     108.756 107.904 115.081  1.00  0.00     0.146 A 
ATOM     11  O   UNL     1     110.049 107.887 114.770  1.00  0.00    -0.456 OA
ENDROOT
BRANCH   1  12
ATOM     12  C   UNL     1     111.984 108.171 113.341  1.00  0.00     0.021 A 
ATOM     13  C   UNL     1     112.510 107.263 112.406  1.00  0.00     0.016 A 
ATOM     14  C   UNL     1     113.887 107.196 112.176  1.00  0.00     0.051 A 
ATOM     15  C   UNL     1     114.761 108.028 112.885  1.00  0.00     0.157 A 
ATOM     16  C   UNL     1     112.872 108.997 114.059  1.00  0.00     0.062 A 
ATOM     17  C   UNL     1     114.254 108.927 113.830  1.00  0.00     0.158 A 
BRANCH  15  18
ATOM     18  O   UNL     1     116.136 107.965 112.658  1.00  0.00    -0.504 OA
ATOM     19  H   UNL     1     116.668 107.125 112.857  1.00  0.00     0.293 HD
ENDBRANCH  15  18
BRANCH  17  20
ATOM     20  O   UNL     1     115.129 109.746 114.542  1.00  0.00    -0.504 OA
ATOM     21  H   UNL     1     115.892 110.231 114.085  1.00  0.00     0.293 HD
ENDBRANCH  17  20
ENDBRANCH   1  12
BRANCH   6  22
ATOM     22  O   UNL     1     105.374 108.802 113.712  1.00  0.00    -0.507 OA
ATOM     23  H   UNL     1     104.802 109.609 113.914  1.00  0.00     0.293 HD
ENDBRANCH   6  22
BRANCH   8  24
ATOM     24  O   UNL     1     106.665 107.094 118.011  1.00  0.00    -0.508 OA
ATOM     25  H   UNL     1     106.556 107.758 118.767  1.00  0.00     0.293 HD
ENDBRANCH   8  24
TORSDOF 5
ENDMDL
MODEL 5
REMARK VINA RESULT:    -5.050      2.091      3.572
REMARK INTER + INTRA:          -6.236
REMARK INTER:                  -5.943
REMARK INTRA:                  -0.293
REMARK UNBOUND:                -0.300
REMARK SMILES O=c1cc(-c2ccc(O)c(O)c2)oc2cc(O)cc(O)c12
REMARK SMILES IDX 4 1 3 2 2 3 1 4 21 5 19 6 18 7 16 8 15 9 14 10 13 11 5 12
REMARK SMILES IDX 6 13 7 14 8 15 12 16 10 17 9 18 11 20 20 22 17 24
REMARK H PARENT 9 19 11 21 20 23 17 25
REMARK Flexibility Score: inf
ROOT
ATOM      1  C   UNL     1     112.310 107.116 113.870  1.00  0.00     0.138 A 
ATOM      2  C   UNL     1     112.494 108.462 114.219  1.00  0.00     0.100 A 
ATOM      3  C   UNL     1     111.402 109.221 114.639  1.00  0.00     0.197 A 
ATOM      4  O   UNL     1     111.587 110.441 114.886  1.00  0.00    -0.289 OA
ATOM      5  C   UNL     1     110.124 108.621 114.738  1.00  0.00     0.107 A 
ATOM      6  C   UNL     1     108.946 109.287 115.193  1.00  0.00     0.134 A 
ATOM      7  C   UNL     1     107.715 108.624 115.138  1.00  0.00     0.093 A 
ATOM      8  C   UNL     1     107.628 107.299 114.703  1.00  0.00     0.123 A 
ATOM      9  C   UNL     1     108.780 106.623 114.308  1.00  0.00     0.094 A 
ATOM     10  C   UNL     1     110.018 107.269 114.318  1.00  0.00     0.146 A 
ATOM     11  O   UNL     1     111.090 106.592 113.919  1.00  0.00    -0.456 OA
ENDROOT
BRANCH   1  12
ATOM     12  C   UNL     1     113.438 106.262 113.417  1.00  0.00     0.021 A 
ATOM     13  C   UNL     1     113.168 105.078 112.710  1.00  0.00     0.016 A 
ATOM     14  C   UNL     1     114.210 104.253 112.280  1.00  0.00     0.051 A 
ATOM     15  C   UNL     1     115.539 104.593 112.559  1.00  0.00     0.157 A 
ATOM     16  C   UNL     1     114.777 106.591 113.705  1.00  0.00     0.062 A 
ATOM     17  C   UNL     1     115.823 105.761 113.276  1.00  0.00     0.158 A 
BRANCH  15  18
ATOM     18  O   UNL     1     116.582 103.773 112.131  1.00  0.00    -0.504 OA
ATOM     19  H   UNL     1     116.924 103.803 111.177  1.00  0.00     0.293 HD
ENDBRANCH  15  18
BRANCH  17  20
ATOM     20  O   UNL     1     117.147 106.091 113.561  1.00  0.00    -0.504 OA
ATOM     21  H   UNL     1     117.642 105.673 114.340  1.00  0.00     0.293 HD
ENDBRANCH  17  20
ENDBRANCH   1  12
BRANCH   6  22
ATOM     22  O   UNL     1     108.937 110.580 115.726  1.00  0.00    -0.507 OA
ATOM     23  H   UNL     1     108.684 110.810 116.676  1.00  0.00     0.293 HD
ENDBRANCH   6  22
BRANCH   8  24
ATOM     24  O   UNL     1     106.399 106.643 114.667  1.00  0.00    -0.508 OA
ATOM     25  H   UNL     1     106.160 105.927 115.343  1.00  0.00     0.293 HD
ENDBRANCH   8  24
TORSDOF 5
ENDMDL
MODEL 6
REMARK VINA RESULT:    -5.020      2.408      7.914
REMARK INTER + INTRA:          -6.200
REMARK INTER:                  -5.902
REMARK INTRA:                  -0.298
REMARK UNBOUND:                -0.300
REMARK SMILES O=c1cc(-c2ccc(O)c(O)c2)oc2cc(O)cc(O)c12
REMARK SMILES IDX 4 1 3 2 2 3 1 4 21 5 19 6 18 7 16 8 15 9 14 10 13 11 5 12
REMARK SMILES IDX 6 13 7 14 8 15 12 16 10 17 9 18 11 20 20 22 17 24
REMARK H PARENT 9 19 11 21 20 23 17 25
REMARK Flexibility Score: inf
ROOT
ATOM      1  C   UNL     1     107.039 109.425 114.041  1.00  0.00     0.138 A 
ATOM      2  C   UNL     1     107.905 110.527 114.091  1.00  0.00     0.100 A 
ATOM      3  C   UNL     1     109.273 110.322 114.272  1.00  0.00     0.197 A 
ATOM      4  O   UNL     1     110.016 111.333 114.374  1.00  0.00    -0.289 OA
ATOM      5  C   UNL     1     109.780 109.005 114.373  1.00  0.00     0.107 A 
ATOM      6  C   UNL     1     111.161 108.674 114.518  1.00  0.00     0.134 A 
ATOM      7  C   UNL     1     111.532 107.340 114.725  1.00  0.00     0.093 A 
ATOM      8  C   UNL     1     110.579 106.319 114.731  1.00  0.00     0.123 A 
ATOM      9  C   UNL     1     109.234 106.626 114.537  1.00  0.00     0.094 A 
ATOM     10  C   UNL     1     108.828 107.950 114.362  1.00  0.00     0.146 A 
ATOM     11  O   UNL     1     107.533 108.201 114.195  1.00  0.00    -0.456 OA
ENDROOT
BRANCH   1  12
ATOM     12  C   UNL     1     105.575 109.586 113.850  1.00  0.00     0.021 A 
ATOM     13  C   UNL     1     104.907 110.647 114.485  1.00  0.00     0.016 A 
ATOM     14  C   UNL     1     103.529 110.816 114.327  1.00  0.00     0.051 A 
ATOM     15  C   UNL     1     102.794 109.921 113.541  1.00  0.00     0.157 A 
ATOM     16  C   UNL     1     104.827 108.683 113.070  1.00  0.00     0.062 A 
ATOM     17  C   UNL     1     103.443 108.851 112.914  1.00  0.00     0.158 A 
BRANCH  15  18
ATOM     18  O   UNL     1     101.420 110.087 113.380  1.00  0.00    -0.504 OA
ATOM     19  H   UNL     1     100.754 109.573 113.946  1.00  0.00     0.293 HD
ENDBRANCH  15  18
BRANCH  17  20
ATOM     20  O   UNL     1     102.707 107.956 112.140  1.00  0.00    -0.504 OA
ATOM     21  H   UNL     1     101.799 107.620 112.437  1.00  0.00     0.293 HD
ENDBRANCH  17  20
ENDBRANCH   1  12
BRANCH   6  22
ATOM     22  O   UNL     1     112.200 109.607 114.442  1.00  0.00    -0.507 OA
ATOM     23  H   UNL     1     113.067 109.465 113.948  1.00  0.00     0.293 HD
ENDBRANCH   6  22
BRANCH   8  24
ATOM     24  O   UNL     1     110.961 104.992 114.923  1.00  0.00    -0.508 OA
ATOM     25  H   UNL     1     110.743 104.275 114.242  1.00  0.00     0.293 HD
ENDBRANCH   8  24
TORSDOF 5
ENDMDL
MODEL 7
REMARK VINA RESULT:    -4.905      2.642      7.482
REMARK INTER + INTRA:          -6.065
REMARK INTER:                  -5.794
REMARK INTRA:                  -0.271
REMARK UNBOUND:                -0.300
REMARK SMILES O=c1cc(-c2ccc(O)c(O)c2)oc2cc(O)cc(O)c12
REMARK SMILES IDX 4 1 3 2 2 3 1 4 21 5 19 6 18 7 16 8 15 9 14 10 13 11 5 12
REMARK SMILES IDX 6 13 7 14 8 15 12 16 10 17 9 18 11 20 20 22 17 24
REMARK H PARENT 9 19 11 21 20 23 17 25
REMARK Flexibility Score: inf
ROOT
ATOM      1  C   UNL     1     106.615 108.653 114.090  1.00  0.00     0.138 A 
ATOM      2  C   UNL     1     106.942 107.290 114.086  1.00  0.00     0.100 A 
ATOM      3  C   UNL     1     108.262 106.896 114.312  1.00  0.00     0.197 A 
ATOM      4  O   UNL     1     108.535 105.670 114.241  1.00  0.00    -0.289 OA
ATOM      5  C   UNL     1     109.252 107.872 114.574  1.00  0.00     0.107 A 
ATOM      6  C   UNL     1     110.621 107.585 114.857  1.00  0.00     0.134 A 
ATOM      7  C   UNL     1     111.534 108.638 114.985  1.00  0.00     0.093 A 
ATOM      8  C   UNL     1     111.117 109.969 114.899  1.00  0.00     0.123 A 
ATOM      9  C   UNL     1     109.773 110.260 114.676  1.00  0.00     0.094 A 
ATOM     10  C   UNL     1     108.844 109.231 114.510  1.00  0.00     0.146 A 
ATOM     11  O   UNL     1     107.574 109.552 114.283  1.00  0.00    -0.456 OA
ENDROOT
BRANCH   1  12
ATOM     12  C   UNL     1     105.227 109.127 113.856  1.00  0.00     0.021 A 
ATOM     13  C   UNL     1     104.634 108.936 112.596  1.00  0.00     0.016 A 
ATOM     14  C   UNL     1     103.333 109.379 112.348  1.00  0.00     0.051 A 
ATOM     15  C   UNL     1     102.606 110.031 113.352  1.00  0.00     0.157 A 
ATOM     16  C   UNL     1     104.494 109.794 114.857  1.00  0.00     0.062 A 
ATOM     17  C   UNL     1     103.189 110.241 114.607  1.00  0.00     0.158 A 
BRANCH  15  18
ATOM     18  O   UNL     1     101.307 110.474 113.109  1.00  0.00    -0.504 OA
ATOM     19  H   UNL     1     100.513 109.846 113.165  1.00  0.00     0.293 HD
ENDBRANCH  15  18
BRANCH  17  20
ATOM     20  O   UNL     1     102.466 110.899 115.601  1.00  0.00    -0.504 OA
ATOM     21  H   UNL     1     101.486 110.703 115.763  1.00  0.00     0.293 HD
ENDBRANCH  17  20
ENDBRANCH   1  12
BRANCH   6  22
ATOM     22  O   UNL     1     111.126 106.294 115.047  1.00  0.00    -0.507 OA
ATOM     23  H   UNL     1     112.005 105.960 114.684  1.00  0.00     0.293 HD
ENDBRANCH   6  22
BRANCH   8  24
ATOM     24  O   UNL     1     112.032 111.011 115.043  1.00  0.00    -0.508 OA
ATOM     25  H   UNL     1     112.785 111.149 114.381  1.00  0.00     0.293 HD
ENDBRANCH   8  24
TORSDOF 5
ENDMDL
MODEL 8
REMARK VINA RESULT:    -4.832      1.921      3.313
REMARK INTER + INTRA:          -5.980
REMARK INTER:                  -5.687
REMARK INTRA:                  -0.294
REMARK UNBOUND:                -0.300
REMARK SMILES O=c1cc(-c2ccc(O)c(O)c2)oc2cc(O)cc(O)c12
REMARK SMILES IDX 4 1 3 2 2 3 1 4 21 5 19 6 18 7 16 8 15 9 14 10 13 11 5 12
REMARK SMILES IDX 6 13 7 14 8 15 12 16 10 17 9 18 11 20 20 22 17 24
REMARK H PARENT 9 19 11 21 20 23 17 25
REMARK Flexibility Score: inf
ROOT
ATOM      1  C   UNL     1     109.821 109.558 114.262  1.00  0.00     0.138 A 
ATOM      2  C   UNL     1     109.779 110.952 114.117  1.00  0.00     0.100 A 
ATOM      3  C   UNL     1     108.578 111.575 113.776  1.00  0.00     0.197 A 
ATOM      4  O   UNL     1     108.586 112.819 113.593  1.00  0.00    -0.289 OA
ATOM      5  C   UNL     1     107.406 110.799 113.609  1.00  0.00     0.107 A 
ATOM      6  C   UNL     1     106.118 111.330 113.300  1.00  0.00     0.134 A 
ATOM      7  C   UNL     1     105.055 110.455 113.043  1.00  0.00     0.093 A 
ATOM      8  C   UNL     1     105.220 109.071 113.143  1.00  0.00     0.123 A 
ATOM      9  C   UNL     1     106.461 108.546 113.497  1.00  0.00     0.094 A 
ATOM     10  C   UNL     1     107.548 109.391 113.725  1.00  0.00     0.146 A 
ATOM     11  O   UNL     1     108.719 108.848 114.045  1.00  0.00    -0.456 OA
ENDROOT
BRANCH   1  12
ATOM     12  C   UNL     1     111.071 108.845 114.626  1.00  0.00     0.021 A 
ATOM     13  C   UNL     1     111.001 107.520 115.091  1.00  0.00     0.016 A 
ATOM     14  C   UNL     1     112.163 106.829 115.446  1.00  0.00     0.051 A 
ATOM     15  C   UNL     1     113.412 107.454 115.353  1.00  0.00     0.157 A 
ATOM     16  C   UNL     1     112.331 109.471 114.546  1.00  0.00     0.062 A 
ATOM     17  C   UNL     1     113.496 108.777 114.906  1.00  0.00     0.158 A 
BRANCH  15  18
ATOM     18  O   UNL     1     114.573 106.768 115.706  1.00  0.00    -0.504 OA
ATOM     19  H   UNL     1     114.538 105.901 116.231  1.00  0.00     0.293 HD
ENDBRANCH  15  18
BRANCH  17  20
ATOM     20  O   UNL     1     114.740 109.400 114.824  1.00  0.00    -0.504 OA
ATOM     21  H   UNL     1     115.196 109.785 115.642  1.00  0.00     0.293 HD
ENDBRANCH  17  20
ENDBRANCH   1  12
BRANCH   6  22
ATOM     22  O   UNL     1     105.825 112.697 113.258  1.00  0.00    -0.507 OA
ATOM     23  H   UNL     1     105.791 113.304 114.063  1.00  0.00     0.293 HD
ENDBRANCH   6  22
BRANCH   8  24
ATOM     24  O   UNL     1     104.152 108.209 112.901  1.00  0.00    -0.508 OA
ATOM     25  H   UNL     1     103.632 107.784 113.659  1.00  0.00     0.293 HD
ENDBRANCH   8  24
TORSDOF 5
ENDMDL
MODEL 9
REMARK VINA RESULT:    -4.805      2.053      6.633
REMARK INTER + INTRA:          -5.948
REMARK INTER:                  -5.678
REMARK INTRA:                  -0.269
REMARK UNBOUND:                -0.300
REMARK SMILES O=c1cc(-c2ccc(O)c(O)c2)oc2cc(O)cc(O)c12
REMARK SMILES IDX 4 1 3 2 2 3 1 4 21 5 19 6 18 7 16 8 15 9 14 10 13 11 5 12
REMARK SMILES IDX 6 13 7 14 8 15 12 16 10 17 9 18 11 20 20 22 17 24
REMARK H PARENT 9 19 11 21 20 23 17 25
REMARK Flexibility Score: inf
ROOT
ATOM      1  C   UNL     1     110.466 108.712 113.860  1.00  0.00     0.138 A 
ATOM      2  C   UNL     1     110.223 107.627 114.713  1.00  0.00     0.100 A 
ATOM      3  C   UNL     1     111.267 106.760 115.042  1.00  0.00     0.197 A 
ATOM      4  O   UNL     1     111.004 105.761 115.760  1.00  0.00    -0.289 OA
ATOM      5  C   UNL     1     112.566 107.001 114.536  1.00  0.00     0.107 A 
ATOM      6  C   UNL     1     113.714 106.207 114.835  1.00  0.00     0.134 A 
ATOM      7  C   UNL     1     114.925 106.473 114.184  1.00  0.00     0.093 A 
ATOM      8  C   UNL     1     115.043 107.540 113.290  1.00  0.00     0.123 A 
ATOM      9  C   UNL     1     113.942 108.353 113.032  1.00  0.00     0.094 A 
ATOM     10  C   UNL     1     112.712 108.093 113.640  1.00  0.00     0.146 A 
ATOM     11  O   UNL     1     111.682 108.884 113.354  1.00  0.00    -0.456 OA
ENDROOT
BRANCH   1  12
ATOM     12  C   UNL     1     109.392 109.666 113.479  1.00  0.00     0.021 A 
ATOM     13  C   UNL     1     108.352 109.236 112.637  1.00  0.00     0.016 A 
ATOM     14  C   UNL     1     107.335 110.115 112.258  1.00  0.00     0.051 A 
ATOM     15  C   UNL     1     107.346 111.441 112.705  1.00  0.00     0.157 A 
ATOM     16  C   UNL     1     109.403 111.005 113.916  1.00  0.00     0.062 A 
ATOM     17  C   UNL     1     108.383 111.888 113.532  1.00  0.00     0.158 A 
BRANCH  15  18
ATOM     18  O   UNL     1     106.332 112.321 112.330  1.00  0.00    -0.504 OA
ATOM     19  H   UNL     1     105.756 112.792 113.019  1.00  0.00     0.293 HD
ENDBRANCH  15  18
BRANCH  17  20
ATOM     20  O   UNL     1     108.396 113.212 113.968  1.00  0.00    -0.504 OA
ATOM     21  H   UNL     1     108.685 113.459 114.906  1.00  0.00     0.293 HD
ENDBRANCH  17  20
ENDBRANCH   1  12
BRANCH   6  22
ATOM     22  O   UNL     1     113.725 105.173 115.776  1.00  0.00    -0.507 OA
ATOM     23  H   UNL     1     113.959 105.282 116.751  1.00  0.00     0.293 HD
ENDBRANCH   6  22
BRANCH   8  24
ATOM     24  O   UNL     1     116.257 107.805 112.658  1.00  0.00    -0.508 OA
ATOM     25  H   UNL     1     117.078 108.081 113.182  1.00  0.00     0.293 HD
ENDBRANCH   8  24
TORSDOF 5
ENDMDL
