MODEL 1
REMARK VINA RESULT:    -3.748      0.000      0.000
REMARK INTER + INTRA:         -15.706
REMARK INTER:                  -9.883
REMARK INTRA:                  -5.823
REMARK UNBOUND:                -5.823
REMARK SMILES CCCCCCCCCCCCCCCCCCCCCCCCCCCCCC(=O)[O-]
REMARK SMILES IDX 16 1 17 2 18 3 19 4 20 5 21 6 22 7 23 8 24 9 25 10 26 11
REMARK SMILES IDX 27 12 28 13 29 14 30 15 31 16 32 17 15 18 14 19 13 20 12 21
REMARK SMILES IDX 11 22 10 23 9 24 8 25 7 26 6 27 5 28 4 29 3 30 2 31 1 32
REMARK H PARENT
REMARK Flexibility Score: inf
ROOT
ATOM      1  C   UNL     1     -12.226  -7.172 -29.079  1.00  0.00     0.000 C 
ENDROOT
BRANCH   1   2
ATOM      2  C   UNL     1     -11.923  -6.911 -27.592  1.00  0.00     0.000 C 
BRANCH   2   3
ATOM      3  C   UNL     1     -10.810  -5.883 -27.321  1.00  0.00     0.000 C 
BRANCH   3   4
ATOM      4  C   UNL     1      -9.404  -6.442 -27.584  1.00  0.00     0.000 C 
BRANCH   4   5
ATOM      5  C   UNL     1      -8.499  -5.376 -28.214  1.00  0.00     0.000 C 
BRANCH   5   6
ATOM      6  C   UNL     1      -7.833  -5.905 -29.492  1.00  0.00     0.000 C 
BRANCH   6   7
ATOM      7  C   UNL     1      -8.845  -6.238 -30.603  1.00  0.00     0.000 C 
BRANCH   7   8
ATOM      8  C   UNL     1      -9.445  -5.022 -31.333  1.00  0.00     0.000 C 
BRANCH   8   9
ATOM      9  C   UNL     1     -10.902  -4.739 -30.926  1.00  0.00     0.000 C 
BRANCH   9  10
ATOM     10  C   UNL     1     -11.244  -3.236 -30.919  1.00  0.00     0.000 C 
BRANCH  10  11
ATOM     11  C   UNL     1     -10.041  -2.284 -30.784  1.00  0.00     0.000 C 
BRANCH  11  12
ATOM     12  C   UNL     1      -9.719  -1.926 -29.323  1.00  0.00     0.000 C 
BRANCH  12  13
ATOM     13  C   UNL     1      -8.212  -1.719 -29.081  1.00  0.00     0.006 C 
BRANCH  13  14
ATOM     14  C   UNL     1      -7.412  -1.371 -30.346  1.00  0.00     0.053 C 
BRANCH  14  15
ATOM     15  C   UNL     1      -6.895   0.035 -30.318  1.00  0.00     0.041 C 
ATOM     16  O   UNL     1      -7.172   0.794 -29.352  1.00  0.00    -0.550 OA
ATOM     17  O   UNL     1      -6.104   0.507 -31.359  1.00  0.00    -0.550 OA
ENDBRANCH  14  15
ENDBRANCH  13  14
ENDBRANCH  12  13
ENDBRANCH  11  12
ENDBRANCH  10  11
ENDBRANCH   9  10
ENDBRANCH   8   9
ENDBRANCH   7   8
ENDBRANCH   6   7
ENDBRANCH   5   6
ENDBRANCH   4   5
ENDBRANCH   3   4
ENDBRANCH   2   3
ENDBRANCH   1   2
BRANCH   1  18
ATOM     18  C   UNL     1     -13.155  -8.378 -29.297  1.00  0.00     0.000 C 
BRANCH  18  19
ATOM     19  C   UNL     1     -14.321  -8.066 -30.249  1.00  0.00     0.000 C 
BRANCH  19  20
ATOM     20  C   UNL     1     -14.407  -6.575 -30.611  1.00  0.00     0.000 C 
BRANCH  20  21
ATOM     21  C   UNL     1     -15.727  -6.257 -31.330  1.00  0.00     0.000 C 
BRANCH  21  22
ATOM     22  C   UNL     1     -15.674  -4.943 -32.130  1.00  0.00     0.000 C 
BRANCH  22  23
ATOM     23  C   UNL     1     -14.280  -4.559 -32.656  1.00  0.00     0.000 C 
BRANCH  23  24
ATOM     24  C   UNL     1     -14.228  -3.134 -33.233  1.00  0.00    -0.000 C 
BRANCH  24  25
ATOM     25  C   UNL     1     -15.566  -2.393 -33.085  1.00  0.00    -0.000 C 
BRANCH  25  26
ATOM     26  C   UNL     1     -15.459  -1.165 -32.161  1.00  0.00    -0.000 C 
BRANCH  26  27
ATOM     27  C   UNL     1     -14.165  -1.157 -31.332  1.00  0.00    -0.000 C 
BRANCH  27  28
ATOM     28  C   UNL     1     -14.436  -1.261 -29.821  1.00  0.00    -0.000 C 
BRANCH  28  29
ATOM     29  C   UNL     1     -15.065  -2.607 -29.416  1.00  0.00    -0.000 C 
BRANCH  29  30
ATOM     30  C   UNL     1     -14.123  -3.575 -28.671  1.00  0.00    -0.000 C 
BRANCH  30  31
ATOM     31  C   UNL     1     -13.093  -2.903 -27.748  1.00  0.00    -0.003 C 
ATOM     32  C   UNL     1     -13.258  -3.301 -26.282  1.00  0.00     0.004 C 
ENDBRANCH  30  31
ENDBRANCH  29  30
ENDBRANCH  28  29
ENDBRANCH  27  28
ENDBRANCH  26  27
ENDBRANCH  25  26
ENDBRANCH  24  25
ENDBRANCH  23  24
ENDBRANCH  22  23
ENDBRANCH  21  22
ENDBRANCH  20  21
ENDBRANCH  19  20
ENDBRANCH  18  19
ENDBRANCH   1  18
TORSDOF 28
ENDMDL
MODEL 2
REMARK VINA RESULT:    -3.742      1.983      6.171
REMARK INTER + INTRA:         -15.689
REMARK INTER:                 -10.637
REMARK INTRA:                  -5.052
REMARK UNBOUND:                -5.823
REMARK SMILES CCCCCCCCCCCCCCCCCCCCCCCCCCCCCC(=O)[O-]
REMARK SMILES IDX 16 1 17 2 18 3 19 4 20 5 21 6 22 7 23 8 24 9 25 10 26 11
REMARK SMILES IDX 27 12 28 13 29 14 30 15 31 16 32 17 15 18 14 19 13 20 12 21
REMARK SMILES IDX 11 22 10 23 9 24 8 25 7 26 6 27 5 28 4 29 3 30 2 31 1 32
REMARK H PARENT
REMARK Flexibility Score: inf
ROOT
ATOM      1  C   UNL     1     -13.493  -7.687 -29.850  1.00  0.00     0.000 C 
ENDROOT
BRANCH   1   2
ATOM      2  C   UNL     1     -14.838  -7.775 -30.596  1.00  0.00     0.000 C 
BRANCH   2   3
ATOM      3  C   UNL     1     -15.392  -6.431 -31.105  1.00  0.00     0.000 C 
BRANCH   3   4
ATOM      4  C   UNL     1     -14.441  -5.255 -30.843  1.00  0.00     0.000 C 
BRANCH   4   5
ATOM      5  C   UNL     1     -13.929  -4.658 -32.160  1.00  0.00     0.000 C 
BRANCH   5   6
ATOM      6  C   UNL     1     -15.081  -4.042 -32.968  1.00  0.00     0.000 C 
BRANCH   6   7
ATOM      7  C   UNL     1     -14.702  -2.706 -33.632  1.00  0.00     0.000 C 
BRANCH   7   8
ATOM      8  C   UNL     1     -15.708  -1.559 -33.423  1.00  0.00     0.000 C 
BRANCH   8   9
ATOM      9  C   UNL     1     -15.028  -0.191 -33.242  1.00  0.00     0.000 C 
BRANCH   9  10
ATOM     10  C   UNL     1     -14.972   0.264 -31.772  1.00  0.00     0.000 C 
BRANCH  10  11
ATOM     11  C   UNL     1     -13.562   0.537 -31.215  1.00  0.00     0.000 C 
BRANCH  11  12
ATOM     12  C   UNL     1     -12.867  -0.732 -30.692  1.00  0.00     0.000 C 
BRANCH  12  13
ATOM     13  C   UNL     1     -13.854  -1.732 -30.060  1.00  0.00     0.006 C 
BRANCH  13  14
ATOM     14  C   UNL     1     -13.546  -2.083 -28.596  1.00  0.00     0.053 C 
BRANCH  14  15
ATOM     15  C   UNL     1     -13.155  -0.879 -27.796  1.00  0.00     0.041 C 
ATOM     16  O   UNL     1     -11.975  -0.753 -27.374  1.00  0.00    -0.550 OA
ATOM     17  O   UNL     1     -14.095   0.107 -27.517  1.00  0.00    -0.550 OA
ENDBRANCH  14  15
ENDBRANCH  13  14
ENDBRANCH  12  13
ENDBRANCH  11  12
ENDBRANCH  10  11
ENDBRANCH   9  10
ENDBRANCH   8   9
ENDBRANCH   7   8
ENDBRANCH   6   7
ENDBRANCH   5   6
ENDBRANCH   4   5
ENDBRANCH   3   4
ENDBRANCH   2   3
ENDBRANCH   1   2
BRANCH   1  18
ATOM     18  C   UNL     1     -13.126  -8.993 -29.125  1.00  0.00     0.000 C 
BRANCH  18  19
ATOM     19  C   UNL     1     -12.093  -8.782 -28.006  1.00  0.00     0.000 C 
BRANCH  19  20
ATOM     20  C   UNL     1     -11.706  -7.306 -27.829  1.00  0.00     0.000 C 
BRANCH  20  21
ATOM     21  C   UNL     1     -10.188  -7.150 -27.654  1.00  0.00     0.000 C 
BRANCH  21  22
ATOM     22  C   UNL     1      -9.383  -8.232 -28.397  1.00  0.00     0.000 C 
BRANCH  22  23
ATOM     23  C   UNL     1      -8.994  -7.872 -29.842  1.00  0.00     0.000 C 
BRANCH  23  24
ATOM     24  C   UNL     1      -7.931  -6.762 -29.918  1.00  0.00    -0.000 C 
BRANCH  24  25
ATOM     25  C   UNL     1      -8.431  -5.524 -30.677  1.00  0.00    -0.000 C 
BRANCH  25  26
ATOM     26  C   UNL     1      -9.927  -5.616 -31.032  1.00  0.00    -0.000 C 
BRANCH  26  27
ATOM     27  C   UNL     1     -10.739  -4.426 -30.497  1.00  0.00    -0.000 C 
BRANCH  27  28
ATOM     28  C   UNL     1     -10.134  -3.833 -29.213  1.00  0.00    -0.000 C 
BRANCH  28  29
ATOM     29  C   UNL     1      -9.666  -2.377 -29.389  1.00  0.00    -0.000 C 
BRANCH  29  30
ATOM     30  C   UNL     1      -9.410  -1.939 -30.846  1.00  0.00    -0.000 C 
BRANCH  30  31
ATOM     31  C   UNL     1      -8.196  -1.016 -31.048  1.00  0.00    -0.003 C 
ATOM     32  C   UNL     1      -7.040  -1.341 -30.104  1.00  0.00     0.004 C 
ENDBRANCH  30  31
ENDBRANCH  29  30
ENDBRANCH  28  29
ENDBRANCH  27  28
ENDBRANCH  26  27
ENDBRANCH  25  26
ENDBRANCH  24  25
ENDBRANCH  23  24
ENDBRANCH  22  23
ENDBRANCH  21  22
ENDBRANCH  20  21
ENDBRANCH  19  20
ENDBRANCH  18  19
ENDBRANCH   1  18
TORSDOF 28
ENDMDL
MODEL 3
REMARK VINA RESULT:    -3.712      1.429      6.324
REMARK INTER + INTRA:         -15.611
REMARK INTER:                 -10.600
REMARK INTRA:                  -5.011
REMARK UNBOUND:                -5.823
REMARK SMILES CCCCCCCCCCCCCCCCCCCCCCCCCCCCCC(=O)[O-]
REMARK SMILES IDX 16 1 17 2 18 3 19 4 20 5 21 6 22 7 23 8 24 9 25 10 26 11
REMARK SMILES IDX 27 12 28 13 29 14 30 15 31 16 32 17 15 18 14 19 13 20 12 21
REMARK SMILES IDX 11 22 10 23 9 24 8 25 7 26 6 27 5 28 4 29 3 30 2 31 1 32
REMARK H PARENT
REMARK Flexibility Score: inf
ROOT
ATOM      1  C   UNL     1     -14.319  -3.564 -33.389  1.00  0.00     0.000 C 
ENDROOT
BRANCH   1   2
ATOM      2  C   UNL     1     -15.584  -2.686 -33.347  1.00  0.00     0.000 C 
BRANCH   2   3
ATOM      3  C   UNL     1     -15.328  -1.168 -33.390  1.00  0.00     0.000 C 
BRANCH   3   4
ATOM      4  C   UNL     1     -15.185  -0.546 -31.994  1.00  0.00     0.000 C 
BRANCH   4   5
ATOM      5  C   UNL     1     -16.085  -1.262 -30.979  1.00  0.00     0.000 C 
BRANCH   5   6
ATOM      6  C   UNL     1     -15.358  -1.455 -29.640  1.00  0.00     0.000 C 
BRANCH   6   7
ATOM      7  C   UNL     1     -14.005  -2.174 -29.787  1.00  0.00     0.000 C 
BRANCH   7   8
ATOM      8  C   UNL     1     -13.814  -3.407 -28.885  1.00  0.00     0.000 C 
BRANCH   8   9
ATOM      9  C   UNL     1     -12.506  -4.164 -29.175  1.00  0.00     0.000 C 
BRANCH   9  10
ATOM     10  C   UNL     1     -11.852  -3.749 -30.506  1.00  0.00     0.000 C 
BRANCH  10  11
ATOM     11  C   UNL     1     -10.740  -4.684 -31.018  1.00  0.00     0.000 C 
BRANCH  11  12
ATOM     12  C   UNL     1      -9.410  -3.954 -31.273  1.00  0.00     0.000 C 
BRANCH  12  13
ATOM     13  C   UNL     1      -9.030  -2.997 -30.127  1.00  0.00     0.006 C 
BRANCH  13  14
ATOM     14  C   UNL     1      -8.084  -1.859 -30.543  1.00  0.00     0.053 C 
BRANCH  14  15
ATOM     15  C   UNL     1      -8.786  -0.537 -30.609  1.00  0.00     0.041 C 
ATOM     16  O   UNL     1      -8.173   0.522 -30.310  1.00  0.00    -0.550 OA
ATOM     17  O   UNL     1     -10.117  -0.474 -31.003  1.00  0.00    -0.550 OA
ENDBRANCH  14  15
ENDBRANCH  13  14
ENDBRANCH  12  13
ENDBRANCH  11  12
ENDBRANCH  10  11
ENDBRANCH   9  10
ENDBRANCH   8   9
ENDBRANCH   7   8
ENDBRANCH   6   7
ENDBRANCH   5   6
ENDBRANCH   4   5
ENDBRANCH   3   4
ENDBRANCH   2   3
ENDBRANCH   1   2
BRANCH   1  18
ATOM     18  C   UNL     1     -14.410  -4.788 -32.462  1.00  0.00     0.000 C 
BRANCH  18  19
ATOM     19  C   UNL     1     -15.749  -4.864 -31.709  1.00  0.00     0.000 C 
BRANCH  19  20
ATOM     20  C   UNL     1     -15.901  -6.161 -30.900  1.00  0.00     0.000 C 
BRANCH  20  21
ATOM     21  C   UNL     1     -14.534  -6.810 -30.637  1.00  0.00     0.000 C 
BRANCH  21  22
ATOM     22  C   UNL     1     -14.623  -8.330 -30.408  1.00  0.00     0.000 C 
BRANCH  22  23
ATOM     23  C   UNL     1     -13.471  -8.931 -29.583  1.00  0.00     0.000 C 
BRANCH  23  24
ATOM     24  C   UNL     1     -12.656  -7.866 -28.828  1.00  0.00    -0.000 C 
BRANCH  24  25
ATOM     25  C   UNL     1     -11.157  -8.201 -28.780  1.00  0.00    -0.000 C 
BRANCH  25  26
ATOM     26  C   UNL     1     -10.341  -7.135 -28.025  1.00  0.00    -0.000 C 
BRANCH  26  27
ATOM     27  C   UNL     1      -9.083  -6.698 -28.791  1.00  0.00    -0.000 C 
BRANCH  27  28
ATOM     28  C   UNL     1      -8.128  -7.872 -29.068  1.00  0.00    -0.000 C 
BRANCH  28  29
ATOM     29  C   UNL     1      -6.709  -7.412 -29.452  1.00  0.00    -0.000 C 
BRANCH  29  30
ATOM     30  C   UNL     1      -6.644  -6.175 -30.371  1.00  0.00    -0.000 C 
BRANCH  30  31
ATOM     31  C   UNL     1      -5.328  -5.382 -30.307  1.00  0.00    -0.003 C 
ATOM     32  C   UNL     1      -5.400  -4.185 -29.361  1.00  0.00     0.004 C 
ENDBRANCH  30  31
ENDBRANCH  29  30
ENDBRANCH  28  29
ENDBRANCH  27  28
ENDBRANCH  26  27
ENDBRANCH  25  26
ENDBRANCH  24  25
ENDBRANCH  23  24
ENDBRANCH  22  23
ENDBRANCH  21  22
ENDBRANCH  20  21
ENDBRANCH  19  20
ENDBRANCH  18  19
ENDBRANCH   1  18
TORSDOF 28
ENDMDL
MODEL 4
REMARK VINA RESULT:    -3.683      2.038      5.303
REMARK INTER + INTRA:         -15.535
REMARK INTER:                  -9.893
REMARK INTRA:                  -5.642
REMARK UNBOUND:                -5.823
REMARK SMILES CCCCCCCCCCCCCCCCCCCCCCCCCCCCCC(=O)[O-]
REMARK SMILES IDX 16 1 17 2 18 3 19 4 20 5 21 6 22 7 23 8 24 9 25 10 26 11
REMARK SMILES IDX 27 12 28 13 29 14 30 15 31 16 32 17 15 18 14 19 13 20 12 21
REMARK SMILES IDX 11 22 10 23 9 24 8 25 7 26 6 27 5 28 4 29 3 30 2 31 1 32
REMARK H PARENT
REMARK Flexibility Score: inf
ROOT
ATOM      1  C   UNL     1     -10.736  -8.290 -27.950  1.00  0.00     0.000 C 
ENDROOT
BRANCH   1   2
ATOM      2  C   UNL     1     -12.269  -8.302 -28.099  1.00  0.00     0.000 C 
BRANCH   2   3
ATOM      3  C   UNL     1     -12.801  -7.740 -29.430  1.00  0.00     0.000 C 
BRANCH   3   4
ATOM      4  C   UNL     1     -13.996  -8.533 -29.979  1.00  0.00     0.000 C 
BRANCH   4   5
ATOM      5  C   UNL     1     -15.019  -7.598 -30.636  1.00  0.00     0.000 C 
BRANCH   5   6
ATOM      6  C   UNL     1     -14.496  -6.155 -30.682  1.00  0.00     0.000 C 
BRANCH   6   7
ATOM      7  C   UNL     1     -15.605  -5.122 -30.945  1.00  0.00     0.000 C 
BRANCH   7   8
ATOM      8  C   UNL     1     -15.763  -4.685 -32.413  1.00  0.00     0.000 C 
BRANCH   8   9
ATOM      9  C   UNL     1     -14.627  -3.763 -32.890  1.00  0.00     0.000 C 
BRANCH   9  10
ATOM     10  C   UNL     1     -15.134  -2.536 -33.671  1.00  0.00     0.000 C 
BRANCH  10  11
ATOM     11  C   UNL     1     -15.090  -1.199 -32.906  1.00  0.00     0.000 C 
BRANCH  11  12
ATOM     12  C   UNL     1     -14.832  -1.376 -31.400  1.00  0.00     0.000 C 
BRANCH  12  13
ATOM     13  C   UNL     1     -14.596  -0.037 -30.677  1.00  0.00     0.006 C 
BRANCH  13  14
ATOM     14  C   UNL     1     -13.355   0.731 -31.160  1.00  0.00     0.053 C 
BRANCH  14  15
ATOM     15  C   UNL     1     -12.890   1.742 -30.157  1.00  0.00     0.041 C 
ATOM     16  O   UNL     1     -11.672   2.057 -30.092  1.00  0.00    -0.550 OA
ATOM     17  O   UNL     1     -13.803   2.338 -29.295  1.00  0.00    -0.550 OA
ENDBRANCH  14  15
ENDBRANCH  13  14
ENDBRANCH  12  13
ENDBRANCH  11  12
ENDBRANCH  10  11
ENDBRANCH   9  10
ENDBRANCH   8   9
ENDBRANCH   7   8
ENDBRANCH   6   7
ENDBRANCH   5   6
ENDBRANCH   4   5
ENDBRANCH   3   4
ENDBRANCH   2   3
ENDBRANCH   1   2
BRANCH   1  18
ATOM     18  C   UNL     1     -10.011  -7.940 -29.260  1.00  0.00     0.000 C 
BRANCH  18  19
ATOM     19  C   UNL     1      -8.546  -7.528 -29.038  1.00  0.00     0.000 C 
BRANCH  19  20
ATOM     20  C   UNL     1      -8.163  -6.260 -29.816  1.00  0.00     0.000 C 
BRANCH  20  21
ATOM     21  C   UNL     1      -9.121  -6.024 -30.992  1.00  0.00     0.000 C 
BRANCH  21  22
ATOM     22  C   UNL     1      -9.670  -4.586 -31.042  1.00  0.00     0.000 C 
BRANCH  22  23
ATOM     23  C   UNL     1     -11.205  -4.476 -31.005  1.00  0.00     0.000 C 
BRANCH  23  24
ATOM     24  C   UNL     1     -11.696  -3.044 -30.730  1.00  0.00    -0.000 C 
BRANCH  24  25
ATOM     25  C   UNL     1     -10.566  -2.008 -30.824  1.00  0.00    -0.000 C 
BRANCH  25  26
ATOM     26  C   UNL     1     -10.391  -1.210 -29.518  1.00  0.00    -0.000 C 
BRANCH  26  27
ATOM     27  C   UNL     1     -11.582  -1.371 -28.560  1.00  0.00    -0.000 C 
BRANCH  27  28
ATOM     28  C   UNL     1     -11.146  -1.807 -27.151  1.00  0.00    -0.000 C 
BRANCH  28  29
ATOM     29  C   UNL     1      -9.982  -2.815 -27.170  1.00  0.00    -0.000 C 
BRANCH  29  30
ATOM     30  C   UNL     1     -10.378  -4.273 -27.479  1.00  0.00    -0.000 C 
BRANCH  30  31
ATOM     31  C   UNL     1     -11.637  -4.776 -26.752  1.00  0.00    -0.003 C 
ATOM     32  C   UNL     1     -12.897  -4.681 -27.610  1.00  0.00     0.004 C 
ENDBRANCH  30  31
ENDBRANCH  29  30
ENDBRANCH  28  29
ENDBRANCH  27  28
ENDBRANCH  26  27
ENDBRANCH  25  26
ENDBRANCH  24  25
ENDBRANCH  23  24
ENDBRANCH  22  23
ENDBRANCH  21  22
ENDBRANCH  20  21
ENDBRANCH  19  20
ENDBRANCH  18  19
ENDBRANCH   1  18
TORSDOF 28
ENDMDL
MODEL 5
REMARK VINA RESULT:    -3.677     15.299     20.522
REMARK INTER + INTRA:         -15.517
REMARK INTER:                  -9.273
REMARK INTRA:                  -6.245
REMARK UNBOUND:                -5.823
REMARK SMILES CCCCCCCCCCCCCCCCCCCCCCCCCCCCCC(=O)[O-]
REMARK SMILES IDX 16 1 17 2 18 3 19 4 20 5 21 6 22 7 23 8 24 9 25 10 26 11
REMARK SMILES IDX 27 12 28 13 29 14 30 15 31 16 32 17 15 18 14 19 13 20 12 21
REMARK SMILES IDX 11 22 10 23 9 24 8 25 7 26 6 27 5 28 4 29 3 30 2 31 1 32
REMARK H PARENT
REMARK Flexibility Score: inf
ROOT
ATOM      1  C   UNL     1       2.570   7.678 -21.034  1.00  0.00     0.000 C 
ENDROOT
BRANCH   1   2
ATOM      2  C   UNL     1       2.564   9.026 -20.289  1.00  0.00     0.000 C 
BRANCH   2   3
ATOM      3  C   UNL     1       3.747   9.247 -19.329  1.00  0.00     0.000 C 
BRANCH   3   4
ATOM      4  C   UNL     1       3.365  10.073 -18.092  1.00  0.00     0.000 C 
BRANCH   4   5
ATOM      5  C   UNL     1       1.920  10.577 -18.192  1.00  0.00     0.000 C 
BRANCH   5   6
ATOM      6  C   UNL     1       1.338  10.857 -16.799  1.00  0.00     0.000 C 
BRANCH   6   7
ATOM      7  C   UNL     1       2.029  10.051 -15.685  1.00  0.00     0.000 C 
BRANCH   7   8
ATOM      8  C   UNL     1       1.135   9.029 -14.960  1.00  0.00     0.000 C 
BRANCH   8   9
ATOM      9  C   UNL     1       1.602   7.576 -15.158  1.00  0.00     0.000 C 
BRANCH   9  10
ATOM     10  C   UNL     1       1.838   7.217 -16.638  1.00  0.00     0.000 C 
BRANCH  10  11
ATOM     11  C   UNL     1       0.620   6.637 -17.381  1.00  0.00     0.000 C 
BRANCH  11  12
ATOM     12  C   UNL     1      -0.192   7.706 -18.131  1.00  0.00     0.000 C 
BRANCH  12  13
ATOM     13  C   UNL     1      -0.868   7.156 -19.401  1.00  0.00     0.006 C 
BRANCH  13  14
ATOM     14  C   UNL     1      -2.378   6.907 -19.254  1.00  0.00     0.053 C 
BRANCH  14  15
ATOM     15  C   UNL     1      -3.137   8.173 -19.000  1.00  0.00     0.041 C 
ATOM     16  O   UNL     1      -2.927   9.193 -19.709  1.00  0.00    -0.550 OA
ATOM     17  O   UNL     1      -4.079   8.227 -17.979  1.00  0.00    -0.550 OA
ENDBRANCH  14  15
ENDBRANCH  13  14
ENDBRANCH  12  13
ENDBRANCH  11  12
ENDBRANCH  10  11
ENDBRANCH   9  10
ENDBRANCH   8   9
ENDBRANCH   7   8
ENDBRANCH   6   7
ENDBRANCH   5   6
ENDBRANCH   4   5
ENDBRANCH   3   4
ENDBRANCH   2   3
ENDBRANCH   1   2
BRANCH   1  18
ATOM     18  C   UNL     1       2.941   6.494 -20.124  1.00  0.00     0.000 C 
BRANCH  18  19
ATOM     19  C   UNL     1       3.771   5.423 -20.851  1.00  0.00     0.000 C 
BRANCH  19  20
ATOM     20  C   UNL     1       3.499   5.388 -22.363  1.00  0.00     0.000 C 
BRANCH  20  21
ATOM     21  C   UNL     1       3.693   3.972 -22.926  1.00  0.00     0.000 C 
BRANCH  21  22
ATOM     22  C   UNL     1       3.860   2.906 -21.828  1.00  0.00     0.000 C 
BRANCH  22  23
ATOM     23  C   UNL     1       3.324   1.510 -22.193  1.00  0.00     0.000 C 
BRANCH  23  24
ATOM     24  C   UNL     1       2.756   0.751 -20.982  1.00  0.00    -0.000 C 
BRANCH  24  25
ATOM     25  C   UNL     1       2.873   1.555 -19.678  1.00  0.00    -0.000 C 
BRANCH  25  26
ATOM     26  C   UNL     1       1.498   1.891 -19.070  1.00  0.00    -0.000 C 
BRANCH  26  27
ATOM     27  C   UNL     1       1.157   3.387 -19.165  1.00  0.00    -0.000 C 
BRANCH  27  28
ATOM     28  C   UNL     1      -0.150   3.642 -19.935  1.00  0.00    -0.000 C 
BRANCH  28  29
ATOM     29  C   UNL     1       0.087   4.214 -21.344  1.00  0.00    -0.000 C 
BRANCH  29  30
ATOM     30  C   UNL     1       0.065   3.179 -22.488  1.00  0.00    -0.000 C 
BRANCH  30  31
ATOM     31  C   UNL     1      -1.130   2.210 -22.468  1.00  0.00    -0.003 C 
ATOM     32  C   UNL     1      -0.744   0.799 -22.028  1.00  0.00     0.004 C 
ENDBRANCH  30  31
ENDBRANCH  29  30
ENDBRANCH  28  29
ENDBRANCH  27  28
ENDBRANCH  26  27
ENDBRANCH  25  26
ENDBRANCH  24  25
ENDBRANCH  23  24
ENDBRANCH  22  23
ENDBRANCH  21  22
ENDBRANCH  20  21
ENDBRANCH  19  20
ENDBRANCH  18  19
ENDBRANCH   1  18
TORSDOF 28
ENDMDL
MODEL 6
REMARK VINA RESULT:    -3.651      2.724      6.802
REMARK INTER + INTRA:         -15.449
REMARK INTER:                 -10.085
REMARK INTRA:                  -5.364
REMARK UNBOUND:                -5.823
REMARK SMILES CCCCCCCCCCCCCCCCCCCCCCCCCCCCCC(=O)[O-]
REMARK SMILES IDX 16 1 17 2 18 3 19 4 20 5 21 6 22 7 23 8 24 9 25 10 26 11
REMARK SMILES IDX 27 12 28 13 29 14 30 15 31 16 32 17 15 18 14 19 13 20 12 21
REMARK SMILES IDX 11 22 10 23 9 24 8 25 7 26 6 27 5 28 4 29 3 30 2 31 1 32
REMARK H PARENT
REMARK Flexibility Score: inf
ROOT
ATOM      1  C   UNL     1     -13.626  -4.287 -32.085  1.00  0.00     0.000 C 
ENDROOT
BRANCH   1   2
ATOM      2  C   UNL     1     -14.270  -3.796 -33.395  1.00  0.00     0.000 C 
BRANCH   2   3
ATOM      3  C   UNL     1     -15.445  -2.816 -33.219  1.00  0.00     0.000 C 
BRANCH   3   4
ATOM      4  C   UNL     1     -15.376  -1.622 -34.182  1.00  0.00     0.000 C 
BRANCH   4   5
ATOM      5  C   UNL     1     -15.076  -0.323 -33.425  1.00  0.00     0.000 C 
BRANCH   5   6
ATOM      6  C   UNL     1     -15.130  -0.546 -31.906  1.00  0.00     0.000 C 
BRANCH   6   7
ATOM      7  C   UNL     1     -14.027   0.212 -31.147  1.00  0.00     0.000 C 
BRANCH   7   8
ATOM      8  C   UNL     1     -13.593  -0.421 -29.812  1.00  0.00     0.000 C 
BRANCH   8   9
ATOM      9  C   UNL     1     -12.068  -0.601 -29.702  1.00  0.00     0.000 C 
BRANCH   9  10
ATOM     10  C   UNL     1     -11.510  -1.633 -30.701  1.00  0.00     0.000 C 
BRANCH  10  11
ATOM     11  C   UNL     1     -10.492  -2.633 -30.121  1.00  0.00     0.000 C 
BRANCH  11  12
ATOM     12  C   UNL     1     -11.157  -3.824 -29.410  1.00  0.00     0.000 C 
BRANCH  12  13
ATOM     13  C   UNL     1     -11.333  -3.589 -27.898  1.00  0.00     0.006 C 
BRANCH  13  14
ATOM     14  C   UNL     1     -12.522  -4.341 -27.277  1.00  0.00     0.053 C 
BRANCH  14  15
ATOM     15  C   UNL     1     -12.187  -4.914 -25.934  1.00  0.00     0.041 C 
ATOM     16  O   UNL     1     -11.068  -5.458 -25.737  1.00  0.00    -0.550 OA
ATOM     17  O   UNL     1     -13.112  -4.846 -24.898  1.00  0.00    -0.550 OA
ENDBRANCH  14  15
ENDBRANCH  13  14
ENDBRANCH  12  13
ENDBRANCH  11  12
ENDBRANCH  10  11
ENDBRANCH   9  10
ENDBRANCH   8   9
ENDBRANCH   7   8
ENDBRANCH   6   7
ENDBRANCH   5   6
ENDBRANCH   4   5
ENDBRANCH   3   4
ENDBRANCH   2   3
ENDBRANCH   1   2
BRANCH   1  18
ATOM     18  C   UNL     1     -14.458  -3.933 -30.840  1.00  0.00     0.000 C 
BRANCH  18  19
ATOM     19  C   UNL     1     -14.887  -5.173 -30.040  1.00  0.00     0.000 C 
BRANCH  19  20
ATOM     20  C   UNL     1     -15.487  -6.273 -30.928  1.00  0.00     0.000 C 
BRANCH  20  21
ATOM     21  C   UNL     1     -14.889  -7.646 -30.587  1.00  0.00     0.000 C 
BRANCH  21  22
ATOM     22  C   UNL     1     -13.556  -7.549 -29.823  1.00  0.00     0.000 C 
BRANCH  22  23
ATOM     23  C   UNL     1     -13.072  -8.867 -29.193  1.00  0.00     0.000 C 
BRANCH  23  24
ATOM     24  C   UNL     1     -11.656  -8.763 -28.601  1.00  0.00    -0.000 C 
BRANCH  24  25
ATOM     25  C   UNL     1     -11.078  -7.344 -28.708  1.00  0.00    -0.000 C 
BRANCH  25  26
ATOM     26  C   UNL     1      -9.541  -7.341 -28.808  1.00  0.00    -0.000 C 
BRANCH  26  27
ATOM     27  C   UNL     1      -9.040  -7.411 -30.259  1.00  0.00    -0.000 C 
BRANCH  27  28
ATOM     28  C   UNL     1      -8.405  -6.089 -30.724  1.00  0.00    -0.000 C 
BRANCH  28  29
ATOM     29  C   UNL     1      -7.295  -5.594 -29.780  1.00  0.00    -0.000 C 
BRANCH  29  30
ATOM     30  C   UNL     1      -7.233  -4.065 -29.582  1.00  0.00    -0.000 C 
BRANCH  30  31
ATOM     31  C   UNL     1      -7.383  -3.588 -28.127  1.00  0.00    -0.003 C 
ATOM     32  C   UNL     1      -7.819  -4.704 -27.178  1.00  0.00     0.004 C 
ENDBRANCH  30  31
ENDBRANCH  29  30
ENDBRANCH  28  29
ENDBRANCH  27  28
ENDBRANCH  26  27
ENDBRANCH  25  26
ENDBRANCH  24  25
ENDBRANCH  23  24
ENDBRANCH  22  23
ENDBRANCH  21  22
ENDBRANCH  20  21
ENDBRANCH  19  20
ENDBRANCH  18  19
ENDBRANCH   1  18
TORSDOF 28
ENDMDL
MODEL 7
REMARK VINA RESULT:    -3.628      1.466      4.390
REMARK INTER + INTRA:         -15.390
REMARK INTER:                  -9.721
REMARK INTRA:                  -5.669
REMARK UNBOUND:                -5.823
REMARK SMILES CCCCCCCCCCCCCCCCCCCCCCCCCCCCCC(=O)[O-]
REMARK SMILES IDX 16 1 17 2 18 3 19 4 20 5 21 6 22 7 23 8 24 9 25 10 26 11
REMARK SMILES IDX 27 12 28 13 29 14 30 15 31 16 32 17 15 18 14 19 13 20 12 21
REMARK SMILES IDX 11 22 10 23 9 24 8 25 7 26 6 27 5 28 4 29 3 30 2 31 1 32
REMARK H PARENT
REMARK Flexibility Score: inf
ROOT
ATOM      1  C   UNL     1     -14.033  -4.630 -32.107  1.00  0.00     0.000 C 
ENDROOT
BRANCH   1   2
ATOM      2  C   UNL     1     -15.221  -4.537 -31.131  1.00  0.00     0.000 C 
BRANCH   2   3
ATOM      3  C   UNL     1     -15.432  -5.773 -30.237  1.00  0.00     0.000 C 
BRANCH   3   4
ATOM      4  C   UNL     1     -15.197  -7.096 -30.981  1.00  0.00     0.000 C 
BRANCH   4   5
ATOM      5  C   UNL     1     -14.219  -7.992 -30.211  1.00  0.00     0.000 C 
BRANCH   5   6
ATOM      6  C   UNL     1     -13.257  -7.152 -29.359  1.00  0.00     0.000 C 
BRANCH   6   7
ATOM      7  C   UNL     1     -11.927  -7.869 -29.068  1.00  0.00     0.000 C 
BRANCH   7   8
ATOM      8  C   UNL     1     -10.873  -7.026 -28.326  1.00  0.00     0.000 C 
BRANCH   8   9
ATOM      9  C   UNL     1      -9.739  -6.540 -29.246  1.00  0.00     0.000 C 
BRANCH   9  10
ATOM     10  C   UNL     1     -10.248  -6.010 -30.600  1.00  0.00     0.000 C 
BRANCH  10  11
ATOM     11  C   UNL     1      -9.759  -4.600 -30.985  1.00  0.00     0.000 C 
BRANCH  11  12
ATOM     12  C   UNL     1      -8.616  -4.095 -30.089  1.00  0.00     0.000 C 
BRANCH  12  13
ATOM     13  C   UNL     1      -8.771  -2.610 -29.710  1.00  0.00     0.006 C 
BRANCH  13  14
ATOM     14  C   UNL     1      -7.491  -1.777 -29.884  1.00  0.00     0.053 C 
BRANCH  14  15
ATOM     15  C   UNL     1      -7.693  -0.619 -30.813  1.00  0.00     0.041 C 
ATOM     16  O   UNL     1      -6.701   0.024 -31.249  1.00  0.00    -0.550 OA
ATOM     17  O   UNL     1      -8.976  -0.251 -31.199  1.00  0.00    -0.550 OA
ENDBRANCH  14  15
ENDBRANCH  13  14
ENDBRANCH  12  13
ENDBRANCH  11  12
ENDBRANCH  10  11
ENDBRANCH   9  10
ENDBRANCH   8   9
ENDBRANCH   7   8
ENDBRANCH   6   7
ENDBRANCH   5   6
ENDBRANCH   4   5
ENDBRANCH   3   4
ENDBRANCH   2   3
ENDBRANCH   1   2
BRANCH   1  18
ATOM     18  C   UNL     1     -14.252  -3.817 -33.394  1.00  0.00     0.000 C 
BRANCH  18  19
ATOM     19  C   UNL     1     -15.536  -2.973 -33.352  1.00  0.00     0.000 C 
BRANCH  19  20
ATOM     20  C   UNL     1     -15.376  -1.615 -34.053  1.00  0.00     0.000 C 
BRANCH  20  21
ATOM     21  C   UNL     1     -15.196  -0.484 -33.029  1.00  0.00     0.000 C 
BRANCH  21  22
ATOM     22  C   UNL     1     -15.636  -0.882 -31.608  1.00  0.00     0.000 C 
BRANCH  22  23
ATOM     23  C   UNL     1     -14.595  -0.610 -30.507  1.00  0.00     0.000 C 
BRANCH  23  24
ATOM     24  C   UNL     1     -13.147  -0.661 -31.025  1.00  0.00    -0.000 C 
BRANCH  24  25
ATOM     25  C   UNL     1     -12.336  -1.799 -30.387  1.00  0.00    -0.000 C 
BRANCH  25  26
ATOM     26  C   UNL     1     -12.964  -2.304 -29.074  1.00  0.00    -0.000 C 
BRANCH  26  27
ATOM     27  C   UNL     1     -12.570  -3.752 -28.746  1.00  0.00    -0.000 C 
BRANCH  27  28
ATOM     28  C   UNL     1     -12.651  -4.055 -27.240  1.00  0.00    -0.000 C 
BRANCH  28  29
ATOM     29  C   UNL     1     -11.568  -3.327 -26.424  1.00  0.00    -0.000 C 
BRANCH  29  30
ATOM     30  C   UNL     1     -10.124  -3.814 -26.663  1.00  0.00    -0.000 C 
BRANCH  30  31
ATOM     31  C   UNL     1      -9.524  -4.659 -25.526  1.00  0.00    -0.003 C 
ATOM     32  C   UNL     1     -10.346  -4.594 -24.240  1.00  0.00     0.004 C 
ENDBRANCH  30  31
ENDBRANCH  29  30
ENDBRANCH  28  29
ENDBRANCH  27  28
ENDBRANCH  26  27
ENDBRANCH  25  26
ENDBRANCH  24  25
ENDBRANCH  23  24
ENDBRANCH  22  23
ENDBRANCH  21  22
ENDBRANCH  20  21
ENDBRANCH  19  20
ENDBRANCH  18  19
ENDBRANCH   1  18
TORSDOF 28
ENDMDL
MODEL 8
REMARK VINA RESULT:    -3.611      1.372      4.535
REMARK INTER + INTRA:         -15.346
REMARK INTER:                  -9.743
REMARK INTRA:                  -5.603
REMARK UNBOUND:                -5.823
REMARK SMILES CCCCCCCCCCCCCCCCCCCCCCCCCCCCCC(=O)[O-]
REMARK SMILES IDX 16 1 17 2 18 3 19 4 20 5 21 6 22 7 23 8 24 9 25 10 26 11
REMARK SMILES IDX 27 12 28 13 29 14 30 15 31 16 32 17 15 18 14 19 13 20 12 21
REMARK SMILES IDX 11 22 10 23 9 24 8 25 7 26 6 27 5 28 4 29 3 30 2 31 1 32
REMARK H PARENT
REMARK Flexibility Score: inf
ROOT
ATOM      1  C   UNL     1     -15.038  -4.334 -31.065  1.00  0.00     0.000 C 
ENDROOT
BRANCH   1   2
ATOM      2  C   UNL     1     -15.362  -5.579 -30.219  1.00  0.00     0.000 C 
BRANCH   2   3
ATOM      3  C   UNL     1     -15.196  -6.926 -30.946  1.00  0.00     0.000 C 
BRANCH   3   4
ATOM      4  C   UNL     1     -14.283  -7.904 -30.194  1.00  0.00     0.000 C 
BRANCH   4   5
ATOM      5  C   UNL     1     -12.959  -7.232 -29.808  1.00  0.00     0.000 C 
BRANCH   5   6
ATOM      6  C   UNL     1     -12.524  -7.646 -28.395  1.00  0.00     0.000 C 
BRANCH   6   7
ATOM      7  C   UNL     1     -12.069  -6.454 -27.533  1.00  0.00     0.000 C 
BRANCH   7   8
ATOM      8  C   UNL     1     -12.304  -5.065 -28.154  1.00  0.00     0.000 C 
BRANCH   8   9
ATOM      9  C   UNL     1     -12.968  -4.077 -27.179  1.00  0.00     0.000 C 
BRANCH   9  10
ATOM     10  C   UNL     1     -11.978  -3.478 -26.162  1.00  0.00     0.000 C 
BRANCH  10  11
ATOM     11  C   UNL     1     -11.616  -1.997 -26.384  1.00  0.00     0.000 C 
BRANCH  11  12
ATOM     12  C   UNL     1     -10.313  -1.811 -27.181  1.00  0.00     0.000 C 
BRANCH  12  13
ATOM     13  C   UNL     1      -9.835  -0.347 -27.202  1.00  0.00     0.006 C 
BRANCH  13  14
ATOM     14  C   UNL     1      -9.706   0.255 -28.610  1.00  0.00     0.053 C 
BRANCH  14  15
ATOM     15  C   UNL     1      -8.291   0.243 -29.103  1.00  0.00     0.041 C 
ATOM     16  O   UNL     1      -8.037   0.515 -30.306  1.00  0.00    -0.550 OA
ATOM     17  O   UNL     1      -7.254  -0.066 -28.232  1.00  0.00    -0.550 OA
ENDBRANCH  14  15
ENDBRANCH  13  14
ENDBRANCH  12  13
ENDBRANCH  11  12
ENDBRANCH  10  11
ENDBRANCH   9  10
ENDBRANCH   8   9
ENDBRANCH   7   8
ENDBRANCH   6   7
ENDBRANCH   5   6
ENDBRANCH   4   5
ENDBRANCH   3   4
ENDBRANCH   2   3
ENDBRANCH   1   2
BRANCH   1  18
ATOM     18  C   UNL     1     -14.003  -4.614 -32.168  1.00  0.00     0.000 C 
BRANCH  18  19
ATOM     19  C   UNL     1     -14.295  -3.844 -33.466  1.00  0.00     0.000 C 
BRANCH  19  20
ATOM     20  C   UNL     1     -15.588  -3.018 -33.387  1.00  0.00     0.000 C 
BRANCH  20  21
ATOM     21  C   UNL     1     -15.397  -1.631 -34.019  1.00  0.00     0.000 C 
BRANCH  21  22
ATOM     22  C   UNL     1     -15.074  -0.538 -32.984  1.00  0.00     0.000 C 
BRANCH  22  23
ATOM     23  C   UNL     1     -15.574  -0.827 -31.558  1.00  0.00     0.000 C 
BRANCH  23  24
ATOM     24  C   UNL     1     -14.525  -0.506 -30.479  1.00  0.00    -0.000 C 
BRANCH  24  25
ATOM     25  C   UNL     1     -13.091  -0.778 -30.956  1.00  0.00    -0.000 C 
BRANCH  25  26
ATOM     26  C   UNL     1     -12.381  -1.847 -30.104  1.00  0.00    -0.000 C 
BRANCH  26  27
ATOM     27  C   UNL     1     -11.551  -2.825 -30.951  1.00  0.00    -0.000 C 
BRANCH  27  28
ATOM     28  C   UNL     1     -10.044  -2.526 -30.883  1.00  0.00    -0.000 C 
BRANCH  28  29
ATOM     29  C   UNL     1      -9.189  -3.795 -30.707  1.00  0.00    -0.000 C 
BRANCH  29  30
ATOM     30  C   UNL     1      -9.933  -5.127 -30.932  1.00  0.00    -0.000 C 
BRANCH  30  31
ATOM     31  C   UNL     1      -9.046  -6.383 -30.903  1.00  0.00    -0.003 C 
ATOM     32  C   UNL     1      -8.957  -7.017 -29.516  1.00  0.00     0.004 C 
ENDBRANCH  30  31
ENDBRANCH  29  30
ENDBRANCH  28  29
ENDBRANCH  27  28
ENDBRANCH  26  27
ENDBRANCH  25  26
ENDBRANCH  24  25
ENDBRANCH  23  24
ENDBRANCH  22  23
ENDBRANCH  21  22
ENDBRANCH  20  21
ENDBRANCH  19  20
ENDBRANCH  18  19
ENDBRANCH   1  18
TORSDOF 28
ENDMDL
MODEL 9
REMARK VINA RESULT:    -3.607      1.549      3.122
REMARK INTER + INTRA:         -15.335
REMARK INTER:                  -9.536
REMARK INTRA:                  -5.798
REMARK UNBOUND:                -5.823
REMARK SMILES CCCCCCCCCCCCCCCCCCCCCCCCCCCCCC(=O)[O-]
REMARK SMILES IDX 16 1 17 2 18 3 19 4 20 5 21 6 22 7 23 8 24 9 25 10 26 11
REMARK SMILES IDX 27 12 28 13 29 14 30 15 31 16 32 17 15 18 14 19 13 20 12 21
REMARK SMILES IDX 11 22 10 23 9 24 8 25 7 26 6 27 5 28 4 29 3 30 2 31 1 32
REMARK H PARENT
REMARK Flexibility Score: inf
ROOT
ATOM      1  C   UNL     1     -10.534  -6.867 -28.440  1.00  0.00     0.000 C 
ENDROOT
BRANCH   1   2
ATOM      2  C   UNL     1      -9.445  -7.033 -29.516  1.00  0.00     0.000 C 
BRANCH   2   3
ATOM      3  C   UNL     1      -8.976  -5.724 -30.179  1.00  0.00     0.000 C 
BRANCH   3   4
ATOM      4  C   UNL     1     -10.081  -5.038 -30.994  1.00  0.00     0.000 C 
BRANCH   4   5
ATOM      5  C   UNL     1      -9.859  -3.522 -31.053  1.00  0.00     0.000 C 
BRANCH   5   6
ATOM      6  C   UNL     1     -11.196  -2.768 -31.001  1.00  0.00     0.000 C 
BRANCH   6   7
ATOM      7  C   UNL     1     -12.402  -3.696 -30.773  1.00  0.00     0.000 C 
BRANCH   7   8
ATOM      8  C   UNL     1     -13.232  -3.400 -29.511  1.00  0.00     0.000 C 
BRANCH   8   9
ATOM      9  C   UNL     1     -12.437  -3.603 -28.209  1.00  0.00     0.000 C 
BRANCH   9  10
ATOM     10  C   UNL     1     -12.120  -2.281 -27.485  1.00  0.00     0.000 C 
BRANCH  10  11
ATOM     11  C   UNL     1     -10.625  -1.995 -27.251  1.00  0.00     0.000 C 
BRANCH  11  12
ATOM     12  C   UNL     1      -9.729  -3.216 -27.525  1.00  0.00     0.000 C 
BRANCH  12  13
ATOM     13  C   UNL     1      -8.242  -2.841 -27.668  1.00  0.00     0.006 C 
BRANCH  13  14
ATOM     14  C   UNL     1      -7.988  -1.571 -28.497  1.00  0.00     0.053 C 
BRANCH  14  15
ATOM     15  C   UNL     1      -7.039  -1.817 -29.630  1.00  0.00     0.041 C 
ATOM     16  O   UNL     1      -6.797  -0.904 -30.463  1.00  0.00    -0.550 OA
ATOM     17  O   UNL     1      -6.420  -3.054 -29.764  1.00  0.00    -0.550 OA
ENDBRANCH  14  15
ENDBRANCH  13  14
ENDBRANCH  12  13
ENDBRANCH  11  12
ENDBRANCH  10  11
ENDBRANCH   9  10
ENDBRANCH   8   9
ENDBRANCH   7   8
ENDBRANCH   6   7
ENDBRANCH   5   6
ENDBRANCH   4   5
ENDBRANCH   3   4
ENDBRANCH   2   3
ENDBRANCH   1   2
BRANCH   1  18
ATOM     18  C   UNL     1     -11.699  -7.857 -28.612  1.00  0.00     0.000 C 
BRANCH  18  19
ATOM     19  C   UNL     1     -12.867  -7.265 -29.418  1.00  0.00     0.000 C 
BRANCH  19  20
ATOM     20  C   UNL     1     -13.867  -8.334 -29.884  1.00  0.00     0.000 C 
BRANCH  20  21
ATOM     21  C   UNL     1     -15.043  -7.698 -30.640  1.00  0.00     0.000 C 
BRANCH  21  22
ATOM     22  C   UNL     1     -14.854  -6.190 -30.887  1.00  0.00     0.000 C 
BRANCH  22  23
ATOM     23  C   UNL     1     -15.931  -5.538 -31.773  1.00  0.00     0.000 C 
BRANCH  23  24
ATOM     24  C   UNL     1     -15.338  -4.669 -32.895  1.00  0.00    -0.000 C 
BRANCH  24  25
ATOM     25  C   UNL     1     -15.892  -3.236 -32.882  1.00  0.00    -0.000 C 
BRANCH  25  26
ATOM     26  C   UNL     1     -15.001  -2.255 -33.666  1.00  0.00    -0.000 C 
BRANCH  26  27
ATOM     27  C   UNL     1     -14.983  -0.847 -33.051  1.00  0.00    -0.000 C 
BRANCH  27  28
ATOM     28  C   UNL     1     -15.185  -0.871 -31.526  1.00  0.00    -0.000 C 
BRANCH  28  29
ATOM     29  C   UNL     1     -14.632   0.385 -30.829  1.00  0.00    -0.000 C 
BRANCH  29  30
ATOM     30  C   UNL     1     -13.300   0.188 -30.077  1.00  0.00    -0.000 C 
BRANCH  30  31
ATOM     31  C   UNL     1     -12.071   0.828 -30.746  1.00  0.00    -0.003 C 
ATOM     32  C   UNL     1     -10.792   0.653 -29.930  1.00  0.00     0.004 C 
ENDBRANCH  30  31
ENDBRANCH  29  30
ENDBRANCH  28  29
ENDBRANCH  27  28
ENDBRANCH  26  27
ENDBRANCH  25  26
ENDBRANCH  24  25
ENDBRANCH  23  24
ENDBRANCH  22  23
ENDBRANCH  21  22
ENDBRANCH  20  21
ENDBRANCH  19  20
ENDBRANCH  18  19
ENDBRANCH   1  18
TORSDOF 28
ENDMDL
