MODEL 1
REMARK VINA RESULT:    -3.569      0.000      0.000
REMARK INTER + INTRA:         -13.908
REMARK INTER:                  -8.993
REMARK INTRA:                  -4.915
REMARK UNBOUND:                -4.915
REMARK SMILES CCCCCCCCCCCCCCCCCCCCCCCCCCCC(=O)[O-]
REMARK SMILES IDX 15 1 16 2 17 3 18 4 19 5 20 6 21 7 22 8 23 9 24 10 25 11
REMARK SMILES IDX 26 12 27 13 28 14 29 15 30 16 14 17 13 18 12 19 11 20 10 21
REMARK SMILES IDX 9 22 8 23 7 24 6 25 5 26 4 27 3 28 2 29 1 30
REMARK H PARENT
REMARK Flexibility Score: inf
ROOT
ATOM      1  C   UNL     1      -1.378  -8.820   6.895  1.00  0.00     0.000 C 
ENDROOT
BRANCH   1   2
ATOM      2  C   UNL     1      -2.153  -9.999   6.287  1.00  0.00     0.000 C 
BRANCH   2   3
ATOM      3  C   UNL     1      -3.274 -10.506   7.211  1.00  0.00     0.000 C 
BRANCH   3   4
ATOM      4  C   UNL     1      -3.234  -9.859   8.606  1.00  0.00     0.000 C 
BRANCH   4   5
ATOM      5  C   UNL     1      -3.991 -10.637   9.702  1.00  0.00     0.000 C 
BRANCH   5   6
ATOM      6  C   UNL     1      -4.525 -12.020   9.275  1.00  0.00     0.000 C 
BRANCH   6   7
ATOM      7  C   UNL     1      -6.007 -12.278   9.603  1.00  0.00     0.000 C 
BRANCH   7   8
ATOM      8  C   UNL     1      -6.948 -11.892   8.449  1.00  0.00     0.000 C 
BRANCH   8   9
ATOM      9  C   UNL     1      -6.383 -12.269   7.066  1.00  0.00     0.000 C 
BRANCH   9  10
ATOM     10  C   UNL     1      -7.352 -12.068   5.884  1.00  0.00     0.000 C 
BRANCH  10  11
ATOM     11  C   UNL     1      -8.394 -10.948   6.073  1.00  0.00     0.000 C 
BRANCH  11  12
ATOM     12  C   UNL     1      -8.883 -10.287   4.768  1.00  0.00     0.006 C 
BRANCH  12  13
ATOM     13  C   UNL     1     -10.321 -10.658   4.370  1.00  0.00     0.053 C 
BRANCH  13  14
ATOM     14  C   UNL     1     -11.291  -9.568   4.708  1.00  0.00     0.041 C 
ATOM     15  O   UNL     1     -10.893  -8.381   4.835  1.00  0.00    -0.550 OA
ATOM     16  O   UNL     1     -12.642  -9.860   4.846  1.00  0.00    -0.550 OA
ENDBRANCH  13  14
ENDBRANCH  12  13
ENDBRANCH  11  12
ENDBRANCH  10  11
ENDBRANCH   9  10
ENDBRANCH   8   9
ENDBRANCH   7   8
ENDBRANCH   6   7
ENDBRANCH   5   6
ENDBRANCH   4   5
ENDBRANCH   3   4
ENDBRANCH   2   3
ENDBRANCH   1   2
BRANCH   1  17
ATOM     17  C   UNL     1       0.107  -8.819   6.489  1.00  0.00     0.000 C 
BRANCH  17  18
ATOM     18  C   UNL     1       1.054  -8.746   7.698  1.00  0.00     0.000 C 
BRANCH  18  19
ATOM     19  C   UNL     1       0.305  -8.788   9.040  1.00  0.00     0.000 C 
BRANCH  19  20
ATOM     20  C   UNL     1       0.725  -9.977   9.923  1.00  0.00     0.000 C 
BRANCH  20  21
ATOM     21  C   UNL     1      -0.281 -11.145   9.970  1.00  0.00     0.000 C 
BRANCH  21  22
ATOM     22  C   UNL     1      -0.240 -12.098   8.759  1.00  0.00    -0.000 C 
BRANCH  22  23
ATOM     23  C   UNL     1       1.171 -12.501   8.292  1.00  0.00    -0.000 C 
BRANCH  23  24
ATOM     24  C   UNL     1       1.359 -12.357   6.772  1.00  0.00    -0.000 C 
BRANCH  24  25
ATOM     25  C   UNL     1       0.057 -12.591   5.990  1.00  0.00    -0.000 C 
BRANCH  25  26
ATOM     26  C   UNL     1       0.102 -13.860   5.125  1.00  0.00    -0.000 C 
BRANCH  26  27
ATOM     27  C   UNL     1      -1.073 -14.790   5.454  1.00  0.00    -0.000 C 
BRANCH  27  28
ATOM     28  C   UNL     1      -2.001 -14.154   6.501  1.00  0.00    -0.000 C 
BRANCH  28  29
ATOM     29  C   UNL     1      -3.461 -14.080   6.029  1.00  0.00    -0.003 C 
ATOM     30  C   UNL     1      -3.629 -13.257   4.751  1.00  0.00     0.004 C 
ENDBRANCH  28  29
ENDBRANCH  27  28
ENDBRANCH  26  27
ENDBRANCH  25  26
ENDBRANCH  24  25
ENDBRANCH  23  24
ENDBRANCH  22  23
ENDBRANCH  21  22
ENDBRANCH  20  21
ENDBRANCH  19  20
ENDBRANCH  18  19
ENDBRANCH  17  18
ENDBRANCH   1  17
TORSDOF 26
ENDMDL
MODEL 2
REMARK VINA RESULT:    -3.556      1.881      3.096
REMARK INTER + INTRA:         -13.875
REMARK INTER:                 -10.023
REMARK INTRA:                  -3.853
REMARK UNBOUND:                -4.915
REMARK SMILES CCCCCCCCCCCCCCCCCCCCCCCCCCCC(=O)[O-]
REMARK SMILES IDX 15 1 16 2 17 3 18 4 19 5 20 6 21 7 22 8 23 9 24 10 25 11
REMARK SMILES IDX 26 12 27 13 28 14 29 15 30 16 14 17 13 18 12 19 11 20 10 21
REMARK SMILES IDX 9 22 8 23 7 24 6 25 5 26 4 27 3 28 2 29 1 30
REMARK H PARENT
REMARK Flexibility Score: inf
ROOT
ATOM      1  C   UNL     1      -3.086 -10.124   6.995  1.00  0.00     0.000 C 
ENDROOT
BRANCH   1   2
ATOM      2  C   UNL     1      -3.544 -10.656   8.361  1.00  0.00     0.000 C 
BRANCH   2   3
ATOM      3  C   UNL     1      -4.514 -11.844   8.235  1.00  0.00     0.000 C 
BRANCH   3   4
ATOM      4  C   UNL     1      -5.651 -11.580   7.231  1.00  0.00     0.000 C 
BRANCH   4   5
ATOM      5  C   UNL     1      -6.965 -12.330   7.530  1.00  0.00     0.000 C 
BRANCH   5   6
ATOM      6  C   UNL     1      -7.712 -11.866   8.797  1.00  0.00     0.000 C 
BRANCH   6   7
ATOM      7  C   UNL     1      -8.911 -10.933   8.544  1.00  0.00     0.000 C 
BRANCH   7   8
ATOM      8  C   UNL     1      -9.420 -10.998   7.094  1.00  0.00     0.000 C 
BRANCH   8   9
ATOM      9  C   UNL     1     -10.148  -9.712   6.659  1.00  0.00     0.000 C 
BRANCH   9  10
ATOM     10  C   UNL     1      -9.980  -9.332   5.174  1.00  0.00     0.000 C 
BRANCH  10  11
ATOM     11  C   UNL     1     -10.436 -10.405   4.167  1.00  0.00     0.000 C 
BRANCH  11  12
ATOM     12  C   UNL     1      -9.300 -11.062   3.356  1.00  0.00     0.006 C 
BRANCH  12  13
ATOM     13  C   UNL     1      -9.435 -10.903   1.833  1.00  0.00     0.053 C 
BRANCH  13  14
ATOM     14  C   UNL     1     -10.335 -11.943   1.242  1.00  0.00     0.041 C 
ATOM     15  O   UNL     1     -11.547 -11.683   1.020  1.00  0.00    -0.550 OA
ATOM     16  O   UNL     1      -9.826 -13.190   0.900  1.00  0.00    -0.550 OA
ENDBRANCH  13  14
ENDBRANCH  12  13
ENDBRANCH  11  12
ENDBRANCH  10  11
ENDBRANCH   9  10
ENDBRANCH   8   9
ENDBRANCH   7   8
ENDBRANCH   6   7
ENDBRANCH   5   6
ENDBRANCH   4   5
ENDBRANCH   3   4
ENDBRANCH   2   3
ENDBRANCH   1   2
BRANCH   1  17
ATOM     17  C   UNL     1      -2.841  -8.604   7.007  1.00  0.00     0.000 C 
BRANCH  17  18
ATOM     18  C   UNL     1      -1.532  -8.207   6.307  1.00  0.00     0.000 C 
BRANCH  18  19
ATOM     19  C   UNL     1      -0.415  -9.246   6.507  1.00  0.00     0.000 C 
BRANCH  19  20
ATOM     20  C   UNL     1       0.743  -8.719   7.372  1.00  0.00     0.000 C 
BRANCH  20  21
ATOM     21  C   UNL     1       0.457  -8.668   8.887  1.00  0.00     0.000 C 
BRANCH  21  22
ATOM     22  C   UNL     1      -0.192  -9.935   9.478  1.00  0.00    -0.000 C 
BRANCH  22  23
ATOM     23  C   UNL     1       0.793 -10.945  10.097  1.00  0.00    -0.000 C 
BRANCH  23  24
ATOM     24  C   UNL     1       0.874 -12.260   9.303  1.00  0.00    -0.000 C 
BRANCH  24  25
ATOM     25  C   UNL     1      -0.455 -12.623   8.622  1.00  0.00    -0.000 C 
BRANCH  25  26
ATOM     26  C   UNL     1      -0.305 -12.860   7.111  1.00  0.00    -0.000 C 
BRANCH  26  27
ATOM     27  C   UNL     1      -1.544 -13.564   6.542  1.00  0.00    -0.000 C 
BRANCH  27  28
ATOM     28  C   UNL     1      -1.918 -12.991   5.166  1.00  0.00    -0.000 C 
BRANCH  28  29
ATOM     29  C   UNL     1      -3.401 -13.200   4.822  1.00  0.00    -0.003 C 
ATOM     30  C   UNL     1      -3.999 -14.431   5.506  1.00  0.00     0.004 C 
ENDBRANCH  28  29
ENDBRANCH  27  28
ENDBRANCH  26  27
ENDBRANCH  25  26
ENDBRANCH  24  25
ENDBRANCH  23  24
ENDBRANCH  22  23
ENDBRANCH  21  22
ENDBRANCH  20  21
ENDBRANCH  19  20
ENDBRANCH  18  19
ENDBRANCH  17  18
ENDBRANCH   1  17
TORSDOF 26
ENDMDL
MODEL 3
REMARK VINA RESULT:    -3.537      1.322      2.522
REMARK INTER + INTRA:         -13.828
REMARK INTER:                  -9.646
REMARK INTRA:                  -4.182
REMARK UNBOUND:                -4.915
REMARK SMILES CCCCCCCCCCCCCCCCCCCCCCCCCCCC(=O)[O-]
REMARK SMILES IDX 15 1 16 2 17 3 18 4 19 5 20 6 21 7 22 8 23 9 24 10 25 11
REMARK SMILES IDX 26 12 27 13 28 14 29 15 30 16 14 17 13 18 12 19 11 20 10 21
REMARK SMILES IDX 9 22 8 23 7 24 6 25 5 26 4 27 3 28 2 29 1 30
REMARK H PARENT
REMARK Flexibility Score: inf
ROOT
ATOM      1  C   UNL     1      -1.832  -8.103   6.189  1.00  0.00     0.000 C 
ENDROOT
BRANCH   1   2
ATOM      2  C   UNL     1      -2.860  -8.326   7.308  1.00  0.00     0.000 C 
BRANCH   2   3
ATOM      3  C   UNL     1      -2.907  -9.788   7.783  1.00  0.00     0.000 C 
BRANCH   3   4
ATOM      4  C   UNL     1      -3.179  -9.915   9.292  1.00  0.00     0.000 C 
BRANCH   4   5
ATOM      5  C   UNL     1      -3.465 -11.351   9.779  1.00  0.00     0.000 C 
BRANCH   5   6
ATOM      6  C   UNL     1      -4.955 -11.747   9.815  1.00  0.00     0.000 C 
BRANCH   6   7
ATOM      7  C   UNL     1      -5.328 -12.968   8.953  1.00  0.00     0.000 C 
BRANCH   7   8
ATOM      8  C   UNL     1      -5.165 -12.706   7.446  1.00  0.00     0.000 C 
BRANCH   8   9
ATOM      9  C   UNL     1      -6.164 -11.663   6.909  1.00  0.00     0.000 C 
BRANCH   9  10
ATOM     10  C   UNL     1      -7.378 -12.243   6.156  1.00  0.00     0.000 C 
BRANCH  10  11
ATOM     11  C   UNL     1      -8.555 -11.267   5.959  1.00  0.00     0.000 C 
BRANCH  11  12
ATOM     12  C   UNL     1      -9.130 -11.223   4.528  1.00  0.00     0.006 C 
BRANCH  12  13
ATOM     13  C   UNL     1      -9.411  -9.806   4.002  1.00  0.00     0.053 C 
BRANCH  13  14
ATOM     14  C   UNL     1     -10.623  -9.203   4.644  1.00  0.00     0.041 C 
ATOM     15  O   UNL     1     -11.766  -9.674   4.407  1.00  0.00    -0.550 OA
ATOM     16  O   UNL     1     -10.484  -8.145   5.534  1.00  0.00    -0.550 OA
ENDBRANCH  13  14
ENDBRANCH  12  13
ENDBRANCH  11  12
ENDBRANCH  10  11
ENDBRANCH   9  10
ENDBRANCH   8   9
ENDBRANCH   7   8
ENDBRANCH   6   7
ENDBRANCH   5   6
ENDBRANCH   4   5
ENDBRANCH   3   4
ENDBRANCH   2   3
ENDBRANCH   1   2
BRANCH   1  17
ATOM     17  C   UNL     1      -0.766  -9.214   6.138  1.00  0.00     0.000 C 
BRANCH  17  18
ATOM     18  C   UNL     1       0.620  -8.730   6.593  1.00  0.00     0.000 C 
BRANCH  18  19
ATOM     19  C   UNL     1       1.164  -9.532   7.787  1.00  0.00     0.000 C 
BRANCH  19  20
ATOM     20  C   UNL     1       0.535  -9.111   9.127  1.00  0.00     0.000 C 
BRANCH  20  21
ATOM     21  C   UNL     1       0.606 -10.172  10.245  1.00  0.00     0.000 C 
BRANCH  21  22
ATOM     22  C   UNL     1       1.039 -11.580   9.791  1.00  0.00    -0.000 C 
BRANCH  22  23
ATOM     23  C   UNL     1      -0.042 -12.669   9.923  1.00  0.00    -0.000 C 
BRANCH  23  24
ATOM     24  C   UNL     1      -0.212 -13.499   8.638  1.00  0.00    -0.000 C 
BRANCH  24  25
ATOM     25  C   UNL     1      -0.903 -12.712   7.513  1.00  0.00    -0.000 C 
BRANCH  25  26
ATOM     26  C   UNL     1      -0.308 -13.008   6.128  1.00  0.00    -0.000 C 
BRANCH  26  27
ATOM     27  C   UNL     1       1.217 -12.844   6.140  1.00  0.00    -0.000 C 
BRANCH  27  28
ATOM     28  C   UNL     1       1.911 -14.115   5.624  1.00  0.00    -0.000 C 
BRANCH  28  29
ATOM     29  C   UNL     1       3.434 -14.076   5.818  1.00  0.00    -0.003 C 
ATOM     30  C   UNL     1       3.896 -12.870   6.637  1.00  0.00     0.004 C 
ENDBRANCH  28  29
ENDBRANCH  27  28
ENDBRANCH  26  27
ENDBRANCH  25  26
ENDBRANCH  24  25
ENDBRANCH  23  24
ENDBRANCH  22  23
ENDBRANCH  21  22
ENDBRANCH  20  21
ENDBRANCH  19  20
ENDBRANCH  18  19
ENDBRANCH  17  18
ENDBRANCH   1  17
TORSDOF 26
ENDMDL
MODEL 4
REMARK VINA RESULT:    -3.522      3.595      8.859
REMARK INTER + INTRA:         -13.790
REMARK INTER:                  -9.549
REMARK INTRA:                  -4.241
REMARK UNBOUND:                -4.915
REMARK SMILES CCCCCCCCCCCCCCCCCCCCCCCCCCCC(=O)[O-]
REMARK SMILES IDX 15 1 16 2 17 3 18 4 19 5 20 6 21 7 22 8 23 9 24 10 25 11
REMARK SMILES IDX 26 12 27 13 28 14 29 15 30 16 14 17 13 18 12 19 11 20 10 21
REMARK SMILES IDX 9 22 8 23 7 24 6 25 5 26 4 27 3 28 2 29 1 30
REMARK H PARENT
REMARK Flexibility Score: inf
ROOT
ATOM      1  C   UNL     1      -2.734 -14.175   5.726  1.00  0.00     0.000 C 
ENDROOT
BRANCH   1   2
ATOM      2  C   UNL     1      -2.389 -12.900   4.943  1.00  0.00     0.000 C 
BRANCH   2   3
ATOM      3  C   UNL     1      -0.925 -12.468   5.135  1.00  0.00     0.000 C 
BRANCH   3   4
ATOM      4  C   UNL     1      -0.125 -13.450   6.009  1.00  0.00     0.000 C 
BRANCH   4   5
ATOM      5  C   UNL     1       0.575 -12.810   7.226  1.00  0.00     0.000 C 
BRANCH   5   6
ATOM      6  C   UNL     1      -0.161 -12.978   8.570  1.00  0.00     0.000 C 
BRANCH   6   7
ATOM      7  C   UNL     1      -0.992 -11.761   9.017  1.00  0.00     0.000 C 
BRANCH   7   8
ATOM      8  C   UNL     1      -2.505 -12.036   9.005  1.00  0.00     0.000 C 
BRANCH   8   9
ATOM      9  C   UNL     1      -3.337 -10.792   8.642  1.00  0.00     0.000 C 
BRANCH   9  10
ATOM     10  C   UNL     1      -2.981 -10.134   7.294  1.00  0.00     0.000 C 
BRANCH  10  11
ATOM     11  C   UNL     1      -2.727  -8.614   7.352  1.00  0.00     0.000 C 
BRANCH  11  12
ATOM     12  C   UNL     1      -1.478  -8.133   6.585  1.00  0.00     0.006 C 
BRANCH  12  13
ATOM     13  C   UNL     1      -0.360  -9.182   6.474  1.00  0.00     0.053 C 
BRANCH  13  14
ATOM     14  C   UNL     1       0.744  -8.925   7.453  1.00  0.00     0.041 C 
ATOM     15  O   UNL     1       1.927  -9.258   7.176  1.00  0.00    -0.550 OA
ATOM     16  O   UNL     1       0.472  -8.285   8.654  1.00  0.00    -0.550 OA
ENDBRANCH  13  14
ENDBRANCH  12  13
ENDBRANCH  11  12
ENDBRANCH  10  11
ENDBRANCH   9  10
ENDBRANCH   8   9
ENDBRANCH   7   8
ENDBRANCH   6   7
ENDBRANCH   5   6
ENDBRANCH   4   5
ENDBRANCH   3   4
ENDBRANCH   2   3
ENDBRANCH   1   2
BRANCH   1  17
ATOM     17  C   UNL     1      -4.079 -14.065   6.468  1.00  0.00     0.000 C 
BRANCH  17  18
ATOM     18  C   UNL     1      -5.026 -13.034   5.834  1.00  0.00     0.000 C 
BRANCH  18  19
ATOM     19  C   UNL     1      -6.042 -12.467   6.840  1.00  0.00     0.000 C 
BRANCH  19  20
ATOM     20  C   UNL     1      -7.145 -11.630   6.168  1.00  0.00     0.000 C 
BRANCH  20  21
ATOM     21  C   UNL     1      -8.567 -12.216   6.273  1.00  0.00     0.000 C 
BRANCH  21  22
ATOM     22  C   UNL     1      -9.573 -11.697   5.227  1.00  0.00    -0.000 C 
BRANCH  22  23
ATOM     23  C   UNL     1      -9.427 -10.207   4.864  1.00  0.00    -0.000 C 
BRANCH  23  24
ATOM     24  C   UNL     1      -9.385  -9.965   3.345  1.00  0.00    -0.000 C 
BRANCH  24  25
ATOM     25  C   UNL     1      -9.316 -11.272   2.540  1.00  0.00    -0.000 C 
BRANCH  25  26
ATOM     26  C   UNL     1     -10.551 -11.492   1.654  1.00  0.00    -0.000 C 
BRANCH  26  27
ATOM     27  C   UNL     1     -11.633 -12.278   2.406  1.00  0.00    -0.000 C 
BRANCH  27  28
ATOM     28  C   UNL     1     -13.027 -11.692   2.136  1.00  0.00    -0.000 C 
BRANCH  28  29
ATOM     29  C   UNL     1     -13.209 -10.294   2.747  1.00  0.00    -0.003 C 
ATOM     30  C   UNL     1     -13.124 -10.300   4.274  1.00  0.00     0.004 C 
ENDBRANCH  28  29
ENDBRANCH  27  28
ENDBRANCH  26  27
ENDBRANCH  25  26
ENDBRANCH  24  25
ENDBRANCH  23  24
ENDBRANCH  22  23
ENDBRANCH  21  22
ENDBRANCH  20  21
ENDBRANCH  19  20
ENDBRANCH  18  19
ENDBRANCH  17  18
ENDBRANCH   1  17
TORSDOF 26
ENDMDL
MODEL 5
REMARK VINA RESULT:    -3.497      1.383      2.914
REMARK INTER + INTRA:         -13.726
REMARK INTER:                  -9.297
REMARK INTRA:                  -4.429
REMARK UNBOUND:                -4.915
REMARK SMILES CCCCCCCCCCCCCCCCCCCCCCCCCCCC(=O)[O-]
REMARK SMILES IDX 15 1 16 2 17 3 18 4 19 5 20 6 21 7 22 8 23 9 24 10 25 11
REMARK SMILES IDX 26 12 27 13 28 14 29 15 30 16 14 17 13 18 12 19 11 20 10 21
REMARK SMILES IDX 9 22 8 23 7 24 6 25 5 26 4 27 3 28 2 29 1 30
REMARK H PARENT
REMARK Flexibility Score: inf
ROOT
ATOM      1  C   UNL     1       1.013  -8.970   7.357  1.00  0.00     0.000 C 
ENDROOT
BRANCH   1   2
ATOM      2  C   UNL     1      -0.080  -8.796   6.292  1.00  0.00     0.000 C 
BRANCH   2   3
ATOM      3  C   UNL     1      -1.342  -8.115   6.848  1.00  0.00     0.000 C 
BRANCH   3   4
ATOM      4  C   UNL     1      -2.606  -8.979   6.685  1.00  0.00     0.000 C 
BRANCH   4   5
ATOM      5  C   UNL     1      -2.987  -9.808   7.929  1.00  0.00     0.000 C 
BRANCH   5   6
ATOM      6  C   UNL     1      -4.116 -10.836   7.712  1.00  0.00     0.000 C 
BRANCH   6   7
ATOM      7  C   UNL     1      -4.598 -11.556   8.985  1.00  0.00     0.000 C 
BRANCH   7   8
ATOM      8  C   UNL     1      -5.821 -12.454   8.734  1.00  0.00     0.000 C 
BRANCH   8   9
ATOM      9  C   UNL     1      -5.743 -13.211   7.394  1.00  0.00     0.000 C 
BRANCH   9  10
ATOM     10  C   UNL     1      -6.911 -12.951   6.423  1.00  0.00     0.000 C 
BRANCH  10  11
ATOM     11  C   UNL     1      -7.434 -11.501   6.399  1.00  0.00     0.000 C 
BRANCH  11  12
ATOM     12  C   UNL     1      -8.826 -11.322   5.760  1.00  0.00     0.006 C 
BRANCH  12  13
ATOM     13  C   UNL     1      -8.902 -10.201   4.711  1.00  0.00     0.053 C 
BRANCH  13  14
ATOM     14  C   UNL     1      -9.752 -10.589   3.540  1.00  0.00     0.041 C 
ATOM     15  O   UNL     1      -9.258 -10.629   2.383  1.00  0.00    -0.550 OA
ATOM     16  O   UNL     1     -11.081 -10.943   3.734  1.00  0.00    -0.550 OA
ENDBRANCH  13  14
ENDBRANCH  12  13
ENDBRANCH  11  12
ENDBRANCH  10  11
ENDBRANCH   9  10
ENDBRANCH   8   9
ENDBRANCH   7   8
ENDBRANCH   6   7
ENDBRANCH   5   6
ENDBRANCH   4   5
ENDBRANCH   3   4
ENDBRANCH   2   3
ENDBRANCH   1   2
BRANCH   1  17
ATOM     17  C   UNL     1       0.459  -8.878   8.790  1.00  0.00     0.000 C 
BRANCH  17  18
ATOM     18  C   UNL     1       0.571 -10.205   9.558  1.00  0.00     0.000 C 
BRANCH  18  19
ATOM     19  C   UNL     1       0.949 -11.385   8.646  1.00  0.00     0.000 C 
BRANCH  19  20
ATOM     20  C   UNL     1       0.310 -12.713   9.092  1.00  0.00     0.000 C 
BRANCH  20  21
ATOM     21  C   UNL     1      -1.207 -12.825   8.839  1.00  0.00     0.000 C 
BRANCH  21  22
ATOM     22  C   UNL     1      -1.647 -14.038   7.995  1.00  0.00    -0.000 C 
BRANCH  22  23
ATOM     23  C   UNL     1      -2.105 -13.705   6.563  1.00  0.00    -0.000 C 
BRANCH  23  24
ATOM     24  C   UNL     1      -1.431 -12.442   6.000  1.00  0.00    -0.000 C 
BRANCH  24  25
ATOM     25  C   UNL     1      -0.191 -12.763   5.150  1.00  0.00    -0.000 C 
BRANCH  25  26
ATOM     26  C   UNL     1      -0.233 -14.174   4.544  1.00  0.00    -0.000 C 
BRANCH  26  27
ATOM     27  C   UNL     1       1.095 -14.907   4.770  1.00  0.00    -0.000 C 
BRANCH  27  28
ATOM     28  C   UNL     1       1.738 -14.485   6.100  1.00  0.00    -0.000 C 
BRANCH  28  29
ATOM     29  C   UNL     1       3.238 -14.183   5.963  1.00  0.00    -0.003 C 
ATOM     30  C   UNL     1       3.624 -12.823   6.545  1.00  0.00     0.004 C 
ENDBRANCH  28  29
ENDBRANCH  27  28
ENDBRANCH  26  27
ENDBRANCH  25  26
ENDBRANCH  24  25
ENDBRANCH  23  24
ENDBRANCH  22  23
ENDBRANCH  21  22
ENDBRANCH  20  21
ENDBRANCH  19  20
ENDBRANCH  18  19
ENDBRANCH  17  18
ENDBRANCH   1  17
TORSDOF 26
ENDMDL
MODEL 6
REMARK VINA RESULT:    -3.483      1.539      4.528
REMARK INTER + INTRA:         -13.692
REMARK INTER:                  -9.317
REMARK INTRA:                  -4.375
REMARK UNBOUND:                -4.915
REMARK SMILES CCCCCCCCCCCCCCCCCCCCCCCCCCCC(=O)[O-]
REMARK SMILES IDX 15 1 16 2 17 3 18 4 19 5 20 6 21 7 22 8 23 9 24 10 25 11
REMARK SMILES IDX 26 12 27 13 28 14 29 15 30 16 14 17 13 18 12 19 11 20 10 21
REMARK SMILES IDX 9 22 8 23 7 24 6 25 5 26 4 27 3 28 2 29 1 30
REMARK H PARENT
REMARK Flexibility Score: inf
ROOT
ATOM      1  C   UNL     1      -2.837 -14.772   6.054  1.00  0.00     0.000 C 
ENDROOT
BRANCH   1   2
ATOM      2  C   UNL     1      -3.618 -14.050   4.945  1.00  0.00     0.000 C 
BRANCH   2   3
ATOM      3  C   UNL     1      -4.704 -13.115   5.501  1.00  0.00     0.000 C 
BRANCH   3   4
ATOM      4  C   UNL     1      -5.248 -13.579   6.864  1.00  0.00     0.000 C 
BRANCH   4   5
ATOM      5  C   UNL     1      -6.231 -12.598   7.537  1.00  0.00     0.000 C 
BRANCH   5   6
ATOM      6  C   UNL     1      -7.042 -11.715   6.568  1.00  0.00     0.000 C 
BRANCH   6   7
ATOM      7  C   UNL     1      -8.442 -11.310   7.068  1.00  0.00     0.000 C 
BRANCH   7   8
ATOM      8  C   UNL     1      -9.452 -11.122   5.923  1.00  0.00     0.000 C 
BRANCH   8   9
ATOM      9  C   UNL     1      -9.146  -9.889   5.053  1.00  0.00     0.000 C 
BRANCH   9  10
ATOM     10  C   UNL     1     -10.351  -8.970   4.769  1.00  0.00     0.000 C 
BRANCH  10  11
ATOM     11  C   UNL     1     -11.730  -9.577   5.093  1.00  0.00     0.000 C 
BRANCH  11  12
ATOM     12  C   UNL     1     -12.639  -9.818   3.870  1.00  0.00     0.006 C 
BRANCH  12  13
ATOM     13  C   UNL     1     -12.715 -11.285   3.417  1.00  0.00     0.053 C 
BRANCH  13  14
ATOM     14  C   UNL     1     -11.722 -11.587   2.337  1.00  0.00     0.041 C 
ATOM     15  O   UNL     1     -12.014 -11.377   1.130  1.00  0.00    -0.550 OA
ATOM     16  O   UNL     1     -10.461 -12.066   2.667  1.00  0.00    -0.550 OA
ENDBRANCH  13  14
ENDBRANCH  12  13
ENDBRANCH  11  12
ENDBRANCH  10  11
ENDBRANCH   9  10
ENDBRANCH   8   9
ENDBRANCH   7   8
ENDBRANCH   6   7
ENDBRANCH   5   6
ENDBRANCH   4   5
ENDBRANCH   3   4
ENDBRANCH   2   3
ENDBRANCH   1   2
BRANCH   1  17
ATOM     17  C   UNL     1      -1.328 -14.470   6.005  1.00  0.00     0.000 C 
BRANCH  17  18
ATOM     18  C   UNL     1      -0.978 -13.348   5.014  1.00  0.00     0.000 C 
BRANCH  18  19
ATOM     19  C   UNL     1       0.159 -12.444   5.521  1.00  0.00     0.000 C 
BRANCH  19  20
ATOM     20  C   UNL     1       0.840 -12.993   6.788  1.00  0.00     0.000 C 
BRANCH  20  21
ATOM     21  C   UNL     1       0.599 -12.169   8.069  1.00  0.00     0.000 C 
BRANCH  21  22
ATOM     22  C   UNL     1      -0.451 -12.748   9.038  1.00  0.00    -0.000 C 
BRANCH  22  23
ATOM     23  C   UNL     1      -1.447 -11.722   9.610  1.00  0.00    -0.000 C 
BRANCH  23  24
ATOM     24  C   UNL     1      -2.817 -11.767   8.911  1.00  0.00    -0.000 C 
BRANCH  24  25
ATOM     25  C   UNL     1      -3.162 -10.449   8.200  1.00  0.00    -0.000 C 
BRANCH  25  26
ATOM     26  C   UNL     1      -2.785 -10.460   6.710  1.00  0.00    -0.000 C 
BRANCH  26  27
ATOM     27  C   UNL     1      -1.617  -9.505   6.434  1.00  0.00    -0.000 C 
BRANCH  27  28
ATOM     28  C   UNL     1      -1.390  -8.556   7.621  1.00  0.00    -0.000 C 
BRANCH  28  29
ATOM     29  C   UNL     1       0.062  -8.574   8.122  1.00  0.00    -0.003 C 
ATOM     30  C   UNL     1       1.079  -8.698   6.986  1.00  0.00     0.004 C 
ENDBRANCH  28  29
ENDBRANCH  27  28
ENDBRANCH  26  27
ENDBRANCH  25  26
ENDBRANCH  24  25
ENDBRANCH  23  24
ENDBRANCH  22  23
ENDBRANCH  21  22
ENDBRANCH  20  21
ENDBRANCH  19  20
ENDBRANCH  18  19
ENDBRANCH  17  18
ENDBRANCH   1  17
TORSDOF 26
ENDMDL
MODEL 7
REMARK VINA RESULT:    -3.470      1.661      4.296
REMARK INTER + INTRA:         -13.659
REMARK INTER:                  -9.150
REMARK INTRA:                  -4.509
REMARK UNBOUND:                -4.915
REMARK SMILES CCCCCCCCCCCCCCCCCCCCCCCCCCCC(=O)[O-]
REMARK SMILES IDX 15 1 16 2 17 3 18 4 19 5 20 6 21 7 22 8 23 9 24 10 25 11
REMARK SMILES IDX 26 12 27 13 28 14 29 15 30 16 14 17 13 18 12 19 11 20 10 21
REMARK SMILES IDX 9 22 8 23 7 24 6 25 5 26 4 27 3 28 2 29 1 30
REMARK H PARENT
REMARK Flexibility Score: inf
ROOT
ATOM      1  C   UNL     1      -4.073 -12.957   5.789  1.00  0.00     0.000 C 
ENDROOT
BRANCH   1   2
ATOM      2  C   UNL     1      -5.497 -12.586   6.230  1.00  0.00     0.000 C 
BRANCH   2   3
ATOM      3  C   UNL     1      -6.279 -13.793   6.775  1.00  0.00     0.000 C 
BRANCH   3   4
ATOM      4  C   UNL     1      -6.813 -13.562   8.200  1.00  0.00     0.000 C 
BRANCH   4   5
ATOM      5  C   UNL     1      -6.421 -12.208   8.826  1.00  0.00     0.000 C 
BRANCH   5   6
ATOM      6  C   UNL     1      -7.603 -11.306   9.234  1.00  0.00     0.000 C 
BRANCH   6   7
ATOM      7  C   UNL     1      -8.971 -11.722   8.662  1.00  0.00     0.000 C 
BRANCH   7   8
ATOM      8  C   UNL     1      -9.422 -10.833   7.491  1.00  0.00     0.000 C 
BRANCH   8   9
ATOM      9  C   UNL     1      -9.457 -11.587   6.148  1.00  0.00     0.000 C 
BRANCH   9  10
ATOM     10  C   UNL     1      -8.669 -10.924   5.002  1.00  0.00     0.000 C 
BRANCH  10  11
ATOM     11  C   UNL     1      -9.532 -10.305   3.884  1.00  0.00     0.000 C 
BRANCH  11  12
ATOM     12  C   UNL     1      -9.293 -10.891   2.477  1.00  0.00     0.006 C 
BRANCH  12  13
ATOM     13  C   UNL     1     -10.555 -11.455   1.805  1.00  0.00     0.053 C 
BRANCH  13  14
ATOM     14  C   UNL     1     -11.441 -12.162   2.784  1.00  0.00     0.041 C 
ATOM     15  O   UNL     1     -12.561 -11.676   3.092  1.00  0.00    -0.550 OA
ATOM     16  O   UNL     1     -11.044 -13.377   3.328  1.00  0.00    -0.550 OA
ENDBRANCH  13  14
ENDBRANCH  12  13
ENDBRANCH  11  12
ENDBRANCH  10  11
ENDBRANCH   9  10
ENDBRANCH   8   9
ENDBRANCH   7   8
ENDBRANCH   6   7
ENDBRANCH   5   6
ENDBRANCH   4   5
ENDBRANCH   3   4
ENDBRANCH   2   3
ENDBRANCH   1   2
BRANCH   1  17
ATOM     17  C   UNL     1      -3.203 -13.448   6.961  1.00  0.00     0.000 C 
BRANCH  17  18
ATOM     18  C   UNL     1      -1.715 -13.109   6.780  1.00  0.00     0.000 C 
BRANCH  18  19
ATOM     19  C   UNL     1      -1.447 -12.277   5.513  1.00  0.00     0.000 C 
BRANCH  19  20
ATOM     20  C   UNL     1      -0.082 -11.567   5.542  1.00  0.00     0.000 C 
BRANCH  20  21
ATOM     21  C   UNL     1       0.470 -11.268   6.951  1.00  0.00     0.000 C 
BRANCH  21  22
ATOM     22  C   UNL     1       0.820  -9.792   7.222  1.00  0.00    -0.000 C 
BRANCH  22  23
ATOM     23  C   UNL     1       0.421  -9.271   8.616  1.00  0.00    -0.000 C 
BRANCH  23  24
ATOM     24  C   UNL     1       0.221 -10.402   9.639  1.00  0.00    -0.000 C 
BRANCH  24  25
ATOM     25  C   UNL     1      -1.260 -10.648   9.967  1.00  0.00    -0.000 C 
BRANCH  25  26
ATOM     26  C   UNL     1      -2.179  -9.534   9.442  1.00  0.00    -0.000 C 
BRANCH  26  27
ATOM     27  C   UNL     1      -3.232 -10.101   8.481  1.00  0.00    -0.000 C 
BRANCH  27  28
ATOM     28  C   UNL     1      -3.024  -9.563   7.057  1.00  0.00    -0.000 C 
BRANCH  28  29
ATOM     29  C   UNL     1      -2.576  -8.093   7.040  1.00  0.00    -0.003 C 
ATOM     30  C   UNL     1      -2.232  -7.595   5.636  1.00  0.00     0.004 C 
ENDBRANCH  28  29
ENDBRANCH  27  28
ENDBRANCH  26  27
ENDBRANCH  25  26
ENDBRANCH  24  25
ENDBRANCH  23  24
ENDBRANCH  22  23
ENDBRANCH  21  22
ENDBRANCH  20  21
ENDBRANCH  19  20
ENDBRANCH  18  19
ENDBRANCH  17  18
ENDBRANCH   1  17
TORSDOF 26
ENDMDL
MODEL 8
REMARK VINA RESULT:    -3.463      1.789      4.098
REMARK INTER + INTRA:         -13.641
REMARK INTER:                  -9.643
REMARK INTRA:                  -3.998
REMARK UNBOUND:                -4.915
REMARK SMILES CCCCCCCCCCCCCCCCCCCCCCCCCCCC(=O)[O-]
REMARK SMILES IDX 15 1 16 2 17 3 18 4 19 5 20 6 21 7 22 8 23 9 24 10 25 11
REMARK SMILES IDX 26 12 27 13 28 14 29 15 30 16 14 17 13 18 12 19 11 20 10 21
REMARK SMILES IDX 9 22 8 23 7 24 6 25 5 26 4 27 3 28 2 29 1 30
REMARK H PARENT
REMARK Flexibility Score: inf
ROOT
ATOM      1  C   UNL     1      -3.160 -13.188   5.024  1.00  0.00     0.000 C 
ENDROOT
BRANCH   1   2
ATOM      2  C   UNL     1      -3.793 -14.340   5.818  1.00  0.00     0.000 C 
BRANCH   2   3
ATOM      3  C   UNL     1      -4.996 -13.884   6.661  1.00  0.00     0.000 C 
BRANCH   3   4
ATOM      4  C   UNL     1      -5.898 -12.882   5.917  1.00  0.00     0.000 C 
BRANCH   4   5
ATOM      5  C   UNL     1      -6.579 -11.833   6.819  1.00  0.00     0.000 C 
BRANCH   5   6
ATOM      6  C   UNL     1      -7.030 -12.349   8.201  1.00  0.00     0.000 C 
BRANCH   6   7
ATOM      7  C   UNL     1      -7.969 -11.406   8.976  1.00  0.00     0.000 C 
BRANCH   7   8
ATOM      8  C   UNL     1      -9.438 -11.538   8.541  1.00  0.00     0.000 C 
BRANCH   8   9
ATOM      9  C   UNL     1      -9.912 -10.357   7.673  1.00  0.00     0.000 C 
BRANCH   9  10
ATOM     10  C   UNL     1     -10.357 -10.727   6.245  1.00  0.00     0.000 C 
BRANCH  10  11
ATOM     11  C   UNL     1     -10.607  -9.531   5.305  1.00  0.00     0.000 C 
BRANCH  11  12
ATOM     12  C   UNL     1     -11.153  -9.902   3.911  1.00  0.00     0.006 C 
BRANCH  12  13
ATOM     13  C   UNL     1     -10.842 -11.341   3.471  1.00  0.00     0.053 C 
BRANCH  13  14
ATOM     14  C   UNL     1     -10.952 -11.507   1.987  1.00  0.00     0.041 C 
ATOM     15  O   UNL     1     -12.045 -11.284   1.403  1.00  0.00    -0.550 OA
ATOM     16  O   UNL     1      -9.837 -11.873   1.244  1.00  0.00    -0.550 OA
ENDBRANCH  13  14
ENDBRANCH  12  13
ENDBRANCH  11  12
ENDBRANCH  10  11
ENDBRANCH   9  10
ENDBRANCH   8   9
ENDBRANCH   7   8
ENDBRANCH   6   7
ENDBRANCH   5   6
ENDBRANCH   4   5
ENDBRANCH   3   4
ENDBRANCH   2   3
ENDBRANCH   1   2
BRANCH   1  17
ATOM     17  C   UNL     1      -1.672 -13.434   4.713  1.00  0.00     0.000 C 
BRANCH  17  18
ATOM     18  C   UNL     1      -0.766 -12.293   5.203  1.00  0.00     0.000 C 
BRANCH  18  19
ATOM     19  C   UNL     1       0.534 -12.804   5.848  1.00  0.00     0.000 C 
BRANCH  19  20
ATOM     20  C   UNL     1       0.762 -12.239   7.261  1.00  0.00     0.000 C 
BRANCH  20  21
ATOM     21  C   UNL     1       1.328 -10.805   7.308  1.00  0.00     0.000 C 
BRANCH  21  22
ATOM     22  C   UNL     1       0.799  -9.925   8.459  1.00  0.00    -0.000 C 
BRANCH  22  23
ATOM     23  C   UNL     1       0.050  -8.654   8.017  1.00  0.00    -0.000 C 
BRANCH  23  24
ATOM     24  C   UNL     1      -0.353  -8.685   6.533  1.00  0.00    -0.000 C 
BRANCH  24  25
ATOM     25  C   UNL     1      -1.750  -8.093   6.288  1.00  0.00    -0.000 C 
BRANCH  25  26
ATOM     26  C   UNL     1      -2.802  -8.620   7.276  1.00  0.00    -0.000 C 
BRANCH  26  27
ATOM     27  C   UNL     1      -3.179 -10.071   6.954  1.00  0.00    -0.000 C 
BRANCH  27  28
ATOM     28  C   UNL     1      -3.524 -10.847   8.235  1.00  0.00    -0.000 C 
BRANCH  28  29
ATOM     29  C   UNL     1      -2.294 -11.512   8.873  1.00  0.00    -0.003 C 
ATOM     30  C   UNL     1      -2.498 -13.004   9.138  1.00  0.00     0.004 C 
ENDBRANCH  28  29
ENDBRANCH  27  28
ENDBRANCH  26  27
ENDBRANCH  25  26
ENDBRANCH  24  25
ENDBRANCH  23  24
ENDBRANCH  22  23
ENDBRANCH  21  22
ENDBRANCH  20  21
ENDBRANCH  19  20
ENDBRANCH  18  19
ENDBRANCH  17  18
ENDBRANCH   1  17
TORSDOF 26
ENDMDL
MODEL 9
REMARK VINA RESULT:    -3.462      1.860      4.385
REMARK INTER + INTRA:         -13.638
REMARK INTER:                  -9.860
REMARK INTRA:                  -3.778
REMARK UNBOUND:                -4.915
REMARK SMILES CCCCCCCCCCCCCCCCCCCCCCCCCCCC(=O)[O-]
REMARK SMILES IDX 15 1 16 2 17 3 18 4 19 5 20 6 21 7 22 8 23 9 24 10 25 11
REMARK SMILES IDX 26 12 27 13 28 14 29 15 30 16 14 17 13 18 12 19 11 20 10 21
REMARK SMILES IDX 9 22 8 23 7 24 6 25 5 26 4 27 3 28 2 29 1 30
REMARK H PARENT
REMARK Flexibility Score: inf
ROOT
ATOM      1  C   UNL     1      -4.166 -11.479   6.663  1.00  0.00     0.000 C 
ENDROOT
BRANCH   1   2
ATOM      2  C   UNL     1      -3.395 -11.579   7.988  1.00  0.00     0.000 C 
BRANCH   2   3
ATOM      3  C   UNL     1      -4.193 -11.017   9.177  1.00  0.00     0.000 C 
BRANCH   3   4
ATOM      4  C   UNL     1      -4.627 -12.109  10.171  1.00  0.00     0.000 C 
BRANCH   4   5
ATOM      5  C   UNL     1      -6.008 -12.733   9.884  1.00  0.00     0.000 C 
BRANCH   5   6
ATOM      6  C   UNL     1      -6.985 -11.832   9.103  1.00  0.00     0.000 C 
BRANCH   6   7
ATOM      7  C   UNL     1      -7.976 -12.579   8.191  1.00  0.00     0.000 C 
BRANCH   7   8
ATOM      8  C   UNL     1      -7.700 -12.347   6.696  1.00  0.00     0.000 C 
BRANCH   8   9
ATOM      9  C   UNL     1      -8.860 -11.629   5.978  1.00  0.00     0.000 C 
BRANCH   9  10
ATOM     10  C   UNL     1      -8.480 -10.315   5.268  1.00  0.00     0.000 C 
BRANCH  10  11
ATOM     11  C   UNL     1      -9.528  -9.782   4.271  1.00  0.00     0.000 C 
BRANCH  11  12
ATOM     12  C   UNL     1     -10.220 -10.863   3.415  1.00  0.00     0.006 C 
BRANCH  12  13
ATOM     13  C   UNL     1      -9.580 -11.082   2.034  1.00  0.00     0.053 C 
BRANCH  13  14
ATOM     14  C   UNL     1     -10.414 -11.977   1.170  1.00  0.00     0.041 C 
ATOM     15  O   UNL     1      -9.914 -13.016   0.664  1.00  0.00    -0.550 OA
ATOM     16  O   UNL     1     -11.754 -11.682   0.954  1.00  0.00    -0.550 OA
ENDBRANCH  13  14
ENDBRANCH  12  13
ENDBRANCH  11  12
ENDBRANCH  10  11
ENDBRANCH   9  10
ENDBRANCH   8   9
ENDBRANCH   7   8
ENDBRANCH   6   7
ENDBRANCH   5   6
ENDBRANCH   4   5
ENDBRANCH   3   4
ENDBRANCH   2   3
ENDBRANCH   1   2
BRANCH   1  17
ATOM     17  C   UNL     1      -4.029 -12.750   5.804  1.00  0.00     0.000 C 
BRANCH  17  18
ATOM     18  C   UNL     1      -3.552 -13.966   6.613  1.00  0.00     0.000 C 
BRANCH  18  19
ATOM     19  C   UNL     1      -2.494 -14.796   5.866  1.00  0.00     0.000 C 
BRANCH  19  20
ATOM     20  C   UNL     1      -2.122 -14.198   4.498  1.00  0.00     0.000 C 
BRANCH  20  21
ATOM     21  C   UNL     1      -0.659 -14.421   4.062  1.00  0.00     0.000 C 
BRANCH  21  22
ATOM     22  C   UNL     1       0.310 -14.826   5.191  1.00  0.00    -0.000 C 
BRANCH  22  23
ATOM     23  C   UNL     1       1.426 -13.808   5.489  1.00  0.00    -0.000 C 
BRANCH  23  24
ATOM     24  C   UNL     1       1.312 -13.193   6.894  1.00  0.00    -0.000 C 
BRANCH  24  25
ATOM     25  C   UNL     1      -0.008 -12.435   7.103  1.00  0.00    -0.000 C 
BRANCH  25  26
ATOM     26  C   UNL     1      -0.089 -11.141   6.278  1.00  0.00    -0.000 C 
BRANCH  26  27
ATOM     27  C   UNL     1       0.541  -9.967   7.038  1.00  0.00    -0.000 C 
BRANCH  27  28
ATOM     28  C   UNL     1      -0.124  -8.637   6.647  1.00  0.00    -0.000 C 
BRANCH  28  29
ATOM     29  C   UNL     1      -1.520  -8.470   7.267  1.00  0.00    -0.003 C 
ATOM     30  C   UNL     1      -2.549  -7.933   6.271  1.00  0.00     0.004 C 
ENDBRANCH  28  29
ENDBRANCH  27  28
ENDBRANCH  26  27
ENDBRANCH  25  26
ENDBRANCH  24  25
ENDBRANCH  23  24
ENDBRANCH  22  23
ENDBRANCH  21  22
ENDBRANCH  20  21
ENDBRANCH  19  20
ENDBRANCH  18  19
ENDBRANCH  17  18
ENDBRANCH   1  17
TORSDOF 26
ENDMDL
