MODEL 1
REMARK VINA RESULT:    -4.763      0.000      0.000
REMARK INTER + INTRA:          -5.611
REMARK INTER:                  -5.459
REMARK INTRA:                  -0.151
REMARK UNBOUND:                -0.151
REMARK SMILES O=C([O-])C=Cc1ccc(O)cc1
REMARK SMILES IDX 6 1 7 2 12 3 8 4 11 5 9 6 5 7 4 8 2 9 1 10 3 11 10 12
REMARK H PARENT 10 13
REMARK Flexibility Score: inf
ROOT
ATOM      1  C   UNL     1      20.057  -0.796 -19.950  1.00  0.00    -0.025 A 
ATOM      2  C   UNL     1      20.735   0.415 -19.735  1.00  0.00     0.012 A 
ATOM      3  C   UNL     1      20.155  -1.415 -21.214  1.00  0.00     0.012 A 
ATOM      4  C   UNL     1      21.473   1.010 -20.763  1.00  0.00     0.047 A 
ATOM      5  C   UNL     1      20.894  -0.817 -22.239  1.00  0.00     0.047 A 
ATOM      6  C   UNL     1      21.554   0.399 -22.016  1.00  0.00     0.115 A 
ENDROOT
BRANCH   1   7
ATOM      7  C   UNL     1      19.296  -1.395 -18.825  1.00  0.00     0.010 C 
ATOM      8  C   UNL     1      18.890  -0.705 -17.749  1.00  0.00     0.025 C 
BRANCH   8   9
ATOM      9  C   UNL     1      18.147  -1.337 -16.646  1.00  0.00     0.064 C 
ATOM     10  O   UNL     1      18.230  -2.575 -16.427  1.00  0.00    -0.545 OA
ATOM     11  O   UNL     1      17.338  -0.554 -15.833  1.00  0.00    -0.545 OA
ENDBRANCH   8   9
ENDBRANCH   1   7
BRANCH   6  12
ATOM     12  O   UNL     1      22.291   1.004 -23.031  1.00  0.00    -0.508 OA
ATOM     13  H   UNL     1      23.272   0.792 -23.173  1.00  0.00     0.293 HD
ENDBRANCH   6  12
TORSDOF 3
ENDMDL
MODEL 2
REMARK VINA RESULT:    -4.627     16.674     17.684
REMARK INTER + INTRA:          -5.455
REMARK INTER:                  -5.310
REMARK INTRA:                  -0.145
REMARK UNBOUND:                -0.151
REMARK SMILES O=C([O-])C=Cc1ccc(O)cc1
REMARK SMILES IDX 6 1 7 2 12 3 8 4 11 5 9 6 5 7 4 8 2 9 1 10 3 11 10 12
REMARK H PARENT 10 13
REMARK Flexibility Score: inf
ROOT
ATOM      1  C   UNL     1       8.388  -7.223  -8.342  1.00  0.00    -0.025 A 
ATOM      2  C   UNL     1       9.791  -7.150  -8.356  1.00  0.00     0.012 A 
ATOM      3  C   UNL     1       7.676  -6.461  -7.392  1.00  0.00     0.012 A 
ATOM      4  C   UNL     1      10.471  -6.355  -7.429  1.00  0.00     0.047 A 
ATOM      5  C   UNL     1       8.361  -5.667  -6.467  1.00  0.00     0.047 A 
ATOM      6  C   UNL     1       9.761  -5.614  -6.481  1.00  0.00     0.115 A 
ENDROOT
BRANCH   1   7
ATOM      7  C   UNL     1       7.710  -8.073  -9.354  1.00  0.00     0.010 C 
ATOM      8  C   UNL     1       8.011  -8.060 -10.660  1.00  0.00     0.025 C 
BRANCH   8   9
ATOM      9  C   UNL     1       7.307  -8.909 -11.636  1.00  0.00     0.064 C 
ATOM     10  O   UNL     1       7.748  -9.058 -12.807  1.00  0.00    -0.545 OA
ATOM     11  O   UNL     1       6.137  -9.555 -11.261  1.00  0.00    -0.545 OA
ENDBRANCH   8   9
ENDBRANCH   1   7
BRANCH   6  12
ATOM     12  O   UNL     1      10.451  -4.827  -5.563  1.00  0.00    -0.508 OA
ATOM     13  H   UNL     1      11.433  -4.981  -5.366  1.00  0.00     0.293 HD
ENDBRANCH   6  12
TORSDOF 3
ENDMDL
MODEL 3
REMARK VINA RESULT:    -4.573     14.500     15.756
REMARK INTER + INTRA:          -5.392
REMARK INTER:                  -5.258
REMARK INTRA:                  -0.134
REMARK UNBOUND:                -0.151
REMARK SMILES O=C([O-])C=Cc1ccc(O)cc1
REMARK SMILES IDX 6 1 7 2 12 3 8 4 11 5 9 6 5 7 4 8 2 9 1 10 3 11 10 12
REMARK H PARENT 10 13
REMARK Flexibility Score: inf
ROOT
ATOM      1  C   UNL     1       8.705  -5.392 -10.719  1.00  0.00    -0.025 A 
ATOM      2  C   UNL     1       7.990  -5.364  -9.510  1.00  0.00     0.012 A 
ATOM      3  C   UNL     1      10.072  -5.738 -10.693  1.00  0.00     0.012 A 
ATOM      4  C   UNL     1       8.628  -5.650  -8.299  1.00  0.00     0.047 A 
ATOM      5  C   UNL     1      10.705  -6.024  -9.480  1.00  0.00     0.047 A 
ATOM      6  C   UNL     1       9.985  -5.978  -8.279  1.00  0.00     0.115 A 
ENDROOT
BRANCH   1   7
ATOM      7  C   UNL     1       7.981  -5.091 -11.980  1.00  0.00     0.010 C 
ATOM      8  C   UNL     1       7.878  -3.863 -12.505  1.00  0.00     0.025 C 
BRANCH   8   9
ATOM      9  C   UNL     1       7.141  -3.601 -13.753  1.00  0.00     0.064 C 
ATOM     10  O   UNL     1       6.421  -2.575 -13.884  1.00  0.00    -0.545 OA
ATOM     11  O   UNL     1       7.239  -4.502 -14.806  1.00  0.00    -0.545 OA
ENDBRANCH   8   9
ENDBRANCH   1   7
BRANCH   6  12
ATOM     12  O   UNL     1      10.608  -6.259  -7.066  1.00  0.00    -0.508 OA
ATOM     13  H   UNL     1      11.360  -5.682  -6.709  1.00  0.00     0.293 HD
ENDBRANCH   6  12
TORSDOF 3
ENDMDL
MODEL 4
REMARK VINA RESULT:    -4.543     14.174     17.321
REMARK INTER + INTRA:          -5.359
REMARK INTER:                  -5.212
REMARK INTRA:                  -0.147
REMARK UNBOUND:                -0.151
REMARK SMILES O=C([O-])C=Cc1ccc(O)cc1
REMARK SMILES IDX 6 1 7 2 12 3 8 4 11 5 9 6 5 7 4 8 2 9 1 10 3 11 10 12
REMARK H PARENT 10 13
REMARK Flexibility Score: inf
ROOT
ATOM      1  C   UNL     1      13.276   3.853  -4.845  1.00  0.00    -0.025 A 
ATOM      2  C   UNL     1      12.517   2.856  -5.481  1.00  0.00     0.012 A 
ATOM      3  C   UNL     1      12.943   4.224  -3.525  1.00  0.00     0.012 A 
ATOM      4  C   UNL     1      11.434   2.261  -4.826  1.00  0.00     0.047 A 
ATOM      5  C   UNL     1      11.860   3.626  -2.875  1.00  0.00     0.047 A 
ATOM      6  C   UNL     1      11.101   2.644  -3.525  1.00  0.00     0.115 A 
ENDROOT
BRANCH   1   7
ATOM      7  C   UNL     1      14.423   4.448  -5.577  1.00  0.00     0.010 C 
ATOM      8  C   UNL     1      14.387   4.782  -6.874  1.00  0.00     0.025 C 
BRANCH   8   9
ATOM      9  C   UNL     1      15.550   5.359  -7.569  1.00  0.00     0.064 C 
ATOM     10  O   UNL     1      16.657   5.499  -6.984  1.00  0.00    -0.545 OA
ATOM     11  O   UNL     1      15.424   5.758  -8.894  1.00  0.00    -0.545 OA
ENDBRANCH   8   9
ENDBRANCH   1   7
BRANCH   6  12
ATOM     12  O   UNL     1      10.019   2.044  -2.886  1.00  0.00    -0.508 OA
ATOM     13  H   UNL     1       9.890   1.039  -2.892  1.00  0.00     0.293 HD
ENDBRANCH   6  12
TORSDOF 3
ENDMDL
MODEL 5
REMARK VINA RESULT:    -4.525     18.500     19.958
REMARK INTER + INTRA:          -5.338
REMARK INTER:                  -5.196
REMARK INTRA:                  -0.142
REMARK UNBOUND:                -0.151
REMARK SMILES O=C([O-])C=Cc1ccc(O)cc1
REMARK SMILES IDX 6 1 7 2 12 3 8 4 11 5 9 6 5 7 4 8 2 9 1 10 3 11 10 12
REMARK H PARENT 10 13
REMARK Flexibility Score: inf
ROOT
ATOM      1  C   UNL     1       5.025   5.442  -8.716  1.00  0.00    -0.025 A 
ATOM      2  C   UNL     1       6.295   4.860  -8.869  1.00  0.00     0.012 A 
ATOM      3  C   UNL     1       4.180   4.970  -7.690  1.00  0.00     0.012 A 
ATOM      4  C   UNL     1       6.704   3.814  -8.035  1.00  0.00     0.047 A 
ATOM      5  C   UNL     1       4.593   3.925  -6.859  1.00  0.00     0.047 A 
ATOM      6  C   UNL     1       5.856   3.342  -7.031  1.00  0.00     0.115 A 
ENDROOT
BRANCH   1   7
ATOM      7  C   UNL     1       4.641   6.557  -9.618  1.00  0.00     0.010 C 
ATOM      8  C   UNL     1       5.337   7.695  -9.734  1.00  0.00     0.025 C 
BRANCH   8   9
ATOM      9  C   UNL     1       4.918   8.785 -10.632  1.00  0.00     0.064 C 
ATOM     10  O   UNL     1       5.212   9.985 -10.383  1.00  0.00    -0.545 OA
ATOM     11  O   UNL     1       4.183   8.486 -11.771  1.00  0.00    -0.545 OA
ENDBRANCH   8   9
ENDBRANCH   1   7
BRANCH   6  12
ATOM     12  O   UNL     1       6.275   2.299  -6.209  1.00  0.00    -0.508 OA
ATOM     13  H   UNL     1       5.769   1.423  -6.163  1.00  0.00     0.293 HD
ENDBRANCH   6  12
TORSDOF 3
ENDMDL
MODEL 6
REMARK VINA RESULT:    -4.451     14.943     18.412
REMARK INTER + INTRA:          -5.253
REMARK INTER:                  -5.116
REMARK INTRA:                  -0.137
REMARK UNBOUND:                -0.151
REMARK SMILES O=C([O-])C=Cc1ccc(O)cc1
REMARK SMILES IDX 6 1 7 2 12 3 8 4 11 5 9 6 5 7 4 8 2 9 1 10 3 11 10 12
REMARK H PARENT 10 13
REMARK Flexibility Score: inf
ROOT
ATOM      1  C   UNL     1       8.454  -6.638  -7.548  1.00  0.00    -0.025 A 
ATOM      2  C   UNL     1       8.468  -5.789  -6.429  1.00  0.00     0.012 A 
ATOM      3  C   UNL     1       8.016  -7.969  -7.386  1.00  0.00     0.012 A 
ATOM      4  C   UNL     1       8.077  -6.261  -5.173  1.00  0.00     0.047 A 
ATOM      5  C   UNL     1       7.626  -8.437  -6.128  1.00  0.00     0.047 A 
ATOM      6  C   UNL     1       7.659  -7.584  -5.016  1.00  0.00     0.115 A 
ENDROOT
BRANCH   1   7
ATOM      7  C   UNL     1       8.867  -6.088  -8.864  1.00  0.00     0.010 C 
ATOM      8  C   UNL     1       8.045  -5.415  -9.681  1.00  0.00     0.025 C 
BRANCH   8   9
ATOM      9  C   UNL     1       8.488  -4.894 -10.986  1.00  0.00     0.064 C 
ATOM     10  O   UNL     1       7.656  -4.525 -11.857  1.00  0.00    -0.545 OA
ATOM     11  O   UNL     1       9.847  -4.810 -11.261  1.00  0.00    -0.545 OA
ENDBRANCH   8   9
ENDBRANCH   1   7
BRANCH   6  12
ATOM     12  O   UNL     1       7.274  -8.041  -3.759  1.00  0.00    -0.508 OA
ATOM     13  H   UNL     1       6.445  -8.609  -3.631  1.00  0.00     0.293 HD
ENDBRANCH   6  12
TORSDOF 3
ENDMDL
MODEL 7
REMARK VINA RESULT:    -4.396     15.054     16.339
REMARK INTER + INTRA:          -5.189
REMARK INTER:                  -5.050
REMARK INTRA:                  -0.139
REMARK UNBOUND:                -0.151
REMARK SMILES O=C([O-])C=Cc1ccc(O)cc1
REMARK SMILES IDX 6 1 7 2 12 3 8 4 11 5 9 6 5 7 4 8 2 9 1 10 3 11 10 12
REMARK H PARENT 10 13
REMARK Flexibility Score: inf
ROOT
ATOM      1  C   UNL     1       8.391  -5.974 -10.123  1.00  0.00    -0.025 A 
ATOM      2  C   UNL     1       8.047  -4.696 -10.593  1.00  0.00     0.012 A 
ATOM      3  C   UNL     1       8.404  -7.053 -11.033  1.00  0.00     0.012 A 
ATOM      4  C   UNL     1       7.697  -4.500 -11.932  1.00  0.00     0.047 A 
ATOM      5  C   UNL     1       8.054  -6.852 -12.372  1.00  0.00     0.047 A 
ATOM      6  C   UNL     1       7.697  -5.575 -12.824  1.00  0.00     0.115 A 
ENDROOT
BRANCH   1   7
ATOM      7  C   UNL     1       8.766  -6.130  -8.695  1.00  0.00     0.010 C 
ATOM      8  C   UNL     1       7.960  -5.808  -7.674  1.00  0.00     0.025 C 
BRANCH   8   9
ATOM      9  C   UNL     1       8.371  -5.965  -6.269  1.00  0.00     0.064 C 
ATOM     10  O   UNL     1       9.256  -5.226  -5.761  1.00  0.00    -0.545 OA
ATOM     11  O   UNL     1       7.774  -6.947  -5.489  1.00  0.00    -0.545 OA
ENDBRANCH   8   9
ENDBRANCH   1   7
BRANCH   6  12
ATOM     12  O   UNL     1       7.345  -5.366 -14.155  1.00  0.00    -0.508 OA
ATOM     13  H   UNL     1       6.438  -5.638 -14.513  1.00  0.00     0.293 HD
ENDBRANCH   6  12
TORSDOF 3
ENDMDL
MODEL 8
REMARK VINA RESULT:    -4.338     12.685     15.118
REMARK INTER + INTRA:          -5.124
REMARK INTER:                  -4.988
REMARK INTRA:                  -0.136
REMARK UNBOUND:                -0.151
REMARK SMILES O=C([O-])C=Cc1ccc(O)cc1
REMARK SMILES IDX 6 1 7 2 12 3 8 4 11 5 9 6 5 7 4 8 2 9 1 10 3 11 10 12
REMARK H PARENT 10 13
REMARK Flexibility Score: inf
ROOT
ATOM      1  C   UNL     1      11.421  -7.092  -9.171  1.00  0.00    -0.025 A 
ATOM      2  C   UNL     1      12.227  -6.062  -9.686  1.00  0.00     0.012 A 
ATOM      3  C   UNL     1      11.354  -8.316  -9.869  1.00  0.00     0.012 A 
ATOM      4  C   UNL     1      12.930  -6.238 -10.881  1.00  0.00     0.047 A 
ATOM      5  C   UNL     1      12.059  -8.488 -11.064  1.00  0.00     0.047 A 
ATOM      6  C   UNL     1      12.847  -7.448 -11.575  1.00  0.00     0.115 A 
ENDROOT
BRANCH   1   7
ATOM      7  C   UNL     1      10.703  -6.861  -7.892  1.00  0.00     0.010 C 
ATOM      8  C   UNL     1       9.675  -6.012  -7.758  1.00  0.00     0.025 C 
BRANCH   8   9
ATOM      9  C   UNL     1       8.994  -5.800  -6.469  1.00  0.00     0.064 C 
ATOM     10  O   UNL     1       7.820  -6.216  -6.275  1.00  0.00    -0.545 OA
ATOM     11  O   UNL     1       9.657  -5.129  -5.450  1.00  0.00    -0.545 OA
ENDBRANCH   8   9
ENDBRANCH   1   7
BRANCH   6  12
ATOM     12  O   UNL     1      13.551  -7.609 -12.765  1.00  0.00    -0.508 OA
ATOM     13  H   UNL     1      13.108  -7.474 -13.666  1.00  0.00     0.293 HD
ENDBRANCH   6  12
TORSDOF 3
ENDMDL
MODEL 9
REMARK VINA RESULT:    -4.314     14.149     14.845
REMARK INTER + INTRA:          -5.096
REMARK INTER:                  -4.962
REMARK INTRA:                  -0.134
REMARK UNBOUND:                -0.151
REMARK SMILES O=C([O-])C=Cc1ccc(O)cc1
REMARK SMILES IDX 6 1 7 2 12 3 8 4 11 5 9 6 5 7 4 8 2 9 1 10 3 11 10 12
REMARK H PARENT 10 13
REMARK Flexibility Score: inf
ROOT
ATOM      1  C   UNL     1       5.731   0.920 -17.332  1.00  0.00    -0.025 A 
ATOM      2  C   UNL     1       6.542   2.041 -17.579  1.00  0.00     0.012 A 
ATOM      3  C   UNL     1       5.036   0.333 -18.410  1.00  0.00     0.012 A 
ATOM      4  C   UNL     1       6.638   2.580 -18.865  1.00  0.00     0.047 A 
ATOM      5  C   UNL     1       5.135   0.876 -19.694  1.00  0.00     0.047 A 
ATOM      6  C   UNL     1       5.935   2.003 -19.925  1.00  0.00     0.115 A 
ENDROOT
BRANCH   1   7
ATOM      7  C   UNL     1       5.670   0.377 -15.952  1.00  0.00     0.010 C 
ATOM      8  C   UNL     1       4.565   0.392 -15.193  1.00  0.00     0.025 C 
BRANCH   8   9
ATOM      9  C   UNL     1       4.546  -0.146 -13.822  1.00  0.00     0.064 C 
ATOM     10  O   UNL     1       4.681  -1.379 -13.604  1.00  0.00    -0.545 OA
ATOM     11  O   UNL     1       4.374   0.721 -12.751  1.00  0.00    -0.545 OA
ENDBRANCH   8   9
ENDBRANCH   1   7
BRANCH   6  12
ATOM     12  O   UNL     1       6.039   2.552 -21.201  1.00  0.00    -0.508 OA
ATOM     13  H   UNL     1       5.462   2.226 -21.967  1.00  0.00     0.293 HD
ENDBRANCH   6  12
TORSDOF 3
ENDMDL
