MODEL 1
REMARK VINA RESULT:    -4.471      0.000      0.000
REMARK INTER + INTRA:          -8.092
REMARK INTER:                  -7.085
REMARK INTRA:                  -1.008
REMARK UNBOUND:                -1.008
REMARK SMILES CCCCCCCCCCCC(=O)[O-]
REMARK SMILES IDX 7 1 8 2 9 3 10 4 11 5 12 6 13 7 14 8 6 9 5 10 4 11 3 12 2 13
REMARK SMILES IDX 1 14
REMARK H PARENT
REMARK Flexibility Score: inf
ROOT
ATOM      1  C   UNL     1     -15.701  -2.167  35.802  1.00  0.00     0.000 C 
ENDROOT
BRANCH   1   2
ATOM      2  C   UNL     1     -17.162  -1.754  36.072  1.00  0.00     0.000 C 
BRANCH   2   3
ATOM      3  C   UNL     1     -17.612  -0.449  35.385  1.00  0.00     0.000 C 
BRANCH   3   4
ATOM      4  C   UNL     1     -18.454   0.491  36.266  1.00  0.00     0.006 C 
BRANCH   4   5
ATOM      5  C   UNL     1     -17.728   1.799  36.603  1.00  0.00     0.053 C 
BRANCH   5   6
ATOM      6  C   UNL     1     -17.977   2.181  38.028  1.00  0.00     0.041 C 
ATOM      7  O   UNL     1     -19.134   2.086  38.516  1.00  0.00    -0.550 OA
ATOM      8  O   UNL     1     -16.922   2.597  38.830  1.00  0.00    -0.550 OA
ENDBRANCH   5   6
ENDBRANCH   4   5
ENDBRANCH   3   4
ENDBRANCH   2   3
ENDBRANCH   1   2
BRANCH   1   9
ATOM      9  C   UNL     1     -15.467  -2.891  34.464  1.00  0.00     0.000 C 
BRANCH   9  10
ATOM     10  C   UNL     1     -16.468  -4.030  34.220  1.00  0.00    -0.000 C 
BRANCH  10  11
ATOM     11  C   UNL     1     -17.119  -3.903  32.838  1.00  0.00    -0.000 C 
BRANCH  11  12
ATOM     12  C   UNL     1     -16.567  -2.688  32.079  1.00  0.00    -0.000 C 
BRANCH  12  13
ATOM     13  C   UNL     1     -17.678  -1.786  31.520  1.00  0.00    -0.003 C 
ATOM     14  C   UNL     1     -19.008  -1.964  32.252  1.00  0.00     0.004 C 
ENDBRANCH  12  13
ENDBRANCH  11  12
ENDBRANCH  10  11
ENDBRANCH   9  10
ENDBRANCH   1   9
TORSDOF 10
ENDMDL
MODEL 2
REMARK VINA RESULT:    -4.394      1.789      2.973
REMARK INTER + INTRA:          -7.971
REMARK INTER:                  -7.470
REMARK INTRA:                  -0.501
REMARK UNBOUND:                -1.008
REMARK SMILES CCCCCCCCCCCC(=O)[O-]
REMARK SMILES IDX 7 1 8 2 9 3 10 4 11 5 12 6 13 7 14 8 6 9 5 10 4 11 3 12 2 13
REMARK SMILES IDX 1 14
REMARK H PARENT
REMARK Flexibility Score: inf
ROOT
ATOM      1  C   UNL     1     -17.717  -1.877  33.748  1.00  0.00     0.000 C 
ENDROOT
BRANCH   1   2
ATOM      2  C   UNL     1     -17.858  -0.936  34.961  1.00  0.00     0.000 C 
BRANCH   2   3
ATOM      3  C   UNL     1     -17.150  -1.412  36.245  1.00  0.00     0.000 C 
BRANCH   3   4
ATOM      4  C   UNL     1     -17.588  -0.689  37.533  1.00  0.00     0.006 C 
BRANCH   4   5
ATOM      5  C   UNL     1     -18.755   0.279  37.303  1.00  0.00     0.053 C 
BRANCH   5   6
ATOM      6  C   UNL     1     -18.279   1.695  37.378  1.00  0.00     0.041 C 
ATOM      7  O   UNL     1     -17.832   2.268  36.349  1.00  0.00    -0.550 OA
ATOM      8  O   UNL     1     -18.372   2.398  38.572  1.00  0.00    -0.550 OA
ENDBRANCH   5   6
ENDBRANCH   4   5
ENDBRANCH   3   4
ENDBRANCH   2   3
ENDBRANCH   1   2
BRANCH   1   9
ATOM      9  C   UNL     1     -16.823  -1.345  32.613  1.00  0.00     0.000 C 
BRANCH   9  10
ATOM     10  C   UNL     1     -16.828  -2.253  31.375  1.00  0.00    -0.000 C 
BRANCH  10  11
ATOM     11  C   UNL     1     -15.931  -3.479  31.589  1.00  0.00    -0.000 C 
BRANCH  11  12
ATOM     12  C   UNL     1     -14.467  -3.063  31.784  1.00  0.00    -0.000 C 
BRANCH  12  13
ATOM     13  C   UNL     1     -13.839  -3.682  33.043  1.00  0.00    -0.003 C 
ATOM     14  C   UNL     1     -12.784  -4.738  32.718  1.00  0.00     0.004 C 
ENDBRANCH  12  13
ENDBRANCH  11  12
ENDBRANCH  10  11
ENDBRANCH   9  10
ENDBRANCH   1   9
TORSDOF 10
ENDMDL
MODEL 3
REMARK VINA RESULT:    -4.360      1.243      1.564
REMARK INTER + INTRA:          -7.916
REMARK INTER:                  -7.333
REMARK INTRA:                  -0.583
REMARK UNBOUND:                -1.008
REMARK SMILES CCCCCCCCCCCC(=O)[O-]
REMARK SMILES IDX 7 1 8 2 9 3 10 4 11 5 12 6 13 7 14 8 6 9 5 10 4 11 3 12 2 13
REMARK SMILES IDX 1 14
REMARK H PARENT
REMARK Flexibility Score: inf
ROOT
ATOM      1  C   UNL     1     -15.011  -2.525  35.405  1.00  0.00     0.000 C 
ENDROOT
BRANCH   1   2
ATOM      2  C   UNL     1     -16.171  -2.488  36.420  1.00  0.00     0.000 C 
BRANCH   2   3
ATOM      3  C   UNL     1     -17.142  -1.301  36.264  1.00  0.00     0.000 C 
BRANCH   3   4
ATOM      4  C   UNL     1     -17.672  -0.718  37.586  1.00  0.00     0.006 C 
BRANCH   4   5
ATOM      5  C   UNL     1     -18.768   0.334  37.374  1.00  0.00     0.053 C 
BRANCH   5   6
ATOM      6  C   UNL     1     -18.168   1.701  37.287  1.00  0.00     0.041 C 
ATOM      7  O   UNL     1     -17.944   2.224  36.163  1.00  0.00    -0.550 OA
ATOM      8  O   UNL     1     -17.898   2.418  38.446  1.00  0.00    -0.550 OA
ENDBRANCH   5   6
ENDBRANCH   4   5
ENDBRANCH   3   4
ENDBRANCH   2   3
ENDBRANCH   1   2
BRANCH   1   9
ATOM      9  C   UNL     1     -15.318  -3.273  34.095  1.00  0.00     0.000 C 
BRANCH   9  10
ATOM     10  C   UNL     1     -14.607  -2.661  32.879  1.00  0.00    -0.000 C 
BRANCH  10  11
ATOM     11  C   UNL     1     -15.289  -3.085  31.572  1.00  0.00    -0.000 C 
BRANCH  11  12
ATOM     12  C   UNL     1     -16.804  -3.243  31.768  1.00  0.00    -0.000 C 
BRANCH  12  13
ATOM     13  C   UNL     1     -17.568  -1.929  31.545  1.00  0.00    -0.003 C 
ATOM     14  C   UNL     1     -18.988  -1.969  32.109  1.00  0.00     0.004 C 
ENDBRANCH  12  13
ENDBRANCH  11  12
ENDBRANCH  10  11
ENDBRANCH   9  10
ENDBRANCH   1   9
TORSDOF 10
ENDMDL
MODEL 4
REMARK VINA RESULT:    -4.265      4.266      5.669
REMARK INTER + INTRA:          -7.767
REMARK INTER:                  -6.707
REMARK INTRA:                  -1.060
REMARK UNBOUND:                -1.008
REMARK SMILES CCCCCCCCCCCC(=O)[O-]
REMARK SMILES IDX 7 1 8 2 9 3 10 4 11 5 12 6 13 7 14 8 6 9 5 10 4 11 3 12 2 13
REMARK SMILES IDX 1 14
REMARK H PARENT
REMARK Flexibility Score: inf
ROOT
ATOM      1  C   UNL     1     -12.742  -4.253  32.287  1.00  0.00     0.000 C 
ENDROOT
BRANCH   1   2
ATOM      2  C   UNL     1     -13.557  -2.975  32.007  1.00  0.00     0.000 C 
BRANCH   2   3
ATOM      3  C   UNL     1     -15.030  -3.208  31.618  1.00  0.00     0.000 C 
BRANCH   3   4
ATOM      4  C   UNL     1     -16.028  -2.204  32.223  1.00  0.00     0.006 C 
BRANCH   4   5
ATOM      5  C   UNL     1     -17.324  -2.091  31.410  1.00  0.00     0.053 C 
BRANCH   5   6
ATOM      6  C   UNL     1     -18.505  -1.998  32.323  1.00  0.00     0.041 C 
ATOM      7  O   UNL     1     -19.672  -2.001  31.851  1.00  0.00    -0.550 OA
ATOM      8  O   UNL     1     -18.319  -1.954  33.699  1.00  0.00    -0.550 OA
ENDBRANCH   5   6
ENDBRANCH   4   5
ENDBRANCH   3   4
ENDBRANCH   2   3
ENDBRANCH   1   2
BRANCH   1   9
ATOM      9  C   UNL     1     -13.197  -5.058  33.517  1.00  0.00     0.000 C 
BRANCH   9  10
ATOM     10  C   UNL     1     -13.071  -6.576  33.317  1.00  0.00    -0.000 C 
BRANCH  10  11
ATOM     11  C   UNL     1     -13.405  -6.968  31.872  1.00  0.00    -0.000 C 
BRANCH  11  12
ATOM     12  C   UNL     1     -14.808  -7.584  31.779  1.00  0.00    -0.000 C 
BRANCH  12  13
ATOM     13  C   UNL     1     -15.764  -6.748  30.916  1.00  0.00    -0.003 C 
ATOM     14  C   UNL     1     -16.997  -6.276  31.687  1.00  0.00     0.004 C 
ENDBRANCH  12  13
ENDBRANCH  11  12
ENDBRANCH  10  11
ENDBRANCH   9  10
ENDBRANCH   1   9
TORSDOF 10
ENDMDL
MODEL 5
REMARK VINA RESULT:    -4.205      1.992      3.823
REMARK INTER + INTRA:          -7.671
REMARK INTER:                  -6.286
REMARK INTRA:                  -1.385
REMARK UNBOUND:                -1.008
REMARK SMILES CCCCCCCCCCCC(=O)[O-]
REMARK SMILES IDX 7 1 8 2 9 3 10 4 11 5 12 6 13 7 14 8 6 9 5 10 4 11 3 12 2 13
REMARK SMILES IDX 1 14
REMARK H PARENT
REMARK Flexibility Score: inf
ROOT
ATOM      1  C   UNL     1     -17.949  -3.306  31.889  1.00  0.00     0.000 C 
ENDROOT
BRANCH   1   2
ATOM      2  C   UNL     1     -17.088  -2.046  31.670  1.00  0.00     0.000 C 
BRANCH   2   3
ATOM      3  C   UNL     1     -16.868  -1.176  32.923  1.00  0.00     0.000 C 
BRANCH   3   4
ATOM      4  C   UNL     1     -17.814  -1.481  34.100  1.00  0.00     0.006 C 
BRANCH   4   5
ATOM      5  C   UNL     1     -17.076  -1.607  35.438  1.00  0.00     0.053 C 
BRANCH   5   6
ATOM      6  C   UNL     1     -17.569  -0.575  36.404  1.00  0.00     0.041 C 
ATOM      7  O   UNL     1     -17.612   0.637  36.067  1.00  0.00    -0.550 OA
ATOM      8  O   UNL     1     -18.026  -0.960  37.658  1.00  0.00    -0.550 OA
ENDBRANCH   5   6
ENDBRANCH   4   5
ENDBRANCH   3   4
ENDBRANCH   2   3
ENDBRANCH   1   2
BRANCH   1   9
ATOM      9  C   UNL     1     -17.154  -4.600  32.142  1.00  0.00     0.000 C 
BRANCH   9  10
ATOM     10  C   UNL     1     -15.668  -4.468  31.776  1.00  0.00    -0.000 C 
BRANCH  10  11
ATOM     11  C   UNL     1     -14.782  -5.162  32.818  1.00  0.00    -0.000 C 
BRANCH  11  12
ATOM     12  C   UNL     1     -14.710  -4.342  34.114  1.00  0.00    -0.000 C 
BRANCH  12  13
ATOM     13  C   UNL     1     -13.881  -3.058  33.955  1.00  0.00    -0.003 C 
ATOM     14  C   UNL     1     -13.427  -2.480  35.295  1.00  0.00     0.004 C 
ENDBRANCH  12  13
ENDBRANCH  11  12
ENDBRANCH  10  11
ENDBRANCH   9  10
ENDBRANCH   1   9
TORSDOF 10
ENDMDL
MODEL 6
REMARK VINA RESULT:    -4.179     10.968     13.621
REMARK INTER + INTRA:          -7.629
REMARK INTER:                  -6.703
REMARK INTRA:                  -0.926
REMARK UNBOUND:                -1.008
REMARK SMILES CCCCCCCCCCCC(=O)[O-]
REMARK SMILES IDX 7 1 8 2 9 3 10 4 11 5 12 6 13 7 14 8 6 9 5 10 4 11 3 12 2 13
REMARK SMILES IDX 1 14
REMARK H PARENT
REMARK Flexibility Score: inf
ROOT
ATOM      1  C   UNL     1     -26.325  -2.109  23.324  1.00  0.00     0.000 C 
ENDROOT
BRANCH   1   2
ATOM      2  C   UNL     1     -25.000  -1.378  23.032  1.00  0.00     0.000 C 
BRANCH   2   3
ATOM      3  C   UNL     1     -24.838  -0.012  23.727  1.00  0.00     0.000 C 
BRANCH   3   4
ATOM      4  C   UNL     1     -23.411   0.302  24.215  1.00  0.00     0.006 C 
BRANCH   4   5
ATOM      5  C   UNL     1     -23.005   1.759  23.963  1.00  0.00     0.053 C 
BRANCH   5   6
ATOM      6  C   UNL     1     -22.623   1.952  22.529  1.00  0.00     0.041 C 
ATOM      7  O   UNL     1     -21.498   1.566  22.116  1.00  0.00    -0.550 OA
ATOM      8  O   UNL     1     -23.528   2.515  21.639  1.00  0.00    -0.550 OA
ENDBRANCH   5   6
ENDBRANCH   4   5
ENDBRANCH   3   4
ENDBRANCH   2   3
ENDBRANCH   1   2
BRANCH   1   9
ATOM      9  C   UNL     1     -26.204  -3.325  24.261  1.00  0.00     0.000 C 
BRANCH   9  10
ATOM     10  C   UNL     1     -24.747  -3.667  24.608  1.00  0.00    -0.000 C 
BRANCH  10  11
ATOM     11  C   UNL     1     -24.521  -3.630  26.124  1.00  0.00    -0.000 C 
BRANCH  11  12
ATOM     12  C   UNL     1     -24.838  -2.241  26.695  1.00  0.00    -0.000 C 
BRANCH  12  13
ATOM     13  C   UNL     1     -24.643  -2.169  28.217  1.00  0.00    -0.003 C 
ATOM     14  C   UNL     1     -23.879  -3.371  28.772  1.00  0.00     0.004 C 
ENDBRANCH  12  13
ENDBRANCH  11  12
ENDBRANCH  10  11
ENDBRANCH   9  10
ENDBRANCH   1   9
TORSDOF 10
ENDMDL
MODEL 7
REMARK VINA RESULT:    -4.159      2.377      3.846
REMARK INTER + INTRA:          -7.597
REMARK INTER:                  -6.926
REMARK INTRA:                  -0.672
REMARK UNBOUND:                -1.008
REMARK SMILES CCCCCCCCCCCC(=O)[O-]
REMARK SMILES IDX 7 1 8 2 9 3 10 4 11 5 12 6 13 7 14 8 6 9 5 10 4 11 3 12 2 13
REMARK SMILES IDX 1 14
REMARK H PARENT
REMARK Flexibility Score: inf
ROOT
ATOM      1  C   UNL     1     -16.892  -2.385  31.367  1.00  0.00     0.000 C 
ENDROOT
BRANCH   1   2
ATOM      2  C   UNL     1     -17.021  -1.327  32.481  1.00  0.00     0.000 C 
BRANCH   2   3
ATOM      3  C   UNL     1     -17.934  -1.723  33.659  1.00  0.00     0.000 C 
BRANCH   3   4
ATOM      4  C   UNL     1     -17.323  -1.505  35.055  1.00  0.00     0.006 C 
BRANCH   4   5
ATOM      5  C   UNL     1     -17.739  -0.169  35.684  1.00  0.00     0.053 C 
BRANCH   5   6
ATOM      6  C   UNL     1     -17.791  -0.289  37.174  1.00  0.00     0.041 C 
ATOM      7  O   UNL     1     -17.914  -1.420  37.715  1.00  0.00    -0.550 OA
ATOM      8  O   UNL     1     -17.656   0.843  37.968  1.00  0.00    -0.550 OA
ENDBRANCH   5   6
ENDBRANCH   4   5
ENDBRANCH   3   4
ENDBRANCH   2   3
ENDBRANCH   1   2
BRANCH   1   9
ATOM      9  C   UNL     1     -15.712  -3.361  31.532  1.00  0.00     0.000 C 
BRANCH   9  10
ATOM     10  C   UNL     1     -14.557  -2.766  32.350  1.00  0.00    -0.000 C 
BRANCH  10  11
ATOM     11  C   UNL     1     -14.422  -3.473  33.705  1.00  0.00    -0.000 C 
BRANCH  11  12
ATOM     12  C   UNL     1     -13.131  -4.301  33.767  1.00  0.00    -0.000 C 
BRANCH  12  13
ATOM     13  C   UNL     1     -12.670  -4.783  32.383  1.00  0.00    -0.003 C 
ATOM     14  C   UNL     1     -13.094  -6.221  32.087  1.00  0.00     0.004 C 
ENDBRANCH  12  13
ENDBRANCH  11  12
ENDBRANCH  10  11
ENDBRANCH   9  10
ENDBRANCH   1   9
TORSDOF 10
ENDMDL
MODEL 8
REMARK VINA RESULT:    -4.156      4.359      6.077
REMARK INTER + INTRA:          -7.594
REMARK INTER:                  -6.347
REMARK INTRA:                  -1.246
REMARK UNBOUND:                -1.008
REMARK SMILES CCCCCCCCCCCC(=O)[O-]
REMARK SMILES IDX 7 1 8 2 9 3 10 4 11 5 12 6 13 7 14 8 6 9 5 10 4 11 3 12 2 13
REMARK SMILES IDX 1 14
REMARK H PARENT
REMARK Flexibility Score: inf
ROOT
ATOM      1  C   UNL     1     -16.763  -6.451  31.828  1.00  0.00     0.000 C 
ENDROOT
BRANCH   1   2
ATOM      2  C   UNL     1     -16.895  -5.008  32.353  1.00  0.00     0.000 C 
BRANCH   2   3
ATOM      3  C   UNL     1     -16.132  -3.942  31.541  1.00  0.00     0.000 C 
BRANCH   3   4
ATOM      4  C   UNL     1     -16.358  -2.490  32.000  1.00  0.00     0.006 C 
BRANCH   4   5
ATOM      5  C   UNL     1     -17.494  -1.797  31.238  1.00  0.00     0.053 C 
BRANCH   5   6
ATOM      6  C   UNL     1     -18.756  -1.829  32.041  1.00  0.00     0.041 C 
ATOM      7  O   UNL     1     -18.706  -1.841  33.299  1.00  0.00    -0.550 OA
ATOM      8  O   UNL     1     -19.989  -1.800  31.401  1.00  0.00    -0.550 OA
ENDBRANCH   5   6
ENDBRANCH   4   5
ENDBRANCH   3   4
ENDBRANCH   2   3
ENDBRANCH   1   2
BRANCH   1   9
ATOM      9  C   UNL     1     -15.401  -6.790  31.195  1.00  0.00     0.000 C 
BRANCH   9  10
ATOM     10  C   UNL     1     -14.632  -7.865  31.977  1.00  0.00    -0.000 C 
BRANCH  10  11
ATOM     11  C   UNL     1     -13.385  -7.272  32.644  1.00  0.00    -0.000 C 
BRANCH  11  12
ATOM     12  C   UNL     1     -13.034  -5.905  32.039  1.00  0.00    -0.000 C 
BRANCH  12  13
ATOM     13  C   UNL     1     -12.606  -4.882  33.102  1.00  0.00    -0.003 C 
ATOM     14  C   UNL     1     -13.628  -4.738  34.229  1.00  0.00     0.004 C 
ENDBRANCH  12  13
ENDBRANCH  11  12
ENDBRANCH  10  11
ENDBRANCH   9  10
ENDBRANCH   1   9
TORSDOF 10
ENDMDL
MODEL 9
REMARK VINA RESULT:    -4.089     11.922     14.068
REMARK INTER + INTRA:          -7.487
REMARK INTER:                  -6.126
REMARK INTRA:                  -1.361
REMARK UNBOUND:                -1.008
REMARK SMILES CCCCCCCCCCCC(=O)[O-]
REMARK SMILES IDX 7 1 8 2 9 3 10 4 11 5 12 6 13 7 14 8 6 9 5 10 4 11 3 12 2 13
REMARK SMILES IDX 1 14
REMARK H PARENT
REMARK Flexibility Score: inf
ROOT
ATOM      1  C   UNL     1     -27.633  -1.201  23.537  1.00  0.00     0.000 C 
ENDROOT
BRANCH   1   2
ATOM      2  C   UNL     1     -26.421  -1.160  22.585  1.00  0.00     0.000 C 
BRANCH   2   3
ATOM      3  C   UNL     1     -25.047  -1.326  23.265  1.00  0.00     0.000 C 
BRANCH   3   4
ATOM      4  C   UNL     1     -24.536  -0.078  24.008  1.00  0.00     0.006 C 
BRANCH   4   5
ATOM      5  C   UNL     1     -23.022  -0.108  24.248  1.00  0.00     0.053 C 
BRANCH   5   6
ATOM      6  C   UNL     1     -22.336   0.898  23.378  1.00  0.00     0.041 C 
ATOM      7  O   UNL     1     -21.226   0.626  22.849  1.00  0.00    -0.550 OA
ATOM      8  O   UNL     1     -22.946   2.117  23.112  1.00  0.00    -0.550 OA
ENDBRANCH   5   6
ENDBRANCH   4   5
ENDBRANCH   3   4
ENDBRANCH   2   3
ENDBRANCH   1   2
BRANCH   1   9
ATOM      9  C   UNL     1     -27.733  -2.466  24.408  1.00  0.00     0.000 C 
BRANCH   9  10
ATOM     10  C   UNL     1     -28.153  -2.163  25.854  1.00  0.00    -0.000 C 
BRANCH  10  11
ATOM     11  C   UNL     1     -27.185  -1.172  26.511  1.00  0.00    -0.000 C 
BRANCH  11  12
ATOM     12  C   UNL     1     -26.355  -1.857  27.606  1.00  0.00    -0.000 C 
BRANCH  12  13
ATOM     13  C   UNL     1     -24.866  -1.957  27.242  1.00  0.00    -0.003 C 
ATOM     14  C   UNL     1     -24.546  -3.188  26.395  1.00  0.00     0.004 C 
ENDBRANCH  12  13
ENDBRANCH  11  12
ENDBRANCH  10  11
ENDBRANCH   9  10
ENDBRANCH   1   9
TORSDOF 10
ENDMDL
