MODEL 1
REMARK VINA RESULT:    -4.812      0.000      0.000
REMARK INTER + INTRA:          -5.654
REMARK INTER:                  -5.515
REMARK INTRA:                  -0.139
REMARK UNBOUND:                -0.139
REMARK SMILES O=C([O-])C=Cc1ccc(O)cc1
REMARK SMILES IDX 6 1 7 2 12 3 8 4 11 5 9 6 5 7 4 8 2 9 1 10 3 11 10 12
REMARK H PARENT 10 13
REMARK Flexibility Score: inf
ROOT
ATOM      1  C   UNL     1      25.301  28.949  16.878  1.00  0.00    -0.025 A 
ATOM      2  C   UNL     1      24.698  27.707  17.164  1.00  0.00     0.012 A 
ATOM      3  C   UNL     1      24.498  29.996  16.393  1.00  0.00     0.012 A 
ATOM      4  C   UNL     1      23.322  27.531  16.991  1.00  0.00     0.047 A 
ATOM      5  C   UNL     1      23.122  29.816  16.223  1.00  0.00     0.047 A 
ATOM      6  C   UNL     1      22.530  28.583  16.523  1.00  0.00     0.115 A 
ENDROOT
BRANCH   1   7
ATOM      7  C   UNL     1      26.758  29.186  17.033  1.00  0.00     0.010 C 
ATOM      8  C   UNL     1      27.277  30.149  17.806  1.00  0.00     0.025 C 
BRANCH   8   9
ATOM      9  C   UNL     1      28.730  30.355  17.920  1.00  0.00     0.064 C 
ATOM     10  O   UNL     1      29.332  29.976  18.959  1.00  0.00    -0.545 OA
ATOM     11  O   UNL     1      29.452  30.961  16.897  1.00  0.00    -0.545 OA
ENDBRANCH   8   9
ENDBRANCH   1   7
BRANCH   6  12
ATOM     12  O   UNL     1      21.160  28.394  16.357  1.00  0.00    -0.508 OA
ATOM     13  H   UNL     1      20.705  28.572  15.471  1.00  0.00     0.293 HD
ENDBRANCH   6  12
TORSDOF 3
ENDMDL
MODEL 2
REMARK VINA RESULT:    -4.774      1.330      5.632
REMARK INTER + INTRA:          -5.611
REMARK INTER:                  -5.460
REMARK INTRA:                  -0.151
REMARK UNBOUND:                -0.139
REMARK SMILES O=C([O-])C=Cc1ccc(O)cc1
REMARK SMILES IDX 6 1 7 2 12 3 8 4 11 5 9 6 5 7 4 8 2 9 1 10 3 11 10 12
REMARK H PARENT 10 13
REMARK Flexibility Score: inf
ROOT
ATOM      1  C   UNL     1      26.157  29.446  17.019  1.00  0.00    -0.025 A 
ATOM      2  C   UNL     1      27.514  29.069  17.075  1.00  0.00     0.012 A 
ATOM      3  C   UNL     1      25.803  30.758  17.374  1.00  0.00     0.012 A 
ATOM      4  C   UNL     1      28.491  29.995  17.455  1.00  0.00     0.047 A 
ATOM      5  C   UNL     1      26.782  31.682  17.752  1.00  0.00     0.047 A 
ATOM      6  C   UNL     1      28.130  31.303  17.791  1.00  0.00     0.115 A 
ENDROOT
BRANCH   1   7
ATOM      7  C   UNL     1      25.080  28.500  16.634  1.00  0.00     0.010 C 
ATOM      8  C   UNL     1      23.806  28.621  17.031  1.00  0.00     0.025 C 
BRANCH   8   9
ATOM      9  C   UNL     1      22.772  27.651  16.635  1.00  0.00     0.064 C 
ATOM     10  O   UNL     1      23.061  26.428  16.564  1.00  0.00    -0.545 OA
ATOM     11  O   UNL     1      21.477  28.064  16.338  1.00  0.00    -0.545 OA
ENDBRANCH   8   9
ENDBRANCH   1   7
BRANCH   6  12
ATOM     12  O   UNL     1      29.113  32.214  18.166  1.00  0.00    -0.508 OA
ATOM     13  H   UNL     1      29.087  32.683  19.064  1.00  0.00     0.293 HD
ENDBRANCH   6  12
TORSDOF 3
ENDMDL
MODEL 3
REMARK VINA RESULT:    -4.672      3.238      4.676
REMARK INTER + INTRA:          -5.494
REMARK INTER:                  -5.356
REMARK INTRA:                  -0.138
REMARK UNBOUND:                -0.139
REMARK SMILES O=C([O-])C=Cc1ccc(O)cc1
REMARK SMILES IDX 6 1 7 2 12 3 8 4 11 5 9 6 5 7 4 8 2 9 1 10 3 11 10 12
REMARK H PARENT 10 13
REMARK Flexibility Score: inf
ROOT
ATOM      1  C   UNL     1      28.834  31.342  18.014  1.00  0.00    -0.025 A 
ATOM      2  C   UNL     1      28.039  32.303  17.358  1.00  0.00     0.012 A 
ATOM      3  C   UNL     1      28.321  30.047  18.195  1.00  0.00     0.012 A 
ATOM      4  C   UNL     1      26.771  31.963  16.875  1.00  0.00     0.047 A 
ATOM      5  C   UNL     1      27.054  29.709  17.710  1.00  0.00     0.047 A 
ATOM      6  C   UNL     1      26.277  30.667  17.046  1.00  0.00     0.115 A 
ENDROOT
BRANCH   1   7
ATOM      7  C   UNL     1      30.181  31.654  18.557  1.00  0.00     0.010 C 
ATOM      8  C   UNL     1      30.409  31.992  19.833  1.00  0.00     0.025 C 
BRANCH   8   9
ATOM      9  C   UNL     1      31.761  32.304  20.325  1.00  0.00     0.064 C 
ATOM     10  O   UNL     1      32.592  32.850  19.553  1.00  0.00    -0.545 OA
ATOM     11  O   UNL     1      32.136  32.008  21.631  1.00  0.00    -0.545 OA
ENDBRANCH   8   9
ENDBRANCH   1   7
BRANCH   6  12
ATOM     12  O   UNL     1      25.014  30.342  16.558  1.00  0.00    -0.508 OA
ATOM     13  H   UNL     1      24.328  31.056  16.344  1.00  0.00     0.293 HD
ENDBRANCH   6  12
TORSDOF 3
ENDMDL
MODEL 4
REMARK VINA RESULT:    -4.650      3.330      7.627
REMARK INTER + INTRA:          -5.468
REMARK INTER:                  -5.320
REMARK INTRA:                  -0.148
REMARK UNBOUND:                -0.139
REMARK SMILES O=C([O-])C=Cc1ccc(O)cc1
REMARK SMILES IDX 6 1 7 2 12 3 8 4 11 5 9 6 5 7 4 8 2 9 1 10 3 11 10 12
REMARK H PARENT 10 13
REMARK Flexibility Score: inf
ROOT
ATOM      1  C   UNL     1      30.277  31.523  18.156  1.00  0.00    -0.025 A 
ATOM      2  C   UNL     1      31.479  31.762  17.461  1.00  0.00     0.012 A 
ATOM      3  C   UNL     1      30.217  31.821  19.528  1.00  0.00     0.012 A 
ATOM      4  C   UNL     1      32.583  32.308  18.122  1.00  0.00     0.047 A 
ATOM      5  C   UNL     1      31.322  32.368  20.186  1.00  0.00     0.047 A 
ATOM      6  C   UNL     1      32.508  32.616  19.483  1.00  0.00     0.115 A 
ENDROOT
BRANCH   1   7
ATOM      7  C   UNL     1      29.080  30.933  17.506  1.00  0.00     0.010 C 
ATOM      8  C   UNL     1      28.179  30.178  18.149  1.00  0.00     0.025 C 
BRANCH   8   9
ATOM      9  C   UNL     1      27.012  29.603  17.460  1.00  0.00     0.064 C 
ATOM     10  O   UNL     1      27.181  28.699  16.601  1.00  0.00    -0.545 OA
ATOM     11  O   UNL     1      25.723  30.042  17.744  1.00  0.00    -0.545 OA
ENDBRANCH   8   9
ENDBRANCH   1   7
BRANCH   6  12
ATOM     12  O   UNL     1      33.615  33.162  20.128  1.00  0.00    -0.508 OA
ATOM     13  H   UNL     1      34.298  32.577  20.594  1.00  0.00     0.293 HD
ENDBRANCH   6  12
TORSDOF 3
ENDMDL
MODEL 5
REMARK VINA RESULT:    -4.592     11.584     13.980
REMARK INTER + INTRA:          -5.402
REMARK INTER:                  -5.267
REMARK INTRA:                  -0.135
REMARK UNBOUND:                -0.139
REMARK SMILES O=C([O-])C=Cc1ccc(O)cc1
REMARK SMILES IDX 6 1 7 2 12 3 8 4 11 5 9 6 5 7 4 8 2 9 1 10 3 11 10 12
REMARK H PARENT 10 13
REMARK Flexibility Score: inf
ROOT
ATOM      1  C   UNL     1      19.265  20.730  24.181  1.00  0.00    -0.025 A 
ATOM      2  C   UNL     1      20.339  19.817  24.164  1.00  0.00     0.012 A 
ATOM      3  C   UNL     1      18.919  21.391  22.990  1.00  0.00     0.012 A 
ATOM      4  C   UNL     1      21.029  19.558  22.976  1.00  0.00     0.047 A 
ATOM      5  C   UNL     1      19.610  21.128  21.803  1.00  0.00     0.047 A 
ATOM      6  C   UNL     1      20.666  20.208  21.793  1.00  0.00     0.115 A 
ENDROOT
BRANCH   1   7
ATOM      7  C   UNL     1      18.507  21.051  25.416  1.00  0.00     0.010 C 
ATOM      8  C   UNL     1      17.888  20.132  26.170  1.00  0.00     0.025 C 
BRANCH   8   9
ATOM      9  C   UNL     1      17.137  20.498  27.382  1.00  0.00     0.064 C 
ATOM     10  O   UNL     1      17.397  19.922  28.470  1.00  0.00    -0.545 OA
ATOM     11  O   UNL     1      16.145  21.472  27.344  1.00  0.00    -0.545 OA
ENDBRANCH   8   9
ENDBRANCH   1   7
BRANCH   6  12
ATOM     12  O   UNL     1      21.361  19.938  20.617  1.00  0.00    -0.508 OA
ATOM     13  H   UNL     1      21.876  19.075  20.492  1.00  0.00     0.293 HD
ENDBRANCH   6  12
TORSDOF 3
ENDMDL
MODEL 6
REMARK VINA RESULT:    -4.569     11.050     13.056
REMARK INTER + INTRA:          -5.375
REMARK INTER:                  -5.240
REMARK INTRA:                  -0.135
REMARK UNBOUND:                -0.139
REMARK SMILES O=C([O-])C=Cc1ccc(O)cc1
REMARK SMILES IDX 6 1 7 2 12 3 8 4 11 5 9 6 5 7 4 8 2 9 1 10 3 11 10 12
REMARK H PARENT 10 13
REMARK Flexibility Score: inf
ROOT
ATOM      1  C   UNL     1      18.141  21.755  22.645  1.00  0.00    -0.025 A 
ATOM      2  C   UNL     1      17.121  22.045  21.716  1.00  0.00     0.012 A 
ATOM      3  C   UNL     1      19.383  21.303  22.168  1.00  0.00     0.012 A 
ATOM      4  C   UNL     1      17.352  21.906  20.344  1.00  0.00     0.047 A 
ATOM      5  C   UNL     1      19.611  21.167  20.795  1.00  0.00     0.047 A 
ATOM      6  C   UNL     1      18.596  21.471  19.879  1.00  0.00     0.115 A 
ENDROOT
BRANCH   1   7
ATOM      7  C   UNL     1      17.945  21.873  24.111  1.00  0.00     0.010 C 
ATOM      8  C   UNL     1      17.539  20.862  24.892  1.00  0.00     0.025 C 
BRANCH   8   9
ATOM      9  C   UNL     1      17.346  21.028  26.342  1.00  0.00     0.064 C 
ATOM     10  O   UNL     1      16.274  21.525  26.772  1.00  0.00    -0.545 OA
ATOM     11  O   UNL     1      18.330  20.641  27.245  1.00  0.00    -0.545 OA
ENDBRANCH   8   9
ENDBRANCH   1   7
BRANCH   6  12
ATOM     12  O   UNL     1      18.813  21.340  18.510  1.00  0.00    -0.508 OA
ATOM     13  H   UNL     1      18.059  21.110  17.874  1.00  0.00     0.293 HD
ENDBRANCH   6  12
TORSDOF 3
ENDMDL
MODEL 7
REMARK VINA RESULT:    -4.557     11.136     13.713
REMARK INTER + INTRA:          -5.362
REMARK INTER:                  -5.223
REMARK INTRA:                  -0.139
REMARK UNBOUND:                -0.139
REMARK SMILES O=C([O-])C=Cc1ccc(O)cc1
REMARK SMILES IDX 6 1 7 2 12 3 8 4 11 5 9 6 5 7 4 8 2 9 1 10 3 11 10 12
REMARK H PARENT 10 13
REMARK Flexibility Score: inf
ROOT
ATOM      1  C   UNL     1      19.873  19.941  23.400  1.00  0.00    -0.025 A 
ATOM      2  C   UNL     1      19.868  20.311  22.040  1.00  0.00     0.012 A 
ATOM      3  C   UNL     1      21.087  19.550  23.991  1.00  0.00     0.012 A 
ATOM      4  C   UNL     1      21.056  20.312  21.302  1.00  0.00     0.047 A 
ATOM      5  C   UNL     1      22.273  19.553  23.251  1.00  0.00     0.047 A 
ATOM      6  C   UNL     1      22.261  19.937  21.904  1.00  0.00     0.115 A 
ENDROOT
BRANCH   1   7
ATOM      7  C   UNL     1      18.640  19.911  24.226  1.00  0.00     0.010 C 
ATOM      8  C   UNL     1      18.444  20.688  25.299  1.00  0.00     0.025 C 
BRANCH   8   9
ATOM      9  C   UNL     1      17.208  20.616  26.096  1.00  0.00     0.064 C 
ATOM     10  O   UNL     1      16.825  19.506  26.549  1.00  0.00    -0.545 OA
ATOM     11  O   UNL     1      16.457  21.756  26.360  1.00  0.00    -0.545 OA
ENDBRANCH   8   9
ENDBRANCH   1   7
BRANCH   6  12
ATOM     12  O   UNL     1      23.436  19.945  21.157  1.00  0.00    -0.508 OA
ATOM     13  H   UNL     1      23.836  19.089  20.791  1.00  0.00     0.293 HD
ENDBRANCH   6  12
TORSDOF 3
ENDMDL
MODEL 8
REMARK VINA RESULT:    -4.556      5.930      8.171
REMARK INTER + INTRA:          -5.361
REMARK INTER:                  -5.220
REMARK INTRA:                  -0.141
REMARK UNBOUND:                -0.139
REMARK SMILES O=C([O-])C=Cc1ccc(O)cc1
REMARK SMILES IDX 6 1 7 2 12 3 8 4 11 5 9 6 5 7 4 8 2 9 1 10 3 11 10 12
REMARK H PARENT 10 13
REMARK Flexibility Score: inf
ROOT
ATOM      1  C   UNL     1      31.880  32.055  19.685  1.00  0.00    -0.025 A 
ATOM      2  C   UNL     1      30.492  31.822  19.602  1.00  0.00     0.012 A 
ATOM      3  C   UNL     1      32.638  32.059  18.502  1.00  0.00     0.012 A 
ATOM      4  C   UNL     1      29.881  31.622  18.360  1.00  0.00     0.047 A 
ATOM      5  C   UNL     1      32.023  31.860  17.262  1.00  0.00     0.047 A 
ATOM      6  C   UNL     1      30.641  31.643  17.188  1.00  0.00     0.115 A 
ENDROOT
BRANCH   1   7
ATOM      7  C   UNL     1      32.580  32.261  20.977  1.00  0.00     0.010 C 
ATOM      8  C   UNL     1      33.149  33.419  21.340  1.00  0.00     0.025 C 
BRANCH   8   9
ATOM      9  C   UNL     1      33.845  33.574  22.628  1.00  0.00     0.064 C 
ATOM     10  O   UNL     1      33.850  32.621  23.449  1.00  0.00    -0.545 OA
ATOM     11  O   UNL     1      34.499  34.758  22.952  1.00  0.00    -0.545 OA
ENDBRANCH   8   9
ENDBRANCH   1   7
BRANCH   6  12
ATOM     12  O   UNL     1      30.019  31.445  15.959  1.00  0.00    -0.508 OA
ATOM     13  H   UNL     1      30.197  32.054  15.170  1.00  0.00     0.293 HD
ENDBRANCH   6  12
TORSDOF 3
ENDMDL
MODEL 9
REMARK VINA RESULT:    -4.473      5.616     10.002
REMARK INTER + INTRA:          -5.266
REMARK INTER:                  -5.118
REMARK INTRA:                  -0.148
REMARK UNBOUND:                -0.139
REMARK SMILES O=C([O-])C=Cc1ccc(O)cc1
REMARK SMILES IDX 6 1 7 2 12 3 8 4 11 5 9 6 5 7 4 8 2 9 1 10 3 11 10 12
REMARK H PARENT 10 13
REMARK Flexibility Score: inf
ROOT
ATOM      1  C   UNL     1      32.011  33.263  20.900  1.00  0.00    -0.025 A 
ATOM      2  C   UNL     1      32.348  34.620  21.086  1.00  0.00     0.012 A 
ATOM      3  C   UNL     1      32.825  32.278  21.483  1.00  0.00     0.012 A 
ATOM      4  C   UNL     1      33.459  34.974  21.857  1.00  0.00     0.047 A 
ATOM      5  C   UNL     1      33.934  32.636  22.255  1.00  0.00     0.047 A 
ATOM      6  C   UNL     1      34.253  33.986  22.446  1.00  0.00     0.115 A 
ENDROOT
BRANCH   1   7
ATOM      7  C   UNL     1      30.851  32.832  20.081  1.00  0.00     0.010 C 
ATOM      8  C   UNL     1      30.811  31.683  19.392  1.00  0.00     0.025 C 
BRANCH   8   9
ATOM      9  C   UNL     1      29.643  31.302  18.583  1.00  0.00     0.064 C 
ATOM     10  O   UNL     1      29.744  31.253  17.330  1.00  0.00    -0.545 OA
ATOM     11  O   UNL     1      28.426  30.991  19.182  1.00  0.00    -0.545 OA
ENDBRANCH   8   9
ENDBRANCH   1   7
BRANCH   6  12
ATOM     12  O   UNL     1      35.355  34.354  23.213  1.00  0.00    -0.508 OA
ATOM     13  H   UNL     1      35.837  33.686  23.803  1.00  0.00     0.293 HD
ENDBRANCH   6  12
TORSDOF 3
ENDMDL
