MODEL 1
REMARK VINA RESULT:    -8.466      0.000      0.000
REMARK INTER + INTRA:         -10.228
REMARK INTER:                  -9.951
REMARK INTRA:                  -0.277
REMARK UNBOUND:                -0.277
REMARK SMILES O=c1cc(-c2ccc(O)c(O)c2)oc2cc(O)cc(O)c12
REMARK SMILES IDX 4 1 3 2 2 3 1 4 21 5 19 6 18 7 16 8 15 9 14 10 13 11 5 12
REMARK SMILES IDX 6 13 7 14 8 15 12 16 10 17 9 18 11 20 20 22 17 24
REMARK H PARENT 9 19 11 21 20 23 17 25
REMARK Flexibility Score: inf
ROOT
ATOM      1  C   UNL     1      -0.101 -26.544  -0.364  1.00  0.00     0.138 A 
ATOM      2  C   UNL     1       0.475 -26.336  -1.628  1.00  0.00     0.100 A 
ATOM      3  C   UNL     1       1.741 -26.857  -1.900  1.00  0.00     0.197 A 
ATOM      4  O   UNL     1       2.250 -26.665  -3.037  1.00  0.00    -0.289 OA
ATOM      5  C   UNL     1       2.424 -27.581  -0.902  1.00  0.00     0.107 A 
ATOM      6  C   UNL     1       3.707 -28.144  -1.095  1.00  0.00     0.134 A 
ATOM      7  C   UNL     1       4.322 -28.848  -0.050  1.00  0.00     0.093 A 
ATOM      8  C   UNL     1       3.679 -28.997   1.185  1.00  0.00     0.123 A 
ATOM      9  C   UNL     1       2.411 -28.444   1.379  1.00  0.00     0.094 A 
ATOM     10  C   UNL     1       1.781 -27.741   0.348  1.00  0.00     0.146 A 
ATOM     11  O   UNL     1       0.574 -27.224   0.560  1.00  0.00    -0.456 OA
ENDROOT
BRANCH   1  12
ATOM     12  C   UNL     1      -1.444 -26.012  -0.018  1.00  0.00     0.021 A 
ATOM     13  C   UNL     1      -1.660 -24.625  -0.025  1.00  0.00     0.016 A 
ATOM     14  C   UNL     1      -2.911 -24.100   0.302  1.00  0.00     0.051 A 
ATOM     15  C   UNL     1      -3.970 -24.944   0.653  1.00  0.00     0.157 A 
ATOM     16  C   UNL     1      -2.505 -26.861   0.349  1.00  0.00     0.062 A 
ATOM     17  C   UNL     1      -3.763 -26.342   0.682  1.00  0.00     0.158 A 
BRANCH  15  18
ATOM     18  O   UNL     1      -5.197 -24.355   0.963  1.00  0.00    -0.504 OA
ATOM     19  H   UNL     1      -5.298 -23.416   1.322  1.00  0.00     0.293 HD
ENDBRANCH  15  18
BRANCH  17  20
ATOM     20  O   UNL     1      -4.766 -27.245   1.038  1.00  0.00    -0.504 OA
ATOM     21  H   UNL     1      -5.498 -27.043   1.705  1.00  0.00     0.293 HD
ENDBRANCH  17  20
ENDBRANCH   1  12
BRANCH   6  22
ATOM     22  O   UNL     1       4.373 -28.011  -2.315  1.00  0.00    -0.507 OA
ATOM     23  H   UNL     1       5.258 -28.471  -2.491  1.00  0.00     0.293 HD
ENDBRANCH   6  22
BRANCH   8  24
ATOM     24  O   UNL     1       4.289 -29.695   2.224  1.00  0.00    -0.508 OA
ATOM     25  H   UNL     1       5.101 -30.280   2.064  1.00  0.00     0.293 HD
ENDBRANCH   8  24
TORSDOF 5
ENDMDL
MODEL 2
REMARK VINA RESULT:    -8.417      1.148      1.370
REMARK INTER + INTRA:         -10.170
REMARK INTER:                  -9.863
REMARK INTRA:                  -0.307
REMARK UNBOUND:                -0.277
REMARK SMILES O=c1cc(-c2ccc(O)c(O)c2)oc2cc(O)cc(O)c12
REMARK SMILES IDX 4 1 3 2 2 3 1 4 21 5 19 6 18 7 16 8 15 9 14 10 13 11 5 12
REMARK SMILES IDX 6 13 7 14 8 15 12 16 10 17 9 18 11 20 20 22 17 24
REMARK H PARENT 9 19 11 21 20 23 17 25
REMARK Flexibility Score: inf
ROOT
ATOM      1  C   UNL     1       0.577 -26.841  -0.347  1.00  0.00     0.138 A 
ATOM      2  C   UNL     1       1.443 -26.946  -1.447  1.00  0.00     0.100 A 
ATOM      3  C   UNL     1       2.653 -27.629  -1.307  1.00  0.00     0.197 A 
ATOM      4  O   UNL     1       3.425 -27.717  -2.300  1.00  0.00    -0.289 OA
ATOM      5  C   UNL     1       2.989 -28.199  -0.063  1.00  0.00     0.107 A 
ATOM      6  C   UNL     1       4.193 -28.907   0.165  1.00  0.00     0.134 A 
ATOM      7  C   UNL     1       4.455 -29.441   1.434  1.00  0.00     0.093 A 
ATOM      8  C   UNL     1       3.539 -29.279   2.480  1.00  0.00     0.123 A 
ATOM      9  C   UNL     1       2.350 -28.581   2.259  1.00  0.00     0.094 A 
ATOM     10  C   UNL     1       2.068 -28.043   1.000  1.00  0.00     0.146 A 
ATOM     11  O   UNL     1       0.929 -27.384   0.817  1.00  0.00    -0.456 OA
ENDROOT
BRANCH   1  12
ATOM     12  C   UNL     1      -0.721 -26.127  -0.438  1.00  0.00     0.021 A 
ATOM     13  C   UNL     1      -0.858 -25.053  -1.330  1.00  0.00     0.016 A 
ATOM     14  C   UNL     1      -2.066 -24.362  -1.430  1.00  0.00     0.051 A 
ATOM     15  C   UNL     1      -3.161 -24.719  -0.636  1.00  0.00     0.157 A 
ATOM     16  C   UNL     1      -1.818 -26.478   0.373  1.00  0.00     0.062 A 
ATOM     17  C   UNL     1      -3.034 -25.787   0.281  1.00  0.00     0.158 A 
BRANCH  15  18
ATOM     18  O   UNL     1      -4.342 -23.990  -0.789  1.00  0.00    -0.504 OA
ATOM     19  H   UNL     1      -5.235 -24.278  -0.415  1.00  0.00     0.293 HD
ENDBRANCH  15  18
BRANCH  17  20
ATOM     20  O   UNL     1      -4.076 -26.189   1.118  1.00  0.00    -0.504 OA
ATOM     21  H   UNL     1      -4.313 -25.730   1.986  1.00  0.00     0.293 HD
ENDBRANCH  17  20
ENDBRANCH   1  12
BRANCH   6  22
ATOM     22  O   UNL     1       5.125 -29.084  -0.859  1.00  0.00    -0.507 OA
ATOM     23  H   UNL     1       6.044 -29.472  -0.681  1.00  0.00     0.293 HD
ENDBRANCH   6  22
BRANCH   8  24
ATOM     24  O   UNL     1       3.799 -29.808   3.741  1.00  0.00    -0.508 OA
ATOM     25  H   UNL     1       3.088 -30.304   4.266  1.00  0.00     0.293 HD
ENDBRANCH   8  24
TORSDOF 5
ENDMDL
MODEL 3
REMARK VINA RESULT:    -8.262      1.331      1.774
REMARK INTER + INTRA:          -9.987
REMARK INTER:                  -9.692
REMARK INTRA:                  -0.295
REMARK UNBOUND:                -0.277
REMARK SMILES O=c1cc(-c2ccc(O)c(O)c2)oc2cc(O)cc(O)c12
REMARK SMILES IDX 4 1 3 2 2 3 1 4 21 5 19 6 18 7 16 8 15 9 14 10 13 11 5 12
REMARK SMILES IDX 6 13 7 14 8 15 12 16 10 17 9 18 11 20 20 22 17 24
REMARK H PARENT 9 19 11 21 20 23 17 25
REMARK Flexibility Score: inf
ROOT
ATOM      1  C   UNL     1       0.509 -26.680  -0.760  1.00  0.00     0.138 A 
ATOM      2  C   UNL     1       1.296 -26.626  -1.921  1.00  0.00     0.100 A 
ATOM      3  C   UNL     1       2.549 -27.240  -1.931  1.00  0.00     0.197 A 
ATOM      4  O   UNL     1       3.250 -27.185  -2.978  1.00  0.00    -0.289 OA
ATOM      5  C   UNL     1       3.007 -27.903  -0.775  1.00  0.00     0.107 A 
ATOM      6  C   UNL     1       4.262 -28.553  -0.700  1.00  0.00     0.134 A 
ATOM      7  C   UNL     1       4.647 -29.187   0.490  1.00  0.00     0.093 A 
ATOM      8  C   UNL     1       3.802 -29.183   1.606  1.00  0.00     0.123 A 
ATOM      9  C   UNL     1       2.562 -28.543   1.536  1.00  0.00     0.094 A 
ATOM     10  C   UNL     1       2.160 -27.907   0.358  1.00  0.00     0.146 A 
ATOM     11  O   UNL     1       0.974 -27.307   0.318  1.00  0.00    -0.456 OA
ENDROOT
BRANCH   1  12
ATOM     12  C   UNL     1      -0.831 -26.044  -0.692  1.00  0.00     0.021 A 
ATOM     13  C   UNL     1      -1.701 -26.375   0.358  1.00  0.00     0.016 A 
ATOM     14  C   UNL     1      -2.967 -25.795   0.441  1.00  0.00     0.051 A 
ATOM     15  C   UNL     1      -3.399 -24.881  -0.526  1.00  0.00     0.157 A 
ATOM     16  C   UNL     1      -1.271 -25.135  -1.675  1.00  0.00     0.062 A 
ATOM     17  C   UNL     1      -2.542 -24.551  -1.600  1.00  0.00     0.158 A 
BRANCH  15  18
ATOM     18  O   UNL     1      -4.675 -24.333  -0.381  1.00  0.00    -0.504 OA
ATOM     19  H   UNL     1      -5.525 -24.798  -0.670  1.00  0.00     0.293 HD
ENDBRANCH  15  18
BRANCH  17  20
ATOM     20  O   UNL     1      -2.909 -23.661  -2.611  1.00  0.00    -0.504 OA
ATOM     21  H   UNL     1      -3.834 -23.615  -3.016  1.00  0.00     0.293 HD
ENDBRANCH  17  20
ENDBRANCH   1  12
BRANCH   6  22
ATOM     22  O   UNL     1       5.125 -28.573  -1.797  1.00  0.00    -0.507 OA
ATOM     23  H   UNL     1       4.915 -29.110  -2.630  1.00  0.00     0.293 HD
ENDBRANCH   6  22
BRANCH   8  24
ATOM     24  O   UNL     1       4.183 -29.811   2.788  1.00  0.00    -0.508 OA
ATOM     25  H   UNL     1       4.596 -29.293   3.555  1.00  0.00     0.293 HD
ENDBRANCH   8  24
TORSDOF 5
ENDMDL
MODEL 4
REMARK VINA RESULT:    -8.226      2.677      7.048
REMARK INTER + INTRA:          -9.946
REMARK INTER:                  -9.628
REMARK INTRA:                  -0.318
REMARK UNBOUND:                -0.277
REMARK SMILES O=c1cc(-c2ccc(O)c(O)c2)oc2cc(O)cc(O)c12
REMARK SMILES IDX 4 1 3 2 2 3 1 4 21 5 19 6 18 7 16 8 15 9 14 10 13 11 5 12
REMARK SMILES IDX 6 13 7 14 8 15 12 16 10 17 9 18 11 20 20 22 17 24
REMARK H PARENT 9 19 11 21 20 23 17 25
REMARK Flexibility Score: inf
ROOT
ATOM      1  C   UNL     1       3.840 -29.017   1.566  1.00  0.00     0.138 A 
ATOM      2  C   UNL     1       4.622 -29.156   0.409  1.00  0.00     0.100 A 
ATOM      3  C   UNL     1       4.188 -28.584  -0.787  1.00  0.00     0.197 A 
ATOM      4  O   UNL     1       4.897 -28.715  -1.822  1.00  0.00    -0.289 OA
ATOM      5  C   UNL     1       2.968 -27.877  -0.817  1.00  0.00     0.107 A 
ATOM      6  C   UNL     1       2.456 -27.266  -1.986  1.00  0.00     0.134 A 
ATOM      7  C   UNL     1       1.231 -26.584  -1.934  1.00  0.00     0.093 A 
ATOM      8  C   UNL     1       0.510 -26.504  -0.737  1.00  0.00     0.123 A 
ATOM      9  C   UNL     1       1.013 -27.106   0.419  1.00  0.00     0.094 A 
ATOM     10  C   UNL     1       2.232 -27.788   0.388  1.00  0.00     0.146 A 
ATOM     11  O   UNL     1       2.688 -28.352   1.502  1.00  0.00    -0.456 OA
ENDROOT
BRANCH   1  12
ATOM     12  C   UNL     1       4.251 -29.606   2.866  1.00  0.00     0.021 A 
ATOM     13  C   UNL     1       5.404 -30.404   2.928  1.00  0.00     0.016 A 
ATOM     14  C   UNL     1       5.809 -30.973   4.137  1.00  0.00     0.051 A 
ATOM     15  C   UNL     1       5.069 -30.769   5.306  1.00  0.00     0.157 A 
ATOM     16  C   UNL     1       3.497 -29.412   4.040  1.00  0.00     0.062 A 
ATOM     17  C   UNL     1       3.895 -29.983   5.256  1.00  0.00     0.158 A 
BRANCH  15  18
ATOM     18  O   UNL     1       5.532 -31.362   6.482  1.00  0.00    -0.504 OA
ATOM     19  H   UNL     1       5.845 -30.843   7.290  1.00  0.00     0.293 HD
ENDBRANCH  15  18
BRANCH  17  20
ATOM     20  O   UNL     1       3.097 -29.748   6.376  1.00  0.00    -0.504 OA
ATOM     21  H   UNL     1       3.143 -28.910   6.938  1.00  0.00     0.293 HD
ENDBRANCH  17  20
ENDBRANCH   1  12
BRANCH   6  22
ATOM     22  O   UNL     1       3.153 -27.329  -3.193  1.00  0.00    -0.507 OA
ATOM     23  H   UNL     1       3.448 -28.213  -3.591  1.00  0.00     0.293 HD
ENDBRANCH   6  22
BRANCH   8  24
ATOM     24  O   UNL     1      -0.706 -25.829  -0.685  1.00  0.00    -0.508 OA
ATOM     25  H   UNL     1      -0.792 -24.925  -0.234  1.00  0.00     0.293 HD
ENDBRANCH   8  24
TORSDOF 5
ENDMDL
MODEL 5
REMARK VINA RESULT:    -8.154      1.341      2.735
REMARK INTER + INTRA:          -9.860
REMARK INTER:                  -9.567
REMARK INTRA:                  -0.293
REMARK UNBOUND:                -0.277
REMARK SMILES O=c1cc(-c2ccc(O)c(O)c2)oc2cc(O)cc(O)c12
REMARK SMILES IDX 4 1 3 2 2 3 1 4 21 5 19 6 18 7 16 8 15 9 14 10 13 11 5 12
REMARK SMILES IDX 6 13 7 14 8 15 12 16 10 17 9 18 11 20 20 22 17 24
REMARK H PARENT 9 19 11 21 20 23 17 25
REMARK Flexibility Score: inf
ROOT
ATOM      1  C   UNL     1       0.350 -26.724  -0.351  1.00  0.00     0.138 A 
ATOM      2  C   UNL     1       0.712 -27.480   0.776  1.00  0.00     0.100 A 
ATOM      3  C   UNL     1       1.958 -28.108   0.810  1.00  0.00     0.197 A 
ATOM      4  O   UNL     1       2.274 -28.785   1.826  1.00  0.00    -0.289 OA
ATOM      5  C   UNL     1       2.833 -27.977  -0.287  1.00  0.00     0.107 A 
ATOM      6  C   UNL     1       4.113 -28.579  -0.333  1.00  0.00     0.134 A 
ATOM      7  C   UNL     1       4.923 -28.404  -1.464  1.00  0.00     0.093 A 
ATOM      8  C   UNL     1       4.477 -27.642  -2.550  1.00  0.00     0.123 A 
ATOM      9  C   UNL     1       3.214 -27.046  -2.508  1.00  0.00     0.094 A 
ATOM     10  C   UNL     1       2.393 -27.206  -1.389  1.00  0.00     0.146 A 
ATOM     11  O   UNL     1       1.196 -26.628  -1.375  1.00  0.00    -0.456 OA
ENDROOT
BRANCH   1  12
ATOM     12  C   UNL     1      -0.962 -26.035  -0.443  1.00  0.00     0.021 A 
ATOM     13  C   UNL     1      -1.124 -24.976  -1.350  1.00  0.00     0.016 A 
ATOM     14  C   UNL     1      -2.346 -24.309  -1.452  1.00  0.00     0.051 A 
ATOM     15  C   UNL     1      -3.428 -24.675  -0.645  1.00  0.00     0.157 A 
ATOM     16  C   UNL     1      -2.047 -26.394   0.380  1.00  0.00     0.062 A 
ATOM     17  C   UNL     1      -3.275 -25.727   0.287  1.00  0.00     0.158 A 
BRANCH  15  18
ATOM     18  O   UNL     1      -4.624 -23.970  -0.801  1.00  0.00    -0.504 OA
ATOM     19  H   UNL     1      -4.792 -23.299  -1.536  1.00  0.00     0.293 HD
ENDBRANCH  15  18
BRANCH  17  20
ATOM     20  O   UNL     1      -4.305 -26.137   1.136  1.00  0.00    -0.504 OA
ATOM     21  H   UNL     1      -4.238 -26.924   1.766  1.00  0.00     0.293 HD
ENDBRANCH  17  20
ENDBRANCH   1  12
BRANCH   6  22
ATOM     22  O   UNL     1       4.584 -29.344   0.735  1.00  0.00    -0.507 OA
ATOM     23  H   UNL     1       4.414 -30.342   0.790  1.00  0.00     0.293 HD
ENDBRANCH   6  22
BRANCH   8  24
ATOM     24  O   UNL     1       5.280 -27.469  -3.674  1.00  0.00    -0.508 OA
ATOM     25  H   UNL     1       5.870 -26.652  -3.784  1.00  0.00     0.293 HD
ENDBRANCH   8  24
TORSDOF 5
ENDMDL
MODEL 6
REMARK VINA RESULT:    -8.120      1.643      3.103
REMARK INTER + INTRA:          -9.820
REMARK INTER:                  -9.504
REMARK INTRA:                  -0.317
REMARK UNBOUND:                -0.277
REMARK SMILES O=c1cc(-c2ccc(O)c(O)c2)oc2cc(O)cc(O)c12
REMARK SMILES IDX 4 1 3 2 2 3 1 4 21 5 19 6 18 7 16 8 15 9 14 10 13 11 5 12
REMARK SMILES IDX 6 13 7 14 8 15 12 16 10 17 9 18 11 20 20 22 17 24
REMARK H PARENT 9 19 11 21 20 23 17 25
REMARK Flexibility Score: inf
ROOT
ATOM      1  C   UNL     1       0.299 -26.771  -0.393  1.00  0.00     0.138 A 
ATOM      2  C   UNL     1       0.673 -27.500   0.747  1.00  0.00     0.100 A 
ATOM      3  C   UNL     1       1.931 -28.103   0.794  1.00  0.00     0.197 A 
ATOM      4  O   UNL     1       2.258 -28.757   1.822  1.00  0.00    -0.289 OA
ATOM      5  C   UNL     1       2.805 -27.975  -0.304  1.00  0.00     0.107 A 
ATOM      6  C   UNL     1       4.096 -28.553  -0.338  1.00  0.00     0.134 A 
ATOM      7  C   UNL     1       4.904 -28.384  -1.471  1.00  0.00     0.093 A 
ATOM      8  C   UNL     1       4.445 -27.649  -2.571  1.00  0.00     0.123 A 
ATOM      9  C   UNL     1       3.172 -27.077  -2.541  1.00  0.00     0.094 A 
ATOM     10  C   UNL     1       2.352 -27.232  -1.420  1.00  0.00     0.146 A 
ATOM     11  O   UNL     1       1.144 -26.677  -1.417  1.00  0.00    -0.456 OA
ENDROOT
BRANCH   1  12
ATOM     12  C   UNL     1      -1.026 -26.109  -0.499  1.00  0.00     0.021 A 
ATOM     13  C   UNL     1      -2.027 -26.412   0.436  1.00  0.00     0.016 A 
ATOM     14  C   UNL     1      -3.282 -25.807   0.355  1.00  0.00     0.051 A 
ATOM     15  C   UNL     1      -3.571 -24.897  -0.667  1.00  0.00     0.157 A 
ATOM     16  C   UNL     1      -1.321 -25.204  -1.537  1.00  0.00     0.062 A 
ATOM     17  C   UNL     1      -2.580 -24.595  -1.628  1.00  0.00     0.158 A 
BRANCH  15  18
ATOM     18  O   UNL     1      -4.844 -24.324  -0.688  1.00  0.00    -0.504 OA
ATOM     19  H   UNL     1      -5.057 -23.408  -0.319  1.00  0.00     0.293 HD
ENDBRANCH  15  18
BRANCH  17  20
ATOM     20  O   UNL     1      -2.800 -23.710  -2.685  1.00  0.00    -0.504 OA
ATOM     21  H   UNL     1      -2.321 -22.827  -2.792  1.00  0.00     0.293 HD
ENDBRANCH  17  20
ENDBRANCH   1  12
BRANCH   6  22
ATOM     22  O   UNL     1       4.580 -29.291   0.744  1.00  0.00    -0.507 OA
ATOM     23  H   UNL     1       4.118 -29.279   1.646  1.00  0.00     0.293 HD
ENDBRANCH   6  22
BRANCH   8  24
ATOM     24  O   UNL     1       5.247 -27.481  -3.697  1.00  0.00    -0.508 OA
ATOM     25  H   UNL     1       5.865 -28.216  -4.022  1.00  0.00     0.293 HD
ENDBRANCH   8  24
TORSDOF 5
ENDMDL
MODEL 7
REMARK VINA RESULT:    -7.915      3.401      7.058
REMARK INTER + INTRA:          -9.580
REMARK INTER:                  -9.284
REMARK INTRA:                  -0.296
REMARK UNBOUND:                -0.277
REMARK SMILES O=c1cc(-c2ccc(O)c(O)c2)oc2cc(O)cc(O)c12
REMARK SMILES IDX 4 1 3 2 2 3 1 4 21 5 19 6 18 7 16 8 15 9 14 10 13 11 5 12
REMARK SMILES IDX 6 13 7 14 8 15 12 16 10 17 9 18 11 20 20 22 17 24
REMARK H PARENT 9 19 11 21 20 23 17 25
REMARK Flexibility Score: inf
ROOT
ATOM      1  C   UNL     1       3.388 -28.872   1.821  1.00  0.00     0.138 A 
ATOM      2  C   UNL     1       2.085 -28.349   1.801  1.00  0.00     0.100 A 
ATOM      3  C   UNL     1       1.605 -27.744   0.638  1.00  0.00     0.197 A 
ATOM      4  O   UNL     1       0.433 -27.277   0.630  1.00  0.00    -0.289 OA
ATOM      5  C   UNL     1       2.435 -27.664  -0.497  1.00  0.00     0.107 A 
ATOM      6  C   UNL     1       2.028 -27.069  -1.715  1.00  0.00     0.134 A 
ATOM      7  C   UNL     1       2.917 -27.025  -2.799  1.00  0.00     0.093 A 
ATOM      8  C   UNL     1       4.205 -27.561  -2.687  1.00  0.00     0.123 A 
ATOM      9  C   UNL     1       4.611 -28.149  -1.487  1.00  0.00     0.094 A 
ATOM     10  C   UNL     1       3.739 -28.205  -0.396  1.00  0.00     0.146 A 
ATOM     11  O   UNL     1       4.150 -28.771   0.734  1.00  0.00    -0.456 OA
ENDROOT
BRANCH   1  12
ATOM     12  C   UNL     1       3.951 -29.525   3.029  1.00  0.00     0.021 A 
ATOM     13  C   UNL     1       5.170 -30.215   2.937  1.00  0.00     0.016 A 
ATOM     14  C   UNL     1       5.718 -30.841   4.058  1.00  0.00     0.051 A 
ATOM     15  C   UNL     1       5.058 -30.804   5.291  1.00  0.00     0.157 A 
ATOM     16  C   UNL     1       3.279 -29.500   4.267  1.00  0.00     0.062 A 
ATOM     17  C   UNL     1       3.820 -30.129   5.395  1.00  0.00     0.158 A 
BRANCH  15  18
ATOM     18  O   UNL     1       5.663 -31.447   6.373  1.00  0.00    -0.504 OA
ATOM     19  H   UNL     1       5.617 -31.113   7.325  1.00  0.00     0.293 HD
ENDBRANCH  15  18
BRANCH  17  20
ATOM     20  O   UNL     1       3.096 -30.064   6.587  1.00  0.00    -0.504 OA
ATOM     21  H   UNL     1       2.921 -29.209   7.096  1.00  0.00     0.293 HD
ENDBRANCH  17  20
ENDBRANCH   1  12
BRANCH   6  22
ATOM     22  O   UNL     1       0.750 -26.526  -1.855  1.00  0.00    -0.507 OA
ATOM     23  H   UNL     1      -0.031 -27.080  -2.187  1.00  0.00     0.293 HD
ENDBRANCH   6  22
BRANCH   8  24
ATOM     24  O   UNL     1       5.088 -27.516  -3.762  1.00  0.00    -0.508 OA
ATOM     25  H   UNL     1       5.975 -28.008  -3.741  1.00  0.00     0.293 HD
ENDBRANCH   8  24
TORSDOF 5
ENDMDL
MODEL 8
REMARK VINA RESULT:    -7.858      2.954      5.731
REMARK INTER + INTRA:          -9.513
REMARK INTER:                  -9.216
REMARK INTRA:                  -0.298
REMARK UNBOUND:                -0.277
REMARK SMILES O=c1cc(-c2ccc(O)c(O)c2)oc2cc(O)cc(O)c12
REMARK SMILES IDX 4 1 3 2 2 3 1 4 21 5 19 6 18 7 16 8 15 9 14 10 13 11 5 12
REMARK SMILES IDX 6 13 7 14 8 15 12 16 10 17 9 18 11 20 20 22 17 24
REMARK H PARENT 9 19 11 21 20 23 17 25
REMARK Flexibility Score: inf
ROOT
ATOM      1  C   UNL     1       3.434 -28.807   1.450  1.00  0.00     0.138 A 
ATOM      2  C   UNL     1       4.711 -29.274   1.103  1.00  0.00     0.100 A 
ATOM      3  C   UNL     1       5.472 -29.964   2.048  1.00  0.00     0.197 A 
ATOM      4  O   UNL     1       6.619 -30.378   1.727  1.00  0.00    -0.289 OA
ATOM      5  C   UNL     1       4.948 -30.179   3.339  1.00  0.00     0.107 A 
ATOM      6  C   UNL     1       5.650 -30.869   4.355  1.00  0.00     0.134 A 
ATOM      7  C   UNL     1       5.061 -31.037   5.616  1.00  0.00     0.093 A 
ATOM      8  C   UNL     1       3.783 -30.528   5.880  1.00  0.00     0.123 A 
ATOM      9  C   UNL     1       3.087 -29.847   4.880  1.00  0.00     0.094 A 
ATOM     10  C   UNL     1       3.656 -29.670   3.616  1.00  0.00     0.146 A 
ATOM     11  O   UNL     1       2.972 -29.019   2.681  1.00  0.00    -0.456 OA
ENDROOT
BRANCH   1  12
ATOM     12  C   UNL     1       2.581 -28.066   0.486  1.00  0.00     0.021 A 
ATOM     13  C   UNL     1       1.336 -27.571   0.903  1.00  0.00     0.016 A 
ATOM     14  C   UNL     1       0.514 -26.877   0.014  1.00  0.00     0.051 A 
ATOM     15  C   UNL     1       0.909 -26.671  -1.311  1.00  0.00     0.157 A 
ATOM     16  C   UNL     1       2.974 -27.872  -0.853  1.00  0.00     0.062 A 
ATOM     17  C   UNL     1       2.153 -27.179  -1.752  1.00  0.00     0.158 A 
BRANCH  15  18
ATOM     18  O   UNL     1       0.043 -25.963  -2.147  1.00  0.00    -0.504 OA
ATOM     19  H   UNL     1      -0.822 -25.543  -1.837  1.00  0.00     0.293 HD
ENDBRANCH  15  18
BRANCH  17  20
ATOM     20  O   UNL     1       2.607 -27.027  -3.063  1.00  0.00    -0.504 OA
ATOM     21  H   UNL     1       2.689 -26.137  -3.534  1.00  0.00     0.293 HD
ENDBRANCH  17  20
ENDBRANCH   1  12
BRANCH   6  22
ATOM     22  O   UNL     1       6.925 -31.387   4.121  1.00  0.00    -0.507 OA
ATOM     23  H   UNL     1       7.707 -30.789   3.880  1.00  0.00     0.293 HD
ENDBRANCH   6  22
BRANCH   8  24
ATOM     24  O   UNL     1       3.198 -30.694   7.132  1.00  0.00    -0.508 OA
ATOM     25  H   UNL     1       3.724 -30.552   7.987  1.00  0.00     0.293 HD
ENDBRANCH   8  24
TORSDOF 5
ENDMDL
MODEL 9
REMARK VINA RESULT:    -7.846      1.500      7.254
REMARK INTER + INTRA:          -9.499
REMARK INTER:                  -9.234
REMARK INTRA:                  -0.265
REMARK UNBOUND:                -0.277
REMARK SMILES O=c1cc(-c2ccc(O)c(O)c2)oc2cc(O)cc(O)c12
REMARK SMILES IDX 4 1 3 2 2 3 1 4 21 5 19 6 18 7 16 8 15 9 14 10 13 11 5 12
REMARK SMILES IDX 6 13 7 14 8 15 12 16 10 17 9 18 11 20 20 22 17 24
REMARK H PARENT 9 19 11 21 20 23 17 25
REMARK Flexibility Score: inf
ROOT
ATOM      1  C   UNL     1      -0.350 -26.009  -0.390  1.00  0.00     0.138 A 
ATOM      2  C   UNL     1      -0.325 -24.654  -0.021  1.00  0.00     0.100 A 
ATOM      3  C   UNL     1      -1.525 -23.995   0.252  1.00  0.00     0.197 A 
ATOM      4  O   UNL     1      -1.493 -22.778   0.581  1.00  0.00    -0.289 OA
ATOM      5  C   UNL     1      -2.743 -24.697   0.151  1.00  0.00     0.107 A 
ATOM      6  C   UNL     1      -4.002 -24.105   0.411  1.00  0.00     0.134 A 
ATOM      7  C   UNL     1      -5.169 -24.872   0.284  1.00  0.00     0.093 A 
ATOM      8  C   UNL     1      -5.101 -26.216  -0.101  1.00  0.00     0.123 A 
ATOM      9  C   UNL     1      -3.861 -26.803  -0.358  1.00  0.00     0.094 A 
ATOM     10  C   UNL     1      -2.686 -26.057  -0.235  1.00  0.00     0.146 A 
ATOM     11  O   UNL     1      -1.518 -26.641  -0.485  1.00  0.00    -0.456 OA
ENDROOT
BRANCH   1  12
ATOM     12  C   UNL     1       0.894 -26.760  -0.693  1.00  0.00     0.021 A 
ATOM     13  C   UNL     1       1.438 -27.616   0.278  1.00  0.00     0.016 A 
ATOM     14  C   UNL     1       2.610 -28.329   0.019  1.00  0.00     0.051 A 
ATOM     15  C   UNL     1       3.271 -28.197  -1.206  1.00  0.00     0.157 A 
ATOM     16  C   UNL     1       1.567 -26.615  -1.921  1.00  0.00     0.062 A 
ATOM     17  C   UNL     1       2.746 -27.325  -2.187  1.00  0.00     0.158 A 
BRANCH  15  18
ATOM     18  O   UNL     1       4.435 -28.943  -1.403  1.00  0.00    -0.504 OA
ATOM     19  H   UNL     1       4.901 -29.037  -2.294  1.00  0.00     0.293 HD
ENDBRANCH  15  18
BRANCH  17  20
ATOM     20  O   UNL     1       3.358 -27.129  -3.426  1.00  0.00    -0.504 OA
ATOM     21  H   UNL     1       4.142 -27.671  -3.762  1.00  0.00     0.293 HD
ENDBRANCH  17  20
ENDBRANCH   1  12
BRANCH   6  22
ATOM     22  O   UNL     1      -4.099 -22.767   0.796  1.00  0.00    -0.507 OA
ATOM     23  H   UNL     1      -4.481 -22.498   1.695  1.00  0.00     0.293 HD
ENDBRANCH   6  22
BRANCH   8  24
ATOM     24  O   UNL     1      -6.260 -26.977  -0.228  1.00  0.00    -0.508 OA
ATOM     25  H   UNL     1      -7.096 -26.764   0.304  1.00  0.00     0.293 HD
ENDBRANCH   8  24
TORSDOF 5
ENDMDL
