MODEL 1
REMARK VINA RESULT:    -3.762      0.000      0.000
REMARK INTER + INTRA:          -6.935
REMARK INTER:                  -5.961
REMARK INTRA:                  -0.974
REMARK UNBOUND:                -0.974
REMARK SMILES CCCCCCCCCCCC(=O)[O-]
REMARK SMILES IDX 7 1 8 2 9 3 10 4 11 5 12 6 13 7 14 8 6 9 5 10 4 11 3 12 2 13
REMARK SMILES IDX 1 14
REMARK H PARENT
REMARK Flexibility Score: inf
ROOT
ATOM      1  C   UNL     1      -2.399  17.941  -5.784  1.00  0.00     0.000 C 
ENDROOT
BRANCH   1   2
ATOM      2  C   UNL     1      -3.182  16.661  -6.125  1.00  0.00     0.000 C 
BRANCH   2   3
ATOM      3  C   UNL     1      -2.453  15.346  -5.795  1.00  0.00     0.000 C 
BRANCH   3   4
ATOM      4  C   UNL     1      -3.307  14.381  -4.954  1.00  0.00     0.006 C 
BRANCH   4   5
ATOM      5  C   UNL     1      -3.221  12.936  -5.464  1.00  0.00     0.053 C 
BRANCH   5   6
ATOM      6  C   UNL     1      -2.185  12.145  -4.727  1.00  0.00     0.041 C 
ATOM      7  O   UNL     1      -2.470  11.013  -4.254  1.00  0.00    -0.550 OA
ATOM      8  O   UNL     1      -0.896  12.644  -4.586  1.00  0.00    -0.550 OA
ENDBRANCH   5   6
ENDBRANCH   4   5
ENDBRANCH   3   4
ENDBRANCH   2   3
ENDBRANCH   1   2
BRANCH   1   9
ATOM      9  C   UNL     1      -0.875  17.759  -5.904  1.00  0.00     0.000 C 
BRANCH   9  10
ATOM     10  C   UNL     1      -0.139  18.062  -4.589  1.00  0.00    -0.000 C 
BRANCH  10  11
ATOM     11  C   UNL     1       0.904  16.992  -4.238  1.00  0.00    -0.000 C 
BRANCH  11  12
ATOM     12  C   UNL     1       0.265  15.834  -3.462  1.00  0.00    -0.000 C 
BRANCH  12  13
ATOM     13  C   UNL     1      -0.739  16.354  -2.428  1.00  0.00    -0.003 C 
ATOM     14  C   UNL     1      -0.354  15.916  -1.018  1.00  0.00     0.004 C 
ENDBRANCH  12  13
ENDBRANCH  11  12
ENDBRANCH  10  11
ENDBRANCH   9  10
ENDBRANCH   1   9
TORSDOF 10
ENDMDL
MODEL 2
REMARK VINA RESULT:    -3.576      1.915      4.380
REMARK INTER + INTRA:          -6.640
REMARK INTER:                  -5.904
REMARK INTRA:                  -0.736
REMARK UNBOUND:                -0.974
REMARK SMILES CCCCCCCCCCCC(=O)[O-]
REMARK SMILES IDX 7 1 8 2 9 3 10 4 11 5 12 6 13 7 14 8 6 9 5 10 4 11 3 12 2 13
REMARK SMILES IDX 1 14
REMARK H PARENT
REMARK Flexibility Score: inf
ROOT
ATOM      1  C   UNL     1      -2.400  18.255  -5.388  1.00  0.00     0.000 C 
ENDROOT
BRANCH   1   2
ATOM      2  C   UNL     1      -1.097  18.650  -6.107  1.00  0.00     0.000 C 
BRANCH   2   3
ATOM      3  C   UNL     1       0.157  17.889  -5.643  1.00  0.00     0.000 C 
BRANCH   3   4
ATOM      4  C   UNL     1       0.241  17.748  -4.112  1.00  0.00     0.006 C 
BRANCH   4   5
ATOM      5  C   UNL     1       0.305  16.280  -3.668  1.00  0.00     0.053 C 
BRANCH   5   6
ATOM      6  C   UNL     1      -0.540  16.026  -2.458  1.00  0.00     0.041 C 
ATOM      7  O   UNL     1      -1.794  15.974  -2.562  1.00  0.00    -0.550 OA
ATOM      8  O   UNL     1       0.057  15.819  -1.221  1.00  0.00    -0.550 OA
ENDBRANCH   5   6
ENDBRANCH   4   5
ENDBRANCH   3   4
ENDBRANCH   2   3
ENDBRANCH   1   2
BRANCH   1   9
ATOM      9  C   UNL     1      -3.148  17.110  -6.093  1.00  0.00     0.000 C 
BRANCH   9  10
ATOM     10  C   UNL     1      -2.396  15.772  -6.004  1.00  0.00    -0.000 C 
BRANCH  10  11
ATOM     11  C   UNL     1      -3.332  14.560  -6.124  1.00  0.00    -0.000 C 
BRANCH  11  12
ATOM     12  C   UNL     1      -3.299  13.713  -4.846  1.00  0.00    -0.000 C 
BRANCH  12  13
ATOM     13  C   UNL     1      -2.110  12.745  -4.858  1.00  0.00    -0.003 C 
ATOM     14  C   UNL     1      -2.523  11.359  -4.374  1.00  0.00     0.004 C 
ENDBRANCH  12  13
ENDBRANCH  11  12
ENDBRANCH  10  11
ENDBRANCH   9  10
ENDBRANCH   1   9
TORSDOF 10
ENDMDL
MODEL 3
REMARK VINA RESULT:    -3.561      1.137      3.025
REMARK INTER + INTRA:          -6.617
REMARK INTER:                  -5.352
REMARK INTRA:                  -1.265
REMARK UNBOUND:                -0.974
REMARK SMILES CCCCCCCCCCCC(=O)[O-]
REMARK SMILES IDX 7 1 8 2 9 3 10 4 11 5 12 6 13 7 14 8 6 9 5 10 4 11 3 12 2 13
REMARK SMILES IDX 1 14
REMARK H PARENT
REMARK Flexibility Score: inf
ROOT
ATOM      1  C   UNL     1      -0.494  15.463  -3.308  1.00  0.00     0.000 C 
ENDROOT
BRANCH   1   2
ATOM      2  C   UNL     1      -1.978  15.849  -3.175  1.00  0.00     0.000 C 
BRANCH   2   3
ATOM      3  C   UNL     1      -2.954  14.955  -3.962  1.00  0.00     0.000 C 
BRANCH   3   4
ATOM      4  C   UNL     1      -2.325  14.350  -5.229  1.00  0.00     0.006 C 
BRANCH   4   5
ATOM      5  C   UNL     1      -2.834  12.930  -5.508  1.00  0.00     0.053 C 
BRANCH   5   6
ATOM      6  C   UNL     1      -2.107  11.905  -4.694  1.00  0.00     0.041 C 
ATOM      7  O   UNL     1      -0.897  12.081  -4.389  1.00  0.00    -0.550 OA
ATOM      8  O   UNL     1      -2.770  10.770  -4.247  1.00  0.00    -0.550 OA
ENDBRANCH   5   6
ENDBRANCH   4   5
ENDBRANCH   3   4
ENDBRANCH   2   3
ENDBRANCH   1   2
BRANCH   1   9
ATOM      9  C   UNL     1       0.372  16.603  -3.874  1.00  0.00     0.000 C 
BRANCH   9  10
ATOM     10  C   UNL     1       0.462  16.569  -5.408  1.00  0.00    -0.000 C 
BRANCH  10  11
ATOM     11  C   UNL     1       0.456  17.973  -6.029  1.00  0.00    -0.000 C 
BRANCH  11  12
ATOM     12  C   UNL     1      -0.786  18.761  -5.595  1.00  0.00    -0.000 C 
BRANCH  12  13
ATOM     13  C   UNL     1      -2.067  18.101  -6.118  1.00  0.00    -0.003 C 
ATOM     14  C   UNL     1      -3.308  18.830  -5.613  1.00  0.00     0.004 C 
ENDBRANCH  12  13
ENDBRANCH  11  12
ENDBRANCH  10  11
ENDBRANCH   9  10
ENDBRANCH   1   9
TORSDOF 10
ENDMDL
MODEL 4
REMARK VINA RESULT:    -3.383      5.524      7.412
REMARK INTER + INTRA:          -6.335
REMARK INTER:                  -5.805
REMARK INTRA:                  -0.530
REMARK UNBOUND:                -0.974
REMARK SMILES CCCCCCCCCCCC(=O)[O-]
REMARK SMILES IDX 7 1 8 2 9 3 10 4 11 5 12 6 13 7 14 8 6 9 5 10 4 11 3 12 2 13
REMARK SMILES IDX 1 14
REMARK H PARENT
REMARK Flexibility Score: inf
ROOT
ATOM      1  C   UNL     1       1.912  10.313  -2.890  1.00  0.00     0.000 C 
ENDROOT
BRANCH   1   2
ATOM      2  C   UNL     1       0.650  11.193  -2.826  1.00  0.00     0.000 C 
BRANCH   2   3
ATOM      3  C   UNL     1       0.563  12.283  -3.910  1.00  0.00     0.000 C 
BRANCH   3   4
ATOM      4  C   UNL     1      -0.886  12.634  -4.292  1.00  0.00     0.006 C 
BRANCH   4   5
ATOM      5  C   UNL     1      -1.042  14.112  -4.675  1.00  0.00     0.053 C 
BRANCH   5   6
ATOM      6  C   UNL     1      -2.477  14.484  -4.888  1.00  0.00     0.041 C 
ATOM      7  O   UNL     1      -3.390  13.858  -4.286  1.00  0.00    -0.550 OA
ATOM      8  O   UNL     1      -2.807  15.540  -5.728  1.00  0.00    -0.550 OA
ENDBRANCH   5   6
ENDBRANCH   4   5
ENDBRANCH   3   4
ENDBRANCH   2   3
ENDBRANCH   1   2
BRANCH   1   9
ATOM      9  C   UNL     1       2.165   9.534  -1.588  1.00  0.00     0.000 C 
BRANCH   9  10
ATOM     10  C   UNL     1       1.158   9.892  -0.482  1.00  0.00    -0.000 C 
BRANCH  10  11
ATOM     11  C   UNL     1       0.707   8.665   0.324  1.00  0.00    -0.000 C 
BRANCH  11  12
ATOM     12  C   UNL     1       1.618   7.462   0.049  1.00  0.00    -0.000 C 
BRANCH  12  13
ATOM     13  C   UNL     1       2.264   6.956   1.344  1.00  0.00    -0.003 C 
ATOM     14  C   UNL     1       3.729   7.374   1.428  1.00  0.00     0.004 C 
ENDBRANCH  12  13
ENDBRANCH  11  12
ENDBRANCH  10  11
ENDBRANCH   9  10
ENDBRANCH   1   9
TORSDOF 10
ENDMDL
MODEL 5
REMARK VINA RESULT:    -3.339      4.619      6.055
REMARK INTER + INTRA:          -6.265
REMARK INTER:                  -5.702
REMARK INTRA:                  -0.563
REMARK UNBOUND:                -0.974
REMARK SMILES CCCCCCCCCCCC(=O)[O-]
REMARK SMILES IDX 7 1 8 2 9 3 10 4 11 5 12 6 13 7 14 8 6 9 5 10 4 11 3 12 2 13
REMARK SMILES IDX 1 14
REMARK H PARENT
REMARK Flexibility Score: inf
ROOT
ATOM      1  C   UNL     1       0.240  12.518  -3.890  1.00  0.00     0.000 C 
ENDROOT
BRANCH   1   2
ATOM      2  C   UNL     1       1.045  11.339  -3.314  1.00  0.00     0.000 C 
BRANCH   2   3
ATOM      3  C   UNL     1       0.514  10.780  -1.981  1.00  0.00     0.000 C 
BRANCH   3   4
ATOM      4  C   UNL     1       1.527   9.867  -1.268  1.00  0.00     0.006 C 
BRANCH   4   5
ATOM      5  C   UNL     1       0.894   9.102  -0.098  1.00  0.00     0.053 C 
BRANCH   5   6
ATOM      6  C   UNL     1       1.893   8.240   0.611  1.00  0.00     0.041 C 
ATOM      7  O   UNL     1       1.550   7.118   1.069  1.00  0.00    -0.550 OA
ATOM      8  O   UNL     1       3.210   8.662   0.741  1.00  0.00    -0.550 OA
ENDBRANCH   5   6
ENDBRANCH   4   5
ENDBRANCH   3   4
ENDBRANCH   2   3
ENDBRANCH   1   2
BRANCH   1   9
ATOM      9  C   UNL     1      -1.162  12.106  -4.371  1.00  0.00     0.000 C 
BRANCH   9  10
ATOM     10  C   UNL     1      -2.022  13.311  -4.784  1.00  0.00    -0.000 C 
BRANCH  10  11
ATOM     11  C   UNL     1      -1.200  14.599  -4.935  1.00  0.00    -0.000 C 
BRANCH  11  12
ATOM     12  C   UNL     1      -1.628  15.649  -3.903  1.00  0.00    -0.000 C 
BRANCH  12  13
ATOM     13  C   UNL     1      -0.413  16.222  -3.165  1.00  0.00    -0.003 C 
ATOM     14  C   UNL     1      -0.453  15.870  -1.681  1.00  0.00     0.004 C 
ENDBRANCH  12  13
ENDBRANCH  11  12
ENDBRANCH  10  11
ENDBRANCH   9  10
ENDBRANCH   1   9
TORSDOF 10
ENDMDL
MODEL 6
REMARK VINA RESULT:    -3.288      1.470      2.445
REMARK INTER + INTRA:          -6.184
REMARK INTER:                  -5.463
REMARK INTRA:                  -0.721
REMARK UNBOUND:                -0.974
REMARK SMILES CCCCCCCCCCCC(=O)[O-]
REMARK SMILES IDX 7 1 8 2 9 3 10 4 11 5 12 6 13 7 14 8 6 9 5 10 4 11 3 12 2 13
REMARK SMILES IDX 1 14
REMARK H PARENT
REMARK Flexibility Score: inf
ROOT
ATOM      1  C   UNL     1      -1.161  16.116  -4.968  1.00  0.00     0.000 C 
ENDROOT
BRANCH   1   2
ATOM      2  C   UNL     1      -2.111  15.679  -3.839  1.00  0.00     0.000 C 
BRANCH   2   3
ATOM      3  C   UNL     1      -3.188  14.660  -4.255  1.00  0.00     0.000 C 
BRANCH   3   4
ATOM      4  C   UNL     1      -3.081  14.243  -5.732  1.00  0.00     0.006 C 
BRANCH   4   5
ATOM      5  C   UNL     1      -3.144  12.721  -5.911  1.00  0.00     0.053 C 
BRANCH   5   6
ATOM      6  C   UNL     1      -2.395  12.001  -4.833  1.00  0.00     0.041 C 
ATOM      7  O   UNL     1      -2.960  11.092  -4.167  1.00  0.00    -0.550 OA
ATOM      8  O   UNL     1      -1.065  12.311  -4.580  1.00  0.00    -0.550 OA
ENDBRANCH   5   6
ENDBRANCH   4   5
ENDBRANCH   3   4
ENDBRANCH   2   3
ENDBRANCH   1   2
BRANCH   1   9
ATOM      9  C   UNL     1      -1.498  17.508  -5.528  1.00  0.00     0.000 C 
BRANCH   9  10
ATOM     10  C   UNL     1      -0.307  18.477  -5.459  1.00  0.00    -0.000 C 
BRANCH  10  11
ATOM     11  C   UNL     1       0.759  18.030  -4.448  1.00  0.00    -0.000 C 
BRANCH  11  12
ATOM     12  C   UNL     1       2.167  18.386  -4.941  1.00  0.00    -0.000 C 
BRANCH  12  13
ATOM     13  C   UNL     1       3.099  17.171  -4.865  1.00  0.00    -0.003 C 
ATOM     14  C   UNL     1       2.528  15.989  -5.643  1.00  0.00     0.004 C 
ENDBRANCH  12  13
ENDBRANCH  11  12
ENDBRANCH  10  11
ENDBRANCH   9  10
ENDBRANCH   1   9
TORSDOF 10
ENDMDL
MODEL 7
REMARK VINA RESULT:    -3.285      2.968      5.153
REMARK INTER + INTRA:          -6.180
REMARK INTER:                  -5.418
REMARK INTRA:                  -0.762
REMARK UNBOUND:                -0.974
REMARK SMILES CCCCCCCCCCCC(=O)[O-]
REMARK SMILES IDX 7 1 8 2 9 3 10 4 11 5 12 6 13 7 14 8 6 9 5 10 4 11 3 12 2 13
REMARK SMILES IDX 1 14
REMARK H PARENT
REMARK Flexibility Score: inf
ROOT
ATOM      1  C   UNL     1      -2.985  17.505  -6.123  1.00  0.00     0.000 C 
ENDROOT
BRANCH   1   2
ATOM      2  C   UNL     1      -2.026  18.600  -5.622  1.00  0.00     0.000 C 
BRANCH   2   3
ATOM      3  C   UNL     1      -0.540  18.357  -5.941  1.00  0.00     0.000 C 
BRANCH   3   4
ATOM      4  C   UNL     1       0.329  18.218  -4.678  1.00  0.00     0.006 C 
BRANCH   4   5
ATOM      5  C   UNL     1       1.138  16.914  -4.671  1.00  0.00     0.053 C 
BRANCH   5   6
ATOM      6  C   UNL     1       2.583  17.152  -4.981  1.00  0.00     0.041 C 
ATOM      7  O   UNL     1       3.066  18.312  -4.897  1.00  0.00    -0.550 OA
ATOM      8  O   UNL     1       3.405  16.089  -5.335  1.00  0.00    -0.550 OA
ENDBRANCH   5   6
ENDBRANCH   4   5
ENDBRANCH   3   4
ENDBRANCH   2   3
ENDBRANCH   1   2
BRANCH   1   9
ATOM      9  C   UNL     1      -2.428  16.085  -5.923  1.00  0.00     0.000 C 
BRANCH   9  10
ATOM     10  C   UNL     1      -2.432  15.652  -4.448  1.00  0.00    -0.000 C 
BRANCH  10  11
ATOM     11  C   UNL     1      -3.358  14.456  -4.187  1.00  0.00    -0.000 C 
BRANCH  11  12
ATOM     12  C   UNL     1      -3.265  13.430  -5.323  1.00  0.00    -0.000 C 
BRANCH  12  13
ATOM     13  C   UNL     1      -2.133  12.428  -5.066  1.00  0.00    -0.003 C 
ATOM     14  C   UNL     1      -2.662  11.158  -4.406  1.00  0.00     0.004 C 
ENDBRANCH  12  13
ENDBRANCH  11  12
ENDBRANCH  10  11
ENDBRANCH   9  10
ENDBRANCH   1   9
TORSDOF 10
ENDMDL
MODEL 8
REMARK VINA RESULT:    -3.280      1.254      2.234
REMARK INTER + INTRA:          -6.171
REMARK INTER:                  -5.180
REMARK INTRA:                  -0.991
REMARK UNBOUND:                -0.974
REMARK SMILES CCCCCCCCCCCC(=O)[O-]
REMARK SMILES IDX 7 1 8 2 9 3 10 4 11 5 12 6 13 7 14 8 6 9 5 10 4 11 3 12 2 13
REMARK SMILES IDX 1 14
REMARK H PARENT
REMARK Flexibility Score: inf
ROOT
ATOM      1  C   UNL     1      -2.964  15.552  -6.037  1.00  0.00     0.000 C 
ENDROOT
BRANCH   1   2
ATOM      2  C   UNL     1      -3.113  14.408  -5.019  1.00  0.00     0.000 C 
BRANCH   2   3
ATOM      3  C   UNL     1      -3.070  12.992  -5.622  1.00  0.00     0.000 C 
BRANCH   3   4
ATOM      4  C   UNL     1      -2.021  12.086  -4.952  1.00  0.00     0.006 C 
BRANCH   4   5
ATOM      5  C   UNL     1      -1.192  12.837  -3.902  1.00  0.00     0.053 C 
BRANCH   5   6
ATOM      6  C   UNL     1       0.262  12.490  -3.987  1.00  0.00     0.041 C 
ATOM      7  O   UNL     1       1.031  13.160  -4.726  1.00  0.00    -0.550 OA
ATOM      8  O   UNL     1       0.776  11.446  -3.229  1.00  0.00    -0.550 OA
ENDBRANCH   5   6
ENDBRANCH   4   5
ENDBRANCH   3   4
ENDBRANCH   2   3
ENDBRANCH   1   2
BRANCH   1   9
ATOM      9  C   UNL     1      -2.464  16.859  -5.398  1.00  0.00     0.000 C 
BRANCH   9  10
ATOM     10  C   UNL     1      -0.949  17.057  -5.567  1.00  0.00    -0.000 C 
BRANCH  10  11
ATOM     11  C   UNL     1      -0.256  17.454  -4.256  1.00  0.00    -0.000 C 
BRANCH  11  12
ATOM     12  C   UNL     1       0.040  16.220  -3.396  1.00  0.00    -0.000 C 
BRANCH  12  13
ATOM     13  C   UNL     1      -0.859  16.186  -2.155  1.00  0.00    -0.003 C 
ATOM     14  C   UNL     1      -0.050  15.883  -0.897  1.00  0.00     0.004 C 
ENDBRANCH  12  13
ENDBRANCH  11  12
ENDBRANCH  10  11
ENDBRANCH   9  10
ENDBRANCH   1   9
TORSDOF 10
ENDMDL
MODEL 9
REMARK VINA RESULT:    -3.276      5.028      6.721
REMARK INTER + INTRA:          -6.165
REMARK INTER:                  -5.667
REMARK INTRA:                  -0.498
REMARK UNBOUND:                -0.974
REMARK SMILES CCCCCCCCCCCC(=O)[O-]
REMARK SMILES IDX 7 1 8 2 9 3 10 4 11 5 12 6 13 7 14 8 6 9 5 10 4 11 3 12 2 13
REMARK SMILES IDX 1 14
REMARK H PARENT
REMARK Flexibility Score: inf
ROOT
ATOM      1  C   UNL     1       0.061  11.849  -3.509  1.00  0.00     0.000 C 
ENDROOT
BRANCH   1   2
ATOM      2  C   UNL     1       1.274  11.128  -2.894  1.00  0.00     0.000 C 
BRANCH   2   3
ATOM      3  C   UNL     1       0.984  10.370  -1.585  1.00  0.00     0.000 C 
BRANCH   3   4
ATOM      4  C   UNL     1       2.093   9.371  -1.212  1.00  0.00     0.006 C 
BRANCH   4   5
ATOM      5  C   UNL     1       1.542   8.139  -0.482  1.00  0.00     0.053 C 
BRANCH   5   6
ATOM      6  C   UNL     1       2.324   7.829   0.757  1.00  0.00     0.041 C 
ATOM      7  O   UNL     1       1.907   6.960   1.568  1.00  0.00    -0.550 OA
ATOM      8  O   UNL     1       3.527   8.478   1.004  1.00  0.00    -0.550 OA
ENDBRANCH   5   6
ENDBRANCH   4   5
ENDBRANCH   3   4
ENDBRANCH   2   3
ENDBRANCH   1   2
BRANCH   1   9
ATOM      9  C   UNL     1       0.455  13.098  -4.317  1.00  0.00     0.000 C 
BRANCH   9  10
ATOM     10  C   UNL     1      -0.345  14.344  -3.905  1.00  0.00    -0.000 C 
BRANCH  10  11
ATOM     11  C   UNL     1      -1.151  14.939  -5.068  1.00  0.00    -0.000 C 
BRANCH  11  12
ATOM     12  C   UNL     1      -2.650  14.663  -4.895  1.00  0.00    -0.000 C 
BRANCH  12  13
ATOM     13  C   UNL     1      -3.094  13.479  -5.762  1.00  0.00    -0.003 C 
ATOM     14  C   UNL     1      -3.166  12.193  -4.944  1.00  0.00     0.004 C 
ENDBRANCH  12  13
ENDBRANCH  11  12
ENDBRANCH  10  11
ENDBRANCH   9  10
ENDBRANCH   1   9
TORSDOF 10
ENDMDL
