MODEL 1
REMARK VINA RESULT:    -4.476      0.000      0.000
REMARK INTER + INTRA:          -5.237
REMARK INTER:                  -5.261
REMARK INTRA:                   0.024
REMARK UNBOUND:                 0.024
REMARK SMILES O=c1c(O)c(-c2ccc(O)cc2)oc2cc(O)cc(O)c12
REMARK SMILES IDX 5 1 3 2 2 3 1 4 21 5 19 6 18 7 16 8 15 9 14 10 13 11 6 12
REMARK SMILES IDX 7 13 8 14 9 15 12 16 11 17 10 18 4 20 20 22 17 24
REMARK H PARENT 10 19 4 21 20 23 17 25
REMARK Flexibility Score: inf
ROOT
ATOM      1  C   UNL     1      22.030  44.576  30.043  1.00  0.00     0.180 A 
ATOM      2  C   UNL     1      22.475  45.263  28.901  1.00  0.00     0.208 A 
ATOM      3  C   UNL     1      22.516  44.586  27.671  1.00  0.00     0.238 A 
ATOM      4  O   UNL     1      22.865  45.221  26.642  1.00  0.00    -0.285 OA
ATOM      5  C   UNL     1      22.127  43.226  27.603  1.00  0.00     0.111 A 
ATOM      6  C   UNL     1      22.166  42.430  26.419  1.00  0.00     0.134 A 
ATOM      7  C   UNL     1      21.635  41.135  26.439  1.00  0.00     0.093 A 
ATOM      8  C   UNL     1      21.124  40.585  27.618  1.00  0.00     0.123 A 
ATOM      9  C   UNL     1      21.136  41.333  28.792  1.00  0.00     0.094 A 
ATOM     10  C   UNL     1      21.627  42.640  28.795  1.00  0.00     0.146 A 
ATOM     11  O   UNL     1      21.610  43.322  29.935  1.00  0.00    -0.452 OA
ENDROOT
BRANCH   1  12
ATOM     12  C   UNL     1      21.983  45.216  31.378  1.00  0.00     0.021 A 
ATOM     13  C   UNL     1      23.125  45.866  31.875  1.00  0.00     0.016 A 
ATOM     14  C   UNL     1      23.095  46.495  33.123  1.00  0.00     0.047 A 
ATOM     15  C   UNL     1      21.922  46.497  33.883  1.00  0.00     0.115 A 
ATOM     16  C   UNL     1      20.800  45.237  32.139  1.00  0.00     0.016 A 
ATOM     17  C   UNL     1      20.773  45.869  33.387  1.00  0.00     0.047 A 
BRANCH  15  18
ATOM     18  O   UNL     1      21.907  47.126  35.125  1.00  0.00    -0.508 OA
ATOM     19  H   UNL     1      22.755  47.488  35.546  1.00  0.00     0.293 HD
ENDBRANCH  15  18
ENDBRANCH   1  12
BRANCH   2  20
ATOM     20  O   UNL     1      22.834  46.611  28.986  1.00  0.00    -0.502 OA
ATOM     21  H   UNL     1      23.727  46.959  28.657  1.00  0.00     0.293 HD
ENDBRANCH   2  20
BRANCH   6  22
ATOM     22  O   UNL     1      22.738  42.851  25.214  1.00  0.00    -0.507 OA
ATOM     23  H   UNL     1      22.375  42.633  24.298  1.00  0.00     0.293 HD
ENDBRANCH   6  22
BRANCH   8  24
ATOM     24  O   UNL     1      20.611  39.290  27.633  1.00  0.00    -0.508 OA
ATOM     25  H   UNL     1      21.218  38.479  27.606  1.00  0.00     0.293 HD
ENDBRANCH   8  24
TORSDOF 5
ENDMDL
MODEL 2
REMARK VINA RESULT:    -3.671      1.132      3.087
REMARK INTER + INTRA:          -4.291
REMARK INTER:                  -4.237
REMARK INTRA:                  -0.054
REMARK UNBOUND:                 0.024
REMARK SMILES O=c1c(O)c(-c2ccc(O)cc2)oc2cc(O)cc(O)c12
REMARK SMILES IDX 5 1 3 2 2 3 1 4 21 5 19 6 18 7 16 8 15 9 14 10 13 11 6 12
REMARK SMILES IDX 7 13 8 14 9 15 12 16 11 17 10 18 4 20 20 22 17 24
REMARK H PARENT 10 19 4 21 20 23 17 25
REMARK Flexibility Score: inf
ROOT
ATOM      1  C   UNL     1      21.724  43.845  30.429  1.00  0.00     0.180 A 
ATOM      2  C   UNL     1      21.268  42.527  30.597  1.00  0.00     0.208 A 
ATOM      3  C   UNL     1      21.178  41.689  29.473  1.00  0.00     0.238 A 
ATOM      4  O   UNL     1      20.821  40.494  29.637  1.00  0.00    -0.285 OA
ATOM      5  C   UNL     1      21.528  42.187  28.194  1.00  0.00     0.111 A 
ATOM      6  C   UNL     1      21.437  41.440  26.981  1.00  0.00     0.134 A 
ATOM      7  C   UNL     1      21.933  41.989  25.793  1.00  0.00     0.093 A 
ATOM      8  C   UNL     1      22.458  43.284  25.762  1.00  0.00     0.123 A 
ATOM      9  C   UNL     1      22.497  44.042  26.930  1.00  0.00     0.094 A 
ATOM     10  C   UNL     1      22.042  43.508  28.137  1.00  0.00     0.146 A 
ATOM     11  O   UNL     1      22.107  44.262  29.229  1.00  0.00    -0.452 OA
ENDROOT
BRANCH   1  12
ATOM     12  C   UNL     1      21.823  44.795  31.562  1.00  0.00     0.021 A 
ATOM     13  C   UNL     1      20.678  45.083  32.324  1.00  0.00     0.016 A 
ATOM     14  C   UNL     1      20.754  45.959  33.412  1.00  0.00     0.047 A 
ATOM     15  C   UNL     1      21.975  46.544  33.761  1.00  0.00     0.115 A 
ATOM     16  C   UNL     1      23.051  45.372  31.930  1.00  0.00     0.016 A 
ATOM     17  C   UNL     1      23.124  46.246  33.019  1.00  0.00     0.047 A 
BRANCH  15  18
ATOM     18  O   UNL     1      22.035  47.415  34.845  1.00  0.00    -0.508 OA
ATOM     19  H   UNL     1      22.322  47.099  35.764  1.00  0.00     0.293 HD
ENDBRANCH  15  18
ENDBRANCH   1  12
BRANCH   2  20
ATOM     20  O   UNL     1      20.949  42.049  31.870  1.00  0.00    -0.502 OA
ATOM     21  H   UNL     1      21.655  41.748  32.532  1.00  0.00     0.293 HD
ENDBRANCH   2  20
BRANCH   6  22
ATOM     22  O   UNL     1      20.847  40.176  26.885  1.00  0.00    -0.507 OA
ATOM     23  H   UNL     1      20.212  39.891  26.154  1.00  0.00     0.293 HD
ENDBRANCH   6  22
BRANCH   8  24
ATOM     24  O   UNL     1      22.936  43.829  24.572  1.00  0.00    -0.508 OA
ATOM     25  H   UNL     1      23.907  44.095  24.463  1.00  0.00     0.293 HD
ENDBRANCH   8  24
TORSDOF 5
ENDMDL
MODEL 3
REMARK VINA RESULT:    -2.336      2.058      2.785
REMARK INTER + INTRA:          -2.721
REMARK INTER:                  -3.002
REMARK INTRA:                   0.280
REMARK UNBOUND:                 0.024
REMARK SMILES O=c1c(O)c(-c2ccc(O)cc2)oc2cc(O)cc(O)c12
REMARK SMILES IDX 5 1 3 2 2 3 1 4 21 5 19 6 18 7 16 8 15 9 14 10 13 11 6 12
REMARK SMILES IDX 7 13 8 14 9 15 12 16 11 17 10 18 4 20 20 22 17 24
REMARK H PARENT 10 19 4 21 20 23 17 25
REMARK Flexibility Score: inf
ROOT
ATOM      1  C   UNL     1      22.454  45.441  28.434  1.00  0.00     0.180 A 
ATOM      2  C   UNL     1      22.630  46.652  27.744  1.00  0.00     0.208 A 
ATOM      3  C   UNL     1      22.720  46.631  26.343  1.00  0.00     0.238 A 
ATOM      4  O   UNL     1      22.824  47.724  25.727  1.00  0.00    -0.285 OA
ATOM      5  C   UNL     1      22.649  45.398  25.651  1.00  0.00     0.111 A 
ATOM      6  C   UNL     1      22.769  45.255  24.236  1.00  0.00     0.134 A 
ATOM      7  C   UNL     1      22.553  44.002  23.647  1.00  0.00     0.093 A 
ATOM      8  C   UNL     1      22.285  42.876  24.430  1.00  0.00     0.123 A 
ATOM      9  C   UNL     1      22.226  42.996  25.816  1.00  0.00     0.094 A 
ATOM     10  C   UNL     1      22.401  44.238  26.429  1.00  0.00     0.146 A 
ATOM     11  O   UNL     1      22.326  44.308  27.753  1.00  0.00    -0.452 OA
ENDROOT
BRANCH   1  12
ATOM     12  C   UNL     1      22.376  45.380  29.912  1.00  0.00     0.021 A 
ATOM     13  C   UNL     1      23.125  46.285  30.682  1.00  0.00     0.016 A 
ATOM     14  C   UNL     1      23.048  46.259  32.078  1.00  0.00     0.047 A 
ATOM     15  C   UNL     1      22.212  45.341  32.721  1.00  0.00     0.115 A 
ATOM     16  C   UNL     1      21.522  44.471  30.563  1.00  0.00     0.016 A 
ATOM     17  C   UNL     1      21.447  44.449  31.960  1.00  0.00     0.047 A 
BRANCH  15  18
ATOM     18  O   UNL     1      22.147  45.327  34.112  1.00  0.00    -0.508 OA
ATOM     19  H   UNL     1      21.714  46.082  34.630  1.00  0.00     0.293 HD
ENDBRANCH  15  18
ENDBRANCH   1  12
BRANCH   2  20
ATOM     20  O   UNL     1      22.676  47.860  28.445  1.00  0.00    -0.502 OA
ATOM     21  H   UNL     1      22.689  48.760  27.978  1.00  0.00     0.293 HD
ENDBRANCH   2  20
BRANCH   6  22
ATOM     22  O   UNL     1      23.123  46.296  23.373  1.00  0.00    -0.507 OA
ATOM     23  H   UNL     1      22.471  46.939  22.948  1.00  0.00     0.293 HD
ENDBRANCH   6  22
BRANCH   8  24
ATOM     24  O   UNL     1      22.087  41.631  23.838  1.00  0.00    -0.508 OA
ATOM     25  H   UNL     1      21.370  40.996  24.167  1.00  0.00     0.293 HD
ENDBRANCH   8  24
TORSDOF 5
ENDMDL
