MODEL 1
REMARK VINA RESULT:    -4.844      0.000      0.000
REMARK INTER + INTRA:         -15.671
REMARK INTER:                 -12.207
REMARK INTRA:                  -3.463
REMARK UNBOUND:                -3.463
REMARK SMILES CCCCCCCCCCCCCCCCCCCCCCCCCCCC(=O)[O-]
REMARK SMILES IDX 15 1 16 2 17 3 18 4 19 5 20 6 21 7 22 8 23 9 24 10 25 11
REMARK SMILES IDX 26 12 27 13 28 14 29 15 30 16 14 17 13 18 12 19 11 20 10 21
REMARK SMILES IDX 9 22 8 23 7 24 6 25 5 26 4 27 3 28 2 29 1 30
REMARK H PARENT
REMARK Flexibility Score: inf
ROOT
ATOM      1  C   UNL     1     -22.913  -0.254  25.783  1.00  0.00     0.000 C 
ENDROOT
BRANCH   1   2
ATOM      2  C   UNL     1     -21.750   0.740  25.631  1.00  0.00     0.000 C 
BRANCH   2   3
ATOM      3  C   UNL     1     -20.408   0.081  25.984  1.00  0.00     0.000 C 
BRANCH   3   4
ATOM      4  C   UNL     1     -19.485   1.013  26.786  1.00  0.00     0.000 C 
BRANCH   4   5
ATOM      5  C   UNL     1     -20.141   1.526  28.080  1.00  0.00     0.000 C 
BRANCH   5   6
ATOM      6  C   UNL     1     -19.968   0.558  29.263  1.00  0.00     0.000 C 
BRANCH   6   7
ATOM      7  C   UNL     1     -18.859  -0.497  29.088  1.00  0.00     0.000 C 
BRANCH   7   8
ATOM      8  C   UNL     1     -19.152  -1.803  29.849  1.00  0.00     0.000 C 
BRANCH   8   9
ATOM      9  C   UNL     1     -17.895  -2.400  30.503  1.00  0.00     0.000 C 
BRANCH   9  10
ATOM     10  C   UNL     1     -17.763  -2.007  31.986  1.00  0.00     0.000 C 
BRANCH  10  11
ATOM     11  C   UNL     1     -16.679  -0.942  32.220  1.00  0.00     0.000 C 
BRANCH  11  12
ATOM     12  C   UNL     1     -15.501  -1.072  31.237  1.00  0.00     0.006 C 
BRANCH  12  13
ATOM     13  C   UNL     1     -14.266  -0.291  31.704  1.00  0.00     0.053 C 
BRANCH  13  14
ATOM     14  C   UNL     1     -13.552   0.360  30.560  1.00  0.00     0.041 C 
ATOM     15  O   UNL     1     -12.395  -0.017  30.237  1.00  0.00    -0.550 OA
ATOM     16  O   UNL     1     -14.182   1.350  29.819  1.00  0.00    -0.550 OA
ENDBRANCH  13  14
ENDBRANCH  12  13
ENDBRANCH  11  12
ENDBRANCH  10  11
ENDBRANCH   9  10
ENDBRANCH   8   9
ENDBRANCH   7   8
ENDBRANCH   6   7
ENDBRANCH   5   6
ENDBRANCH   4   5
ENDBRANCH   3   4
ENDBRANCH   2   3
ENDBRANCH   1   2
BRANCH   1  17
ATOM     17  C   UNL     1     -23.899   0.146  26.896  1.00  0.00     0.000 C 
BRANCH  17  18
ATOM     18  C   UNL     1     -23.533  -0.362  28.305  1.00  0.00     0.000 C 
BRANCH  18  19
ATOM     19  C   UNL     1     -23.164  -1.857  28.387  1.00  0.00     0.000 C 
BRANCH  19  20
ATOM     20  C   UNL     1     -22.712  -2.335  29.778  1.00  0.00     0.000 C 
BRANCH  20  21
ATOM     21  C   UNL     1     -23.668  -3.374  30.392  1.00  0.00     0.000 C 
BRANCH  21  22
ATOM     22  C   UNL     1     -22.966  -4.289  31.417  1.00  0.00    -0.000 C 
BRANCH  22  23
ATOM     23  C   UNL     1     -21.430  -4.161  31.426  1.00  0.00    -0.000 C 
BRANCH  23  24
ATOM     24  C   UNL     1     -20.677  -5.308  30.733  1.00  0.00    -0.000 C 
BRANCH  24  25
ATOM     25  C   UNL     1     -21.606  -6.225  29.923  1.00  0.00    -0.000 C 
BRANCH  25  26
ATOM     26  C   UNL     1     -21.593  -7.656  30.484  1.00  0.00    -0.000 C 
BRANCH  26  27
ATOM     27  C   UNL     1     -21.156  -7.707  31.958  1.00  0.00    -0.000 C 
BRANCH  27  28
ATOM     28  C   UNL     1     -22.312  -8.060  32.905  1.00  0.00    -0.000 C 
BRANCH  28  29
ATOM     29  C   UNL     1     -21.870  -7.969  34.370  1.00  0.00    -0.003 C 
ATOM     30  C   UNL     1     -20.706  -6.996  34.533  1.00  0.00     0.004 C 
ENDBRANCH  28  29
ENDBRANCH  27  28
ENDBRANCH  26  27
ENDBRANCH  25  26
ENDBRANCH  24  25
ENDBRANCH  23  24
ENDBRANCH  22  23
ENDBRANCH  21  22
ENDBRANCH  20  21
ENDBRANCH  19  20
ENDBRANCH  18  19
ENDBRANCH  17  18
ENDBRANCH   1  17
TORSDOF 26
ENDMDL
MODEL 2
REMARK VINA RESULT:    -4.669      3.134      7.378
REMARK INTER + INTRA:         -15.229
REMARK INTER:                 -11.669
REMARK INTRA:                  -3.559
REMARK UNBOUND:                -3.463
REMARK SMILES CCCCCCCCCCCCCCCCCCCCCCCCCCCC(=O)[O-]
REMARK SMILES IDX 15 1 16 2 17 3 18 4 19 5 20 6 21 7 22 8 23 9 24 10 25 11
REMARK SMILES IDX 26 12 27 13 28 14 29 15 30 16 14 17 13 18 12 19 11 20 10 21
REMARK SMILES IDX 9 22 8 23 7 24 6 25 5 26 4 27 3 28 2 29 1 30
REMARK H PARENT
REMARK Flexibility Score: inf
ROOT
ATOM      1  C   UNL     1     -21.167   0.098  25.996  1.00  0.00     0.000 C 
ENDROOT
BRANCH   1   2
ATOM      2  C   UNL     1     -22.577   0.413  26.520  1.00  0.00     0.000 C 
BRANCH   2   3
ATOM      3  C   UNL     1     -22.943  -0.493  27.705  1.00  0.00     0.000 C 
BRANCH   3   4
ATOM      4  C   UNL     1     -23.515  -1.848  27.256  1.00  0.00     0.000 C 
BRANCH   4   5
ATOM      5  C   UNL     1     -23.684  -2.836  28.425  1.00  0.00     0.000 C 
BRANCH   5   6
ATOM      6  C   UNL     1     -23.339  -2.213  29.789  1.00  0.00     0.000 C 
BRANCH   6   7
ATOM      7  C   UNL     1     -23.531  -3.144  31.001  1.00  0.00     0.000 C 
BRANCH   7   8
ATOM      8  C   UNL     1     -22.237  -3.872  31.406  1.00  0.00     0.000 C 
BRANCH   8   9
ATOM      9  C   UNL     1     -22.337  -4.525  32.795  1.00  0.00     0.000 C 
BRANCH   9  10
ATOM     10  C   UNL     1     -21.386  -5.727  32.948  1.00  0.00     0.000 C 
BRANCH  10  11
ATOM     11  C   UNL     1     -21.915  -6.991  32.252  1.00  0.00     0.000 C 
BRANCH  11  12
ATOM     12  C   UNL     1     -21.000  -7.462  31.107  1.00  0.00     0.006 C 
BRANCH  12  13
ATOM     13  C   UNL     1     -21.795  -7.895  29.868  1.00  0.00     0.053 C 
BRANCH  13  14
ATOM     14  C   UNL     1     -22.524  -6.745  29.243  1.00  0.00     0.041 C 
ATOM     15  O   UNL     1     -23.729  -6.526  29.531  1.00  0.00    -0.550 OA
ATOM     16  O   UNL     1     -21.857  -5.887  28.379  1.00  0.00    -0.550 OA
ENDBRANCH  13  14
ENDBRANCH  12  13
ENDBRANCH  11  12
ENDBRANCH  10  11
ENDBRANCH   9  10
ENDBRANCH   8   9
ENDBRANCH   7   8
ENDBRANCH   6   7
ENDBRANCH   5   6
ENDBRANCH   4   5
ENDBRANCH   3   4
ENDBRANCH   2   3
ENDBRANCH   1   2
BRANCH   1  17
ATOM     17  C   UNL     1     -20.089   1.028  26.585  1.00  0.00     0.000 C 
BRANCH  17  18
ATOM     18  C   UNL     1     -18.779   0.327  26.997  1.00  0.00     0.000 C 
BRANCH  18  19
ATOM     19  C   UNL     1     -18.446   0.391  28.500  1.00  0.00     0.000 C 
BRANCH  19  20
ATOM     20  C   UNL     1     -19.657   0.235  29.437  1.00  0.00     0.000 C 
BRANCH  20  21
ATOM     21  C   UNL     1     -19.998  -1.238  29.729  1.00  0.00     0.000 C 
BRANCH  21  22
ATOM     22  C   UNL     1     -18.857  -2.198  29.333  1.00  0.00    -0.000 C 
BRANCH  22  23
ATOM     23  C   UNL     1     -18.582  -3.308  30.367  1.00  0.00    -0.000 C 
BRANCH  23  24
ATOM     24  C   UNL     1     -18.424  -2.822  31.817  1.00  0.00    -0.000 C 
BRANCH  24  25
ATOM     25  C   UNL     1     -16.957  -2.586  32.208  1.00  0.00    -0.000 C 
BRANCH  25  26
ATOM     26  C   UNL     1     -16.625  -1.086  32.220  1.00  0.00    -0.000 C 
BRANCH  26  27
ATOM     27  C   UNL     1     -15.662  -0.686  31.090  1.00  0.00    -0.000 C 
BRANCH  27  28
ATOM     28  C   UNL     1     -14.343  -0.101  31.616  1.00  0.00    -0.000 C 
BRANCH  28  29
ATOM     29  C   UNL     1     -13.422   0.304  30.460  1.00  0.00    -0.003 C 
ATOM     30  C   UNL     1     -13.950   1.544  29.744  1.00  0.00     0.004 C 
ENDBRANCH  28  29
ENDBRANCH  27  28
ENDBRANCH  26  27
ENDBRANCH  25  26
ENDBRANCH  24  25
ENDBRANCH  23  24
ENDBRANCH  22  23
ENDBRANCH  21  22
ENDBRANCH  20  21
ENDBRANCH  19  20
ENDBRANCH  18  19
ENDBRANCH  17  18
ENDBRANCH   1  17
TORSDOF 26
ENDMDL
MODEL 3
REMARK VINA RESULT:    -4.623      2.921      7.463
REMARK INTER + INTRA:         -15.112
REMARK INTER:                 -11.485
REMARK INTRA:                  -3.627
REMARK UNBOUND:                -3.463
REMARK SMILES CCCCCCCCCCCCCCCCCCCCCCCCCCCC(=O)[O-]
REMARK SMILES IDX 15 1 16 2 17 3 18 4 19 5 20 6 21 7 22 8 23 9 24 10 25 11
REMARK SMILES IDX 26 12 27 13 28 14 29 15 30 16 14 17 13 18 12 19 11 20 10 21
REMARK SMILES IDX 9 22 8 23 7 24 6 25 5 26 4 27 3 28 2 29 1 30
REMARK H PARENT
REMARK Flexibility Score: inf
ROOT
ATOM      1  C   UNL     1     -19.480   0.256  26.533  1.00  0.00     0.000 C 
ENDROOT
BRANCH   1   2
ATOM      2  C   UNL     1     -20.915   0.800  26.621  1.00  0.00     0.000 C 
BRANCH   2   3
ATOM      3  C   UNL     1     -21.915  -0.169  25.972  1.00  0.00     0.000 C 
BRANCH   3   4
ATOM      4  C   UNL     1     -23.349   0.026  26.492  1.00  0.00     0.000 C 
BRANCH   4   5
ATOM      5  C   UNL     1     -23.390   0.443  27.973  1.00  0.00     0.000 C 
BRANCH   5   6
ATOM      6  C   UNL     1     -23.952  -0.659  28.889  1.00  0.00     0.000 C 
BRANCH   6   7
ATOM      7  C   UNL     1     -23.132  -0.930  30.165  1.00  0.00     0.000 C 
BRANCH   7   8
ATOM      8  C   UNL     1     -23.540  -2.236  30.871  1.00  0.00     0.000 C 
BRANCH   8   9
ATOM      9  C   UNL     1     -23.747  -3.399  29.886  1.00  0.00     0.000 C 
BRANCH   9  10
ATOM     10  C   UNL     1     -22.443  -3.804  29.175  1.00  0.00     0.000 C 
BRANCH  10  11
ATOM     11  C   UNL     1     -22.054  -5.267  29.443  1.00  0.00     0.000 C 
BRANCH  11  12
ATOM     12  C   UNL     1     -20.998  -5.404  30.553  1.00  0.00     0.006 C 
BRANCH  12  13
ATOM     13  C   UNL     1     -21.565  -6.066  31.816  1.00  0.00     0.053 C 
BRANCH  13  14
ATOM     14  C   UNL     1     -21.697  -5.091  32.946  1.00  0.00     0.041 C 
ATOM     15  O   UNL     1     -22.817  -4.895  33.486  1.00  0.00    -0.550 OA
ATOM     16  O   UNL     1     -20.576  -4.435  33.433  1.00  0.00    -0.550 OA
ENDBRANCH  13  14
ENDBRANCH  12  13
ENDBRANCH  11  12
ENDBRANCH  10  11
ENDBRANCH   9  10
ENDBRANCH   8   9
ENDBRANCH   7   8
ENDBRANCH   6   7
ENDBRANCH   5   6
ENDBRANCH   4   5
ENDBRANCH   3   4
ENDBRANCH   2   3
ENDBRANCH   1   2
BRANCH   1  17
ATOM     17  C   UNL     1     -18.516   0.955  27.510  1.00  0.00     0.000 C 
BRANCH  17  18
ATOM     18  C   UNL     1     -18.225   0.174  28.808  1.00  0.00     0.000 C 
BRANCH  18  19
ATOM     19  C   UNL     1     -19.466  -0.187  29.648  1.00  0.00     0.000 C 
BRANCH  19  20
ATOM     20  C   UNL     1     -19.621  -1.686  29.958  1.00  0.00     0.000 C 
BRANCH  20  21
ATOM     21  C   UNL     1     -18.457  -2.533  29.410  1.00  0.00     0.000 C 
BRANCH  21  22
ATOM     22  C   UNL     1     -17.508  -3.022  30.525  1.00  0.00    -0.000 C 
BRANCH  22  23
ATOM     23  C   UNL     1     -17.914  -2.567  31.941  1.00  0.00    -0.000 C 
BRANCH  23  24
ATOM     24  C   UNL     1     -17.255  -1.264  32.421  1.00  0.00    -0.000 C 
BRANCH  24  25
ATOM     25  C   UNL     1     -15.734  -1.254  32.205  1.00  0.00    -0.000 C 
BRANCH  25  26
ATOM     26  C   UNL     1     -15.333  -0.202  31.160  1.00  0.00    -0.000 C 
BRANCH  26  27
ATOM     27  C   UNL     1     -13.810  -0.006  31.075  1.00  0.00    -0.000 C 
BRANCH  27  28
ATOM     28  C   UNL     1     -13.384   0.788  29.831  1.00  0.00    -0.000 C 
BRANCH  28  29
ATOM     29  C   UNL     1     -14.084   2.151  29.783  1.00  0.00    -0.003 C 
ATOM     30  C   UNL     1     -14.861   2.324  28.481  1.00  0.00     0.004 C 
ENDBRANCH  28  29
ENDBRANCH  27  28
ENDBRANCH  26  27
ENDBRANCH  25  26
ENDBRANCH  24  25
ENDBRANCH  23  24
ENDBRANCH  22  23
ENDBRANCH  21  22
ENDBRANCH  20  21
ENDBRANCH  19  20
ENDBRANCH  18  19
ENDBRANCH  17  18
ENDBRANCH   1  17
TORSDOF 26
ENDMDL
MODEL 4
REMARK VINA RESULT:    -4.571      3.271      8.495
REMARK INTER + INTRA:         -14.982
REMARK INTER:                 -11.983
REMARK INTRA:                  -2.999
REMARK UNBOUND:                -3.463
REMARK SMILES CCCCCCCCCCCCCCCCCCCCCCCCCCCC(=O)[O-]
REMARK SMILES IDX 15 1 16 2 17 3 18 4 19 5 20 6 21 7 22 8 23 9 24 10 25 11
REMARK SMILES IDX 26 12 27 13 28 14 29 15 30 16 14 17 13 18 12 19 11 20 10 21
REMARK SMILES IDX 9 22 8 23 7 24 6 25 5 26 4 27 3 28 2 29 1 30
REMARK H PARENT
REMARK Flexibility Score: inf
ROOT
ATOM      1  C   UNL     1     -15.648  -0.649  30.938  1.00  0.00     0.000 C 
ENDROOT
BRANCH   1   2
ATOM      2  C   UNL     1     -16.511  -0.991  32.163  1.00  0.00     0.000 C 
BRANCH   2   3
ATOM      3  C   UNL     1     -17.753  -1.799  31.757  1.00  0.00     0.000 C 
BRANCH   3   4
ATOM      4  C   UNL     1     -18.371  -1.308  30.437  1.00  0.00     0.000 C 
BRANCH   4   5
ATOM      5  C   UNL     1     -18.802  -2.466  29.518  1.00  0.00     0.000 C 
BRANCH   5   6
ATOM      6  C   UNL     1     -19.855  -3.382  30.166  1.00  0.00     0.000 C 
BRANCH   6   7
ATOM      7  C   UNL     1     -19.742  -4.873  29.795  1.00  0.00     0.000 C 
BRANCH   7   8
ATOM      8  C   UNL     1     -21.097  -5.499  29.419  1.00  0.00     0.000 C 
BRANCH   8   9
ATOM      9  C   UNL     1     -22.138  -5.373  30.543  1.00  0.00     0.000 C 
BRANCH   9  10
ATOM     10  C   UNL     1     -21.699  -6.094  31.832  1.00  0.00     0.000 C 
BRANCH  10  11
ATOM     11  C   UNL     1     -22.601  -5.760  33.031  1.00  0.00     0.000 C 
BRANCH  11  12
ATOM     12  C   UNL     1     -22.303  -6.641  34.258  1.00  0.00     0.006 C 
BRANCH  12  13
ATOM     13  C   UNL     1     -20.871  -7.194  34.242  1.00  0.00     0.053 C 
BRANCH  13  14
ATOM     14  C   UNL     1     -20.019  -6.566  35.302  1.00  0.00     0.041 C 
ATOM     15  O   UNL     1     -19.843  -7.150  36.403  1.00  0.00    -0.550 OA
ATOM     16  O   UNL     1     -19.382  -5.358  35.056  1.00  0.00    -0.550 OA
ENDBRANCH  13  14
ENDBRANCH  12  13
ENDBRANCH  11  12
ENDBRANCH  10  11
ENDBRANCH   9  10
ENDBRANCH   8   9
ENDBRANCH   7   8
ENDBRANCH   6   7
ENDBRANCH   5   6
ENDBRANCH   4   5
ENDBRANCH   3   4
ENDBRANCH   2   3
ENDBRANCH   1   2
BRANCH   1  17
ATOM     17  C   UNL     1     -14.227  -0.192  31.318  1.00  0.00     0.000 C 
BRANCH  17  18
ATOM     18  C   UNL     1     -13.482   0.599  30.224  1.00  0.00     0.000 C 
BRANCH  18  19
ATOM     19  C   UNL     1     -14.020   2.018  29.959  1.00  0.00     0.000 C 
BRANCH  19  20
ATOM     20  C   UNL     1     -14.334   2.324  28.484  1.00  0.00     0.000 C 
BRANCH  20  21
ATOM     21  C   UNL     1     -15.673   3.063  28.300  1.00  0.00     0.000 C 
BRANCH  21  22
ATOM     22  C   UNL     1     -16.605   2.354  27.294  1.00  0.00    -0.000 C 
BRANCH  22  23
ATOM     23  C   UNL     1     -17.471   1.240  27.917  1.00  0.00    -0.000 C 
BRANCH  23  24
ATOM     24  C   UNL     1     -18.960   1.286  27.539  1.00  0.00    -0.000 C 
BRANCH  24  25
ATOM     25  C   UNL     1     -19.392   0.087  26.681  1.00  0.00    -0.000 C 
BRANCH  25  26
ATOM     26  C   UNL     1     -20.779   0.324  26.064  1.00  0.00    -0.000 C 
BRANCH  26  27
ATOM     27  C   UNL     1     -21.807   0.818  27.096  1.00  0.00    -0.000 C 
BRANCH  27  28
ATOM     28  C   UNL     1     -22.866  -0.242  27.430  1.00  0.00    -0.000 C 
BRANCH  28  29
ATOM     29  C   UNL     1     -22.417  -1.117  28.606  1.00  0.00    -0.003 C 
ATOM     30  C   UNL     1     -21.890  -0.263  29.756  1.00  0.00     0.004 C 
ENDBRANCH  28  29
ENDBRANCH  27  28
ENDBRANCH  26  27
ENDBRANCH  25  26
ENDBRANCH  24  25
ENDBRANCH  23  24
ENDBRANCH  22  23
ENDBRANCH  21  22
ENDBRANCH  20  21
ENDBRANCH  19  20
ENDBRANCH  18  19
ENDBRANCH  17  18
ENDBRANCH   1  17
TORSDOF 26
ENDMDL
MODEL 5
REMARK VINA RESULT:    -4.544      2.024      6.107
REMARK INTER + INTRA:         -14.914
REMARK INTER:                 -10.508
REMARK INTRA:                  -4.407
REMARK UNBOUND:                -3.463
REMARK SMILES CCCCCCCCCCCCCCCCCCCCCCCCCCCC(=O)[O-]
REMARK SMILES IDX 15 1 16 2 17 3 18 4 19 5 20 6 21 7 22 8 23 9 24 10 25 11
REMARK SMILES IDX 26 12 27 13 28 14 29 15 30 16 14 17 13 18 12 19 11 20 10 21
REMARK SMILES IDX 9 22 8 23 7 24 6 25 5 26 4 27 3 28 2 29 1 30
REMARK H PARENT
REMARK Flexibility Score: inf
ROOT
ATOM      1  C   UNL     1     -19.989  -5.504  29.426  1.00  0.00     0.000 C 
ENDROOT
BRANCH   1   2
ATOM      2  C   UNL     1     -20.888  -6.499  30.178  1.00  0.00     0.000 C 
BRANCH   2   3
ATOM      3  C   UNL     1     -22.126  -6.865  29.345  1.00  0.00     0.000 C 
BRANCH   3   4
ATOM      4  C   UNL     1     -23.011  -5.646  29.036  1.00  0.00     0.000 C 
BRANCH   4   5
ATOM      5  C   UNL     1     -23.842  -5.194  30.250  1.00  0.00     0.000 C 
BRANCH   5   6
ATOM      6  C   UNL     1     -23.502  -3.764  30.708  1.00  0.00     0.000 C 
BRANCH   6   7
ATOM      7  C   UNL     1     -23.304  -2.743  29.572  1.00  0.00     0.000 C 
BRANCH   7   8
ATOM      8  C   UNL     1     -22.610  -1.453  30.044  1.00  0.00     0.000 C 
BRANCH   8   9
ATOM      9  C   UNL     1     -22.397  -0.446  28.901  1.00  0.00     0.000 C 
BRANCH   9  10
ATOM     10  C   UNL     1     -23.148  -0.847  27.618  1.00  0.00     0.000 C 
BRANCH  10  11
ATOM     11  C   UNL     1     -22.270  -0.739  26.361  1.00  0.00     0.000 C 
BRANCH  11  12
ATOM     12  C   UNL     1     -21.507   0.596  26.285  1.00  0.00     0.006 C 
BRANCH  12  13
ATOM     13  C   UNL     1     -19.986   0.397  26.279  1.00  0.00     0.053 C 
BRANCH  13  14
ATOM     14  C   UNL     1     -19.311   1.215  27.337  1.00  0.00     0.041 C 
ATOM     15  O   UNL     1     -18.059   1.182  27.462  1.00  0.00    -0.550 OA
ATOM     16  O   UNL     1     -20.061   2.050  28.153  1.00  0.00    -0.550 OA
ENDBRANCH  13  14
ENDBRANCH  12  13
ENDBRANCH  11  12
ENDBRANCH  10  11
ENDBRANCH   9  10
ENDBRANCH   8   9
ENDBRANCH   7   8
ENDBRANCH   6   7
ENDBRANCH   5   6
ENDBRANCH   4   5
ENDBRANCH   3   4
ENDBRANCH   2   3
ENDBRANCH   1   2
BRANCH   1  17
ATOM     17  C   UNL     1     -19.872  -4.146  30.142  1.00  0.00     0.000 C 
BRANCH  17  18
ATOM     18  C   UNL     1     -18.652  -3.296  29.732  1.00  0.00     0.000 C 
BRANCH  18  19
ATOM     19  C   UNL     1     -18.971  -1.845  29.324  1.00  0.00     0.000 C 
BRANCH  19  20
ATOM     20  C   UNL     1     -18.554  -0.778  30.351  1.00  0.00     0.000 C 
BRANCH  20  21
ATOM     21  C   UNL     1     -17.197  -1.086  31.012  1.00  0.00     0.000 C 
BRANCH  21  22
ATOM     22  C   UNL     1     -17.313  -1.268  32.541  1.00  0.00    -0.000 C 
BRANCH  22  23
ATOM     23  C   UNL     1     -16.522  -2.471  33.092  1.00  0.00    -0.000 C 
BRANCH  23  24
ATOM     24  C   UNL     1     -17.367  -3.527  33.822  1.00  0.00    -0.000 C 
BRANCH  24  25
ATOM     25  C   UNL     1     -18.855  -3.150  33.896  1.00  0.00    -0.000 C 
BRANCH  25  26
ATOM     26  C   UNL     1     -19.726  -4.392  34.143  1.00  0.00    -0.000 C 
BRANCH  26  27
ATOM     27  C   UNL     1     -20.924  -4.472  33.183  1.00  0.00    -0.000 C 
BRANCH  27  28
ATOM     28  C   UNL     1     -21.986  -5.481  33.646  1.00  0.00    -0.000 C 
BRANCH  28  29
ATOM     29  C   UNL     1     -21.332  -6.749  34.207  1.00  0.00    -0.003 C 
ATOM     30  C   UNL     1     -21.808  -7.991  33.458  1.00  0.00     0.004 C 
ENDBRANCH  28  29
ENDBRANCH  27  28
ENDBRANCH  26  27
ENDBRANCH  25  26
ENDBRANCH  24  25
ENDBRANCH  23  24
ENDBRANCH  22  23
ENDBRANCH  21  22
ENDBRANCH  20  21
ENDBRANCH  19  20
ENDBRANCH  18  19
ENDBRANCH  17  18
ENDBRANCH   1  17
TORSDOF 26
ENDMDL
MODEL 6
REMARK VINA RESULT:    -4.454      3.145      7.803
REMARK INTER + INTRA:         -14.687
REMARK INTER:                 -10.993
REMARK INTRA:                  -3.695
REMARK UNBOUND:                -3.463
REMARK SMILES CCCCCCCCCCCCCCCCCCCCCCCCCCCC(=O)[O-]
REMARK SMILES IDX 15 1 16 2 17 3 18 4 19 5 20 6 21 7 22 8 23 9 24 10 25 11
REMARK SMILES IDX 26 12 27 13 28 14 29 15 30 16 14 17 13 18 12 19 11 20 10 21
REMARK SMILES IDX 9 22 8 23 7 24 6 25 5 26 4 27 3 28 2 29 1 30
REMARK H PARENT
REMARK Flexibility Score: inf
ROOT
ATOM      1  C   UNL     1     -13.372   0.454  30.495  1.00  0.00     0.000 C 
ENDROOT
BRANCH   1   2
ATOM      2  C   UNL     1     -14.167  -0.248  31.607  1.00  0.00     0.000 C 
BRANCH   2   3
ATOM      3  C   UNL     1     -15.590  -0.591  31.139  1.00  0.00     0.000 C 
BRANCH   3   4
ATOM      4  C   UNL     1     -16.408  -1.316  32.220  1.00  0.00     0.000 C 
BRANCH   4   5
ATOM      5  C   UNL     1     -17.716  -1.914  31.671  1.00  0.00     0.000 C 
BRANCH   5   6
ATOM      6  C   UNL     1     -18.296  -1.107  30.496  1.00  0.00     0.000 C 
BRANCH   6   7
ATOM      7  C   UNL     1     -19.088  -1.931  29.464  1.00  0.00     0.000 C 
BRANCH   7   8
ATOM      8  C   UNL     1     -20.055  -2.936  30.116  1.00  0.00     0.000 C 
BRANCH   8   9
ATOM      9  C   UNL     1     -19.576  -4.391  29.977  1.00  0.00     0.000 C 
BRANCH   9  10
ATOM     10  C   UNL     1     -20.702  -5.337  29.521  1.00  0.00     0.000 C 
BRANCH  10  11
ATOM     11  C   UNL     1     -20.686  -6.679  30.272  1.00  0.00     0.000 C 
BRANCH  11  12
ATOM     12  C   UNL     1     -21.929  -6.875  31.158  1.00  0.00     0.006 C 
BRANCH  12  13
ATOM     13  C   UNL     1     -21.579  -6.912  32.651  1.00  0.00     0.053 C 
BRANCH  13  14
ATOM     14  C   UNL     1     -21.681  -5.558  33.282  1.00  0.00     0.041 C 
ATOM     15  O   UNL     1     -20.699  -4.771  33.258  1.00  0.00    -0.550 OA
ATOM     16  O   UNL     1     -22.877  -5.146  33.854  1.00  0.00    -0.550 OA
ENDBRANCH  13  14
ENDBRANCH  12  13
ENDBRANCH  11  12
ENDBRANCH  10  11
ENDBRANCH   9  10
ENDBRANCH   8   9
ENDBRANCH   7   8
ENDBRANCH   6   7
ENDBRANCH   5   6
ENDBRANCH   4   5
ENDBRANCH   3   4
ENDBRANCH   2   3
ENDBRANCH   1   2
BRANCH   1  17
ATOM     17  C   UNL     1     -14.001   1.793  30.065  1.00  0.00     0.000 C 
BRANCH  17  18
ATOM     18  C   UNL     1     -14.396   1.880  28.577  1.00  0.00     0.000 C 
BRANCH  18  19
ATOM     19  C   UNL     1     -15.526   2.877  28.256  1.00  0.00     0.000 C 
BRANCH  19  20
ATOM     20  C   UNL     1     -16.565   2.370  27.239  1.00  0.00     0.000 C 
BRANCH  20  21
ATOM     21  C   UNL     1     -17.678   1.530  27.893  1.00  0.00     0.000 C 
BRANCH  21  22
ATOM     22  C   UNL     1     -18.345   0.558  26.896  1.00  0.00    -0.000 C 
BRANCH  22  23
ATOM     23  C   UNL     1     -19.845   0.829  26.662  1.00  0.00    -0.000 C 
BRANCH  23  24
ATOM     24  C   UNL     1     -20.641   1.214  27.920  1.00  0.00    -0.000 C 
BRANCH  24  25
ATOM     25  C   UNL     1     -21.842   0.288  28.169  1.00  0.00    -0.000 C 
BRANCH  25  26
ATOM     26  C   UNL     1     -22.071   0.076  29.673  1.00  0.00    -0.000 C 
BRANCH  26  27
ATOM     27  C   UNL     1     -23.270  -0.841  29.964  1.00  0.00    -0.000 C 
BRANCH  27  28
ATOM     28  C   UNL     1     -23.477  -1.907  28.878  1.00  0.00    -0.000 C 
BRANCH  28  29
ATOM     29  C   UNL     1     -23.718  -3.287  29.500  1.00  0.00    -0.003 C 
ATOM     30  C   UNL     1     -23.618  -3.228  31.022  1.00  0.00     0.004 C 
ENDBRANCH  28  29
ENDBRANCH  27  28
ENDBRANCH  26  27
ENDBRANCH  25  26
ENDBRANCH  24  25
ENDBRANCH  23  24
ENDBRANCH  22  23
ENDBRANCH  21  22
ENDBRANCH  20  21
ENDBRANCH  19  20
ENDBRANCH  18  19
ENDBRANCH  17  18
ENDBRANCH   1  17
TORSDOF 26
ENDMDL
MODEL 7
REMARK VINA RESULT:    -4.424      2.815      5.983
REMARK INTER + INTRA:         -14.613
REMARK INTER:                 -11.766
REMARK INTRA:                  -2.847
REMARK UNBOUND:                -3.463
REMARK SMILES CCCCCCCCCCCCCCCCCCCCCCCCCCCC(=O)[O-]
REMARK SMILES IDX 15 1 16 2 17 3 18 4 19 5 20 6 21 7 22 8 23 9 24 10 25 11
REMARK SMILES IDX 26 12 27 13 28 14 29 15 30 16 14 17 13 18 12 19 11 20 10 21
REMARK SMILES IDX 9 22 8 23 7 24 6 25 5 26 4 27 3 28 2 29 1 30
REMARK H PARENT
REMARK Flexibility Score: inf
ROOT
ATOM      1  C   UNL     1     -16.614  -1.011  32.299  1.00  0.00     0.000 C 
ENDROOT
BRANCH   1   2
ATOM      2  C   UNL     1     -15.736  -0.629  31.096  1.00  0.00     0.000 C 
BRANCH   2   3
ATOM      3  C   UNL     1     -14.323  -0.231  31.547  1.00  0.00     0.000 C 
BRANCH   3   4
ATOM      4  C   UNL     1     -13.506   0.423  30.419  1.00  0.00     0.000 C 
BRANCH   4   5
ATOM      5  C   UNL     1     -14.040   1.814  30.032  1.00  0.00     0.000 C 
BRANCH   5   6
ATOM      6  C   UNL     1     -14.423   1.915  28.545  1.00  0.00     0.000 C 
BRANCH   6   7
ATOM      7  C   UNL     1     -15.518   2.949  28.221  1.00  0.00     0.000 C 
BRANCH   7   8
ATOM      8  C   UNL     1     -16.661   2.362  27.373  1.00  0.00     0.000 C 
BRANCH   8   9
ATOM      9  C   UNL     1     -17.370   1.187  28.068  1.00  0.00     0.000 C 
BRANCH   9  10
ATOM     10  C   UNL     1     -18.377   0.479  27.143  1.00  0.00     0.000 C 
BRANCH  10  11
ATOM     11  C   UNL     1     -19.722   1.219  27.058  1.00  0.00     0.000 C 
BRANCH  11  12
ATOM     12  C   UNL     1     -20.651   0.893  28.240  1.00  0.00     0.006 C 
BRANCH  12  13
ATOM     13  C   UNL     1     -22.076   0.554  27.783  1.00  0.00     0.053 C 
BRANCH  13  14
ATOM     14  C   UNL     1     -22.792  -0.305  28.780  1.00  0.00     0.041 C 
ATOM     15  O   UNL     1     -23.246  -1.428  28.439  1.00  0.00    -0.550 OA
ATOM     16  O   UNL     1     -22.916   0.114  30.097  1.00  0.00    -0.550 OA
ENDBRANCH  13  14
ENDBRANCH  12  13
ENDBRANCH  11  12
ENDBRANCH  10  11
ENDBRANCH   9  10
ENDBRANCH   8   9
ENDBRANCH   7   8
ENDBRANCH   6   7
ENDBRANCH   5   6
ENDBRANCH   4   5
ENDBRANCH   3   4
ENDBRANCH   2   3
ENDBRANCH   1   2
BRANCH   1  17
ATOM     17  C   UNL     1     -17.660  -2.089  31.956  1.00  0.00     0.000 C 
BRANCH  17  18
ATOM     18  C   UNL     1     -17.391  -2.868  30.653  1.00  0.00     0.000 C 
BRANCH  18  19
ATOM     19  C   UNL     1     -18.461  -2.701  29.557  1.00  0.00     0.000 C 
BRANCH  19  20
ATOM     20  C   UNL     1     -19.901  -2.548  30.078  1.00  0.00     0.000 C 
BRANCH  20  21
ATOM     21  C   UNL     1     -20.484  -3.868  30.616  1.00  0.00     0.000 C 
BRANCH  21  22
ATOM     22  C   UNL     1     -21.886  -4.170  30.045  1.00  0.00    -0.000 C 
BRANCH  22  23
ATOM     23  C   UNL     1     -21.929  -5.384  29.095  1.00  0.00    -0.000 C 
BRANCH  23  24
ATOM     24  C   UNL     1     -20.669  -6.264  29.106  1.00  0.00    -0.000 C 
BRANCH  24  25
ATOM     25  C   UNL     1     -20.837  -7.530  29.960  1.00  0.00    -0.000 C 
BRANCH  25  26
ATOM     26  C   UNL     1     -22.322  -7.827  30.220  1.00  0.00    -0.000 C 
BRANCH  26  27
ATOM     27  C   UNL     1     -22.644  -7.957  31.718  1.00  0.00    -0.000 C 
BRANCH  27  28
ATOM     28  C   UNL     1     -21.403  -7.791  32.607  1.00  0.00    -0.000 C 
BRANCH  28  29
ATOM     29  C   UNL     1     -21.801  -7.551  34.068  1.00  0.00    -0.003 C 
ATOM     30  C   UNL     1     -20.624  -7.011  34.876  1.00  0.00     0.004 C 
ENDBRANCH  28  29
ENDBRANCH  27  28
ENDBRANCH  26  27
ENDBRANCH  25  26
ENDBRANCH  24  25
ENDBRANCH  23  24
ENDBRANCH  22  23
ENDBRANCH  21  22
ENDBRANCH  20  21
ENDBRANCH  19  20
ENDBRANCH  18  19
ENDBRANCH  17  18
ENDBRANCH   1  17
TORSDOF 26
ENDMDL
MODEL 8
REMARK VINA RESULT:    -4.341      3.479      7.272
REMARK INTER + INTRA:         -14.401
REMARK INTER:                 -10.906
REMARK INTRA:                  -3.495
REMARK UNBOUND:                -3.463
REMARK SMILES CCCCCCCCCCCCCCCCCCCCCCCCCCCC(=O)[O-]
REMARK SMILES IDX 15 1 16 2 17 3 18 4 19 5 20 6 21 7 22 8 23 9 24 10 25 11
REMARK SMILES IDX 26 12 27 13 28 14 29 15 30 16 14 17 13 18 12 19 11 20 10 21
REMARK SMILES IDX 9 22 8 23 7 24 6 25 5 26 4 27 3 28 2 29 1 30
REMARK H PARENT
REMARK Flexibility Score: inf
ROOT
ATOM      1  C   UNL     1     -22.414  -2.047  29.668  1.00  0.00     0.000 C 
ENDROOT
BRANCH   1   2
ATOM      2  C   UNL     1     -23.473  -3.139  29.885  1.00  0.00     0.000 C 
BRANCH   2   3
ATOM      3  C   UNL     1     -24.041  -3.633  28.546  1.00  0.00     0.000 C 
BRANCH   3   4
ATOM      4  C   UNL     1     -23.101  -4.620  27.834  1.00  0.00     0.000 C 
BRANCH   4   5
ATOM      5  C   UNL     1     -23.581  -6.078  27.944  1.00  0.00     0.000 C 
BRANCH   5   6
ATOM      6  C   UNL     1     -22.692  -7.060  27.161  1.00  0.00     0.000 C 
BRANCH   6   7
ATOM      7  C   UNL     1     -21.649  -7.816  28.007  1.00  0.00     0.000 C 
BRANCH   7   8
ATOM      8  C   UNL     1     -20.369  -6.996  28.248  1.00  0.00     0.000 C 
BRANCH   8   9
ATOM      9  C   UNL     1     -20.342  -6.337  29.637  1.00  0.00     0.000 C 
BRANCH   9  10
ATOM     10  C   UNL     1     -20.742  -7.315  30.757  1.00  0.00     0.000 C 
BRANCH  10  11
ATOM     11  C   UNL     1     -22.165  -7.062  31.282  1.00  0.00     0.000 C 
BRANCH  11  12
ATOM     12  C   UNL     1     -22.266  -5.776  32.121  1.00  0.00     0.006 C 
BRANCH  12  13
ATOM     13  C   UNL     1     -21.151  -5.678  33.171  1.00  0.00     0.053 C 
BRANCH  13  14
ATOM     14  C   UNL     1     -21.360  -6.643  34.298  1.00  0.00     0.041 C 
ATOM     15  O   UNL     1     -22.507  -7.105  34.532  1.00  0.00    -0.550 OA
ATOM     16  O   UNL     1     -20.280  -7.068  35.058  1.00  0.00    -0.550 OA
ENDBRANCH  13  14
ENDBRANCH  12  13
ENDBRANCH  11  12
ENDBRANCH  10  11
ENDBRANCH   9  10
ENDBRANCH   8   9
ENDBRANCH   7   8
ENDBRANCH   6   7
ENDBRANCH   5   6
ENDBRANCH   4   5
ENDBRANCH   3   4
ENDBRANCH   2   3
ENDBRANCH   1   2
BRANCH   1  17
ATOM     17  C   UNL     1     -23.010  -0.626  29.683  1.00  0.00     0.000 C 
BRANCH  17  18
ATOM     18  C   UNL     1     -23.304  -0.028  28.292  1.00  0.00     0.000 C 
BRANCH  18  19
ATOM     19  C   UNL     1     -22.437  -0.582  27.144  1.00  0.00     0.000 C 
BRANCH  19  20
ATOM     20  C   UNL     1     -22.187   0.404  25.990  1.00  0.00     0.000 C 
BRANCH  20  21
ATOM     21  C   UNL     1     -20.727   0.889  25.924  1.00  0.00     0.000 C 
BRANCH  21  22
ATOM     22  C   UNL     1     -20.130   1.153  27.322  1.00  0.00    -0.000 C 
BRANCH  22  23
ATOM     23  C   UNL     1     -18.641   0.770  27.452  1.00  0.00    -0.000 C 
BRANCH  23  24
ATOM     24  C   UNL     1     -18.271   0.027  28.746  1.00  0.00    -0.000 C 
BRANCH  24  25
ATOM     25  C   UNL     1     -19.215  -1.147  29.047  1.00  0.00    -0.000 C 
BRANCH  25  26
ATOM     26  C   UNL     1     -18.422  -2.421  29.376  1.00  0.00    -0.000 C 
BRANCH  26  27
ATOM     27  C   UNL     1     -18.753  -2.979  30.770  1.00  0.00    -0.000 C 
BRANCH  27  28
ATOM     28  C   UNL     1     -17.595  -2.813  31.764  1.00  0.00    -0.000 C 
BRANCH  28  29
ATOM     29  C   UNL     1     -17.323  -1.331  32.048  1.00  0.00    -0.003 C 
ATOM     30  C   UNL     1     -15.909  -0.941  31.626  1.00  0.00     0.004 C 
ENDBRANCH  28  29
ENDBRANCH  27  28
ENDBRANCH  26  27
ENDBRANCH  25  26
ENDBRANCH  24  25
ENDBRANCH  23  24
ENDBRANCH  22  23
ENDBRANCH  21  22
ENDBRANCH  20  21
ENDBRANCH  19  20
ENDBRANCH  18  19
ENDBRANCH  17  18
ENDBRANCH   1  17
TORSDOF 26
ENDMDL
