MODEL 1
REMARK VINA RESULT:    -7.129      0.000      0.000
REMARK INTER + INTRA:          -8.895
REMARK INTER:                  -8.587
REMARK INTRA:                  -0.308
REMARK UNBOUND:                -0.308
REMARK SMILES O=c1c(O)c(-c2ccc(O)c(O)c2)oc2cc(O)cc(O)c12
REMARK SMILES IDX 5 1 3 2 2 3 1 4 22 5 20 6 19 7 17 8 16 9 15 10 14 11 6 12
REMARK SMILES IDX 7 13 8 14 9 15 13 16 11 17 10 18 12 20 4 22 21 24 18 26
REMARK H PARENT 10 19 12 21 4 23 21 25 18 27
REMARK Flexibility Score: inf
ROOT
ATOM      1  C   UNL     1      14.273   2.435  14.519  1.00  0.00     0.180 A 
ATOM      2  C   UNL     1      13.354   2.567  15.574  1.00  0.00     0.208 A 
ATOM      3  C   UNL     1      12.347   1.600  15.726  1.00  0.00     0.238 A 
ATOM      4  O   UNL     1      11.561   1.696  16.705  1.00  0.00    -0.285 OA
ATOM      5  C   UNL     1      12.262   0.522  14.813  1.00  0.00     0.111 A 
ATOM      6  C   UNL     1      11.259  -0.493  14.848  1.00  0.00     0.134 A 
ATOM      7  C   UNL     1      11.349  -1.583  13.975  1.00  0.00     0.093 A 
ATOM      8  C   UNL     1      12.369  -1.662  13.023  1.00  0.00     0.123 A 
ATOM      9  C   UNL     1      13.319  -0.647  12.942  1.00  0.00     0.094 A 
ATOM     10  C   UNL     1      13.276   0.436  13.824  1.00  0.00     0.146 A 
ATOM     11  O   UNL     1      14.207   1.377  13.718  1.00  0.00    -0.452 OA
ENDROOT
BRANCH   1  12
ATOM     12  C   UNL     1      15.346   3.426  14.279  1.00  0.00     0.025 A 
ATOM     13  C   UNL     1      15.202   4.441  13.316  1.00  0.00     0.016 A 
ATOM     14  C   UNL     1      16.236   5.351  13.089  1.00  0.00     0.051 A 
ATOM     15  C   UNL     1      17.435   5.254  13.809  1.00  0.00     0.157 A 
ATOM     16  C   UNL     1      16.557   3.320  14.982  1.00  0.00     0.062 A 
ATOM     17  C   UNL     1      17.596   4.230  14.757  1.00  0.00     0.158 A 
BRANCH  15  18
ATOM     18  O   UNL     1      18.466   6.165  13.581  1.00  0.00    -0.504 OA
ATOM     19  H   UNL     1      18.348   6.954  12.955  1.00  0.00     0.293 HD
ENDBRANCH  15  18
BRANCH  17  20
ATOM     20  O   UNL     1      18.778   4.101  15.485  1.00  0.00    -0.504 OA
ATOM     21  H   UNL     1      19.326   3.249  15.475  1.00  0.00     0.293 HD
ENDBRANCH  17  20
ENDBRANCH   1  12
BRANCH   2  22
ATOM     22  O   UNL     1      13.470   3.628  16.477  1.00  0.00    -0.502 OA
ATOM     23  H   UNL     1      12.861   3.726  17.281  1.00  0.00     0.293 HD
ENDBRANCH   2  22
BRANCH   6  24
ATOM     24  O   UNL     1      10.148  -0.463  15.697  1.00  0.00    -0.507 OA
ATOM     25  H   UNL     1      10.106  -0.904  16.604  1.00  0.00     0.293 HD
ENDBRANCH   6  24
BRANCH   8  26
ATOM     26  O   UNL     1      12.442  -2.742  12.148  1.00  0.00    -0.508 OA
ATOM     27  H   UNL     1      12.469  -3.698  12.485  1.00  0.00     0.293 HD
ENDBRANCH   8  26
TORSDOF 6
ENDMDL
MODEL 2
REMARK VINA RESULT:    -6.914      2.003      2.799
REMARK INTER + INTRA:          -8.637
REMARK INTER:                  -8.315
REMARK INTRA:                  -0.322
REMARK UNBOUND:                -0.308
REMARK SMILES O=c1c(O)c(-c2ccc(O)c(O)c2)oc2cc(O)cc(O)c12
REMARK SMILES IDX 5 1 3 2 2 3 1 4 22 5 20 6 19 7 17 8 16 9 15 10 14 11 6 12
REMARK SMILES IDX 7 13 8 14 9 15 13 16 11 17 10 18 12 20 4 22 21 24 18 26
REMARK H PARENT 10 19 12 21 4 23 21 25 18 27
REMARK Flexibility Score: inf
ROOT
ATOM      1  C   UNL     1      13.714   0.217  14.105  1.00  0.00     0.180 A 
ATOM      2  C   UNL     1      12.854  -0.140  15.157  1.00  0.00     0.208 A 
ATOM      3  C   UNL     1      12.390  -1.462  15.239  1.00  0.00     0.238 A 
ATOM      4  O   UNL     1      11.664  -1.788  16.215  1.00  0.00    -0.285 OA
ATOM      5  C   UNL     1      12.777  -2.407  14.259  1.00  0.00     0.111 A 
ATOM      6  C   UNL     1      12.334  -3.764  14.221  1.00  0.00     0.134 A 
ATOM      7  C   UNL     1      12.884  -4.643  13.281  1.00  0.00     0.093 A 
ATOM      8  C   UNL     1      13.812  -4.200  12.335  1.00  0.00     0.123 A 
ATOM      9  C   UNL     1      14.205  -2.864  12.327  1.00  0.00     0.094 A 
ATOM     10  C   UNL     1      13.702  -1.970  13.275  1.00  0.00     0.146 A 
ATOM     11  O   UNL     1      14.112  -0.708  13.238  1.00  0.00    -0.452 OA
ENDROOT
BRANCH   1  12
ATOM     12  C   UNL     1      14.226   1.596  13.937  1.00  0.00     0.025 A 
ATOM     13  C   UNL     1      13.458   2.589  13.302  1.00  0.00     0.016 A 
ATOM     14  C   UNL     1      13.970   3.877  13.133  1.00  0.00     0.051 A 
ATOM     15  C   UNL     1      15.261   4.190  13.582  1.00  0.00     0.157 A 
ATOM     16  C   UNL     1      15.526   1.909  14.367  1.00  0.00     0.062 A 
ATOM     17  C   UNL     1      16.042   3.199  14.199  1.00  0.00     0.158 A 
BRANCH  15  18
ATOM     18  O   UNL     1      15.768   5.478  13.415  1.00  0.00    -0.504 OA
ATOM     19  H   UNL     1      16.071   6.036  14.205  1.00  0.00     0.293 HD
ENDBRANCH  15  18
BRANCH  17  20
ATOM     20  O   UNL     1      17.332   3.476  14.651  1.00  0.00    -0.504 OA
ATOM     21  H   UNL     1      17.508   4.122  15.412  1.00  0.00     0.293 HD
ENDBRANCH  17  20
ENDBRANCH   1  12
BRANCH   2  22
ATOM     22  O   UNL     1      12.502   0.803  16.127  1.00  0.00    -0.502 OA
ATOM     23  H   UNL     1      11.684   0.700  16.714  1.00  0.00     0.293 HD
ENDBRANCH   2  22
BRANCH   6  24
ATOM     24  O   UNL     1      11.345  -4.285  15.060  1.00  0.00    -0.507 OA
ATOM     25  H   UNL     1      11.158  -5.269  15.186  1.00  0.00     0.293 HD
ENDBRANCH   6  24
BRANCH   8  26
ATOM     26  O   UNL     1      14.342  -5.078  11.394  1.00  0.00    -0.508 OA
ATOM     27  H   UNL     1      13.775  -5.461  10.646  1.00  0.00     0.293 HD
ENDBRANCH   8  26
TORSDOF 6
ENDMDL
MODEL 3
REMARK VINA RESULT:    -6.895      2.781      4.293
REMARK INTER + INTRA:          -8.614
REMARK INTER:                  -8.339
REMARK INTRA:                  -0.275
REMARK UNBOUND:                -0.308
REMARK SMILES O=c1c(O)c(-c2ccc(O)c(O)c2)oc2cc(O)cc(O)c12
REMARK SMILES IDX 5 1 3 2 2 3 1 4 22 5 20 6 19 7 17 8 16 9 15 10 14 11 6 12
REMARK SMILES IDX 7 13 8 14 9 15 13 16 11 17 10 18 12 20 4 22 21 24 18 26
REMARK H PARENT 10 19 12 21 4 23 21 25 18 27
REMARK Flexibility Score: inf
ROOT
ATOM      1  C   UNL     1      13.248  -0.056  14.209  1.00  0.00     0.180 A 
ATOM      2  C   UNL     1      12.549  -0.984  15.000  1.00  0.00     0.208 A 
ATOM      3  C   UNL     1      12.548  -2.336  14.622  1.00  0.00     0.238 A 
ATOM      4  O   UNL     1      11.966  -3.170  15.365  1.00  0.00    -0.285 OA
ATOM      5  C   UNL     1      13.231  -2.742  13.451  1.00  0.00     0.111 A 
ATOM      6  C   UNL     1      13.262  -4.079  12.952  1.00  0.00     0.134 A 
ATOM      7  C   UNL     1      14.077  -4.388  11.857  1.00  0.00     0.093 A 
ATOM      8  C   UNL     1      14.810  -3.396  11.201  1.00  0.00     0.123 A 
ATOM      9  C   UNL     1      14.740  -2.078  11.644  1.00  0.00     0.094 A 
ATOM     10  C   UNL     1      13.964  -1.744  12.757  1.00  0.00     0.146 A 
ATOM     11  O   UNL     1      13.933  -0.477  13.152  1.00  0.00    -0.452 OA
ENDROOT
BRANCH   1  12
ATOM     12  C   UNL     1      13.275   1.389  14.527  1.00  0.00     0.025 A 
ATOM     13  C   UNL     1      14.085   1.896  15.560  1.00  0.00     0.016 A 
ATOM     14  C   UNL     1      14.078   3.260  15.859  1.00  0.00     0.051 A 
ATOM     15  C   UNL     1      13.252   4.137  15.142  1.00  0.00     0.157 A 
ATOM     16  C   UNL     1      12.434   2.269  13.826  1.00  0.00     0.062 A 
ATOM     17  C   UNL     1      12.425   3.637  14.123  1.00  0.00     0.158 A 
BRANCH  15  18
ATOM     18  O   UNL     1      13.248   5.499  15.440  1.00  0.00    -0.504 OA
ATOM     19  H   UNL     1      13.992   6.113  15.128  1.00  0.00     0.293 HD
ENDBRANCH  15  18
BRANCH  17  20
ATOM     20  O   UNL     1      11.587   4.481  13.395  1.00  0.00    -0.504 OA
ATOM     21  H   UNL     1      11.921   5.022  12.606  1.00  0.00     0.293 HD
ENDBRANCH  17  20
ENDBRANCH   1  12
BRANCH   2  22
ATOM     22  O   UNL     1      11.899  -0.566  16.165  1.00  0.00    -0.502 OA
ATOM     23  H   UNL     1      11.452   0.339  16.242  1.00  0.00     0.293 HD
ENDBRANCH   2  22
BRANCH   6  24
ATOM     24  O   UNL     1      12.497  -5.125  13.475  1.00  0.00    -0.507 OA
ATOM     25  H   UNL     1      12.875  -5.988  13.839  1.00  0.00     0.293 HD
ENDBRANCH   6  24
BRANCH   8  26
ATOM     26  O   UNL     1      15.607  -3.710  10.103  1.00  0.00    -0.508 OA
ATOM     27  H   UNL     1      15.354  -3.424   9.164  1.00  0.00     0.293 HD
ENDBRANCH   8  26
TORSDOF 6
ENDMDL
MODEL 4
REMARK VINA RESULT:    -6.895      4.360      7.238
REMARK INTER + INTRA:          -8.614
REMARK INTER:                  -8.295
REMARK INTRA:                  -0.319
REMARK UNBOUND:                -0.308
REMARK SMILES O=c1c(O)c(-c2ccc(O)c(O)c2)oc2cc(O)cc(O)c12
REMARK SMILES IDX 5 1 3 2 2 3 1 4 22 5 20 6 19 7 17 8 16 9 15 10 14 11 6 12
REMARK SMILES IDX 7 13 8 14 9 15 13 16 11 17 10 18 12 20 4 22 21 24 18 26
REMARK H PARENT 10 19 12 21 4 23 21 25 18 27
REMARK Flexibility Score: inf
ROOT
ATOM      1  C   UNL     1      12.670  -2.287  12.233  1.00  0.00     0.180 A 
ATOM      2  C   UNL     1      11.837  -2.868  11.262  1.00  0.00     0.208 A 
ATOM      3  C   UNL     1      12.417  -3.621  10.229  1.00  0.00     0.238 A 
ATOM      4  O   UNL     1      11.661  -4.184   9.394  1.00  0.00    -0.285 OA
ATOM      5  C   UNL     1      13.823  -3.770  10.170  1.00  0.00     0.111 A 
ATOM      6  C   UNL     1      14.521  -4.477   9.145  1.00  0.00     0.134 A 
ATOM      7  C   UNL     1      15.903  -4.671   9.259  1.00  0.00     0.093 A 
ATOM      8  C   UNL     1      16.622  -4.127  10.326  1.00  0.00     0.123 A 
ATOM      9  C   UNL     1      15.958  -3.385  11.300  1.00  0.00     0.094 A 
ATOM     10  C   UNL     1      14.575  -3.205  11.233  1.00  0.00     0.146 A 
ATOM     11  O   UNL     1      13.981  -2.499  12.188  1.00  0.00    -0.452 OA
ENDROOT
BRANCH   1  12
ATOM     12  C   UNL     1      12.136  -1.459  13.338  1.00  0.00     0.025 A 
ATOM     13  C   UNL     1      11.683  -2.041  14.536  1.00  0.00     0.016 A 
ATOM     14  C   UNL     1      11.161  -1.243  15.556  1.00  0.00     0.051 A 
ATOM     15  C   UNL     1      11.070   0.146  15.391  1.00  0.00     0.157 A 
ATOM     16  C   UNL     1      12.023  -0.069  13.170  1.00  0.00     0.062 A 
ATOM     17  C   UNL     1      11.500   0.734  14.191  1.00  0.00     0.158 A 
BRANCH  15  18
ATOM     18  O   UNL     1      10.550   0.940  16.413  1.00  0.00    -0.504 OA
ATOM     19  H   UNL     1      10.877   0.856  17.369  1.00  0.00     0.293 HD
ENDBRANCH  15  18
BRANCH  17  20
ATOM     20  O   UNL     1      11.417   2.111  13.992  1.00  0.00    -0.504 OA
ATOM     21  H   UNL     1      12.130   2.748  14.329  1.00  0.00     0.293 HD
ENDBRANCH  17  20
ENDBRANCH   1  12
BRANCH   2  22
ATOM     22  O   UNL     1      10.449  -2.726  11.352  1.00  0.00    -0.502 OA
ATOM     23  H   UNL     1       9.925  -3.017  12.169  1.00  0.00     0.293 HD
ENDBRANCH   2  22
BRANCH   6  24
ATOM     24  O   UNL     1      13.913  -4.981   7.992  1.00  0.00    -0.507 OA
ATOM     25  H   UNL     1      14.262  -5.758   7.451  1.00  0.00     0.293 HD
ENDBRANCH   6  24
BRANCH   8  26
ATOM     26  O   UNL     1      17.999  -4.312  10.422  1.00  0.00    -0.508 OA
ATOM     27  H   UNL     1      18.412  -4.835  11.186  1.00  0.00     0.293 HD
ENDBRANCH   8  26
TORSDOF 6
ENDMDL
MODEL 5
REMARK VINA RESULT:    -6.788      2.555      6.799
REMARK INTER + INTRA:          -8.484
REMARK INTER:                  -8.483
REMARK INTRA:                  -0.002
REMARK UNBOUND:                -0.308
REMARK SMILES O=c1c(O)c(-c2ccc(O)c(O)c2)oc2cc(O)cc(O)c12
REMARK SMILES IDX 5 1 3 2 2 3 1 4 22 5 20 6 19 7 17 8 16 9 15 10 14 11 6 12
REMARK SMILES IDX 7 13 8 14 9 15 13 16 11 17 10 18 12 20 4 22 21 24 18 26
REMARK H PARENT 10 19 12 21 4 23 21 25 18 27
REMARK Flexibility Score: inf
ROOT
ATOM      1  C   UNL     1      12.475  -1.178  12.917  1.00  0.00     0.180 A 
ATOM      2  C   UNL     1      11.778  -1.487  14.098  1.00  0.00     0.208 A 
ATOM      3  C   UNL     1      11.686  -0.517  15.108  1.00  0.00     0.238 A 
ATOM      4  O   UNL     1      11.014  -0.780  16.139  1.00  0.00    -0.285 OA
ATOM      5  C   UNL     1      12.305   0.744  14.932  1.00  0.00     0.111 A 
ATOM      6  C   UNL     1      12.310   1.787  15.907  1.00  0.00     0.134 A 
ATOM      7  C   UNL     1      12.841   3.039  15.574  1.00  0.00     0.093 A 
ATOM      8  C   UNL     1      13.427   3.266  14.326  1.00  0.00     0.123 A 
ATOM      9  C   UNL     1      13.480   2.236  13.391  1.00  0.00     0.094 A 
ATOM     10  C   UNL     1      12.926   0.986  13.679  1.00  0.00     0.146 A 
ATOM     11  O   UNL     1      12.990   0.036  12.755  1.00  0.00    -0.452 OA
ENDROOT
BRANCH   1  12
ATOM     12  C   UNL     1      12.637  -2.157  11.818  1.00  0.00     0.025 A 
ATOM     13  C   UNL     1      11.532  -2.838  11.276  1.00  0.00     0.016 A 
ATOM     14  C   UNL     1      11.711  -3.775  10.255  1.00  0.00     0.051 A 
ATOM     15  C   UNL     1      12.995  -4.055   9.769  1.00  0.00     0.157 A 
ATOM     16  C   UNL     1      13.924  -2.456  11.341  1.00  0.00     0.062 A 
ATOM     17  C   UNL     1      14.106  -3.394  10.318  1.00  0.00     0.158 A 
BRANCH  15  18
ATOM     18  O   UNL     1      13.170  -4.988   8.748  1.00  0.00    -0.504 OA
ATOM     19  H   UNL     1      14.093  -5.307   8.474  1.00  0.00     0.293 HD
ENDBRANCH  15  18
BRANCH  17  20
ATOM     20  O   UNL     1      15.398  -3.654   9.862  1.00  0.00    -0.504 OA
ATOM     21  H   UNL     1      16.214  -3.512  10.445  1.00  0.00     0.293 HD
ENDBRANCH  17  20
ENDBRANCH   1  12
BRANCH   2  22
ATOM     22  O   UNL     1      11.155  -2.731  14.241  1.00  0.00    -0.502 OA
ATOM     23  H   UNL     1      10.154  -2.826  14.354  1.00  0.00     0.293 HD
ENDBRANCH   2  22
BRANCH   6  24
ATOM     24  O   UNL     1      11.834   1.638  17.212  1.00  0.00    -0.507 OA
ATOM     25  H   UNL     1      12.353   1.218  17.969  1.00  0.00     0.293 HD
ENDBRANCH   6  24
BRANCH   8  26
ATOM     26  O   UNL     1      13.967   4.510  14.010  1.00  0.00    -0.508 OA
ATOM     27  H   UNL     1      14.560   4.641  13.199  1.00  0.00     0.293 HD
ENDBRANCH   8  26
TORSDOF 6
ENDMDL
MODEL 6
REMARK VINA RESULT:    -6.762      3.687      6.433
REMARK INTER + INTRA:          -8.453
REMARK INTER:                  -8.272
REMARK INTRA:                  -0.181
REMARK UNBOUND:                -0.308
REMARK SMILES O=c1c(O)c(-c2ccc(O)c(O)c2)oc2cc(O)cc(O)c12
REMARK SMILES IDX 5 1 3 2 2 3 1 4 22 5 20 6 19 7 17 8 16 9 15 10 14 11 6 12
REMARK SMILES IDX 7 13 8 14 9 15 13 16 11 17 10 18 12 20 4 22 21 24 18 26
REMARK H PARENT 10 19 12 21 4 23 21 25 18 27
REMARK Flexibility Score: inf
ROOT
ATOM      1  C   UNL     1      14.160  -2.075  12.782  1.00  0.00     0.180 A 
ATOM      2  C   UNL     1      13.257  -2.861  13.518  1.00  0.00     0.208 A 
ATOM      3  C   UNL     1      12.216  -2.230  14.216  1.00  0.00     0.238 A 
ATOM      4  O   UNL     1      11.379  -2.945  14.827  1.00  0.00    -0.285 OA
ATOM      5  C   UNL     1      12.099  -0.820  14.184  1.00  0.00     0.111 A 
ATOM      6  C   UNL     1      11.107  -0.072  14.887  1.00  0.00     0.134 A 
ATOM      7  C   UNL     1      11.007   1.308  14.678  1.00  0.00     0.093 A 
ATOM      8  C   UNL     1      11.904   1.978  13.843  1.00  0.00     0.123 A 
ATOM      9  C   UNL     1      12.912   1.266  13.199  1.00  0.00     0.094 A 
ATOM     10  C   UNL     1      13.016  -0.118  13.359  1.00  0.00     0.146 A 
ATOM     11  O   UNL     1      13.986  -0.759  12.718  1.00  0.00    -0.452 OA
ENDROOT
BRANCH   1  12
ATOM     12  C   UNL     1      15.298  -2.664  12.041  1.00  0.00     0.025 A 
ATOM     13  C   UNL     1      16.629  -2.408  12.417  1.00  0.00     0.016 A 
ATOM     14  C   UNL     1      17.687  -2.955  11.689  1.00  0.00     0.051 A 
ATOM     15  C   UNL     1      17.434  -3.755  10.567  1.00  0.00     0.157 A 
ATOM     16  C   UNL     1      15.050  -3.450  10.903  1.00  0.00     0.062 A 
ATOM     17  C   UNL     1      16.109  -4.000  10.171  1.00  0.00     0.158 A 
BRANCH  15  18
ATOM     18  O   UNL     1      18.493  -4.303   9.843  1.00  0.00    -0.504 OA
ATOM     19  H   UNL     1      18.877  -3.835   9.029  1.00  0.00     0.293 HD
ENDBRANCH  15  18
BRANCH  17  20
ATOM     20  O   UNL     1      15.824  -4.786   9.055  1.00  0.00    -0.504 OA
ATOM     21  H   UNL     1      14.881  -5.085   8.834  1.00  0.00     0.293 HD
ENDBRANCH  17  20
ENDBRANCH   1  12
BRANCH   2  22
ATOM     22  O   UNL     1      13.378  -4.254  13.517  1.00  0.00    -0.502 OA
ATOM     23  H   UNL     1      14.107  -4.736  13.006  1.00  0.00     0.293 HD
ENDBRANCH   2  22
BRANCH   6  24
ATOM     24  O   UNL     1      10.222  -0.629  15.814  1.00  0.00    -0.507 OA
ATOM     25  H   UNL     1       9.320  -1.021  15.584  1.00  0.00     0.293 HD
ENDBRANCH   6  24
BRANCH   8  26
ATOM     26  O   UNL     1      11.806   3.354  13.653  1.00  0.00    -0.508 OA
ATOM     27  H   UNL     1      12.461   3.998  14.082  1.00  0.00     0.293 HD
ENDBRANCH   8  26
TORSDOF 6
ENDMDL
MODEL 7
REMARK VINA RESULT:    -6.649      1.578      6.607
REMARK INTER + INTRA:          -8.318
REMARK INTER:                  -8.133
REMARK INTRA:                  -0.185
REMARK UNBOUND:                -0.308
REMARK SMILES O=c1c(O)c(-c2ccc(O)c(O)c2)oc2cc(O)cc(O)c12
REMARK SMILES IDX 5 1 3 2 2 3 1 4 22 5 20 6 19 7 17 8 16 9 15 10 14 11 6 12
REMARK SMILES IDX 7 13 8 14 9 15 13 16 11 17 10 18 12 20 4 22 21 24 18 26
REMARK H PARENT 10 19 12 21 4 23 21 25 18 27
REMARK Flexibility Score: inf
ROOT
ATOM      1  C   UNL     1      13.513   0.689  14.286  1.00  0.00     0.180 A 
ATOM      2  C   UNL     1      12.928   0.929  15.541  1.00  0.00     0.208 A 
ATOM      3  C   UNL     1      13.182   2.148  16.189  1.00  0.00     0.238 A 
ATOM      4  O   UNL     1      12.611   2.378  17.288  1.00  0.00    -0.285 OA
ATOM      5  C   UNL     1      14.031   3.104  15.584  1.00  0.00     0.111 A 
ATOM      6  C   UNL     1      14.391   4.356  16.169  1.00  0.00     0.134 A 
ATOM      7  C   UNL     1      15.132   5.279  15.423  1.00  0.00     0.093 A 
ATOM      8  C   UNL     1      15.583   4.971  14.137  1.00  0.00     0.123 A 
ATOM      9  C   UNL     1      15.288   3.729  13.580  1.00  0.00     0.094 A 
ATOM     10  C   UNL     1      14.519   2.800  14.286  1.00  0.00     0.146 A 
ATOM     11  O   UNL     1      14.253   1.633  13.714  1.00  0.00    -0.452 OA
ENDROOT
BRANCH   1  12
ATOM     12  C   UNL     1      13.313  -0.581  13.552  1.00  0.00     0.025 A 
ATOM     13  C   UNL     1      14.377  -1.472  13.327  1.00  0.00     0.016 A 
ATOM     14  C   UNL     1      14.171  -2.654  12.611  1.00  0.00     0.051 A 
ATOM     15  C   UNL     1      12.902  -2.956  12.097  1.00  0.00     0.157 A 
ATOM     16  C   UNL     1      12.049  -0.879  13.017  1.00  0.00     0.062 A 
ATOM     17  C   UNL     1      11.838  -2.062  12.299  1.00  0.00     0.158 A 
BRANCH  15  18
ATOM     18  O   UNL     1      12.698  -4.138  11.385  1.00  0.00    -0.504 OA
ATOM     19  H   UNL     1      13.138  -5.008  11.663  1.00  0.00     0.293 HD
ENDBRANCH  15  18
BRANCH  17  20
ATOM     20  O   UNL     1      10.566  -2.331  11.795  1.00  0.00    -0.504 OA
ATOM     21  H   UNL     1      10.258  -1.978  10.897  1.00  0.00     0.293 HD
ENDBRANCH  17  20
ENDBRANCH   1  12
BRANCH   2  22
ATOM     22  O   UNL     1      12.075  -0.021  16.111  1.00  0.00    -0.502 OA
ATOM     23  H   UNL     1      11.301   0.235  16.713  1.00  0.00     0.293 HD
ENDBRANCH   2  22
BRANCH   6  24
ATOM     24  O   UNL     1      14.070   4.725  17.479  1.00  0.00    -0.507 OA
ATOM     25  H   UNL     1      14.267   4.169  18.298  1.00  0.00     0.293 HD
ENDBRANCH   6  24
BRANCH   8  26
ATOM     26  O   UNL     1      16.333   5.890  13.408  1.00  0.00    -0.508 OA
ATOM     27  H   UNL     1      16.815   5.627  12.556  1.00  0.00     0.293 HD
ENDBRANCH   8  26
TORSDOF 6
ENDMDL
MODEL 8
REMARK VINA RESULT:    -6.623      2.805      4.616
REMARK INTER + INTRA:          -8.286
REMARK INTER:                  -7.989
REMARK INTRA:                  -0.297
REMARK UNBOUND:                -0.308
REMARK SMILES O=c1c(O)c(-c2ccc(O)c(O)c2)oc2cc(O)cc(O)c12
REMARK SMILES IDX 5 1 3 2 2 3 1 4 22 5 20 6 19 7 17 8 16 9 15 10 14 11 6 12
REMARK SMILES IDX 7 13 8 14 9 15 13 16 11 17 10 18 12 20 4 22 21 24 18 26
REMARK H PARENT 10 19 12 21 4 23 21 25 18 27
REMARK Flexibility Score: inf
ROOT
ATOM      1  C   UNL     1      13.515  -0.107  14.076  1.00  0.00     0.180 A 
ATOM      2  C   UNL     1      14.240  -0.580  12.969  1.00  0.00     0.208 A 
ATOM      3  C   UNL     1      14.164  -1.941  12.637  1.00  0.00     0.238 A 
ATOM      4  O   UNL     1      14.772  -2.348  11.611  1.00  0.00    -0.285 OA
ATOM      5  C   UNL     1      13.379  -2.816  13.425  1.00  0.00     0.111 A 
ATOM      6  C   UNL     1      13.262  -4.222  13.204  1.00  0.00     0.134 A 
ATOM      7  C   UNL     1      12.354  -4.967  13.966  1.00  0.00     0.093 A 
ATOM      8  C   UNL     1      11.608  -4.370  14.986  1.00  0.00     0.123 A 
ATOM      9  C   UNL     1      11.759  -3.011  15.247  1.00  0.00     0.094 A 
ATOM     10  C   UNL     1      12.630  -2.233  14.480  1.00  0.00     0.146 A 
ATOM     11  O   UNL     1      12.736  -0.939  14.757  1.00  0.00    -0.452 OA
ENDROOT
BRANCH   1  12
ATOM     12  C   UNL     1      13.564   1.310  14.504  1.00  0.00     0.025 A 
ATOM     13  C   UNL     1      14.362   1.720  15.587  1.00  0.00     0.016 A 
ATOM     14  C   UNL     1      14.374   3.058  15.989  1.00  0.00     0.051 A 
ATOM     15  C   UNL     1      13.581   4.003  15.325  1.00  0.00     0.157 A 
ATOM     16  C   UNL     1      12.755   2.257  13.855  1.00  0.00     0.062 A 
ATOM     17  C   UNL     1      12.765   3.599  14.255  1.00  0.00     0.158 A 
BRANCH  15  18
ATOM     18  O   UNL     1      13.597   5.339  15.726  1.00  0.00    -0.504 OA
ATOM     19  H   UNL     1      13.105   6.055  15.204  1.00  0.00     0.293 HD
ENDBRANCH  15  18
BRANCH  17  20
ATOM     20  O   UNL     1      11.959   4.513  13.577  1.00  0.00    -0.504 OA
ATOM     21  H   UNL     1      11.387   4.243  12.786  1.00  0.00     0.293 HD
ENDBRANCH  17  20
ENDBRANCH   1  12
BRANCH   2  22
ATOM     22  O   UNL     1      14.992   0.306  12.191  1.00  0.00    -0.502 OA
ATOM     23  H   UNL     1      15.923   0.604  12.454  1.00  0.00     0.293 HD
ENDBRANCH   2  22
BRANCH   6  24
ATOM     24  O   UNL     1      14.027  -4.932  12.275  1.00  0.00    -0.507 OA
ATOM     25  H   UNL     1      14.496  -4.520  11.481  1.00  0.00     0.293 HD
ENDBRANCH   6  24
BRANCH   8  26
ATOM     26  O   UNL     1      10.719  -5.122  15.749  1.00  0.00    -0.508 OA
ATOM     27  H   UNL     1      10.987  -6.012  16.154  1.00  0.00     0.293 HD
ENDBRANCH   8  26
TORSDOF 6
ENDMDL
MODEL 9
REMARK VINA RESULT:    -6.506      1.915      2.723
REMARK INTER + INTRA:          -8.145
REMARK INTER:                  -7.933
REMARK INTRA:                  -0.212
REMARK UNBOUND:                -0.308
REMARK SMILES O=c1c(O)c(-c2ccc(O)c(O)c2)oc2cc(O)cc(O)c12
REMARK SMILES IDX 5 1 3 2 2 3 1 4 22 5 20 6 19 7 17 8 16 9 15 10 14 11 6 12
REMARK SMILES IDX 7 13 8 14 9 15 13 16 11 17 10 18 12 20 4 22 21 24 18 26
REMARK H PARENT 10 19 12 21 4 23 21 25 18 27
REMARK Flexibility Score: inf
ROOT
ATOM      1  C   UNL     1      13.690   1.296  14.818  1.00  0.00     0.180 A 
ATOM      2  C   UNL     1      12.640   0.717  15.550  1.00  0.00     0.208 A 
ATOM      3  C   UNL     1      12.001  -0.424  15.039  1.00  0.00     0.238 A 
ATOM      4  O   UNL     1      11.098  -0.970  15.727  1.00  0.00    -0.285 OA
ATOM      5  C   UNL     1      12.410  -0.963  13.795  1.00  0.00     0.111 A 
ATOM      6  C   UNL     1      11.806  -2.092  13.164  1.00  0.00     0.134 A 
ATOM      7  C   UNL     1      12.376  -2.616  11.997  1.00  0.00     0.093 A 
ATOM      8  C   UNL     1      13.488  -2.013  11.404  1.00  0.00     0.123 A 
ATOM      9  C   UNL     1      14.047  -0.876  11.981  1.00  0.00     0.094 A 
ATOM     10  C   UNL     1      13.523  -0.350  13.164  1.00  0.00     0.146 A 
ATOM     11  O   UNL     1      14.093   0.730  13.686  1.00  0.00    -0.452 OA
ENDROOT
BRANCH   1  12
ATOM     12  C   UNL     1      14.395   2.514  15.278  1.00  0.00     0.025 A 
ATOM     13  C   UNL     1      15.718   2.458  15.754  1.00  0.00     0.016 A 
ATOM     14  C   UNL     1      16.356   3.615  16.205  1.00  0.00     0.051 A 
ATOM     15  C   UNL     1      15.679   4.843  16.202  1.00  0.00     0.157 A 
ATOM     16  C   UNL     1      13.715   3.742  15.296  1.00  0.00     0.062 A 
ATOM     17  C   UNL     1      14.352   4.904  15.747  1.00  0.00     0.158 A 
BRANCH  15  18
ATOM     18  O   UNL     1      16.319   5.997  16.651  1.00  0.00    -0.504 OA
ATOM     19  H   UNL     1      16.087   6.420  17.543  1.00  0.00     0.293 HD
ENDBRANCH  15  18
BRANCH  17  20
ATOM     20  O   UNL     1      13.648   6.108  15.737  1.00  0.00    -0.504 OA
ATOM     21  H   UNL     1      14.111   7.003  15.851  1.00  0.00     0.293 HD
ENDBRANCH  17  20
ENDBRANCH   1  12
BRANCH   2  22
ATOM     22  O   UNL     1      12.268   1.251  16.787  1.00  0.00    -0.502 OA
ATOM     23  H   UNL     1      11.578   0.811  17.384  1.00  0.00     0.293 HD
ENDBRANCH   2  22
BRANCH   6  24
ATOM     24  O   UNL     1      10.641  -2.713  13.622  1.00  0.00    -0.507 OA
ATOM     25  H   UNL     1      10.485  -3.009  14.575  1.00  0.00     0.293 HD
ENDBRANCH   6  24
BRANCH   8  26
ATOM     26  O   UNL     1      14.039  -2.533  10.235  1.00  0.00    -0.508 OA
ATOM     27  H   UNL     1      13.609  -3.309   9.745  1.00  0.00     0.293 HD
ENDBRANCH   8  26
TORSDOF 6
ENDMDL
