MODEL 1
REMARK VINA RESULT:    -3.551      0.000      0.000
REMARK INTER + INTRA:          -7.517
REMARK INTER:                  -6.664
REMARK INTRA:                  -0.853
REMARK UNBOUND:                -0.853
REMARK SMILES CCCCCCCCC=CCCCCCCCC(=O)[O-]
REMARK SMILES IDX 10 1 9 2 11 3 12 4 13 5 14 6 15 7 16 8 17 9 18 10 19 11
REMARK SMILES IDX 20 12 8 13 7 14 6 15 5 16 4 17 3 18 2 19 1 20
REMARK H PARENT
REMARK Flexibility Score: inf
ROOT
ATOM      1  C   UNL     1      -7.165  -6.284   6.796  1.00  0.00    -0.031 C 
ATOM      2  C   UNL     1      -5.983  -6.766   6.385  1.00  0.00    -0.031 C 
ENDROOT
BRANCH   1   3
ATOM      3  C   UNL     1      -7.854  -5.161   6.069  1.00  0.00     0.027 C 
BRANCH   3   4
ATOM      4  C   UNL     1      -8.381  -4.107   7.054  1.00  0.00     0.004 C 
BRANCH   4   5
ATOM      5  C   UNL     1      -8.646  -4.684   8.453  1.00  0.00     0.000 C 
BRANCH   5   6
ATOM      6  C   UNL     1      -9.273  -3.656   9.407  1.00  0.00     0.000 C 
BRANCH   6   7
ATOM      7  C   UNL     1      -9.241  -2.248   8.793  1.00  0.00     0.000 C 
BRANCH   7   8
ATOM      8  C   UNL     1      -9.746  -1.163   9.762  1.00  0.00     0.006 C 
BRANCH   8   9
ATOM      9  C   UNL     1     -11.147  -0.622   9.434  1.00  0.00     0.053 C 
BRANCH   9  10
ATOM     10  C   UNL     1     -11.166   0.143   8.147  1.00  0.00     0.041 C 
ATOM     11  O   UNL     1     -10.716   1.318   8.100  1.00  0.00    -0.550 OA
ATOM     12  O   UNL     1     -11.712  -0.431   7.005  1.00  0.00    -0.550 OA
ENDBRANCH   9  10
ENDBRANCH   8   9
ENDBRANCH   7   8
ENDBRANCH   6   7
ENDBRANCH   5   6
ENDBRANCH   4   5
ENDBRANCH   3   4
ENDBRANCH   1   3
BRANCH   2  13
ATOM     13  C   UNL     1      -5.293  -7.888   7.112  1.00  0.00     0.027 C 
BRANCH  13  14
ATOM     14  C   UNL     1      -3.778  -7.861   6.862  1.00  0.00     0.004 C 
BRANCH  14  15
ATOM     15  C   UNL     1      -3.420  -7.308   5.474  1.00  0.00     0.000 C 
BRANCH  15  16
ATOM     16  C   UNL     1      -1.902  -7.299   5.217  1.00  0.00     0.000 C 
BRANCH  16  17
ATOM     17  C   UNL     1      -1.559  -7.342   3.719  1.00  0.00    -0.000 C 
BRANCH  17  18
ATOM     18  C   UNL     1      -1.218  -5.952   3.153  1.00  0.00    -0.000 C 
BRANCH  18  19
ATOM     19  C   UNL     1      -1.129  -4.877   4.247  1.00  0.00    -0.003 C 
ATOM     20  C   UNL     1      -0.164  -3.748   3.889  1.00  0.00     0.004 C 
ENDBRANCH  18  19
ENDBRANCH  17  18
ENDBRANCH  16  17
ENDBRANCH  15  16
ENDBRANCH  14  15
ENDBRANCH  13  14
ENDBRANCH   2  13
TORSDOF 15
ENDMDL
MODEL 2
REMARK VINA RESULT:    -3.458      4.002      9.597
REMARK INTER + INTRA:          -7.343
REMARK INTER:                  -6.390
REMARK INTRA:                  -0.953
REMARK UNBOUND:                -0.853
REMARK SMILES CCCCCCCCC=CCCCCCCCC(=O)[O-]
REMARK SMILES IDX 10 1 9 2 11 3 12 4 13 5 14 6 15 7 16 8 17 9 18 10 19 11
REMARK SMILES IDX 20 12 8 13 7 14 6 15 5 16 4 17 3 18 2 19 1 20
REMARK H PARENT
REMARK Flexibility Score: inf
ROOT
ATOM      1  C   UNL     1      -8.226  -4.077   6.679  1.00  0.00    -0.031 C 
ATOM      2  C   UNL     1      -8.599  -4.159   7.964  1.00  0.00    -0.031 C 
ENDROOT
BRANCH   1   3
ATOM      3  C   UNL     1      -7.848  -5.299   5.888  1.00  0.00     0.027 C 
BRANCH   3   4
ATOM      4  C   UNL     1      -7.170  -6.348   6.783  1.00  0.00     0.004 C 
BRANCH   4   5
ATOM      5  C   UNL     1      -5.854  -6.871   6.187  1.00  0.00     0.000 C 
BRANCH   5   6
ATOM      6  C   UNL     1      -5.129  -7.850   7.125  1.00  0.00     0.000 C 
BRANCH   6   7
ATOM      7  C   UNL     1      -3.637  -7.943   6.773  1.00  0.00     0.000 C 
BRANCH   7   8
ATOM      8  C   UNL     1      -3.277  -7.175   5.487  1.00  0.00     0.006 C 
BRANCH   8   9
ATOM      9  C   UNL     1      -1.775  -7.153   5.161  1.00  0.00     0.053 C 
BRANCH   9  10
ATOM     10  C   UNL     1      -1.494  -6.473   3.857  1.00  0.00     0.041 C 
ATOM     11  O   UNL     1      -1.624  -7.101   2.774  1.00  0.00    -0.550 OA
ATOM     12  O   UNL     1      -1.055  -5.155   3.840  1.00  0.00    -0.550 OA
ENDBRANCH   9  10
ENDBRANCH   8   9
ENDBRANCH   7   8
ENDBRANCH   6   7
ENDBRANCH   5   6
ENDBRANCH   4   5
ENDBRANCH   3   4
ENDBRANCH   1   3
BRANCH   2  13
ATOM     13  C   UNL     1      -8.976  -2.937   8.756  1.00  0.00     0.027 C 
BRANCH  13  14
ATOM     14  C   UNL     1      -9.620  -3.322  10.096  1.00  0.00     0.004 C 
BRANCH  14  15
ATOM     15  C   UNL     1     -10.024  -2.096  10.929  1.00  0.00     0.000 C 
BRANCH  15  16
ATOM     16  C   UNL     1      -9.369  -0.798  10.425  1.00  0.00     0.000 C 
BRANCH  16  17
ATOM     17  C   UNL     1     -10.396   0.201   9.865  1.00  0.00    -0.000 C 
BRANCH  17  18
ATOM     18  C   UNL     1     -11.512  -0.490   9.062  1.00  0.00    -0.000 C 
BRANCH  18  19
ATOM     19  C   UNL     1     -11.300  -0.379   7.545  1.00  0.00    -0.003 C 
ATOM     20  C   UNL     1     -10.944   1.039   7.100  1.00  0.00     0.004 C 
ENDBRANCH  18  19
ENDBRANCH  17  18
ENDBRANCH  16  17
ENDBRANCH  15  16
ENDBRANCH  14  15
ENDBRANCH  13  14
ENDBRANCH   2  13
TORSDOF 15
ENDMDL
MODEL 3
REMARK VINA RESULT:    -3.356      1.807      2.087
REMARK INTER + INTRA:          -7.152
REMARK INTER:                  -6.464
REMARK INTRA:                  -0.688
REMARK UNBOUND:                -0.853
REMARK SMILES CCCCCCCCC=CCCCCCCCC(=O)[O-]
REMARK SMILES IDX 10 1 9 2 11 3 12 4 13 5 14 6 15 7 16 8 17 9 18 10 19 11
REMARK SMILES IDX 20 12 8 13 7 14 6 15 5 16 4 17 3 18 2 19 1 20
REMARK H PARENT
REMARK Flexibility Score: inf
ROOT
ATOM      1  C   UNL     1      -7.240  -6.173   6.758  1.00  0.00    -0.031 C 
ATOM      2  C   UNL     1      -6.059  -6.683   6.378  1.00  0.00    -0.031 C 
ENDROOT
BRANCH   1   3
ATOM      3  C   UNL     1      -7.892  -5.048   6.002  1.00  0.00     0.027 C 
BRANCH   3   4
ATOM      4  C   UNL     1      -8.446  -3.985   6.962  1.00  0.00     0.004 C 
BRANCH   4   5
ATOM      5  C   UNL     1      -8.625  -4.516   8.393  1.00  0.00     0.000 C 
BRANCH   5   6
ATOM      6  C   UNL     1      -9.324  -3.505   9.315  1.00  0.00     0.000 C 
BRANCH   6   7
ATOM      7  C   UNL     1      -9.212  -2.081   8.752  1.00  0.00     0.000 C 
BRANCH   7   8
ATOM      8  C   UNL     1     -10.270  -1.125   9.332  1.00  0.00     0.006 C 
BRANCH   8   9
ATOM      9  C   UNL     1      -9.749  -0.201  10.444  1.00  0.00     0.053 C 
BRANCH   9  10
ATOM     10  C   UNL     1      -8.876  -0.931  11.416  1.00  0.00     0.041 C 
ATOM     11  O   UNL     1      -9.366  -1.807  12.176  1.00  0.00    -0.550 OA
ATOM     12  O   UNL     1      -7.524  -0.620  11.507  1.00  0.00    -0.550 OA
ENDBRANCH   9  10
ENDBRANCH   8   9
ENDBRANCH   7   8
ENDBRANCH   6   7
ENDBRANCH   5   6
ENDBRANCH   4   5
ENDBRANCH   3   4
ENDBRANCH   1   3
BRANCH   2  13
ATOM     13  C   UNL     1      -5.406  -7.807   7.135  1.00  0.00     0.027 C 
BRANCH  13  14
ATOM     14  C   UNL     1      -3.891  -7.837   6.884  1.00  0.00     0.004 C 
BRANCH  14  15
ATOM     15  C   UNL     1      -3.526  -7.479   5.435  1.00  0.00     0.000 C 
BRANCH  15  16
ATOM     16  C   UNL     1      -2.035  -7.134   5.271  1.00  0.00     0.000 C 
BRANCH  16  17
ATOM     17  C   UNL     1      -1.546  -7.313   3.824  1.00  0.00    -0.000 C 
BRANCH  17  18
ATOM     18  C   UNL     1      -1.149  -5.979   3.167  1.00  0.00    -0.000 C 
BRANCH  18  19
ATOM     19  C   UNL     1      -1.168  -4.807   4.160  1.00  0.00    -0.003 C 
ATOM     20  C   UNL     1      -0.110  -3.750   3.846  1.00  0.00     0.004 C 
ENDBRANCH  18  19
ENDBRANCH  17  18
ENDBRANCH  16  17
ENDBRANCH  15  16
ENDBRANCH  14  15
ENDBRANCH  13  14
ENDBRANCH   2  13
TORSDOF 15
ENDMDL
MODEL 4
REMARK VINA RESULT:    -3.292     11.347     15.078
REMARK INTER + INTRA:          -7.032
REMARK INTER:                  -5.750
REMARK INTRA:                  -1.282
REMARK UNBOUND:                -0.853
REMARK SMILES CCCCCCCCC=CCCCCCCCC(=O)[O-]
REMARK SMILES IDX 10 1 9 2 11 3 12 4 13 5 14 6 15 7 16 8 17 9 18 10 19 11
REMARK SMILES IDX 20 12 8 13 7 14 6 15 5 16 4 17 3 18 2 19 1 20
REMARK H PARENT
REMARK Flexibility Score: inf
ROOT
ATOM      1  C   UNL     1     -10.212 -14.509  13.041  1.00  0.00    -0.031 C 
ATOM      2  C   UNL     1     -10.488 -13.260  12.638  1.00  0.00    -0.031 C 
ENDROOT
BRANCH   1   3
ATOM      3  C   UNL     1      -9.443 -15.466  12.172  1.00  0.00     0.027 C 
BRANCH   3   4
ATOM      4  C   UNL     1      -8.512 -14.712  11.210  1.00  0.00     0.004 C 
BRANCH   4   5
ATOM      5  C   UNL     1      -7.052 -15.178  11.313  1.00  0.00     0.000 C 
BRANCH   5   6
ATOM      6  C   UNL     1      -6.084 -14.026  11.624  1.00  0.00     0.000 C 
BRANCH   6   7
ATOM      7  C   UNL     1      -6.793 -12.668  11.508  1.00  0.00     0.000 C 
BRANCH   7   8
ATOM      8  C   UNL     1      -6.681 -11.824  12.791  1.00  0.00     0.006 C 
BRANCH   8   9
ATOM      9  C   UNL     1      -7.882 -11.954  13.743  1.00  0.00     0.053 C 
BRANCH   9  10
ATOM     10  C   UNL     1      -7.509 -12.624  15.029  1.00  0.00     0.041 C 
ATOM     11  O   UNL     1      -7.107 -11.940  16.007  1.00  0.00    -0.550 OA
ATOM     12  O   UNL     1      -7.572 -14.008  15.136  1.00  0.00    -0.550 OA
ENDBRANCH   9  10
ENDBRANCH   8   9
ENDBRANCH   7   8
ENDBRANCH   6   7
ENDBRANCH   5   6
ENDBRANCH   4   5
ENDBRANCH   3   4
ENDBRANCH   1   3
BRANCH   2  13
ATOM     13  C   UNL     1     -11.259 -12.304  13.506  1.00  0.00     0.027 C 
BRANCH  13  14
ATOM     14  C   UNL     1     -11.275 -12.774  14.968  1.00  0.00     0.004 C 
BRANCH  14  15
ATOM     15  C   UNL     1     -12.612 -12.482  15.666  1.00  0.00     0.000 C 
BRANCH  15  16
ATOM     16  C   UNL     1     -13.008 -13.582  16.667  1.00  0.00     0.000 C 
BRANCH  16  17
ATOM     17  C   UNL     1     -14.437 -14.100  16.438  1.00  0.00    -0.000 C 
BRANCH  17  18
ATOM     18  C   UNL     1     -15.506 -13.040  16.758  1.00  0.00    -0.000 C 
BRANCH  18  19
ATOM     19  C   UNL     1     -16.867 -13.664  17.103  1.00  0.00    -0.003 C 
ATOM     20  C   UNL     1     -17.265 -13.443  18.562  1.00  0.00     0.004 C 
ENDBRANCH  18  19
ENDBRANCH  17  18
ENDBRANCH  16  17
ENDBRANCH  15  16
ENDBRANCH  14  15
ENDBRANCH  13  14
ENDBRANCH   2  13
TORSDOF 15
ENDMDL
MODEL 5
REMARK VINA RESULT:    -2.984     11.078     12.847
REMARK INTER + INTRA:          -6.453
REMARK INTER:                  -5.354
REMARK INTRA:                  -1.099
REMARK UNBOUND:                -0.853
REMARK SMILES CCCCCCCCC=CCCCCCCCC(=O)[O-]
REMARK SMILES IDX 10 1 9 2 11 3 12 4 13 5 14 6 15 7 16 8 17 9 18 10 19 11
REMARK SMILES IDX 20 12 8 13 7 14 6 15 5 16 4 17 3 18 2 19 1 20
REMARK H PARENT
REMARK Flexibility Score: inf
ROOT
ATOM      1  C   UNL     1      -9.994 -12.880  11.618  1.00  0.00    -0.031 C 
ATOM      2  C   UNL     1     -10.542 -14.066  11.315  1.00  0.00    -0.031 C 
ENDROOT
BRANCH   1   3
ATOM      3  C   UNL     1     -10.835 -11.644  11.787  1.00  0.00     0.027 C 
BRANCH   3   4
ATOM      4  C   UNL     1     -11.465 -11.592  13.187  1.00  0.00     0.004 C 
BRANCH   4   5
ATOM      5  C   UNL     1     -10.676 -12.409  14.222  1.00  0.00     0.000 C 
BRANCH   5   6
ATOM      6  C   UNL     1     -11.560 -13.408  14.984  1.00  0.00     0.000 C 
BRANCH   6   7
ATOM      7  C   UNL     1     -12.403 -12.691  16.051  1.00  0.00     0.000 C 
BRANCH   7   8
ATOM      8  C   UNL     1     -13.613 -13.523  16.514  1.00  0.00     0.006 C 
BRANCH   8   9
ATOM      9  C   UNL     1     -14.954 -12.774  16.461  1.00  0.00     0.053 C 
BRANCH   9  10
ATOM     10  C   UNL     1     -16.099 -13.645  16.877  1.00  0.00     0.041 C 
ATOM     11  O   UNL     1     -16.657 -13.470  17.992  1.00  0.00    -0.550 OA
ATOM     12  O   UNL     1     -16.529 -14.674  16.047  1.00  0.00    -0.550 OA
ENDBRANCH   9  10
ENDBRANCH   8   9
ENDBRANCH   7   8
ENDBRANCH   6   7
ENDBRANCH   5   6
ENDBRANCH   4   5
ENDBRANCH   3   4
ENDBRANCH   1   3
BRANCH   2  13
ATOM     13  C   UNL     1      -9.701 -15.302  11.145  1.00  0.00     0.027 C 
BRANCH  13  14
ATOM     14  C   UNL     1      -8.449 -15.246  12.032  1.00  0.00     0.004 C 
BRANCH  14  15
ATOM     15  C   UNL     1      -7.197 -14.804  11.259  1.00  0.00     0.000 C 
BRANCH  15  16
ATOM     16  C   UNL     1      -6.334 -13.809  12.055  1.00  0.00     0.000 C 
BRANCH  16  17
ATOM     17  C   UNL     1      -6.811 -12.356  11.896  1.00  0.00    -0.000 C 
BRANCH  17  18
ATOM     18  C   UNL     1      -7.283 -11.743  13.226  1.00  0.00    -0.000 C 
BRANCH  18  19
ATOM     19  C   UNL     1      -7.525 -12.805  14.310  1.00  0.00    -0.003 C 
ATOM     20  C   UNL     1      -7.239 -12.286  15.719  1.00  0.00     0.004 C 
ENDBRANCH  18  19
ENDBRANCH  17  18
ENDBRANCH  16  17
ENDBRANCH  15  16
ENDBRANCH  14  15
ENDBRANCH  13  14
ENDBRANCH   2  13
TORSDOF 15
ENDMDL
MODEL 6
REMARK VINA RESULT:    -2.944      3.724      9.375
REMARK INTER + INTRA:          -6.378
REMARK INTER:                  -5.455
REMARK INTRA:                  -0.923
REMARK UNBOUND:                -0.853
REMARK SMILES CCCCCCCCC=CCCCCCCCC(=O)[O-]
REMARK SMILES IDX 10 1 9 2 11 3 12 4 13 5 14 6 15 7 16 8 17 9 18 10 19 11
REMARK SMILES IDX 20 12 8 13 7 14 6 15 5 16 4 17 3 18 2 19 1 20
REMARK H PARENT
REMARK Flexibility Score: inf
ROOT
ATOM      1  C   UNL     1      -6.189  -6.726   6.419  1.00  0.00    -0.031 C 
ATOM      2  C   UNL     1      -7.315  -6.143   6.856  1.00  0.00    -0.031 C 
ENDROOT
BRANCH   1   3
ATOM      3  C   UNL     1      -5.592  -7.913   7.123  1.00  0.00     0.027 C 
BRANCH   3   4
ATOM      4  C   UNL     1      -4.057  -7.863   7.087  1.00  0.00     0.004 C 
BRANCH   4   5
ATOM      5  C   UNL     1      -3.515  -7.322   5.755  1.00  0.00     0.000 C 
BRANCH   5   6
ATOM      6  C   UNL     1      -1.989  -7.463   5.638  1.00  0.00     0.000 C 
BRANCH   6   7
ATOM      7  C   UNL     1      -1.571  -7.701   4.179  1.00  0.00     0.000 C 
BRANCH   7   8
ATOM      8  C   UNL     1      -1.703  -6.440   3.306  1.00  0.00     0.006 C 
BRANCH   8   9
ATOM      9  C   UNL     1      -0.463  -5.531   3.313  1.00  0.00     0.053 C 
BRANCH   9  10
ATOM     10  C   UNL     1      -0.713  -4.246   4.038  1.00  0.00     0.041 C 
ATOM     11  O   UNL     1       0.067  -3.269   3.886  1.00  0.00    -0.550 OA
ATOM     12  O   UNL     1      -1.790  -4.136   4.909  1.00  0.00    -0.550 OA
ENDBRANCH   9  10
ENDBRANCH   8   9
ENDBRANCH   7   8
ENDBRANCH   6   7
ENDBRANCH   5   6
ENDBRANCH   4   5
ENDBRANCH   3   4
ENDBRANCH   1   3
BRANCH   2  13
ATOM     13  C   UNL     1      -7.912  -4.954   6.153  1.00  0.00     0.027 C 
BRANCH  13  14
ATOM     14  C   UNL     1      -8.599  -4.009   7.149  1.00  0.00     0.004 C 
BRANCH  14  15
ATOM     15  C   UNL     1      -8.627  -4.576   8.577  1.00  0.00     0.000 C 
BRANCH  15  16
ATOM     16  C   UNL     1      -9.453  -3.706   9.541  1.00  0.00     0.000 C 
BRANCH  16  17
ATOM     17  C   UNL     1      -9.182  -2.204   9.357  1.00  0.00    -0.000 C 
BRANCH  17  18
ATOM     18  C   UNL     1      -9.752  -1.357  10.509  1.00  0.00    -0.000 C 
BRANCH  18  19
ATOM     19  C   UNL     1     -10.321  -0.014  10.026  1.00  0.00    -0.003 C 
ATOM     20  C   UNL     1     -11.065  -0.132   8.696  1.00  0.00     0.004 C 
ENDBRANCH  18  19
ENDBRANCH  17  18
ENDBRANCH  16  17
ENDBRANCH  15  16
ENDBRANCH  14  15
ENDBRANCH  13  14
ENDBRANCH   2  13
TORSDOF 15
ENDMDL
MODEL 7
REMARK VINA RESULT:    -2.894      4.504     10.745
REMARK INTER + INTRA:          -6.284
REMARK INTER:                  -5.216
REMARK INTRA:                  -1.068
REMARK UNBOUND:                -0.853
REMARK SMILES CCCCCCCCC=CCCCCCCCC(=O)[O-]
REMARK SMILES IDX 10 1 9 2 11 3 12 4 13 5 14 6 15 7 16 8 17 9 18 10 19 11
REMARK SMILES IDX 20 12 8 13 7 14 6 15 5 16 4 17 3 18 2 19 1 20
REMARK H PARENT
REMARK Flexibility Score: inf
ROOT
ATOM      1  C   UNL     1     -10.785  -2.693  11.451  1.00  0.00    -0.031 C 
ATOM      2  C   UNL     1     -10.833  -4.028  11.334  1.00  0.00    -0.031 C 
ENDROOT
BRANCH   1   3
ATOM      3  C   UNL     1      -9.677  -1.887  10.828  1.00  0.00     0.027 C 
BRANCH   3   4
ATOM      4  C   UNL     1     -10.219  -0.957   9.733  1.00  0.00     0.004 C 
BRANCH   4   5
ATOM      5  C   UNL     1      -9.767  -1.375   8.325  1.00  0.00     0.000 C 
BRANCH   5   6
ATOM      6  C   UNL     1      -9.003  -2.708   8.322  1.00  0.00     0.000 C 
BRANCH   6   7
ATOM      7  C   UNL     1      -8.477  -3.035   6.916  1.00  0.00     0.000 C 
BRANCH   7   8
ATOM      8  C   UNL     1      -8.326  -4.547   6.672  1.00  0.00     0.006 C 
BRANCH   8   9
ATOM      9  C   UNL     1      -7.573  -4.909   5.381  1.00  0.00     0.053 C 
BRANCH   9  10
ATOM     10  C   UNL     1      -8.163  -4.236   4.181  1.00  0.00     0.041 C 
ATOM     11  O   UNL     1      -9.307  -4.561   3.768  1.00  0.00    -0.550 OA
ATOM     12  O   UNL     1      -7.433  -3.271   3.496  1.00  0.00    -0.550 OA
ENDBRANCH   9  10
ENDBRANCH   8   9
ENDBRANCH   7   8
ENDBRANCH   6   7
ENDBRANCH   5   6
ENDBRANCH   4   5
ENDBRANCH   3   4
ENDBRANCH   1   3
BRANCH   2  13
ATOM     13  C   UNL     1     -11.940  -4.834  11.957  1.00  0.00     0.027 C 
BRANCH  13  14
ATOM     14  C   UNL     1     -13.136  -3.942  12.322  1.00  0.00     0.004 C 
BRANCH  14  15
ATOM     15  C   UNL     1     -14.451  -4.731  12.418  1.00  0.00     0.000 C 
BRANCH  15  16
ATOM     16  C   UNL     1     -15.690  -3.817  12.395  1.00  0.00     0.000 C 
BRANCH  16  17
ATOM     17  C   UNL     1     -15.573  -2.643  13.381  1.00  0.00    -0.000 C 
BRANCH  17  18
ATOM     18  C   UNL     1     -16.090  -1.321  12.787  1.00  0.00    -0.000 C 
BRANCH  18  19
ATOM     19  C   UNL     1     -16.117  -1.339  11.251  1.00  0.00    -0.003 C 
ATOM     20  C   UNL     1     -17.221  -0.457  10.669  1.00  0.00     0.004 C 
ENDBRANCH  18  19
ENDBRANCH  17  18
ENDBRANCH  16  17
ENDBRANCH  15  16
ENDBRANCH  14  15
ENDBRANCH  13  14
ENDBRANCH   2  13
TORSDOF 15
ENDMDL
MODEL 8
REMARK VINA RESULT:    -2.785      3.103      3.582
REMARK INTER + INTRA:          -6.079
REMARK INTER:                  -5.104
REMARK INTRA:                  -0.975
REMARK UNBOUND:                -0.853
REMARK SMILES CCCCCCCCC=CCCCCCCCC(=O)[O-]
REMARK SMILES IDX 10 1 9 2 11 3 12 4 13 5 14 6 15 7 16 8 17 9 18 10 19 11
REMARK SMILES IDX 20 12 8 13 7 14 6 15 5 16 4 17 3 18 2 19 1 20
REMARK H PARENT
REMARK Flexibility Score: inf
ROOT
ATOM      1  C   UNL     1      -7.147  -6.346   7.128  1.00  0.00    -0.031 C 
ATOM      2  C   UNL     1      -6.072  -6.885   6.534  1.00  0.00    -0.031 C 
ENDROOT
BRANCH   1   3
ATOM      3  C   UNL     1      -7.942  -5.250   6.473  1.00  0.00     0.027 C 
BRANCH   3   4
ATOM      4  C   UNL     1      -7.862  -5.348   4.942  1.00  0.00     0.004 C 
BRANCH   4   5
ATOM      5  C   UNL     1      -8.353  -4.072   4.241  1.00  0.00     0.000 C 
BRANCH   5   6
ATOM      6  C   UNL     1      -7.197  -3.182   3.759  1.00  0.00     0.000 C 
BRANCH   6   7
ATOM      7  C   UNL     1      -6.150  -2.994   4.867  1.00  0.00     0.000 C 
BRANCH   7   8
ATOM      8  C   UNL     1      -5.985  -1.523   5.290  1.00  0.00     0.006 C 
BRANCH   8   9
ATOM      9  C   UNL     1      -6.859  -0.535   4.501  1.00  0.00     0.053 C 
BRANCH   9  10
ATOM     10  C   UNL     1      -6.623   0.882   4.922  1.00  0.00     0.041 C 
ATOM     11  O   UNL     1      -5.670   1.164   5.696  1.00  0.00    -0.550 OA
ATOM     12  O   UNL     1      -7.477   1.889   4.487  1.00  0.00    -0.550 OA
ENDBRANCH   9  10
ENDBRANCH   8   9
ENDBRANCH   7   8
ENDBRANCH   6   7
ENDBRANCH   5   6
ENDBRANCH   4   5
ENDBRANCH   3   4
ENDBRANCH   1   3
BRANCH   2  13
ATOM     13  C   UNL     1      -5.275  -7.980   7.189  1.00  0.00     0.027 C 
BRANCH  13  14
ATOM     14  C   UNL     1      -3.776  -7.827   6.894  1.00  0.00     0.004 C 
BRANCH  14  15
ATOM     15  C   UNL     1      -3.505  -7.306   5.475  1.00  0.00     0.000 C 
BRANCH  15  16
ATOM     16  C   UNL     1      -2.002  -7.254   5.143  1.00  0.00     0.000 C 
BRANCH  16  17
ATOM     17  C   UNL     1      -1.736  -7.173   3.631  1.00  0.00    -0.000 C 
BRANCH  17  18
ATOM     18  C   UNL     1      -0.813  -6.000   3.257  1.00  0.00    -0.000 C 
BRANCH  18  19
ATOM     19  C   UNL     1      -1.061  -4.757   4.125  1.00  0.00    -0.003 C 
ATOM     20  C   UNL     1      -0.080  -3.624   3.829  1.00  0.00     0.004 C 
ENDBRANCH  18  19
ENDBRANCH  17  18
ENDBRANCH  16  17
ENDBRANCH  15  16
ENDBRANCH  14  15
ENDBRANCH  13  14
ENDBRANCH   2  13
TORSDOF 15
ENDMDL
MODEL 9
REMARK VINA RESULT:    -2.425      4.322      5.988
REMARK INTER + INTRA:          -5.404
REMARK INTER:                  -4.400
REMARK INTRA:                  -1.004
REMARK UNBOUND:                -0.853
REMARK SMILES CCCCCCCCC=CCCCCCCCC(=O)[O-]
REMARK SMILES IDX 10 1 9 2 11 3 12 4 13 5 14 6 15 7 16 8 17 9 18 10 19 11
REMARK SMILES IDX 20 12 8 13 7 14 6 15 5 16 4 17 3 18 2 19 1 20
REMARK H PARENT
REMARK Flexibility Score: inf
ROOT
ATOM      1  C   UNL     1      -9.359  -2.738   9.278  1.00  0.00    -0.031 C 
ATOM      2  C   UNL     1      -8.924  -3.869   8.703  1.00  0.00    -0.031 C 
ENDROOT
BRANCH   1   3
ATOM      3  C   UNL     1      -9.761  -2.694  10.727  1.00  0.00     0.027 C 
BRANCH   3   4
ATOM      4  C   UNL     1     -10.340  -4.043  11.180  1.00  0.00     0.004 C 
BRANCH   4   5
ATOM      5  C   UNL     1     -11.733  -3.905  11.813  1.00  0.00     0.000 C 
BRANCH   5   6
ATOM      6  C   UNL     1     -12.465  -5.251  11.928  1.00  0.00     0.000 C 
BRANCH   6   7
ATOM      7  C   UNL     1     -13.944  -5.042  12.289  1.00  0.00     0.000 C 
BRANCH   7   8
ATOM      8  C   UNL     1     -14.330  -3.555  12.387  1.00  0.00     0.006 C 
BRANCH   8   9
ATOM      9  C   UNL     1     -15.783  -3.305  12.823  1.00  0.00     0.053 C 
BRANCH   9  10
ATOM     10  C   UNL     1     -16.091  -1.844  12.936  1.00  0.00     0.041 C 
ATOM     11  O   UNL     1     -15.987  -1.258  14.045  1.00  0.00    -0.550 OA
ATOM     12  O   UNL     1     -16.525  -1.137  11.821  1.00  0.00    -0.550 OA
ENDBRANCH   9  10
ENDBRANCH   8   9
ENDBRANCH   7   8
ENDBRANCH   6   7
ENDBRANCH   5   6
ENDBRANCH   4   5
ENDBRANCH   3   4
ENDBRANCH   1   3
BRANCH   2  13
ATOM     13  C   UNL     1      -8.523  -3.912   7.254  1.00  0.00     0.027 C 
BRANCH  13  14
ATOM     14  C   UNL     1      -7.904  -5.270   6.891  1.00  0.00     0.004 C 
BRANCH  14  15
ATOM     15  C   UNL     1      -7.452  -5.340   5.425  1.00  0.00     0.000 C 
BRANCH  15  16
ATOM     16  C   UNL     1      -8.326  -4.477   4.496  1.00  0.00     0.000 C 
BRANCH  16  17
ATOM     17  C   UNL     1      -7.512  -3.417   3.738  1.00  0.00    -0.000 C 
BRANCH  17  18
ATOM     18  C   UNL     1      -6.336  -2.872   4.568  1.00  0.00    -0.000 C 
BRANCH  18  19
ATOM     19  C   UNL     1      -6.356  -1.340   4.679  1.00  0.00    -0.003 C 
ATOM     20  C   UNL     1      -5.926  -0.842   6.058  1.00  0.00     0.004 C 
ENDBRANCH  18  19
ENDBRANCH  17  18
ENDBRANCH  16  17
ENDBRANCH  15  16
ENDBRANCH  14  15
ENDBRANCH  13  14
ENDBRANCH   2  13
TORSDOF 15
ENDMDL
