MODEL 1
REMARK VINA RESULT:    -6.144      0.000      0.000
REMARK INTER + INTRA:          -7.515
REMARK INTER:                  -7.222
REMARK INTRA:                  -0.293
REMARK UNBOUND:                -0.293
REMARK SMILES O=c1cc(-c2ccc(O)c(O)c2)oc2cc(O)cc(O)c12
REMARK SMILES IDX 4 1 3 2 2 3 1 4 21 5 19 6 18 7 16 8 15 9 14 10 13 11 5 12
REMARK SMILES IDX 6 13 7 14 8 15 12 16 10 17 9 18 11 20 20 22 17 24
REMARK H PARENT 9 19 11 21 20 23 17 25
REMARK Flexibility Score: inf
ROOT
ATOM      1  C   UNL     1      26.557  25.644 -13.339  1.00  0.00     0.138 A 
ATOM      2  C   UNL     1      26.233  26.133 -14.614  1.00  0.00     0.100 A 
ATOM      3  C   UNL     1      26.208  27.511 -14.836  1.00  0.00     0.197 A 
ATOM      4  O   UNL     1      25.913  27.940 -15.984  1.00  0.00    -0.289 OA
ATOM      5  C   UNL     1      26.506  28.391 -13.777  1.00  0.00     0.107 A 
ATOM      6  C   UNL     1      26.505  29.799 -13.916  1.00  0.00     0.134 A 
ATOM      7  C   UNL     1      26.807  30.607 -12.810  1.00  0.00     0.093 A 
ATOM      8  C   UNL     1      27.109  30.036 -11.571  1.00  0.00     0.123 A 
ATOM      9  C   UNL     1      27.111  28.645 -11.427  1.00  0.00     0.094 A 
ATOM     10  C   UNL     1      26.814  27.822 -12.517  1.00  0.00     0.146 A 
ATOM     11  O   UNL     1      26.825  26.502 -12.357  1.00  0.00    -0.456 OA
ENDROOT
BRANCH   1  12
ATOM     12  C   UNL     1      26.598  24.189 -13.045  1.00  0.00     0.021 A 
ATOM     13  C   UNL     1      25.559  23.361 -13.505  1.00  0.00     0.016 A 
ATOM     14  C   UNL     1      25.570  21.990 -13.236  1.00  0.00     0.051 A 
ATOM     15  C   UNL     1      26.614  21.425 -12.494  1.00  0.00     0.157 A 
ATOM     16  C   UNL     1      27.639  23.615 -12.287  1.00  0.00     0.062 A 
ATOM     17  C   UNL     1      27.648  22.239 -12.017  1.00  0.00     0.158 A 
BRANCH  15  18
ATOM     18  O   UNL     1      26.630  20.058 -12.225  1.00  0.00    -0.504 OA
ATOM     19  H   UNL     1      25.811  19.579 -11.869  1.00  0.00     0.293 HD
ENDBRANCH  15  18
BRANCH  17  20
ATOM     20  O   UNL     1      28.680  21.674 -11.268  1.00  0.00    -0.504 OA
ATOM     21  H   UNL     1      28.494  21.007 -10.529  1.00  0.00     0.293 HD
ENDBRANCH  17  20
ENDBRANCH   1  12
BRANCH   6  22
ATOM     22  O   UNL     1      26.206  30.398 -15.140  1.00  0.00    -0.507 OA
ATOM     23  H   UNL     1      25.262  30.683 -15.378  1.00  0.00     0.293 HD
ENDBRANCH   6  22
BRANCH   8  24
ATOM     24  O   UNL     1      27.406  30.861 -10.488  1.00  0.00    -0.508 OA
ATOM     25  H   UNL     1      27.810  30.492  -9.636  1.00  0.00     0.293 HD
ENDBRANCH   8  24
TORSDOF 5
ENDMDL
MODEL 2
REMARK VINA RESULT:    -6.081      5.615      7.073
REMARK INTER + INTRA:          -7.440
REMARK INTER:                  -7.161
REMARK INTRA:                  -0.279
REMARK UNBOUND:                -0.293
REMARK SMILES O=c1cc(-c2ccc(O)c(O)c2)oc2cc(O)cc(O)c12
REMARK SMILES IDX 4 1 3 2 2 3 1 4 21 5 19 6 18 7 16 8 15 9 14 10 13 11 5 12
REMARK SMILES IDX 6 13 7 14 8 15 12 16 10 17 9 18 11 20 20 22 17 24
REMARK H PARENT 9 19 11 21 20 23 17 25
REMARK Flexibility Score: inf
ROOT
ATOM      1  C   UNL     1      24.386  30.743 -11.427  1.00  0.00     0.138 A 
ATOM      2  C   UNL     1      24.200  30.784 -12.818  1.00  0.00     0.100 A 
ATOM      3  C   UNL     1      25.308  30.679 -13.661  1.00  0.00     0.197 A 
ATOM      4  O   UNL     1      25.131  30.718 -14.909  1.00  0.00    -0.289 OA
ATOM      5  C   UNL     1      26.594  30.536 -13.106  1.00  0.00     0.107 A 
ATOM      6  C   UNL     1      27.768  30.421 -13.888  1.00  0.00     0.134 A 
ATOM      7  C   UNL     1      29.014  30.288 -13.257  1.00  0.00     0.093 A 
ATOM      8  C   UNL     1      29.108  30.267 -11.864  1.00  0.00     0.123 A 
ATOM      9  C   UNL     1      27.952  30.380 -11.085  1.00  0.00     0.094 A 
ATOM     10  C   UNL     1      26.701  30.513 -11.694  1.00  0.00     0.146 A 
ATOM     11  O   UNL     1      25.616  30.616 -10.933  1.00  0.00    -0.456 OA
ENDROOT
BRANCH   1  12
ATOM     12  C   UNL     1      23.246  30.851 -10.481  1.00  0.00     0.021 A 
ATOM     13  C   UNL     1      22.433  31.999 -10.506  1.00  0.00     0.016 A 
ATOM     14  C   UNL     1      21.360  32.129  -9.622  1.00  0.00     0.051 A 
ATOM     15  C   UNL     1      21.085  31.120  -8.692  1.00  0.00     0.157 A 
ATOM     16  C   UNL     1      22.971  29.845  -9.533  1.00  0.00     0.062 A 
ATOM     17  C   UNL     1      21.893  29.977  -8.646  1.00  0.00     0.158 A 
BRANCH  15  18
ATOM     18  O   UNL     1      20.013  31.244  -7.811  1.00  0.00    -0.504 OA
ATOM     19  H   UNL     1      19.300  30.528  -7.740  1.00  0.00     0.293 HD
ENDBRANCH  15  18
BRANCH  17  20
ATOM     20  O   UNL     1      21.623  28.980  -7.710  1.00  0.00    -0.504 OA
ATOM     21  H   UNL     1      20.729  28.927  -7.235  1.00  0.00     0.293 HD
ENDBRANCH  17  20
ENDBRANCH   1  12
BRANCH   6  22
ATOM     22  O   UNL     1      27.705  30.440 -15.282  1.00  0.00    -0.507 OA
ATOM     23  H   UNL     1      28.503  30.708 -15.848  1.00  0.00     0.293 HD
ENDBRANCH   6  22
BRANCH   8  24
ATOM     24  O   UNL     1      30.358  30.133 -11.262  1.00  0.00    -0.508 OA
ATOM     25  H   UNL     1      30.975  30.927 -11.141  1.00  0.00     0.293 HD
ENDBRANCH   8  24
TORSDOF 5
ENDMDL
MODEL 3
REMARK VINA RESULT:    -5.712      5.678      6.865
REMARK INTER + INTRA:          -7.006
REMARK INTER:                  -6.689
REMARK INTRA:                  -0.318
REMARK UNBOUND:                -0.293
REMARK SMILES O=c1cc(-c2ccc(O)c(O)c2)oc2cc(O)cc(O)c12
REMARK SMILES IDX 4 1 3 2 2 3 1 4 21 5 19 6 18 7 16 8 15 9 14 10 13 11 5 12
REMARK SMILES IDX 6 13 7 14 8 15 12 16 10 17 9 18 11 20 20 22 17 24
REMARK H PARENT 9 19 11 21 20 23 17 25
REMARK Flexibility Score: inf
ROOT
ATOM      1  C   UNL     1      24.996  30.560 -13.137  1.00  0.00     0.138 A 
ATOM      2  C   UNL     1      24.689  30.329 -14.488  1.00  0.00     0.100 A 
ATOM      3  C   UNL     1      23.360  30.390 -14.910  1.00  0.00     0.197 A 
ATOM      4  O   UNL     1      23.095  30.180 -16.125  1.00  0.00    -0.289 OA
ATOM      5  C   UNL     1      22.346  30.679 -13.976  1.00  0.00     0.107 A 
ATOM      6  C   UNL     1      20.976  30.761 -14.320  1.00  0.00     0.134 A 
ATOM      7  C   UNL     1      20.026  31.048 -13.329  1.00  0.00     0.093 A 
ATOM      8  C   UNL     1      20.419  31.253 -12.004  1.00  0.00     0.123 A 
ATOM      9  C   UNL     1      21.771  31.173 -11.657  1.00  0.00     0.094 A 
ATOM     10  C   UNL     1      22.734  30.889 -12.630  1.00  0.00     0.146 A 
ATOM     11  O   UNL     1      24.014  30.821 -12.278  1.00  0.00    -0.456 OA
ENDROOT
BRANCH   1  12
ATOM     12  C   UNL     1      26.391  30.507 -12.631  1.00  0.00     0.021 A 
ATOM     13  C   UNL     1      27.451  30.336 -13.540  1.00  0.00     0.016 A 
ATOM     14  C   UNL     1      28.771  30.276 -13.088  1.00  0.00     0.051 A 
ATOM     15  C   UNL     1      29.056  30.376 -11.722  1.00  0.00     0.157 A 
ATOM     16  C   UNL     1      26.684  30.593 -11.255  1.00  0.00     0.062 A 
ATOM     17  C   UNL     1      28.010  30.532 -10.803  1.00  0.00     0.158 A 
BRANCH  15  18
ATOM     18  O   UNL     1      30.372  30.319 -11.267  1.00  0.00    -0.504 OA
ATOM     19  H   UNL     1      31.100  30.887 -11.683  1.00  0.00     0.293 HD
ENDBRANCH  15  18
BRANCH  17  20
ATOM     20  O   UNL     1      28.297  30.619  -9.442  1.00  0.00    -0.504 OA
ATOM     21  H   UNL     1      29.099  31.135  -9.101  1.00  0.00     0.293 HD
ENDBRANCH  17  20
ENDBRANCH   1  12
BRANCH   6  22
ATOM     22  O   UNL     1      20.554  30.559 -15.635  1.00  0.00    -0.507 OA
ATOM     23  H   UNL     1      19.848  31.148 -16.064  1.00  0.00     0.293 HD
ENDBRANCH   6  22
BRANCH   8  24
ATOM     24  O   UNL     1      19.455  31.536 -11.038  1.00  0.00    -0.508 OA
ATOM     25  H   UNL     1      19.235  30.878 -10.300  1.00  0.00     0.293 HD
ENDBRANCH   8  24
TORSDOF 5
ENDMDL
MODEL 4
REMARK VINA RESULT:    -5.692     15.251     17.340
REMARK INTER + INTRA:          -6.984
REMARK INTER:                  -6.719
REMARK INTRA:                  -0.265
REMARK UNBOUND:                -0.293
REMARK SMILES O=c1cc(-c2ccc(O)c(O)c2)oc2cc(O)cc(O)c12
REMARK SMILES IDX 4 1 3 2 2 3 1 4 21 5 19 6 18 7 16 8 15 9 14 10 13 11 5 12
REMARK SMILES IDX 6 13 7 14 8 15 12 16 10 17 9 18 11 20 20 22 17 24
REMARK H PARENT 9 19 11 21 20 23 17 25
REMARK Flexibility Score: inf
ROOT
ATOM      1  C   UNL     1      21.271  19.294   0.870  1.00  0.00     0.138 A 
ATOM      2  C   UNL     1      22.104  19.656   1.941  1.00  0.00     0.100 A 
ATOM      3  C   UNL     1      23.444  19.262   1.932  1.00  0.00     0.197 A 
ATOM      4  O   UNL     1      24.184  19.591   2.899  1.00  0.00    -0.289 OA
ATOM      5  C   UNL     1      23.939  18.507   0.851  1.00  0.00     0.107 A 
ATOM      6  C   UNL     1      25.282  18.070   0.762  1.00  0.00     0.134 A 
ATOM      7  C   UNL     1      25.696  17.316  -0.346  1.00  0.00     0.093 A 
ATOM      8  C   UNL     1      24.796  16.991  -1.363  1.00  0.00     0.123 A 
ATOM      9  C   UNL     1      23.467  17.420  -1.281  1.00  0.00     0.094 A 
ATOM     10  C   UNL     1      23.035  18.173  -0.186  1.00  0.00     0.146 A 
ATOM     11  O   UNL     1      21.768  18.572  -0.131  1.00  0.00    -0.456 OA
ENDROOT
BRANCH   1  12
ATOM     12  C   UNL     1      19.838  19.684   0.827  1.00  0.00     0.021 A 
ATOM     13  C   UNL     1      19.475  20.921   0.266  1.00  0.00     0.016 A 
ATOM     14  C   UNL     1      18.135  21.313   0.220  1.00  0.00     0.051 A 
ATOM     15  C   UNL     1      17.137  20.482   0.741  1.00  0.00     0.157 A 
ATOM     16  C   UNL     1      18.830  18.858   1.362  1.00  0.00     0.062 A 
ATOM     17  C   UNL     1      17.485  19.253   1.315  1.00  0.00     0.158 A 
BRANCH  15  18
ATOM     18  O   UNL     1      15.799  20.869   0.695  1.00  0.00    -0.504 OA
ATOM     19  H   UNL     1      15.335  21.267   1.502  1.00  0.00     0.293 HD
ENDBRANCH  15  18
BRANCH  17  20
ATOM     20  O   UNL     1      16.489  18.434   1.844  1.00  0.00    -0.504 OA
ATOM     21  H   UNL     1      15.732  18.812   2.401  1.00  0.00     0.293 HD
ENDBRANCH  17  20
ENDBRANCH   1  12
BRANCH   6  22
ATOM     22  O   UNL     1      26.204  18.378   1.764  1.00  0.00    -0.507 OA
ATOM     23  H   UNL     1      26.017  19.092   2.459  1.00  0.00     0.293 HD
ENDBRANCH   6  22
BRANCH   8  24
ATOM     24  O   UNL     1      25.232  16.240  -2.453  1.00  0.00    -0.508 OA
ATOM     25  H   UNL     1      25.543  16.682  -3.310  1.00  0.00     0.293 HD
ENDBRANCH   8  24
TORSDOF 5
ENDMDL
MODEL 5
REMARK VINA RESULT:    -5.639      1.603      6.599
REMARK INTER + INTRA:          -6.920
REMARK INTER:                  -6.630
REMARK INTRA:                  -0.291
REMARK UNBOUND:                -0.293
REMARK SMILES O=c1cc(-c2ccc(O)c(O)c2)oc2cc(O)cc(O)c12
REMARK SMILES IDX 4 1 3 2 2 3 1 4 21 5 19 6 18 7 16 8 15 9 14 10 13 11 5 12
REMARK SMILES IDX 6 13 7 14 8 15 12 16 10 17 9 18 11 20 20 22 17 24
REMARK H PARENT 9 19 11 21 20 23 17 25
REMARK Flexibility Score: inf
ROOT
ATOM      1  C   UNL     1      26.746  26.974 -12.606  1.00  0.00     0.138 A 
ATOM      2  C   UNL     1      26.072  27.082 -13.833  1.00  0.00     0.100 A 
ATOM      3  C   UNL     1      25.678  25.923 -14.504  1.00  0.00     0.197 A 
ATOM      4  O   UNL     1      25.075  26.030 -15.606  1.00  0.00    -0.289 OA
ATOM      5  C   UNL     1      25.963  24.663 -13.943  1.00  0.00     0.107 A 
ATOM      6  C   UNL     1      25.597  23.441 -14.555  1.00  0.00     0.134 A 
ATOM      7  C   UNL     1      25.924  22.226 -13.934  1.00  0.00     0.093 A 
ATOM      8  C   UNL     1      26.607  22.210 -12.715  1.00  0.00     0.123 A 
ATOM      9  C   UNL     1      26.971  23.415 -12.105  1.00  0.00     0.094 A 
ATOM     10  C   UNL     1      26.654  24.636 -12.707  1.00  0.00     0.146 A 
ATOM     11  O   UNL     1      27.008  25.768 -12.107  1.00  0.00    -0.456 OA
ENDROOT
BRANCH   1  12
ATOM     12  C   UNL     1      27.190  28.171 -11.848  1.00  0.00     0.021 A 
ATOM     13  C   UNL     1      27.872  29.201 -12.521  1.00  0.00     0.016 A 
ATOM     14  C   UNL     1      28.307  30.334 -11.830  1.00  0.00     0.051 A 
ATOM     15  C   UNL     1      28.078  30.454 -10.455  1.00  0.00     0.157 A 
ATOM     16  C   UNL     1      26.975  28.292 -10.461  1.00  0.00     0.062 A 
ATOM     17  C   UNL     1      27.413  29.430  -9.768  1.00  0.00     0.158 A 
BRANCH  15  18
ATOM     18  O   UNL     1      28.508  31.584  -9.762  1.00  0.00    -0.504 OA
ATOM     19  H   UNL     1      29.466  31.907  -9.819  1.00  0.00     0.293 HD
ENDBRANCH  15  18
BRANCH  17  20
ATOM     20  O   UNL     1      27.197  29.548  -8.396  1.00  0.00    -0.504 OA
ATOM     21  H   UNL     1      27.961  29.717  -7.752  1.00  0.00     0.293 HD
ENDBRANCH  17  20
ENDBRANCH   1  12
BRANCH   6  22
ATOM     22  O   UNL     1      24.916  23.425 -15.773  1.00  0.00    -0.507 OA
ATOM     23  H   UNL     1      24.908  22.604 -16.368  1.00  0.00     0.293 HD
ENDBRANCH   6  22
BRANCH   8  24
ATOM     24  O   UNL     1      26.919  20.990 -12.119  1.00  0.00    -0.508 OA
ATOM     25  H   UNL     1      27.852  20.791 -11.778  1.00  0.00     0.293 HD
ENDBRANCH   8  24
TORSDOF 5
ENDMDL
MODEL 6
REMARK VINA RESULT:    -5.573      1.827      3.001
REMARK INTER + INTRA:          -6.843
REMARK INTER:                  -6.546
REMARK INTRA:                  -0.297
REMARK UNBOUND:                -0.293
REMARK SMILES O=c1cc(-c2ccc(O)c(O)c2)oc2cc(O)cc(O)c12
REMARK SMILES IDX 4 1 3 2 2 3 1 4 21 5 19 6 18 7 16 8 15 9 14 10 13 11 5 12
REMARK SMILES IDX 6 13 7 14 8 15 12 16 10 17 9 18 11 20 20 22 17 24
REMARK H PARENT 9 19 11 21 20 23 17 25
REMARK Flexibility Score: inf
ROOT
ATOM      1  C   UNL     1      26.237  26.373 -11.565  1.00  0.00     0.138 A 
ATOM      2  C   UNL     1      25.502  26.956 -10.520  1.00  0.00     0.100 A 
ATOM      3  C   UNL     1      25.184  28.314 -10.579  1.00  0.00     0.197 A 
ATOM      4  O   UNL     1      24.525  28.829  -9.634  1.00  0.00    -0.289 OA
ATOM      5  C   UNL     1      25.608  29.081 -11.682  1.00  0.00     0.107 A 
ATOM      6  C   UNL     1      25.327  30.461 -11.820  1.00  0.00     0.134 A 
ATOM      7  C   UNL     1      25.790  31.155 -12.948  1.00  0.00     0.093 A 
ATOM      8  C   UNL     1      26.525  30.498 -13.937  1.00  0.00     0.123 A 
ATOM      9  C   UNL     1      26.805  29.134 -13.807  1.00  0.00     0.094 A 
ATOM     10  C   UNL     1      26.353  28.423 -12.691  1.00  0.00     0.146 A 
ATOM     11  O   UNL     1      26.629  27.127 -12.589  1.00  0.00    -0.456 OA
ENDROOT
BRANCH   1  12
ATOM     12  C   UNL     1      26.604  24.934 -11.557  1.00  0.00     0.021 A 
ATOM     13  C   UNL     1      27.294  24.390 -12.655  1.00  0.00     0.016 A 
ATOM     14  C   UNL     1      27.645  23.039 -12.675  1.00  0.00     0.051 A 
ATOM     15  C   UNL     1      27.305  22.205 -11.603  1.00  0.00     0.157 A 
ATOM     16  C   UNL     1      26.253  24.086 -10.487  1.00  0.00     0.062 A 
ATOM     17  C   UNL     1      26.605  22.729 -10.509  1.00  0.00     0.158 A 
BRANCH  15  18
ATOM     18  O   UNL     1      27.655  20.856 -11.618  1.00  0.00    -0.504 OA
ATOM     19  H   UNL     1      28.329  20.492 -12.280  1.00  0.00     0.293 HD
ENDBRANCH  15  18
BRANCH  17  20
ATOM     20  O   UNL     1      26.258  21.893  -9.449  1.00  0.00    -0.504 OA
ATOM     21  H   UNL     1      26.634  20.956  -9.368  1.00  0.00     0.293 HD
ENDBRANCH  17  20
ENDBRANCH   1  12
BRANCH   6  22
ATOM     22  O   UNL     1      24.596  31.145 -10.848  1.00  0.00    -0.507 OA
ATOM     23  H   UNL     1      24.233  32.078 -11.013  1.00  0.00     0.293 HD
ENDBRANCH   6  22
BRANCH   8  24
ATOM     24  O   UNL     1      26.973  31.210 -15.048  1.00  0.00    -0.508 OA
ATOM     25  H   UNL     1      26.673  32.162 -15.223  1.00  0.00     0.293 HD
ENDBRANCH   8  24
TORSDOF 5
ENDMDL
MODEL 7
REMARK VINA RESULT:    -5.545      1.507      6.933
REMARK INTER + INTRA:          -6.811
REMARK INTER:                  -6.523
REMARK INTRA:                  -0.288
REMARK UNBOUND:                -0.293
REMARK SMILES O=c1cc(-c2ccc(O)c(O)c2)oc2cc(O)cc(O)c12
REMARK SMILES IDX 4 1 3 2 2 3 1 4 21 5 19 6 18 7 16 8 15 9 14 10 13 11 5 12
REMARK SMILES IDX 6 13 7 14 8 15 12 16 10 17 9 18 11 20 20 22 17 24
REMARK H PARENT 9 19 11 21 20 23 17 25
REMARK Flexibility Score: inf
ROOT
ATOM      1  C   UNL     1      26.065  25.633 -13.619  1.00  0.00     0.138 A 
ATOM      2  C   UNL     1      24.844  24.985 -13.867  1.00  0.00     0.100 A 
ATOM      3  C   UNL     1      24.699  23.639 -13.524  1.00  0.00     0.197 A 
ATOM      4  O   UNL     1      23.599  23.066 -13.752  1.00  0.00    -0.289 OA
ATOM      5  C   UNL     1      25.779  22.951 -12.938  1.00  0.00     0.107 A 
ATOM      6  C   UNL     1      25.715  21.589 -12.558  1.00  0.00     0.134 A 
ATOM      7  C   UNL     1      26.837  20.973 -11.985  1.00  0.00     0.093 A 
ATOM      8  C   UNL     1      28.019  21.691 -11.784  1.00  0.00     0.123 A 
ATOM      9  C   UNL     1      28.088  23.038 -12.157  1.00  0.00     0.094 A 
ATOM     10  C   UNL     1      26.980  23.670 -12.729  1.00  0.00     0.146 A 
ATOM     11  O   UNL     1      27.069  24.951 -13.073  1.00  0.00    -0.456 OA
ENDROOT
BRANCH   1  12
ATOM     12  C   UNL     1      26.277  27.062 -13.964  1.00  0.00     0.021 A 
ATOM     13  C   UNL     1      25.948  27.518 -15.253  1.00  0.00     0.016 A 
ATOM     14  C   UNL     1      26.145  28.855 -15.605  1.00  0.00     0.051 A 
ATOM     15  C   UNL     1      26.683  29.757 -14.679  1.00  0.00     0.157 A 
ATOM     16  C   UNL     1      26.831  27.972 -13.042  1.00  0.00     0.062 A 
ATOM     17  C   UNL     1      27.029  29.314 -13.396  1.00  0.00     0.158 A 
BRANCH  15  18
ATOM     18  O   UNL     1      26.879  31.093 -15.025  1.00  0.00    -0.504 OA
ATOM     19  H   UNL     1      27.403  31.723 -14.429  1.00  0.00     0.293 HD
ENDBRANCH  15  18
BRANCH  17  20
ATOM     20  O   UNL     1      27.575  30.213 -12.481  1.00  0.00    -0.504 OA
ATOM     21  H   UNL     1      28.554  30.175 -12.222  1.00  0.00     0.293 HD
ENDBRANCH  17  20
ENDBRANCH   1  12
BRANCH   6  22
ATOM     22  O   UNL     1      24.549  20.846 -12.748  1.00  0.00    -0.507 OA
ATOM     23  H   UNL     1      24.028  20.463 -11.966  1.00  0.00     0.293 HD
ENDBRANCH   6  22
BRANCH   8  24
ATOM     24  O   UNL     1      29.120  21.057 -11.213  1.00  0.00    -0.508 OA
ATOM     25  H   UNL     1      29.572  20.271 -11.665  1.00  0.00     0.293 HD
ENDBRANCH   8  24
TORSDOF 5
ENDMDL
MODEL 8
REMARK VINA RESULT:    -5.528      2.483      3.883
REMARK INTER + INTRA:          -6.791
REMARK INTER:                  -6.494
REMARK INTRA:                  -0.297
REMARK UNBOUND:                -0.293
REMARK SMILES O=c1cc(-c2ccc(O)c(O)c2)oc2cc(O)cc(O)c12
REMARK SMILES IDX 4 1 3 2 2 3 1 4 21 5 19 6 18 7 16 8 15 9 14 10 13 11 5 12
REMARK SMILES IDX 6 13 7 14 8 15 12 16 10 17 9 18 11 20 20 22 17 24
REMARK H PARENT 9 19 11 21 20 23 17 25
REMARK Flexibility Score: inf
ROOT
ATOM      1  C   UNL     1      25.583  28.041 -12.169  1.00  0.00     0.138 A 
ATOM      2  C   UNL     1      24.834  28.438 -11.050  1.00  0.00     0.100 A 
ATOM      3  C   UNL     1      24.291  29.724 -11.008  1.00  0.00     0.197 A 
ATOM      4  O   UNL     1      23.622  30.072  -9.997  1.00  0.00    -0.289 OA
ATOM      5  C   UNL     1      24.505  30.604 -12.087  1.00  0.00     0.107 A 
ATOM      6  C   UNL     1      23.990  31.922 -12.125  1.00  0.00     0.134 A 
ATOM      7  C   UNL     1      24.252  32.739 -13.235  1.00  0.00     0.093 A 
ATOM      8  C   UNL     1      25.017  32.265 -14.303  1.00  0.00     0.123 A 
ATOM      9  C   UNL     1      25.529  30.964 -14.271  1.00  0.00     0.094 A 
ATOM     10  C   UNL     1      25.279  30.133 -13.175  1.00  0.00     0.146 A 
ATOM     11  O   UNL     1      25.773  28.900 -13.168  1.00  0.00    -0.456 OA
ENDROOT
BRANCH   1  12
ATOM     12  C   UNL     1      26.185  26.687 -12.269  1.00  0.00     0.021 A 
ATOM     13  C   UNL     1      26.842  26.307 -13.453  1.00  0.00     0.016 A 
ATOM     14  C   UNL     1      27.410  25.037 -13.574  1.00  0.00     0.051 A 
ATOM     15  C   UNL     1      27.323  24.121 -12.519  1.00  0.00     0.157 A 
ATOM     16  C   UNL     1      26.089  25.754 -11.216  1.00  0.00     0.062 A 
ATOM     17  C   UNL     1      26.659  24.479 -11.340  1.00  0.00     0.158 A 
BRANCH  15  18
ATOM     18  O   UNL     1      27.890  22.853 -12.636  1.00  0.00    -0.504 OA
ATOM     19  H   UNL     1      28.546  22.633 -13.375  1.00  0.00     0.293 HD
ENDBRANCH  15  18
BRANCH  17  20
ATOM     20  O   UNL     1      26.564  23.559 -10.296  1.00  0.00    -0.504 OA
ATOM     21  H   UNL     1      27.097  22.698 -10.299  1.00  0.00     0.293 HD
ENDBRANCH  17  20
ENDBRANCH   1  12
BRANCH   6  22
ATOM     22  O   UNL     1      23.223  32.423 -11.072  1.00  0.00    -0.507 OA
ATOM     23  H   UNL     1      23.292  32.043 -10.135  1.00  0.00     0.293 HD
ENDBRANCH   6  22
BRANCH   8  24
ATOM     24  O   UNL     1      25.264  33.097 -15.394  1.00  0.00    -0.508 OA
ATOM     25  H   UNL     1      24.798  33.991 -15.494  1.00  0.00     0.293 HD
ENDBRANCH   8  24
TORSDOF 5
ENDMDL
MODEL 9
REMARK VINA RESULT:    -5.434      2.373      7.206
REMARK INTER + INTRA:          -6.680
REMARK INTER:                  -6.413
REMARK INTRA:                  -0.266
REMARK UNBOUND:                -0.293
REMARK SMILES O=c1cc(-c2ccc(O)c(O)c2)oc2cc(O)cc(O)c12
REMARK SMILES IDX 4 1 3 2 2 3 1 4 21 5 19 6 18 7 16 8 15 9 14 10 13 11 5 12
REMARK SMILES IDX 6 13 7 14 8 15 12 16 10 17 9 18 11 20 20 22 17 24
REMARK H PARENT 9 19 11 21 20 23 17 25
REMARK Flexibility Score: inf
ROOT
ATOM      1  C   UNL     1      25.015  28.062 -13.911  1.00  0.00     0.138 A 
ATOM      2  C   UNL     1      24.172  27.479 -14.871  1.00  0.00     0.100 A 
ATOM      3  C   UNL     1      24.352  26.138 -15.217  1.00  0.00     0.197 A 
ATOM      4  O   UNL     1      23.591  25.624 -16.082  1.00  0.00    -0.289 OA
ATOM      5  C   UNL     1      25.376  25.392 -14.603  1.00  0.00     0.107 A 
ATOM      6  C   UNL     1      25.624  24.029 -14.895  1.00  0.00     0.134 A 
ATOM      7  C   UNL     1      26.668  23.358 -14.242  1.00  0.00     0.093 A 
ATOM      8  C   UNL     1      27.467  24.019 -13.306  1.00  0.00     0.123 A 
ATOM      9  C   UNL     1      27.226  25.366 -13.013  1.00  0.00     0.094 A 
ATOM     10  C   UNL     1      26.190  26.054 -13.652  1.00  0.00     0.146 A 
ATOM     11  O   UNL     1      25.979  27.332 -13.355  1.00  0.00    -0.456 OA
ENDROOT
BRANCH   1  12
ATOM     12  C   UNL     1      24.872  29.483 -13.503  1.00  0.00     0.021 A 
ATOM     13  C   UNL     1      24.567  29.792 -12.165  1.00  0.00     0.016 A 
ATOM     14  C   UNL     1      24.420  31.120 -11.759  1.00  0.00     0.051 A 
ATOM     15  C   UNL     1      24.565  32.161 -12.682  1.00  0.00     0.157 A 
ATOM     16  C   UNL     1      25.003  30.537 -14.430  1.00  0.00     0.062 A 
ATOM     17  C   UNL     1      24.854  31.869 -14.020  1.00  0.00     0.158 A 
BRANCH  15  18
ATOM     18  O   UNL     1      24.422  33.488 -12.279  1.00  0.00    -0.504 OA
ATOM     19  H   UNL     1      25.099  34.196 -12.538  1.00  0.00     0.293 HD
ENDBRANCH  15  18
BRANCH  17  20
ATOM     20  O   UNL     1      24.986  32.909 -14.939  1.00  0.00    -0.504 OA
ATOM     21  H   UNL     1      24.666  32.815 -15.896  1.00  0.00     0.293 HD
ENDBRANCH  17  20
ENDBRANCH   1  12
BRANCH   6  22
ATOM     22  O   UNL     1      24.844  23.342 -15.826  1.00  0.00    -0.507 OA
ATOM     23  H   UNL     1      24.861  22.330 -15.891  1.00  0.00     0.293 HD
ENDBRANCH   6  22
BRANCH   8  24
ATOM     24  O   UNL     1      28.498  23.329 -12.672  1.00  0.00    -0.508 OA
ATOM     25  H   UNL     1      29.434  23.712 -12.614  1.00  0.00     0.293 HD
ENDBRANCH   8  24
TORSDOF 5
ENDMDL
