MODEL 1
REMARK VINA RESULT:    -6.029      0.000      0.000
REMARK INTER + INTRA:          -7.368
REMARK INTER:                  -7.087
REMARK INTRA:                  -0.281
REMARK UNBOUND:                -0.281
REMARK SMILES O=c1cc(-c2ccc(O)c(O)c2)oc2cc(O)cc(O)c12
REMARK SMILES IDX 4 1 3 2 2 3 1 4 21 5 19 6 18 7 16 8 15 9 14 10 13 11 5 12
REMARK SMILES IDX 6 13 7 14 8 15 12 16 10 17 9 18 11 20 20 22 17 24
REMARK H PARENT 9 19 11 21 20 23 17 25
REMARK Flexibility Score: inf
ROOT
ATOM      1  C   UNL     1       8.055   4.600 -12.370  1.00  0.00     0.138 A 
ATOM      2  C   UNL     1       8.879   5.072 -13.401  1.00  0.00     0.100 A 
ATOM      3  C   UNL     1      10.211   5.387 -13.129  1.00  0.00     0.197 A 
ATOM      4  O   UNL     1      10.909   5.867 -14.060  1.00  0.00    -0.289 OA
ATOM      5  C   UNL     1      10.728   5.198 -11.826  1.00  0.00     0.107 A 
ATOM      6  C   UNL     1      12.080   5.448 -11.443  1.00  0.00     0.134 A 
ATOM      7  C   UNL     1      12.448   5.335 -10.097  1.00  0.00     0.093 A 
ATOM      8  C   UNL     1      11.530   4.926  -9.129  1.00  0.00     0.123 A 
ATOM      9  C   UNL     1      10.218   4.628  -9.501  1.00  0.00     0.094 A 
ATOM     10  C   UNL     1       9.811   4.763 -10.831  1.00  0.00     0.146 A 
ATOM     11  O   UNL     1       8.550   4.483 -11.142  1.00  0.00    -0.456 OA
ENDROOT
BRANCH   1  12
ATOM     12  C   UNL     1       6.631   4.248 -12.602  1.00  0.00     0.021 A 
ATOM     13  C   UNL     1       6.014   3.177 -11.927  1.00  0.00     0.016 A 
ATOM     14  C   UNL     1       4.670   2.875 -12.158  1.00  0.00     0.051 A 
ATOM     15  C   UNL     1       3.917   3.639 -13.059  1.00  0.00     0.157 A 
ATOM     16  C   UNL     1       5.864   5.018 -13.495  1.00  0.00     0.062 A 
ATOM     17  C   UNL     1       4.518   4.717 -13.729  1.00  0.00     0.158 A 
BRANCH  15  18
ATOM     18  O   UNL     1       2.576   3.333 -13.287  1.00  0.00    -0.504 OA
ATOM     19  H   UNL     1       2.103   3.618 -14.136  1.00  0.00     0.293 HD
ENDBRANCH  15  18
BRANCH  17  20
ATOM     20  O   UNL     1       3.795   5.498 -14.629  1.00  0.00    -0.504 OA
ATOM     21  H   UNL     1       3.944   6.496 -14.717  1.00  0.00     0.293 HD
ENDBRANCH  17  20
ENDBRANCH   1  12
BRANCH   6  22
ATOM     22  O   UNL     1      13.098   5.779 -12.342  1.00  0.00    -0.507 OA
ATOM     23  H   UNL     1      14.026   6.075 -12.078  1.00  0.00     0.293 HD
ENDBRANCH   6  22
BRANCH   8  24
ATOM     24  O   UNL     1      11.935   4.811  -7.802  1.00  0.00    -0.508 OA
ATOM     25  H   UNL     1      12.771   4.301  -7.545  1.00  0.00     0.293 HD
ENDBRANCH   8  24
TORSDOF 5
ENDMDL
MODEL 2
REMARK VINA RESULT:    -5.979      0.659      1.449
REMARK INTER + INTRA:          -7.309
REMARK INTER:                  -6.993
REMARK INTRA:                  -0.315
REMARK UNBOUND:                -0.281
REMARK SMILES O=c1cc(-c2ccc(O)c(O)c2)oc2cc(O)cc(O)c12
REMARK SMILES IDX 4 1 3 2 2 3 1 4 21 5 19 6 18 7 16 8 15 9 14 10 13 11 5 12
REMARK SMILES IDX 6 13 7 14 8 15 12 16 10 17 9 18 11 20 20 22 17 24
REMARK H PARENT 9 19 11 21 20 23 17 25
REMARK Flexibility Score: inf
ROOT
ATOM      1  C   UNL     1       7.994   4.799 -12.349  1.00  0.00     0.138 A 
ATOM      2  C   UNL     1       8.894   5.250 -13.325  1.00  0.00     0.100 A 
ATOM      3  C   UNL     1      10.231   5.459 -12.986  1.00  0.00     0.197 A 
ATOM      4  O   UNL     1      11.001   5.924 -13.866  1.00  0.00    -0.289 OA
ATOM      5  C   UNL     1      10.675   5.186 -11.670  1.00  0.00     0.107 A 
ATOM      6  C   UNL     1      12.023   5.325 -11.222  1.00  0.00     0.134 A 
ATOM      7  C   UNL     1      12.322   5.137  -9.867  1.00  0.00     0.093 A 
ATOM      8  C   UNL     1      11.336   4.758  -8.956  1.00  0.00     0.123 A 
ATOM      9  C   UNL     1      10.024   4.567  -9.394  1.00  0.00     0.094 A 
ATOM     10  C   UNL     1       9.688   4.781 -10.733  1.00  0.00     0.146 A 
ATOM     11  O   UNL     1       8.425   4.602 -11.107  1.00  0.00    -0.456 OA
ENDROOT
BRANCH   1  12
ATOM     12  C   UNL     1       6.561   4.558 -12.655  1.00  0.00     0.021 A 
ATOM     13  C   UNL     1       5.975   5.007 -13.855  1.00  0.00     0.016 A 
ATOM     14  C   UNL     1       4.627   4.756 -14.121  1.00  0.00     0.051 A 
ATOM     15  C   UNL     1       3.843   4.048 -13.201  1.00  0.00     0.157 A 
ATOM     16  C   UNL     1       5.770   3.836 -11.743  1.00  0.00     0.062 A 
ATOM     17  C   UNL     1       4.420   3.586 -12.008  1.00  0.00     0.158 A 
BRANCH  15  18
ATOM     18  O   UNL     1       2.498   3.803 -13.471  1.00  0.00    -0.504 OA
ATOM     19  H   UNL     1       2.107   2.869 -13.418  1.00  0.00     0.293 HD
ENDBRANCH  15  18
BRANCH  17  20
ATOM     20  O   UNL     1       3.667   2.875 -11.073  1.00  0.00    -0.504 OA
ATOM     21  H   UNL     1       3.216   1.997 -11.300  1.00  0.00     0.293 HD
ENDBRANCH  17  20
ENDBRANCH   1  12
BRANCH   6  22
ATOM     22  O   UNL     1      13.100   5.618 -12.063  1.00  0.00    -0.507 OA
ATOM     23  H   UNL     1      14.072   5.531 -11.806  1.00  0.00     0.293 HD
ENDBRANCH   6  22
BRANCH   8  24
ATOM     24  O   UNL     1      11.673   4.565  -7.618  1.00  0.00    -0.508 OA
ATOM     25  H   UNL     1      11.935   3.654  -7.264  1.00  0.00     0.293 HD
ENDBRANCH   8  24
TORSDOF 5
ENDMDL
MODEL 3
REMARK VINA RESULT:    -5.937      1.068      2.614
REMARK INTER + INTRA:          -7.260
REMARK INTER:                  -6.945
REMARK INTRA:                  -0.314
REMARK UNBOUND:                -0.281
REMARK SMILES O=c1cc(-c2ccc(O)c(O)c2)oc2cc(O)cc(O)c12
REMARK SMILES IDX 4 1 3 2 2 3 1 4 21 5 19 6 18 7 16 8 15 9 14 10 13 11 5 12
REMARK SMILES IDX 6 13 7 14 8 15 12 16 10 17 9 18 11 20 20 22 17 24
REMARK H PARENT 9 19 11 21 20 23 17 25
REMARK Flexibility Score: inf
ROOT
ATOM      1  C   UNL     1       8.022   4.206 -11.616  1.00  0.00     0.138 A 
ATOM      2  C   UNL     1       8.458   3.682 -10.391  1.00  0.00     0.100 A 
ATOM      3  C   UNL     1       9.775   3.896  -9.979  1.00  0.00     0.197 A 
ATOM      4  O   UNL     1      10.155   3.361  -8.905  1.00  0.00    -0.289 OA
ATOM      5  C   UNL     1      10.648   4.664 -10.784  1.00  0.00     0.107 A 
ATOM      6  C   UNL     1      11.999   4.979 -10.446  1.00  0.00     0.134 A 
ATOM      7  C   UNL     1      12.804   5.649 -11.375  1.00  0.00     0.093 A 
ATOM      8  C   UNL     1      12.293   6.067 -12.604  1.00  0.00     0.123 A 
ATOM      9  C   UNL     1      10.959   5.811 -12.923  1.00  0.00     0.094 A 
ATOM     10  C   UNL     1      10.140   5.114 -12.032  1.00  0.00     0.146 A 
ATOM     11  O   UNL     1       8.879   4.878 -12.379  1.00  0.00    -0.456 OA
ENDROOT
BRANCH   1  12
ATOM     12  C   UNL     1       6.633   4.011 -12.102  1.00  0.00     0.021 A 
ATOM     13  C   UNL     1       5.780   3.044 -11.536  1.00  0.00     0.016 A 
ATOM     14  C   UNL     1       4.474   2.889 -12.007  1.00  0.00     0.051 A 
ATOM     15  C   UNL     1       3.993   3.701 -13.043  1.00  0.00     0.157 A 
ATOM     16  C   UNL     1       6.138   4.831 -13.133  1.00  0.00     0.062 A 
ATOM     17  C   UNL     1       4.831   4.677 -13.606  1.00  0.00     0.158 A 
BRANCH  15  18
ATOM     18  O   UNL     1       2.690   3.542 -13.510  1.00  0.00    -0.504 OA
ATOM     19  H   UNL     1       2.380   3.967 -14.376  1.00  0.00     0.293 HD
ENDBRANCH  15  18
BRANCH  17  20
ATOM     20  O   UNL     1       4.381   5.503 -14.636  1.00  0.00    -0.504 OA
ATOM     21  H   UNL     1       3.769   6.292 -14.466  1.00  0.00     0.293 HD
ENDBRANCH  17  20
ENDBRANCH   1  12
BRANCH   6  22
ATOM     22  O   UNL     1      12.585   4.684  -9.212  1.00  0.00    -0.507 OA
ATOM     23  H   UNL     1      12.154   4.129  -8.487  1.00  0.00     0.293 HD
ENDBRANCH   6  22
BRANCH   8  24
ATOM     24  O   UNL     1      13.120   6.744 -13.498  1.00  0.00    -0.508 OA
ATOM     25  H   UNL     1      12.782   7.529 -14.041  1.00  0.00     0.293 HD
ENDBRANCH   8  24
TORSDOF 5
ENDMDL
MODEL 4
REMARK VINA RESULT:    -4.540      1.437      2.988
REMARK INTER + INTRA:          -5.617
REMARK INTER:                  -5.327
REMARK INTRA:                  -0.289
REMARK UNBOUND:                -0.281
REMARK SMILES O=c1cc(-c2ccc(O)c(O)c2)oc2cc(O)cc(O)c12
REMARK SMILES IDX 4 1 3 2 2 3 1 4 21 5 19 6 18 7 16 8 15 9 14 10 13 11 5 12
REMARK SMILES IDX 6 13 7 14 8 15 12 16 10 17 9 18 11 20 20 22 17 24
REMARK H PARENT 9 19 11 21 20 23 17 25
REMARK Flexibility Score: inf
ROOT
ATOM      1  C   UNL     1       8.183   4.472 -11.111  1.00  0.00     0.138 A 
ATOM      2  C   UNL     1       8.502   3.581 -10.077  1.00  0.00     0.100 A 
ATOM      3  C   UNL     1       9.705   3.728  -9.386  1.00  0.00     0.197 A 
ATOM      4  O   UNL     1       9.993   2.875  -8.506  1.00  0.00    -0.289 OA
ATOM      5  C   UNL     1      10.579   4.792  -9.712  1.00  0.00     0.107 A 
ATOM      6  C   UNL     1      11.813   5.062  -9.049  1.00  0.00     0.134 A 
ATOM      7  C   UNL     1      12.650   6.074  -9.536  1.00  0.00     0.093 A 
ATOM      8  C   UNL     1      12.273   6.863 -10.622  1.00  0.00     0.123 A 
ATOM      9  C   UNL     1      11.043   6.642 -11.245  1.00  0.00     0.094 A 
ATOM     10  C   UNL     1      10.202   5.618 -10.805  1.00  0.00     0.146 A 
ATOM     11  O   UNL     1       9.046   5.430 -11.433  1.00  0.00    -0.456 OA
ENDROOT
BRANCH   1  12
ATOM     12  C   UNL     1       6.915   4.364 -11.877  1.00  0.00     0.021 A 
ATOM     13  C   UNL     1       6.795   4.877 -13.183  1.00  0.00     0.016 A 
ATOM     14  C   UNL     1       5.594   4.752 -13.885  1.00  0.00     0.051 A 
ATOM     15  C   UNL     1       4.496   4.107 -13.301  1.00  0.00     0.157 A 
ATOM     16  C   UNL     1       5.812   3.707 -11.303  1.00  0.00     0.062 A 
ATOM     17  C   UNL     1       4.608   3.582 -12.004  1.00  0.00     0.158 A 
BRANCH  15  18
ATOM     18  O   UNL     1       3.299   3.986 -14.005  1.00  0.00    -0.504 OA
ATOM     19  H   UNL     1       2.646   4.757 -14.079  1.00  0.00     0.293 HD
ENDBRANCH  15  18
BRANCH  17  20
ATOM     20  O   UNL     1       3.535   2.932 -11.396  1.00  0.00    -0.504 OA
ATOM     21  H   UNL     1       2.781   3.439 -10.948  1.00  0.00     0.293 HD
ENDBRANCH  17  20
ENDBRANCH   1  12
BRANCH   6  22
ATOM     22  O   UNL     1      12.248   4.391  -7.903  1.00  0.00    -0.507 OA
ATOM     23  H   UNL     1      12.837   3.571  -7.903  1.00  0.00     0.293 HD
ENDBRANCH   6  22
BRANCH   8  24
ATOM     24  O   UNL     1      13.124   7.870 -11.070  1.00  0.00    -0.508 OA
ATOM     25  H   UNL     1      12.861   8.847 -11.024  1.00  0.00     0.293 HD
ENDBRANCH   8  24
TORSDOF 5
ENDMDL
MODEL 5
REMARK VINA RESULT:    -3.934      1.765      6.861
REMARK INTER + INTRA:          -4.906
REMARK INTER:                  -4.643
REMARK INTRA:                  -0.262
REMARK UNBOUND:                -0.281
REMARK SMILES O=c1cc(-c2ccc(O)c(O)c2)oc2cc(O)cc(O)c12
REMARK SMILES IDX 4 1 3 2 2 3 1 4 21 5 19 6 18 7 16 8 15 9 14 10 13 11 5 12
REMARK SMILES IDX 6 13 7 14 8 15 12 16 10 17 9 18 11 20 20 22 17 24
REMARK H PARENT 9 19 11 21 20 23 17 25
REMARK Flexibility Score: inf
ROOT
ATOM      1  C   UNL     1       9.073   4.288 -10.930  1.00  0.00     0.138 A 
ATOM      2  C   UNL     1       9.340   4.813 -12.202  1.00  0.00     0.100 A 
ATOM      3  C   UNL     1       8.314   4.888 -13.146  1.00  0.00     0.197 A 
ATOM      4  O   UNL     1       8.598   5.305 -14.299  1.00  0.00    -0.289 OA
ATOM      5  C   UNL     1       7.009   4.464 -12.802  1.00  0.00     0.107 A 
ATOM      6  C   UNL     1       5.878   4.531 -13.670  1.00  0.00     0.134 A 
ATOM      7  C   UNL     1       4.660   3.974 -13.260  1.00  0.00     0.093 A 
ATOM      8  C   UNL     1       4.516   3.407 -11.994  1.00  0.00     0.123 A 
ATOM      9  C   UNL     1       5.602   3.383 -11.117  1.00  0.00     0.094 A 
ATOM     10  C   UNL     1       6.838   3.900 -11.509  1.00  0.00     0.146 A 
ATOM     11  O   UNL     1       7.851   3.847 -10.650  1.00  0.00    -0.456 OA
ENDROOT
BRANCH   1  12
ATOM     12  C   UNL     1      10.126   4.187  -9.887  1.00  0.00     0.021 A 
ATOM     13  C   UNL     1      10.829   2.988  -9.660  1.00  0.00     0.016 A 
ATOM     14  C   UNL     1      11.821   2.923  -8.679  1.00  0.00     0.051 A 
ATOM     15  C   UNL     1      12.135   4.054  -7.914  1.00  0.00     0.157 A 
ATOM     16  C   UNL     1      10.456   5.321  -9.123  1.00  0.00     0.062 A 
ATOM     17  C   UNL     1      11.449   5.258  -8.140  1.00  0.00     0.158 A 
BRANCH  15  18
ATOM     18  O   UNL     1      13.125   3.985  -6.935  1.00  0.00    -0.504 OA
ATOM     19  H   UNL     1      13.042   3.363  -6.140  1.00  0.00     0.293 HD
ENDBRANCH  15  18
BRANCH  17  20
ATOM     20  O   UNL     1      11.740   6.402  -7.397  1.00  0.00    -0.504 OA
ATOM     21  H   UNL     1      11.019   6.940  -6.931  1.00  0.00     0.293 HD
ENDBRANCH  17  20
ENDBRANCH   1  12
BRANCH   6  22
ATOM     22  O   UNL     1       5.889   5.152 -14.922  1.00  0.00    -0.507 OA
ATOM     23  H   UNL     1       5.119   5.149 -15.574  1.00  0.00     0.293 HD
ENDBRANCH   6  22
BRANCH   8  24
ATOM     24  O   UNL     1       3.285   2.875 -11.615  1.00  0.00    -0.508 OA
ATOM     25  H   UNL     1       2.560   2.681 -12.293  1.00  0.00     0.293 HD
ENDBRANCH   8  24
TORSDOF 5
ENDMDL
