MODEL 1
REMARK VINA RESULT:    -4.075      0.000      0.000
REMARK INTER + INTRA:         -12.813
REMARK INTER:                  -9.316
REMARK INTRA:                  -3.497
REMARK UNBOUND:                -3.497
REMARK SMILES CCCCCCCCCCCCCCCCCCCCCCCC(=O)[O-]
REMARK SMILES IDX 13 1 14 2 15 3 16 4 17 5 18 6 19 7 20 8 21 9 22 10 23 11
REMARK SMILES IDX 24 12 25 13 26 14 12 15 11 16 10 17 9 18 8 19 7 20 6 21 5 22
REMARK SMILES IDX 4 23 3 24 2 25 1 26
REMARK H PARENT
REMARK Flexibility Score: inf
ROOT
ATOM      1  C   UNL     1      24.081   8.445   9.397  1.00  0.00     0.000 C 
ENDROOT
BRANCH   1   2
ATOM      2  C   UNL     1      25.174   7.388   9.628  1.00  0.00     0.000 C 
BRANCH   2   3
ATOM      3  C   UNL     1      26.125   7.764  10.777  1.00  0.00     0.000 C 
BRANCH   3   4
ATOM      4  C   UNL     1      25.960   9.222  11.230  1.00  0.00     0.000 C 
BRANCH   4   5
ATOM      5  C   UNL     1      25.634   9.298  12.727  1.00  0.00     0.000 C 
BRANCH   5   6
ATOM      6  C   UNL     1      24.141   9.586  12.952  1.00  0.00     0.000 C 
BRANCH   6   7
ATOM      7  C   UNL     1      23.419   8.442  13.680  1.00  0.00     0.000 C 
BRANCH   7   8
ATOM      8  C   UNL     1      24.351   7.267  14.016  1.00  0.00     0.000 C 
BRANCH   8   9
ATOM      9  C   UNL     1      24.033   6.046  13.140  1.00  0.00     0.000 C 
BRANCH   9  10
ATOM     10  C   UNL     1      24.986   4.867  13.396  1.00  0.00     0.006 C 
BRANCH  10  11
ATOM     11  C   UNL     1      24.248   3.594  13.830  1.00  0.00     0.053 C 
BRANCH  11  12
ATOM     12  C   UNL     1      24.921   2.379  13.273  1.00  0.00     0.041 C 
ATOM     13  O   UNL     1      24.576   1.231  13.661  1.00  0.00    -0.550 OA
ATOM     14  O   UNL     1      25.951   2.514  12.349  1.00  0.00    -0.550 OA
ENDBRANCH  11  12
ENDBRANCH  10  11
ENDBRANCH   9  10
ENDBRANCH   8   9
ENDBRANCH   7   8
ENDBRANCH   6   7
ENDBRANCH   5   6
ENDBRANCH   4   5
ENDBRANCH   3   4
ENDBRANCH   2   3
ENDBRANCH   1   2
BRANCH   1  15
ATOM     15  C   UNL     1      22.704   7.989   9.907  1.00  0.00     0.000 C 
BRANCH  15  16
ATOM     16  C   UNL     1      21.785   9.168  10.272  1.00  0.00     0.000 C 
BRANCH  16  17
ATOM     17  C   UNL     1      20.723   8.790  11.318  1.00  0.00     0.000 C 
BRANCH  17  18
ATOM     18  C   UNL     1      20.605   7.269  11.512  1.00  0.00    -0.000 C 
BRANCH  18  19
ATOM     19  C   UNL     1      19.164   6.762  11.347  1.00  0.00    -0.000 C 
BRANCH  19  20
ATOM     20  C   UNL     1      19.090   5.402  10.628  1.00  0.00    -0.000 C 
BRANCH  20  21
ATOM     21  C   UNL     1      18.898   5.553   9.111  1.00  0.00    -0.000 C 
BRANCH  21  22
ATOM     22  C   UNL     1      19.900   6.539   8.486  1.00  0.00    -0.000 C 
BRANCH  22  23
ATOM     23  C   UNL     1      19.321   7.292   7.273  1.00  0.00    -0.000 C 
BRANCH  23  24
ATOM     24  C   UNL     1      19.561   8.814   7.281  1.00  0.00    -0.000 C 
BRANCH  24  25
ATOM     25  C   UNL     1      20.539   9.271   6.187  1.00  0.00    -0.003 C 
ATOM     26  C   UNL     1      21.766   9.948   6.795  1.00  0.00     0.004 C 
ENDBRANCH  24  25
ENDBRANCH  23  24
ENDBRANCH  22  23
ENDBRANCH  21  22
ENDBRANCH  20  21
ENDBRANCH  19  20
ENDBRANCH  18  19
ENDBRANCH  17  18
ENDBRANCH  16  17
ENDBRANCH  15  16
ENDBRANCH   1  15
TORSDOF 22
ENDMDL
MODEL 2
REMARK VINA RESULT:    -4.064      3.841      7.121
REMARK INTER + INTRA:         -12.787
REMARK INTER:                  -9.223
REMARK INTRA:                  -3.564
REMARK UNBOUND:                -3.497
REMARK SMILES CCCCCCCCCCCCCCCCCCCCCCCC(=O)[O-]
REMARK SMILES IDX 13 1 14 2 15 3 16 4 17 5 18 6 19 7 20 8 21 9 22 10 23 11
REMARK SMILES IDX 24 12 25 13 26 14 12 15 11 16 10 17 9 18 8 19 7 20 6 21 5 22
REMARK SMILES IDX 4 23 3 24 2 25 1 26
REMARK H PARENT
REMARK Flexibility Score: inf
ROOT
ATOM      1  C   UNL     1      19.412   7.201   7.919  1.00  0.00     0.000 C 
ENDROOT
BRANCH   1   2
ATOM      2  C   UNL     1      19.851   8.627   8.293  1.00  0.00     0.000 C 
BRANCH   2   3
ATOM      3  C   UNL     1      21.311   8.916   7.907  1.00  0.00     0.000 C 
BRANCH   3   4
ATOM      4  C   UNL     1      22.201   9.196   9.127  1.00  0.00     0.000 C 
BRANCH   4   5
ATOM      5  C   UNL     1      23.246   8.087   9.310  1.00  0.00     0.000 C 
BRANCH   5   6
ATOM      6  C   UNL     1      24.547   8.649   9.904  1.00  0.00     0.000 C 
BRANCH   6   7
ATOM      7  C   UNL     1      24.331   9.961  10.675  1.00  0.00     0.000 C 
BRANCH   7   8
ATOM      8  C   UNL     1      25.493  10.293  11.623  1.00  0.00     0.000 C 
BRANCH   8   9
ATOM      9  C   UNL     1      24.974  10.882  12.943  1.00  0.00     0.000 C 
BRANCH   9  10
ATOM     10  C   UNL     1      25.875  12.002  13.489  1.00  0.00     0.006 C 
BRANCH  10  11
ATOM     11  C   UNL     1      25.725  13.315  12.710  1.00  0.00     0.053 C 
BRANCH  11  12
ATOM     12  C   UNL     1      25.009  14.339  13.534  1.00  0.00     0.041 C 
ATOM     13  O   UNL     1      25.446  15.518  13.597  1.00  0.00    -0.550 OA
ATOM     14  O   UNL     1      23.877  13.982  14.259  1.00  0.00    -0.550 OA
ENDBRANCH  11  12
ENDBRANCH  10  11
ENDBRANCH   9  10
ENDBRANCH   8   9
ENDBRANCH   7   8
ENDBRANCH   6   7
ENDBRANCH   5   6
ENDBRANCH   4   5
ENDBRANCH   3   4
ENDBRANCH   2   3
ENDBRANCH   1   2
BRANCH   1  15
ATOM     15  C   UNL     1      19.988   6.140   8.870  1.00  0.00     0.000 C 
BRANCH  15  16
ATOM     16  C   UNL     1      18.996   5.726   9.972  1.00  0.00     0.000 C 
BRANCH  16  17
ATOM     17  C   UNL     1      19.225   6.482  11.290  1.00  0.00     0.000 C 
BRANCH  17  18
ATOM     18  C   UNL     1      20.701   6.855  11.505  1.00  0.00    -0.000 C 
BRANCH  18  19
ATOM     19  C   UNL     1      20.874   8.253  12.120  1.00  0.00    -0.000 C 
BRANCH  19  20
ATOM     20  C   UNL     1      22.184   8.395  12.917  1.00  0.00    -0.000 C 
BRANCH  20  21
ATOM     21  C   UNL     1      23.058   7.134  12.832  1.00  0.00    -0.000 C 
BRANCH  21  22
ATOM     22  C   UNL     1      24.352   7.258  13.654  1.00  0.00    -0.000 C 
BRANCH  22  23
ATOM     23  C   UNL     1      25.565   6.609  12.961  1.00  0.00    -0.000 C 
BRANCH  23  24
ATOM     24  C   UNL     1      25.306   5.206  12.380  1.00  0.00    -0.000 C 
BRANCH  24  25
ATOM     25  C   UNL     1      25.386   4.095  13.438  1.00  0.00    -0.003 C 
ATOM     26  C   UNL     1      23.992   3.633  13.855  1.00  0.00     0.004 C 
ENDBRANCH  24  25
ENDBRANCH  23  24
ENDBRANCH  22  23
ENDBRANCH  21  22
ENDBRANCH  20  21
ENDBRANCH  19  20
ENDBRANCH  18  19
ENDBRANCH  17  18
ENDBRANCH  16  17
ENDBRANCH  15  16
ENDBRANCH   1  15
TORSDOF 22
ENDMDL
MODEL 3
REMARK VINA RESULT:    -4.038      4.475      6.100
REMARK INTER + INTRA:         -12.729
REMARK INTER:                  -9.844
REMARK INTRA:                  -2.885
REMARK UNBOUND:                -3.497
REMARK SMILES CCCCCCCCCCCCCCCCCCCCCCCC(=O)[O-]
REMARK SMILES IDX 13 1 14 2 15 3 16 4 17 5 18 6 19 7 20 8 21 9 22 10 23 11
REMARK SMILES IDX 24 12 25 13 26 14 12 15 11 16 10 17 9 18 8 19 7 20 6 21 5 22
REMARK SMILES IDX 4 23 3 24 2 25 1 26
REMARK H PARENT
REMARK Flexibility Score: inf
ROOT
ATOM      1  C   UNL     1      25.898   9.099  11.358  1.00  0.00     0.000 C 
ENDROOT
BRANCH   1   2
ATOM      2  C   UNL     1      26.035   7.573  11.221  1.00  0.00     0.000 C 
BRANCH   2   3
ATOM      3  C   UNL     1      25.910   6.845  12.569  1.00  0.00     0.000 C 
BRANCH   3   4
ATOM      4  C   UNL     1      24.467   6.812  13.094  1.00  0.00     0.000 C 
BRANCH   4   5
ATOM      5  C   UNL     1      24.356   7.545  14.438  1.00  0.00     0.000 C 
BRANCH   5   6
ATOM      6  C   UNL     1      23.401   8.745  14.333  1.00  0.00     0.000 C 
BRANCH   6   7
ATOM      7  C   UNL     1      23.944   9.998  15.037  1.00  0.00     0.000 C 
BRANCH   7   8
ATOM      8  C   UNL     1      24.558  11.012  14.059  1.00  0.00     0.000 C 
BRANCH   8   9
ATOM      9  C   UNL     1      25.413  12.047  14.806  1.00  0.00     0.000 C 
BRANCH   9  10
ATOM     10  C   UNL     1      24.653  13.354  15.086  1.00  0.00     0.006 C 
BRANCH  10  11
ATOM     11  C   UNL     1      25.575  14.579  15.121  1.00  0.00     0.053 C 
BRANCH  11  12
ATOM     12  C   UNL     1      24.872  15.785  14.581  1.00  0.00     0.041 C 
ATOM     13  O   UNL     1      25.533  16.729  14.074  1.00  0.00    -0.550 OA
ATOM     14  O   UNL     1      23.487  15.880  14.668  1.00  0.00    -0.550 OA
ENDBRANCH  11  12
ENDBRANCH  10  11
ENDBRANCH   9  10
ENDBRANCH   8   9
ENDBRANCH   7   8
ENDBRANCH   6   7
ENDBRANCH   5   6
ENDBRANCH   4   5
ENDBRANCH   3   4
ENDBRANCH   2   3
ENDBRANCH   1   2
BRANCH   1  15
ATOM     15  C   UNL     1      24.652   9.645  10.642  1.00  0.00     0.000 C 
BRANCH  15  16
ATOM     16  C   UNL     1      24.111   8.680   9.572  1.00  0.00     0.000 C 
BRANCH  16  17
ATOM     17  C   UNL     1      22.797   8.002   9.994  1.00  0.00     0.000 C 
BRANCH  17  18
ATOM     18  C   UNL     1      21.992   8.852  10.992  1.00  0.00    -0.000 C 
BRANCH  18  19
ATOM     19  C   UNL     1      20.934   8.032  11.748  1.00  0.00    -0.000 C 
BRANCH  19  20
ATOM     20  C   UNL     1      19.576   8.004  11.024  1.00  0.00    -0.000 C 
BRANCH  20  21
ATOM     21  C   UNL     1      18.913   6.618  11.079  1.00  0.00    -0.000 C 
BRANCH  21  22
ATOM     22  C   UNL     1      19.308   5.729   9.887  1.00  0.00    -0.000 C 
BRANCH  22  23
ATOM     23  C   UNL     1      19.976   6.520   8.746  1.00  0.00    -0.000 C 
BRANCH  23  24
ATOM     24  C   UNL     1      19.052   6.847   7.557  1.00  0.00    -0.000 C 
BRANCH  24  25
ATOM     25  C   UNL     1      19.059   8.338   7.185  1.00  0.00    -0.003 C 
ATOM     26  C   UNL     1      20.475   8.820   6.875  1.00  0.00     0.004 C 
ENDBRANCH  24  25
ENDBRANCH  23  24
ENDBRANCH  22  23
ENDBRANCH  21  22
ENDBRANCH  20  21
ENDBRANCH  19  20
ENDBRANCH  18  19
ENDBRANCH  17  18
ENDBRANCH  16  17
ENDBRANCH  15  16
ENDBRANCH   1  15
TORSDOF 22
ENDMDL
MODEL 4
REMARK VINA RESULT:    -3.957      2.985      7.027
REMARK INTER + INTRA:         -12.542
REMARK INTER:                  -9.650
REMARK INTRA:                  -2.892
REMARK UNBOUND:                -3.497
REMARK SMILES CCCCCCCCCCCCCCCCCCCCCCCC(=O)[O-]
REMARK SMILES IDX 13 1 14 2 15 3 16 4 17 5 18 6 19 7 20 8 21 9 22 10 23 11
REMARK SMILES IDX 24 12 25 13 26 14 12 15 11 16 10 17 9 18 8 19 7 20 6 21 5 22
REMARK SMILES IDX 4 23 3 24 2 25 1 26
REMARK H PARENT
REMARK Flexibility Score: inf
ROOT
ATOM      1  C   UNL     1      25.610   8.853  10.291  1.00  0.00     0.000 C 
ENDROOT
BRANCH   1   2
ATOM      2  C   UNL     1      24.866   7.520  10.100  1.00  0.00     0.000 C 
BRANCH   2   3
ATOM      3  C   UNL     1      23.380   7.717   9.757  1.00  0.00     0.000 C 
BRANCH   3   4
ATOM      4  C   UNL     1      22.922   9.174   9.920  1.00  0.00     0.000 C 
BRANCH   4   5
ATOM      5  C   UNL     1      21.429   9.244  10.267  1.00  0.00     0.000 C 
BRANCH   5   6
ATOM      6  C   UNL     1      21.149   8.588  11.628  1.00  0.00     0.000 C 
BRANCH   6   7
ATOM      7  C   UNL     1      20.911   7.074  11.520  1.00  0.00     0.000 C 
BRANCH   7   8
ATOM      8  C   UNL     1      19.431   6.717  11.312  1.00  0.00     0.000 C 
BRANCH   8   9
ATOM      9  C   UNL     1      19.270   5.674  10.195  1.00  0.00     0.000 C 
BRANCH   9  10
ATOM     10  C   UNL     1      19.922   6.114   8.873  1.00  0.00     0.006 C 
BRANCH  10  11
ATOM     11  C   UNL     1      18.907   6.677   7.871  1.00  0.00     0.053 C 
BRANCH  11  12
ATOM     12  C   UNL     1      19.413   7.949   7.266  1.00  0.00     0.041 C 
ATOM     13  O   UNL     1      20.642   8.219   7.299  1.00  0.00    -0.550 OA
ATOM     14  O   UNL     1      18.523   8.851   6.694  1.00  0.00    -0.550 OA
ENDBRANCH  11  12
ENDBRANCH  10  11
ENDBRANCH   9  10
ENDBRANCH   8   9
ENDBRANCH   7   8
ENDBRANCH   6   7
ENDBRANCH   5   6
ENDBRANCH   4   5
ENDBRANCH   3   4
ENDBRANCH   2   3
ENDBRANCH   1   2
BRANCH   1  15
ATOM     15  C   UNL     1      26.125   9.039  11.727  1.00  0.00     0.000 C 
BRANCH  15  16
ATOM     16  C   UNL     1      25.869  10.455  12.273  1.00  0.00     0.000 C 
BRANCH  16  17
ATOM     17  C   UNL     1      25.156  10.446  13.634  1.00  0.00     0.000 C 
BRANCH  17  18
ATOM     18  C   UNL     1      23.906   9.550  13.637  1.00  0.00    -0.000 C 
BRANCH  18  19
ATOM     19  C   UNL     1      23.857   8.609  14.851  1.00  0.00    -0.000 C 
BRANCH  19  20
ATOM     20  C   UNL     1      24.477   7.230  14.560  1.00  0.00    -0.000 C 
BRANCH  20  21
ATOM     21  C   UNL     1      23.892   6.581  13.296  1.00  0.00    -0.000 C 
BRANCH  21  22
ATOM     22  C   UNL     1      24.376   5.134  13.099  1.00  0.00    -0.000 C 
BRANCH  22  23
ATOM     23  C   UNL     1      24.129   4.247  14.334  1.00  0.00    -0.000 C 
BRANCH  23  24
ATOM     24  C   UNL     1      24.856   2.889  14.312  1.00  0.00    -0.000 C 
BRANCH  24  25
ATOM     25  C   UNL     1      25.407   2.526  12.924  1.00  0.00    -0.003 C 
ATOM     26  C   UNL     1      25.560   1.014  12.772  1.00  0.00     0.004 C 
ENDBRANCH  24  25
ENDBRANCH  23  24
ENDBRANCH  22  23
ENDBRANCH  21  22
ENDBRANCH  20  21
ENDBRANCH  19  20
ENDBRANCH  18  19
ENDBRANCH  17  18
ENDBRANCH  16  17
ENDBRANCH  15  16
ENDBRANCH   1  15
TORSDOF 22
ENDMDL
MODEL 5
REMARK VINA RESULT:    -3.925      3.170      7.325
REMARK INTER + INTRA:         -12.470
REMARK INTER:                  -9.030
REMARK INTRA:                  -3.440
REMARK UNBOUND:                -3.497
REMARK SMILES CCCCCCCCCCCCCCCCCCCCCCCC(=O)[O-]
REMARK SMILES IDX 13 1 14 2 15 3 16 4 17 5 18 6 19 7 20 8 21 9 22 10 23 11
REMARK SMILES IDX 24 12 25 13 26 14 12 15 11 16 10 17 9 18 8 19 7 20 6 21 5 22
REMARK SMILES IDX 4 23 3 24 2 25 1 26
REMARK H PARENT
REMARK Flexibility Score: inf
ROOT
ATOM      1  C   UNL     1      23.913   8.996   9.498  1.00  0.00     0.000 C 
ENDROOT
BRANCH   1   2
ATOM      2  C   UNL     1      22.606   8.290   9.900  1.00  0.00     0.000 C 
BRANCH   2   3
ATOM      3  C   UNL     1      21.851   9.033  11.015  1.00  0.00     0.000 C 
BRANCH   3   4
ATOM      4  C   UNL     1      20.885   8.121  11.785  1.00  0.00     0.000 C 
BRANCH   4   5
ATOM      5  C   UNL     1      19.448   8.290  11.275  1.00  0.00     0.000 C 
BRANCH   5   6
ATOM      6  C   UNL     1      18.674   6.965  11.363  1.00  0.00     0.000 C 
BRANCH   6   7
ATOM      7  C   UNL     1      19.587   5.734  11.249  1.00  0.00     0.000 C 
BRANCH   7   8
ATOM      8  C   UNL     1      19.553   5.096   9.851  1.00  0.00     0.000 C 
BRANCH   8   9
ATOM      9  C   UNL     1      18.456   5.732   8.984  1.00  0.00     0.000 C 
BRANCH   9  10
ATOM     10  C   UNL     1      18.995   6.278   7.651  1.00  0.00     0.006 C 
BRANCH  10  11
ATOM     11  C   UNL     1      20.090   7.334   7.843  1.00  0.00     0.053 C 
BRANCH  11  12
ATOM     12  C   UNL     1      19.842   8.517   6.962  1.00  0.00     0.041 C 
ATOM     13  O   UNL     1      20.808   9.211   6.548  1.00  0.00    -0.550 OA
ATOM     14  O   UNL     1      18.541   8.874   6.623  1.00  0.00    -0.550 OA
ENDBRANCH  11  12
ENDBRANCH  10  11
ENDBRANCH   9  10
ENDBRANCH   8   9
ENDBRANCH   7   8
ENDBRANCH   6   7
ENDBRANCH   5   6
ENDBRANCH   4   5
ENDBRANCH   3   4
ENDBRANCH   2   3
ENDBRANCH   1   2
BRANCH   1  15
ATOM     15  C   UNL     1      25.123   8.497  10.304  1.00  0.00     0.000 C 
BRANCH  15  16
ATOM     16  C   UNL     1      25.919   9.644  10.952  1.00  0.00     0.000 C 
BRANCH  16  17
ATOM     17  C   UNL     1      25.024  10.624  11.727  1.00  0.00     0.000 C 
BRANCH  17  18
ATOM     18  C   UNL     1      25.639  11.044  13.072  1.00  0.00    -0.000 C 
BRANCH  18  19
ATOM     19  C   UNL     1      24.754  10.664  14.270  1.00  0.00    -0.000 C 
BRANCH  19  20
ATOM     20  C   UNL     1      23.802   9.496  13.960  1.00  0.00    -0.000 C 
BRANCH  20  21
ATOM     21  C   UNL     1      24.262   8.180  14.606  1.00  0.00    -0.000 C 
BRANCH  21  22
ATOM     22  C   UNL     1      25.601   7.680  14.036  1.00  0.00    -0.000 C 
BRANCH  22  23
ATOM     23  C   UNL     1      25.469   6.343  13.282  1.00  0.00    -0.000 C 
BRANCH  23  24
ATOM     24  C   UNL     1      24.027   5.946  12.915  1.00  0.00    -0.000 C 
BRANCH  24  25
ATOM     25  C   UNL     1      23.549   4.681  13.645  1.00  0.00    -0.003 C 
ATOM     26  C   UNL     1      24.643   3.616  13.673  1.00  0.00     0.004 C 
ENDBRANCH  24  25
ENDBRANCH  23  24
ENDBRANCH  22  23
ENDBRANCH  21  22
ENDBRANCH  20  21
ENDBRANCH  19  20
ENDBRANCH  18  19
ENDBRANCH  17  18
ENDBRANCH  16  17
ENDBRANCH  15  16
ENDBRANCH   1  15
TORSDOF 22
ENDMDL
MODEL 6
REMARK VINA RESULT:    -3.676      1.058      3.945
REMARK INTER + INTRA:         -11.901
REMARK INTER:                  -9.074
REMARK INTRA:                  -2.828
REMARK UNBOUND:                -3.497
REMARK SMILES CCCCCCCCCCCCCCCCCCCCCCCC(=O)[O-]
REMARK SMILES IDX 13 1 14 2 15 3 16 4 17 5 18 6 19 7 20 8 21 9 22 10 23 11
REMARK SMILES IDX 24 12 25 13 26 14 12 15 11 16 10 17 9 18 8 19 7 20 6 21 5 22
REMARK SMILES IDX 4 23 3 24 2 25 1 26
REMARK H PARENT
REMARK Flexibility Score: inf
ROOT
ATOM      1  C   UNL     1      21.788   9.737   7.374  1.00  0.00     0.000 C 
ENDROOT
BRANCH   1   2
ATOM      2  C   UNL     1      21.852   9.097   8.771  1.00  0.00     0.000 C 
BRANCH   2   3
ATOM      3  C   UNL     1      22.920   9.744   9.670  1.00  0.00     0.000 C 
BRANCH   3   4
ATOM      4  C   UNL     1      24.263   9.001   9.621  1.00  0.00     0.000 C 
BRANCH   4   5
ATOM      5  C   UNL     1      24.050   7.482   9.602  1.00  0.00     0.000 C 
BRANCH   5   6
ATOM      6  C   UNL     1      25.365   6.738   9.885  1.00  0.00     0.000 C 
BRANCH   6   7
ATOM      7  C   UNL     1      26.012   7.159  11.213  1.00  0.00     0.000 C 
BRANCH   7   8
ATOM      8  C   UNL     1      26.121   5.999  12.216  1.00  0.00     0.000 C 
BRANCH   8   9
ATOM      9  C   UNL     1      24.731   5.458  12.582  1.00  0.00     0.000 C 
BRANCH   9  10
ATOM     10  C   UNL     1      24.667   4.904  14.015  1.00  0.00     0.006 C 
BRANCH  10  11
ATOM     11  C   UNL     1      23.997   3.527  14.088  1.00  0.00     0.053 C 
BRANCH  11  12
ATOM     12  C   UNL     1      25.012   2.437  13.943  1.00  0.00     0.041 C 
ATOM     13  O   UNL     1      25.370   1.768  14.948  1.00  0.00    -0.550 OA
ATOM     14  O   UNL     1      25.588   2.182  12.703  1.00  0.00    -0.550 OA
ENDBRANCH  11  12
ENDBRANCH  10  11
ENDBRANCH   9  10
ENDBRANCH   8   9
ENDBRANCH   7   8
ENDBRANCH   6   7
ENDBRANCH   5   6
ENDBRANCH   4   5
ENDBRANCH   3   4
ENDBRANCH   2   3
ENDBRANCH   1   2
BRANCH   1  15
ATOM     15  C   UNL     1      20.675   9.136   6.502  1.00  0.00     0.000 C 
BRANCH  15  16
ATOM     16  C   UNL     1      19.547   8.498   7.332  1.00  0.00     0.000 C 
BRANCH  16  17
ATOM     17  C   UNL     1      19.645   6.965   7.388  1.00  0.00     0.000 C 
BRANCH  17  18
ATOM     18  C   UNL     1      18.669   6.350   8.405  1.00  0.00    -0.000 C 
BRANCH  18  19
ATOM     19  C   UNL     1      19.382   5.499   9.468  1.00  0.00    -0.000 C 
BRANCH  19  20
ATOM     20  C   UNL     1      18.926   5.832  10.901  1.00  0.00    -0.000 C 
BRANCH  20  21
ATOM     21  C   UNL     1      19.484   7.176  11.393  1.00  0.00    -0.000 C 
BRANCH  21  22
ATOM     22  C   UNL     1      21.016   7.165  11.526  1.00  0.00    -0.000 C 
BRANCH  22  23
ATOM     23  C   UNL     1      21.555   8.355  12.341  1.00  0.00    -0.000 C 
BRANCH  23  24
ATOM     24  C   UNL     1      22.717   8.016  13.294  1.00  0.00    -0.000 C 
BRANCH  24  25
ATOM     25  C   UNL     1      23.798   9.107  13.334  1.00  0.00    -0.003 C 
ATOM     26  C   UNL     1      23.751   9.879  14.650  1.00  0.00     0.004 C 
ENDBRANCH  24  25
ENDBRANCH  23  24
ENDBRANCH  22  23
ENDBRANCH  21  22
ENDBRANCH  20  21
ENDBRANCH  19  20
ENDBRANCH  18  19
ENDBRANCH  17  18
ENDBRANCH  16  17
ENDBRANCH  15  16
ENDBRANCH   1  15
TORSDOF 22
ENDMDL
MODEL 7
REMARK VINA RESULT:    -3.510      3.522      5.276
REMARK INTER + INTRA:         -11.521
REMARK INTER:                  -8.237
REMARK INTRA:                  -3.284
REMARK UNBOUND:                -3.497
REMARK SMILES CCCCCCCCCCCCCCCCCCCCCCCC(=O)[O-]
REMARK SMILES IDX 13 1 14 2 15 3 16 4 17 5 18 6 19 7 20 8 21 9 22 10 23 11
REMARK SMILES IDX 24 12 25 13 26 14 12 15 11 16 10 17 9 18 8 19 7 20 6 21 5 22
REMARK SMILES IDX 4 23 3 24 2 25 1 26
REMARK H PARENT
REMARK Flexibility Score: inf
ROOT
ATOM      1  C   UNL     1      25.714   9.730  11.104  1.00  0.00     0.000 C 
ENDROOT
BRANCH   1   2
ATOM      2  C   UNL     1      25.945   8.240  10.801  1.00  0.00     0.000 C 
BRANCH   2   3
ATOM      3  C   UNL     1      26.120   7.398  12.075  1.00  0.00     0.000 C 
BRANCH   3   4
ATOM      4  C   UNL     1      25.073   6.280  12.196  1.00  0.00     0.000 C 
BRANCH   4   5
ATOM      5  C   UNL     1      23.696   6.766  11.726  1.00  0.00     0.000 C 
BRANCH   5   6
ATOM      6  C   UNL     1      22.787   7.086  12.923  1.00  0.00     0.000 C 
BRANCH   6   7
ATOM      7  C   UNL     1      22.833   8.569  13.324  1.00  0.00     0.000 C 
BRANCH   7   8
ATOM      8  C   UNL     1      23.404   8.787  14.734  1.00  0.00     0.000 C 
BRANCH   8   9
ATOM      9  C   UNL     1      24.916   9.056  14.679  1.00  0.00     0.000 C 
BRANCH   9  10
ATOM     10  C   UNL     1      25.276  10.501  15.065  1.00  0.00     0.006 C 
BRANCH  10  11
ATOM     11  C   UNL     1      24.196  11.509  14.657  1.00  0.00     0.053 C 
BRANCH  11  12
ATOM     12  C   UNL     1      24.767  12.890  14.575  1.00  0.00     0.041 C 
ATOM     13  O   UNL     1      26.012  13.064  14.643  1.00  0.00    -0.550 OA
ATOM     14  O   UNL     1      23.922  13.988  14.456  1.00  0.00    -0.550 OA
ENDBRANCH  11  12
ENDBRANCH  10  11
ENDBRANCH   9  10
ENDBRANCH   8   9
ENDBRANCH   7   8
ENDBRANCH   6   7
ENDBRANCH   5   6
ENDBRANCH   4   5
ENDBRANCH   3   4
ENDBRANCH   2   3
ENDBRANCH   1   2
BRANCH   1  15
ATOM     15  C   UNL     1      24.258  10.161  10.866  1.00  0.00     0.000 C 
BRANCH  15  16
ATOM     16  C   UNL     1      23.634   9.492   9.628  1.00  0.00     0.000 C 
BRANCH  16  17
ATOM     17  C   UNL     1      22.099   9.446   9.689  1.00  0.00     0.000 C 
BRANCH  17  18
ATOM     18  C   UNL     1      21.507   8.366   8.768  1.00  0.00    -0.000 C 
BRANCH  18  19
ATOM     19  C   UNL     1      20.786   8.960   7.548  1.00  0.00    -0.000 C 
BRANCH  19  20
ATOM     20  C   UNL     1      19.412   8.313   7.295  1.00  0.00    -0.000 C 
BRANCH  20  21
ATOM     21  C   UNL     1      19.461   6.781   7.397  1.00  0.00    -0.000 C 
BRANCH  21  22
ATOM     22  C   UNL     1      18.667   6.245   8.601  1.00  0.00    -0.000 C 
BRANCH  22  23
ATOM     23  C   UNL     1      19.495   5.297   9.489  1.00  0.00    -0.000 C 
BRANCH  23  24
ATOM     24  C   UNL     1      19.695   5.778  10.939  1.00  0.00    -0.000 C 
BRANCH  24  25
ATOM     25  C   UNL     1      18.665   6.835  11.367  1.00  0.00    -0.003 C 
ATOM     26  C   UNL     1      19.291   8.227  11.407  1.00  0.00     0.004 C 
ENDBRANCH  24  25
ENDBRANCH  23  24
ENDBRANCH  22  23
ENDBRANCH  21  22
ENDBRANCH  20  21
ENDBRANCH  19  20
ENDBRANCH  18  19
ENDBRANCH  17  18
ENDBRANCH  16  17
ENDBRANCH  15  16
ENDBRANCH   1  15
TORSDOF 22
ENDMDL
MODEL 8
REMARK VINA RESULT:    -3.490      1.818      5.200
REMARK INTER + INTRA:         -11.475
REMARK INTER:                  -8.355
REMARK INTRA:                  -3.120
REMARK UNBOUND:                -3.497
REMARK SMILES CCCCCCCCCCCCCCCCCCCCCCCC(=O)[O-]
REMARK SMILES IDX 13 1 14 2 15 3 16 4 17 5 18 6 19 7 20 8 21 9 22 10 23 11
REMARK SMILES IDX 24 12 25 13 26 14 12 15 11 16 10 17 9 18 8 19 7 20 6 21 5 22
REMARK SMILES IDX 4 23 3 24 2 25 1 26
REMARK H PARENT
REMARK Flexibility Score: inf
ROOT
ATOM      1  C   UNL     1      19.806   8.207   8.919  1.00  0.00     0.000 C 
ENDROOT
BRANCH   1   2
ATOM      2  C   UNL     1      20.880   8.377   7.831  1.00  0.00     0.000 C 
BRANCH   2   3
ATOM      3  C   UNL     1      21.874   9.506   8.153  1.00  0.00     0.000 C 
BRANCH   3   4
ATOM      4  C   UNL     1      22.352   9.476   9.613  1.00  0.00     0.000 C 
BRANCH   4   5
ATOM      5  C   UNL     1      23.845   9.131   9.694  1.00  0.00     0.000 C 
BRANCH   5   6
ATOM      6  C   UNL     1      24.064   7.612   9.601  1.00  0.00     0.000 C 
BRANCH   6   7
ATOM      7  C   UNL     1      25.551   7.230   9.528  1.00  0.00     0.000 C 
BRANCH   7   8
ATOM      8  C   UNL     1      26.123   6.803  10.889  1.00  0.00     0.000 C 
BRANCH   8   9
ATOM      9  C   UNL     1      26.100   5.274  11.037  1.00  0.00     0.000 C 
BRANCH   9  10
ATOM     10  C   UNL     1      25.403   4.813  12.328  1.00  0.00     0.006 C 
BRANCH  10  11
ATOM     11  C   UNL     1      25.856   3.419  12.780  1.00  0.00     0.053 C 
BRANCH  11  12
ATOM     12  C   UNL     1      24.971   2.905  13.871  1.00  0.00     0.041 C 
ATOM     13  O   UNL     1      23.787   3.323  13.976  1.00  0.00    -0.550 OA
ATOM     14  O   UNL     1      25.463   1.988  14.794  1.00  0.00    -0.550 OA
ENDBRANCH  11  12
ENDBRANCH  10  11
ENDBRANCH   9  10
ENDBRANCH   8   9
ENDBRANCH   7   8
ENDBRANCH   6   7
ENDBRANCH   5   6
ENDBRANCH   4   5
ENDBRANCH   3   4
ENDBRANCH   2   3
ENDBRANCH   1   2
BRANCH   1  15
ATOM     15  C   UNL     1      19.374   6.742   9.096  1.00  0.00     0.000 C 
BRANCH  15  16
ATOM     16  C   UNL     1      19.750   6.174  10.476  1.00  0.00     0.000 C 
BRANCH  16  17
ATOM     17  C   UNL     1      20.233   7.259  11.452  1.00  0.00     0.000 C 
BRANCH  17  18
ATOM     18  C   UNL     1      21.640   6.968  12.004  1.00  0.00    -0.000 C 
BRANCH  18  19
ATOM     19  C   UNL     1      22.174   8.106  12.889  1.00  0.00    -0.000 C 
BRANCH  19  20
ATOM     20  C   UNL     1      23.579   7.816  13.446  1.00  0.00    -0.000 C 
BRANCH  20  21
ATOM     21  C   UNL     1      24.246   9.071  14.030  1.00  0.00    -0.000 C 
BRANCH  21  22
ATOM     22  C   UNL     1      25.528   9.463  13.275  1.00  0.00    -0.000 C 
BRANCH  22  23
ATOM     23  C   UNL     1      25.449  10.869  12.651  1.00  0.00    -0.000 C 
BRANCH  23  24
ATOM     24  C   UNL     1      25.044  11.989  13.628  1.00  0.00    -0.000 C 
BRANCH  24  25
ATOM     25  C   UNL     1      25.349  13.395  13.087  1.00  0.00    -0.003 C 
ATOM     26  C   UNL     1      24.388  14.428  13.673  1.00  0.00     0.004 C 
ENDBRANCH  24  25
ENDBRANCH  23  24
ENDBRANCH  22  23
ENDBRANCH  21  22
ENDBRANCH  20  21
ENDBRANCH  19  20
ENDBRANCH  18  19
ENDBRANCH  17  18
ENDBRANCH  16  17
ENDBRANCH  15  16
ENDBRANCH   1  15
TORSDOF 22
ENDMDL
