MODEL 1
REMARK VINA RESULT:    99.593      0.000      0.000
REMARK INTER + INTRA:         109.548
REMARK INTER:                 108.327
REMARK INTRA:                   1.221
REMARK UNBOUND:                 1.221
REMARK SMILES CC1(C)CC[C@]2(C(=O)[O-])CC[C@@]3(C)C(=CC[C@H]4[C@]5(C)CC[C@H](O)C(C)(C)[C@H]5CC[C@@]43C)[C@H]2C1
REMARK SMILES IDX 6 1 5 2 10 3 32 4 4 5 11 6 14 7 33 8 2 9 12 10 15 11 1 12
REMARK SMILES IDX 3 13 13 14 30 15 16 16 17 17 29 18 31 19 18 20 28 21 27 22
REMARK SMILES IDX 20 23 19 24 24 25 21 26 22 27 25 28 26 29 7 30 8 31 9 32
REMARK SMILES IDX 23 33
REMARK H PARENT 23 34
REMARK Flexibility Score: inf
ROOT
ATOM      1  C   UNL     1      -3.255 -50.937   4.830  1.00  0.00     0.017 C 
ATOM      2  C   UNL     1      -2.264 -51.644   5.798  1.00  0.00     0.014 C 
ATOM      3  C   UNL     1      -4.532 -51.839   4.673  1.00  0.00     0.014 C 
ATOM      4  C   UNL     1      -2.539 -50.746   3.451  1.00  0.00     0.028 C 
ATOM      5  C   UNL     1      -0.947 -50.870   5.968  1.00  0.00     0.007 C 
ATOM      6  C   UNL     1      -4.984 -52.095   3.214  1.00  0.00     0.013 C 
ATOM      7  C   UNL     1      -3.515 -50.185   2.407  1.00  0.00    -0.064 C 
ATOM      8  C   UNL     1      -1.189 -49.987   3.588  1.00  0.00     0.015 C 
ATOM      9  C   UNL     1      -0.218 -50.619   4.624  1.00  0.00    -0.035 C 
ATOM     10  C   UNL     1      -4.891 -50.843   2.277  1.00  0.00    -0.006 C 
ATOM     11  C   UNL     1      -3.140 -49.255   1.488  1.00  0.00    -0.027 C 
ATOM     12  C   UNL     1       0.945 -49.634   4.874  1.00  0.00     0.011 C 
ATOM     13  C   UNL     1       0.389 -51.935   4.078  1.00  0.00     0.011 C 
ATOM     14  C   UNL     1      -5.946 -49.809   2.805  1.00  0.00     0.017 C 
ATOM     15  C   UNL     1      -5.094 -51.220   0.726  1.00  0.00    -0.020 C 
ATOM     16  C   UNL     1      -3.924 -48.929   0.229  1.00  0.00     0.032 C 
ATOM     17  C   UNL     1      -5.141 -49.861  -0.079  1.00  0.00     0.006 C 
ATOM     18  C   UNL     1      -6.418 -52.011   0.486  1.00  0.00     0.008 C 
ATOM     19  C   UNL     1      -3.911 -52.124   0.234  1.00  0.00     0.012 C 
ATOM     20  C   UNL     1      -5.551 -49.955  -1.609  1.00  0.00    -0.025 C 
ATOM     21  C   UNL     1      -6.829 -52.124  -0.997  1.00  0.00     0.005 C 
ATOM     22  C   UNL     1      -6.926 -50.729  -1.667  1.00  0.00     0.003 C 
ATOM     23  C   UNL     1      -5.794 -48.506  -2.143  1.00  0.00     0.010 C 
ATOM     24  C   UNL     1      -4.423 -50.620  -2.469  1.00  0.00     0.012 C 
ATOM     25  C   UNL     1      -7.678 -50.696  -3.057  1.00  0.00    -0.006 C 
ATOM     26  C   UNL     1      -6.481 -48.455  -3.518  1.00  0.00     0.033 C 
ATOM     27  C   UNL     1      -7.820 -49.212  -3.528  1.00  0.00     0.120 C 
ATOM     28  C   UNL     1      -6.978 -51.536  -4.157  1.00  0.00     0.014 C 
ATOM     29  C   UNL     1      -9.110 -51.281  -2.906  1.00  0.00     0.014 C 
ENDROOT
BRANCH   1  30
ATOM     30  C   UNL     1      -3.673 -49.605   5.457  1.00  0.00     0.048 C 
ATOM     31  O   UNL     1      -4.572 -48.887   4.944  1.00  0.00    -0.550 OA
ATOM     32  O   UNL     1      -3.096 -49.195   6.654  1.00  0.00    -0.550 OA
ENDBRANCH   1  30
BRANCH  27  33
ATOM     33  O   UNL     1      -8.736 -48.527  -2.705  1.00  0.00    -0.393 OA
ATOM     34  H   UNL     1      -8.251 -47.762  -2.298  1.00  0.00     0.210 HD
ENDBRANCH  27  33
TORSDOF 2
ENDMDL
MODEL 2
REMARK VINA RESULT:   100.682      2.714      8.288
REMARK INTER + INTRA:         110.732
REMARK INTER:                 109.614
REMARK INTRA:                   1.118
REMARK UNBOUND:                 1.221
REMARK SMILES CC1(C)CC[C@]2(C(=O)[O-])CC[C@@]3(C)C(=CC[C@H]4[C@]5(C)CC[C@H](O)C(C)(C)[C@H]5CC[C@@]43C)[C@H]2C1
REMARK SMILES IDX 6 1 5 2 10 3 32 4 4 5 11 6 14 7 33 8 2 9 12 10 15 11 1 12
REMARK SMILES IDX 3 13 13 14 30 15 16 16 17 17 29 18 31 19 18 20 28 21 27 22
REMARK SMILES IDX 20 23 19 24 24 25 21 26 22 27 25 28 26 29 7 30 8 31 9 32
REMARK SMILES IDX 23 33
REMARK H PARENT 23 34
REMARK Flexibility Score: inf
ROOT
ATOM      1  C   UNL     1      -4.246 -50.083   0.284  1.00  0.00     0.017 C 
ATOM      2  C   UNL     1      -3.901 -49.490  -1.111  1.00  0.00     0.014 C 
ATOM      3  C   UNL     1      -5.170 -49.066   1.047  1.00  0.00     0.014 C 
ATOM      4  C   UNL     1      -2.908 -50.307   1.064  1.00  0.00     0.028 C 
ATOM      5  C   UNL     1      -2.943 -50.384  -1.915  1.00  0.00     0.007 C 
ATOM      6  C   UNL     1      -4.735 -48.738   2.497  1.00  0.00     0.013 C 
ATOM      7  C   UNL     1      -3.190 -50.755   2.507  1.00  0.00    -0.064 C 
ATOM      8  C   UNL     1      -1.903 -51.189   0.269  1.00  0.00     0.015 C 
ATOM      9  C   UNL     1      -1.616 -50.670  -1.167  1.00  0.00    -0.035 C 
ATOM     10  C   UNL     1      -4.227 -49.972   3.316  1.00  0.00    -0.006 C 
ATOM     11  C   UNL     1      -2.435 -51.695   3.136  1.00  0.00    -0.027 C 
ATOM     12  C   UNL     1      -0.844 -51.761  -1.940  1.00  0.00     0.011 C 
ATOM     13  C   UNL     1      -0.727 -49.403  -1.128  1.00  0.00     0.011 C 
ATOM     14  C   UNL     1      -5.462 -50.918   3.515  1.00  0.00     0.017 C 
ATOM     15  C   UNL     1      -3.525 -49.545   4.700  1.00  0.00    -0.020 C 
ATOM     16  C   UNL     1      -2.423 -51.920   4.637  1.00  0.00     0.032 C 
ATOM     17  C   UNL     1      -3.212 -50.876   5.492  1.00  0.00     0.006 C 
ATOM     18  C   UNL     1      -4.451 -48.632   5.565  1.00  0.00     0.008 C 
ATOM     19  C   UNL     1      -2.210 -48.741   4.410  1.00  0.00     0.012 C 
ATOM     20  C   UNL     1      -2.714 -50.712   6.989  1.00  0.00    -0.025 C 
ATOM     21  C   UNL     1      -3.977 -48.450   7.022  1.00  0.00     0.005 C 
ATOM     22  C   UNL     1      -3.782 -49.815   7.730  1.00  0.00     0.003 C 
ATOM     23  C   UNL     1      -2.719 -52.120   7.667  1.00  0.00     0.010 C 
ATOM     24  C   UNL     1      -1.260 -50.133   7.053  1.00  0.00     0.012 C 
ATOM     25  C   UNL     1      -3.654 -49.749   9.305  1.00  0.00    -0.006 C 
ATOM     26  C   UNL     1      -2.546 -52.080   9.194  1.00  0.00     0.033 C 
ATOM     27  C   UNL     1      -3.611 -51.205   9.876  1.00  0.00     0.120 C 
ATOM     28  C   UNL     1      -2.415 -48.953   9.790  1.00  0.00     0.014 C 
ATOM     29  C   UNL     1      -4.895 -49.041   9.914  1.00  0.00     0.014 C 
ENDROOT
BRANCH   1  30
ATOM     30  C   UNL     1      -5.023 -51.385   0.076  1.00  0.00     0.048 C 
ATOM     31  O   UNL     1      -5.364 -52.113   1.046  1.00  0.00    -0.550 OA
ATOM     32  O   UNL     1      -5.419 -51.754  -1.205  1.00  0.00    -0.550 OA
ENDBRANCH   1  30
BRANCH  27  33
ATOM     33  O   UNL     1      -4.869 -51.822   9.730  1.00  0.00    -0.393 OA
ATOM     34  H   UNL     1      -5.421 -51.230   9.155  1.00  0.00     0.210 HD
ENDBRANCH  27  33
TORSDOF 2
ENDMDL
