MODEL 1
REMARK VINA RESULT:    10.453      0.000      0.000
REMARK INTER + INTRA:          27.075
REMARK INTER:                  27.562
REMARK INTRA:                  -0.487
REMARK UNBOUND:                -0.487
REMARK SMILES CCCCCCCCCCCCCCCCCCCCCCCCCCCCCC(=O)[O-]
REMARK SMILES IDX 16 1 17 2 18 3 19 4 20 5 21 6 22 7 23 8 24 9 25 10 26 11
REMARK SMILES IDX 27 12 28 13 29 14 30 15 31 16 32 17 15 18 14 19 13 20 12 21
REMARK SMILES IDX 11 22 10 23 9 24 8 25 7 26 6 27 5 28 4 29 3 30 2 31 1 32
REMARK H PARENT
REMARK Flexibility Score: inf
ROOT
ATOM      1  C   UNL     1      -7.716  14.297 -12.116  1.00  0.00     0.000 C 
ENDROOT
BRANCH   1   2
ATOM      2  C   UNL     1      -7.646  12.990 -12.928  1.00  0.00     0.000 C 
BRANCH   2   3
ATOM      3  C   UNL     1      -8.881  12.700 -13.804  1.00  0.00     0.000 C 
BRANCH   3   4
ATOM      4  C   UNL     1      -8.745  13.102 -15.284  1.00  0.00     0.000 C 
BRANCH   4   5
ATOM      5  C   UNL     1      -8.265  14.549 -15.467  1.00  0.00     0.000 C 
BRANCH   5   6
ATOM      6  C   UNL     1      -6.788  14.592 -15.882  1.00  0.00     0.000 C 
BRANCH   6   7
ATOM      7  C   UNL     1      -5.884  15.252 -14.823  1.00  0.00     0.000 C 
BRANCH   7   8
ATOM      8  C   UNL     1      -5.984  16.787 -14.741  1.00  0.00     0.000 C 
BRANCH   8   9
ATOM      9  C   UNL     1      -6.060  17.457 -16.124  1.00  0.00     0.000 C 
BRANCH   9  10
ATOM     10  C   UNL     1      -6.808  18.800 -16.089  1.00  0.00     0.000 C 
BRANCH  10  11
ATOM     11  C   UNL     1      -5.896  19.973 -15.687  1.00  0.00     0.000 C 
BRANCH  11  12
ATOM     12  C   UNL     1      -6.537  20.897 -14.634  1.00  0.00     0.000 C 
BRANCH  12  13
ATOM     13  C   UNL     1      -7.358  20.176 -13.550  1.00  0.00     0.006 C 
BRANCH  13  14
ATOM     14  C   UNL     1      -8.573  19.429 -14.115  1.00  0.00     0.053 C 
BRANCH  14  15
ATOM     15  C   UNL     1      -8.902  18.245 -13.261  1.00  0.00     0.041 C 
ATOM     16  O   UNL     1      -9.115  18.393 -12.029  1.00  0.00    -0.550 OA
ATOM     17  O   UNL     1      -9.021  16.986 -13.835  1.00  0.00    -0.550 OA
ENDBRANCH  14  15
ENDBRANCH  13  14
ENDBRANCH  12  13
ENDBRANCH  11  12
ENDBRANCH  10  11
ENDBRANCH   9  10
ENDBRANCH   8   9
ENDBRANCH   7   8
ENDBRANCH   6   7
ENDBRANCH   5   6
ENDBRANCH   4   5
ENDBRANCH   3   4
ENDBRANCH   2   3
ENDBRANCH   1   2
BRANCH   1  18
ATOM     18  C   UNL     1      -8.245  14.083 -10.691  1.00  0.00     0.000 C 
BRANCH  18  19
ATOM     19  C   UNL     1      -7.140  13.537  -9.774  1.00  0.00     0.000 C 
BRANCH  19  20
ATOM     20  C   UNL     1      -6.587  14.599  -8.810  1.00  0.00     0.000 C 
BRANCH  20  21
ATOM     21  C   UNL     1      -6.152  13.998  -7.462  1.00  0.00     0.000 C 
BRANCH  21  22
ATOM     22  C   UNL     1      -6.763  12.610  -7.203  1.00  0.00     0.000 C 
BRANCH  22  23
ATOM     23  C   UNL     1      -7.446  12.512  -5.828  1.00  0.00     0.000 C 
BRANCH  23  24
ATOM     24  C   UNL     1      -8.031  11.116  -5.547  1.00  0.00    -0.000 C 
BRANCH  24  25
ATOM     25  C   UNL     1      -9.159  11.071  -4.499  1.00  0.00    -0.000 C 
BRANCH  25  26
ATOM     26  C   UNL     1     -10.511  11.559  -5.049  1.00  0.00    -0.000 C 
BRANCH  26  27
ATOM     27  C   UNL     1     -10.362  12.513  -6.247  1.00  0.00    -0.000 C 
BRANCH  27  28
ATOM     28  C   UNL     1     -11.667  12.831  -7.007  1.00  0.00    -0.000 C 
BRANCH  28  29
ATOM     29  C   UNL     1     -11.483  13.525  -8.370  1.00  0.00    -0.000 C 
BRANCH  29  30
ATOM     30  C   UNL     1     -12.056  14.951  -8.394  1.00  0.00    -0.000 C 
BRANCH  30  31
ATOM     31  C   UNL     1     -12.869  15.279  -7.132  1.00  0.00    -0.003 C 
ATOM     32  C   UNL     1     -13.110  16.778  -6.953  1.00  0.00     0.004 C 
ENDBRANCH  30  31
ENDBRANCH  29  30
ENDBRANCH  28  29
ENDBRANCH  27  28
ENDBRANCH  26  27
ENDBRANCH  25  26
ENDBRANCH  24  25
ENDBRANCH  23  24
ENDBRANCH  22  23
ENDBRANCH  21  22
ENDBRANCH  20  21
ENDBRANCH  19  20
ENDBRANCH  18  19
ENDBRANCH   1  18
TORSDOF 28
ENDMDL
MODEL 2
REMARK VINA RESULT:    11.541      1.560      2.249
REMARK INTER + INTRA:          29.946
REMARK INTER:                  30.788
REMARK INTRA:                  -0.842
REMARK UNBOUND:                -0.487
REMARK SMILES CCCCCCCCCCCCCCCCCCCCCCCCCCCCCC(=O)[O-]
REMARK SMILES IDX 16 1 17 2 18 3 19 4 20 5 21 6 22 7 23 8 24 9 25 10 26 11
REMARK SMILES IDX 27 12 28 13 29 14 30 15 31 16 32 17 15 18 14 19 13 20 12 21
REMARK SMILES IDX 11 22 10 23 9 24 8 25 7 26 6 27 5 28 4 29 3 30 2 31 1 32
REMARK H PARENT
REMARK Flexibility Score: inf
ROOT
ATOM      1  C   UNL     1      -7.605  13.911 -11.451  1.00  0.00     0.000 C 
ENDROOT
BRANCH   1   2
ATOM      2  C   UNL     1      -7.164  12.725 -12.328  1.00  0.00     0.000 C 
BRANCH   2   3
ATOM      3  C   UNL     1      -6.391  13.110 -13.606  1.00  0.00     0.000 C 
BRANCH   3   4
ATOM      4  C   UNL     1      -7.229  13.138 -14.897  1.00  0.00     0.000 C 
BRANCH   4   5
ATOM      5  C   UNL     1      -8.626  13.741 -14.688  1.00  0.00     0.000 C 
BRANCH   5   6
ATOM      6  C   UNL     1      -8.718  15.146 -15.300  1.00  0.00     0.000 C 
BRANCH   6   7
ATOM      7  C   UNL     1      -7.466  15.533 -16.110  1.00  0.00     0.000 C 
BRANCH   7   8
ATOM      8  C   UNL     1      -6.396  16.317 -15.326  1.00  0.00     0.000 C 
BRANCH   8   9
ATOM      9  C   UNL     1      -6.732  16.460 -13.832  1.00  0.00     0.000 C 
BRANCH   9  10
ATOM     10  C   UNL     1      -7.008  17.917 -13.426  1.00  0.00     0.000 C 
BRANCH  10  11
ATOM     11  C   UNL     1      -8.483  18.314 -13.614  1.00  0.00     0.000 C 
BRANCH  11  12
ATOM     12  C   UNL     1      -8.675  19.828 -13.821  1.00  0.00     0.000 C 
BRANCH  12  13
ATOM     13  C   UNL     1      -8.998  20.251 -15.266  1.00  0.00     0.006 C 
BRANCH  13  14
ATOM     14  C   UNL     1      -7.835  20.982 -15.949  1.00  0.00     0.053 C 
BRANCH  14  15
ATOM     15  C   UNL     1      -6.525  20.464 -15.447  1.00  0.00     0.041 C 
ATOM     16  O   UNL     1      -5.984  19.469 -15.998  1.00  0.00    -0.550 OA
ATOM     17  O   UNL     1      -5.877  21.109 -14.401  1.00  0.00    -0.550 OA
ENDBRANCH  14  15
ENDBRANCH  13  14
ENDBRANCH  12  13
ENDBRANCH  11  12
ENDBRANCH  10  11
ENDBRANCH   9  10
ENDBRANCH   8   9
ENDBRANCH   7   8
ENDBRANCH   6   7
ENDBRANCH   5   6
ENDBRANCH   4   5
ENDBRANCH   3   4
ENDBRANCH   2   3
ENDBRANCH   1   2
BRANCH   1  18
ATOM     18  C   UNL     1      -6.751  14.065 -10.186  1.00  0.00     0.000 C 
BRANCH  18  19
ATOM     19  C   UNL     1      -7.198  13.075  -9.100  1.00  0.00     0.000 C 
BRANCH  19  20
ATOM     20  C   UNL     1      -6.471  13.289  -7.763  1.00  0.00     0.000 C 
BRANCH  20  21
ATOM     21  C   UNL     1      -6.580  12.067  -6.834  1.00  0.00     0.000 C 
BRANCH  21  22
ATOM     22  C   UNL     1      -6.293  12.409  -5.362  1.00  0.00     0.000 C 
BRANCH  22  23
ATOM     23  C   UNL     1      -6.800  11.328  -4.393  1.00  0.00     0.000 C 
BRANCH  23  24
ATOM     24  C   UNL     1      -8.322  11.386  -4.172  1.00  0.00    -0.000 C 
BRANCH  24  25
ATOM     25  C   UNL     1      -9.182  10.958  -5.377  1.00  0.00    -0.000 C 
BRANCH  25  26
ATOM     26  C   UNL     1     -10.491  11.756  -5.495  1.00  0.00    -0.000 C 
BRANCH  26  27
ATOM     27  C   UNL     1     -10.586  12.565  -6.801  1.00  0.00    -0.000 C 
BRANCH  27  28
ATOM     28  C   UNL     1     -11.956  13.217  -7.080  1.00  0.00    -0.000 C 
BRANCH  28  29
ATOM     29  C   UNL     1     -12.055  14.002  -8.401  1.00  0.00    -0.000 C 
BRANCH  29  30
ATOM     30  C   UNL     1     -13.265  14.949  -8.442  1.00  0.00    -0.000 C 
BRANCH  30  31
ATOM     31  C   UNL     1     -13.521  15.634  -7.091  1.00  0.00    -0.003 C 
ATOM     32  C   UNL     1     -12.289  16.361  -6.551  1.00  0.00     0.004 C 
ENDBRANCH  30  31
ENDBRANCH  29  30
ENDBRANCH  28  29
ENDBRANCH  27  28
ENDBRANCH  26  27
ENDBRANCH  25  26
ENDBRANCH  24  25
ENDBRANCH  23  24
ENDBRANCH  22  23
ENDBRANCH  21  22
ENDBRANCH  20  21
ENDBRANCH  19  20
ENDBRANCH  18  19
ENDBRANCH   1  18
TORSDOF 28
ENDMDL
MODEL 3
REMARK VINA RESULT:    11.646      1.250      2.078
REMARK INTER + INTRA:          30.223
REMARK INTER:                  32.193
REMARK INTRA:                  -1.971
REMARK UNBOUND:                -0.487
REMARK SMILES CCCCCCCCCCCCCCCCCCCCCCCCCCCCCC(=O)[O-]
REMARK SMILES IDX 16 1 17 2 18 3 19 4 20 5 21 6 22 7 23 8 24 9 25 10 26 11
REMARK SMILES IDX 27 12 28 13 29 14 30 15 31 16 32 17 15 18 14 19 13 20 12 21
REMARK SMILES IDX 11 22 10 23 9 24 8 25 7 26 6 27 5 28 4 29 3 30 2 31 1 32
REMARK H PARENT
REMARK Flexibility Score: inf
ROOT
ATOM      1  C   UNL     1      -7.705  13.814  -9.831  1.00  0.00     0.000 C 
ENDROOT
BRANCH   1   2
ATOM      2  C   UNL     1      -7.075  14.144 -11.197  1.00  0.00     0.000 C 
BRANCH   2   3
ATOM      3  C   UNL     1      -7.577  13.282 -12.372  1.00  0.00     0.000 C 
BRANCH   3   4
ATOM      4  C   UNL     1      -6.482  12.781 -13.332  1.00  0.00     0.000 C 
BRANCH   4   5
ATOM      5  C   UNL     1      -7.040  12.339 -14.694  1.00  0.00     0.000 C 
BRANCH   5   6
ATOM      6  C   UNL     1      -7.181  13.535 -15.646  1.00  0.00     0.000 C 
BRANCH   6   7
ATOM      7  C   UNL     1      -6.775  14.872 -14.998  1.00  0.00     0.000 C 
BRANCH   7   8
ATOM      8  C   UNL     1      -6.332  15.970 -15.984  1.00  0.00     0.000 C 
BRANCH   8   9
ATOM      9  C   UNL     1      -5.937  17.280 -15.283  1.00  0.00     0.000 C 
BRANCH   9  10
ATOM     10  C   UNL     1      -6.413  18.527 -16.048  1.00  0.00     0.000 C 
BRANCH  10  11
ATOM     11  C   UNL     1      -7.356  19.408 -15.211  1.00  0.00     0.000 C 
BRANCH  11  12
ATOM     12  C   UNL     1      -8.591  18.645 -14.697  1.00  0.00     0.000 C 
BRANCH  12  13
ATOM     13  C   UNL     1      -8.740  18.607 -13.165  1.00  0.00     0.006 C 
BRANCH  13  14
ATOM     14  C   UNL     1      -8.540  17.203 -12.579  1.00  0.00     0.053 C 
BRANCH  14  15
ATOM     15  C   UNL     1      -9.601  16.273 -13.077  1.00  0.00     0.041 C 
ATOM     16  O   UNL     1      -9.286  15.151 -13.555  1.00  0.00    -0.550 OA
ATOM     17  O   UNL     1     -10.940  16.624 -12.970  1.00  0.00    -0.550 OA
ENDBRANCH  14  15
ENDBRANCH  13  14
ENDBRANCH  12  13
ENDBRANCH  11  12
ENDBRANCH  10  11
ENDBRANCH   9  10
ENDBRANCH   8   9
ENDBRANCH   7   8
ENDBRANCH   6   7
ENDBRANCH   5   6
ENDBRANCH   4   5
ENDBRANCH   3   4
ENDBRANCH   2   3
ENDBRANCH   1   2
BRANCH   1  18
ATOM     18  C   UNL     1      -6.690  13.867  -8.680  1.00  0.00     0.000 C 
BRANCH  18  19
ATOM     19  C   UNL     1      -6.891  12.686  -7.719  1.00  0.00     0.000 C 
BRANCH  19  20
ATOM     20  C   UNL     1      -7.006  13.127  -6.251  1.00  0.00     0.000 C 
BRANCH  20  21
ATOM     21  C   UNL     1      -6.009  12.391  -5.338  1.00  0.00     0.000 C 
BRANCH  21  22
ATOM     22  C   UNL     1      -6.603  12.050  -3.960  1.00  0.00     0.000 C 
BRANCH  22  23
ATOM     23  C   UNL     1      -7.262  10.661  -3.927  1.00  0.00     0.000 C 
BRANCH  23  24
ATOM     24  C   UNL     1      -8.760  10.699  -4.281  1.00  0.00    -0.000 C 
BRANCH  24  25
ATOM     25  C   UNL     1      -9.154   9.951  -5.568  1.00  0.00    -0.000 C 
BRANCH  25  26
ATOM     26  C   UNL     1     -10.328  10.611  -6.312  1.00  0.00    -0.000 C 
BRANCH  26  27
ATOM     27  C   UNL     1     -10.437  12.121  -6.042  1.00  0.00    -0.000 C 
BRANCH  27  28
ATOM     28  C   UNL     1     -10.669  13.003  -7.286  1.00  0.00    -0.000 C 
BRANCH  28  29
ATOM     29  C   UNL     1     -12.102  13.541  -7.455  1.00  0.00    -0.000 C 
BRANCH  29  30
ATOM     30  C   UNL     1     -12.160  14.835  -8.282  1.00  0.00    -0.000 C 
BRANCH  30  31
ATOM     31  C   UNL     1     -13.128  15.870  -7.686  1.00  0.00    -0.003 C 
ATOM     32  C   UNL     1     -12.700  16.357  -6.302  1.00  0.00     0.004 C 
ENDBRANCH  30  31
ENDBRANCH  29  30
ENDBRANCH  28  29
ENDBRANCH  27  28
ENDBRANCH  26  27
ENDBRANCH  25  26
ENDBRANCH  24  25
ENDBRANCH  23  24
ENDBRANCH  22  23
ENDBRANCH  21  22
ENDBRANCH  20  21
ENDBRANCH  19  20
ENDBRANCH  18  19
ENDBRANCH   1  18
TORSDOF 28
ENDMDL
MODEL 4
REMARK VINA RESULT:    11.905      1.461      3.509
REMARK INTER + INTRA:          30.906
REMARK INTER:                  25.410
REMARK INTRA:                   5.496
REMARK UNBOUND:                -0.487
REMARK SMILES CCCCCCCCCCCCCCCCCCCCCCCCCCCCCC(=O)[O-]
REMARK SMILES IDX 16 1 17 2 18 3 19 4 20 5 21 6 22 7 23 8 24 9 25 10 26 11
REMARK SMILES IDX 27 12 28 13 29 14 30 15 31 16 32 17 15 18 14 19 13 20 12 21
REMARK SMILES IDX 11 22 10 23 9 24 8 25 7 26 6 27 5 28 4 29 3 30 2 31 1 32
REMARK H PARENT
REMARK Flexibility Score: inf
ROOT
ATOM      1  C   UNL     1      -7.130  11.898 -14.537  1.00  0.00     0.000 C 
ENDROOT
BRANCH   1   2
ATOM      2  C   UNL     1      -8.266  12.936 -14.593  1.00  0.00     0.000 C 
BRANCH   2   3
ATOM      3  C   UNL     1      -8.474  13.601 -15.969  1.00  0.00     0.000 C 
BRANCH   3   4
ATOM      4  C   UNL     1      -7.845  14.998 -16.124  1.00  0.00     0.000 C 
BRANCH   4   5
ATOM      5  C   UNL     1      -6.463  15.106 -15.463  1.00  0.00     0.000 C 
BRANCH   5   6
ATOM      6  C   UNL     1      -6.023  16.571 -15.340  1.00  0.00     0.000 C 
BRANCH   6   7
ATOM      7  C   UNL     1      -6.956  17.545 -16.085  1.00  0.00     0.000 C 
BRANCH   7   8
ATOM      8  C   UNL     1      -6.715  19.038 -15.791  1.00  0.00     0.000 C 
BRANCH   8   9
ATOM      9  C   UNL     1      -7.938  19.915 -16.108  1.00  0.00     0.000 C 
BRANCH   9  10
ATOM     10  C   UNL     1      -8.192  20.983 -15.031  1.00  0.00     0.000 C 
BRANCH  10  11
ATOM     11  C   UNL     1      -7.334  20.768 -13.772  1.00  0.00     0.000 C 
BRANCH  11  12
ATOM     12  C   UNL     1      -7.644  19.441 -13.055  1.00  0.00     0.000 C 
BRANCH  12  13
ATOM     13  C   UNL     1      -8.929  18.734 -13.522  1.00  0.00     0.006 C 
BRANCH  13  14
ATOM     14  C   UNL     1      -9.266  17.491 -12.688  1.00  0.00     0.053 C 
BRANCH  14  15
ATOM     15  C   UNL     1      -8.015  16.770 -12.296  1.00  0.00     0.041 C 
ATOM     16  O   UNL     1      -8.061  15.828 -11.462  1.00  0.00    -0.550 OA
ATOM     17  O   UNL     1      -6.804  17.106 -12.889  1.00  0.00    -0.550 OA
ENDBRANCH  14  15
ENDBRANCH  13  14
ENDBRANCH  12  13
ENDBRANCH  11  12
ENDBRANCH  10  11
ENDBRANCH   9  10
ENDBRANCH   8   9
ENDBRANCH   7   8
ENDBRANCH   6   7
ENDBRANCH   5   6
ENDBRANCH   4   5
ENDBRANCH   3   4
ENDBRANCH   2   3
ENDBRANCH   1   2
BRANCH   1  18
ATOM     18  C   UNL     1      -5.939  12.366 -13.689  1.00  0.00     0.000 C 
BRANCH  18  19
ATOM     19  C   UNL     1      -6.338  12.500 -12.212  1.00  0.00     0.000 C 
BRANCH  19  20
ATOM     20  C   UNL     1      -7.759  13.057 -12.028  1.00  0.00     0.000 C 
BRANCH  20  21
ATOM     21  C   UNL     1      -8.084  13.357 -10.554  1.00  0.00     0.000 C 
BRANCH  21  22
ATOM     22  C   UNL     1      -9.382  12.680 -10.080  1.00  0.00     0.000 C 
BRANCH  22  23
ATOM     23  C   UNL     1      -9.753  13.058  -8.636  1.00  0.00     0.000 C 
BRANCH  23  24
ATOM     24  C   UNL     1     -11.241  13.419  -8.474  1.00  0.00    -0.000 C 
BRANCH  24  25
ATOM     25  C   UNL     1     -11.760  13.446  -7.024  1.00  0.00    -0.000 C 
BRANCH  25  26
ATOM     26  C   UNL     1     -10.719  12.956  -6.003  1.00  0.00    -0.000 C 
BRANCH  26  27
ATOM     27  C   UNL     1     -11.123  11.638  -5.318  1.00  0.00    -0.000 C 
BRANCH  27  28
ATOM     28  C   UNL     1      -9.989  10.901  -4.576  1.00  0.00    -0.000 C 
BRANCH  28  29
ATOM     29  C   UNL     1      -8.987  10.157  -5.479  1.00  0.00    -0.000 C 
BRANCH  29  30
ATOM     30  C   UNL     1      -8.562  10.982  -6.704  1.00  0.00    -0.000 C 
BRANCH  30  31
ATOM     31  C   UNL     1      -7.761  12.236  -6.318  1.00  0.00    -0.003 C 
ATOM     32  C   UNL     1      -7.717  12.471  -4.808  1.00  0.00     0.004 C 
ENDBRANCH  30  31
ENDBRANCH  29  30
ENDBRANCH  28  29
ENDBRANCH  27  28
ENDBRANCH  26  27
ENDBRANCH  25  26
ENDBRANCH  24  25
ENDBRANCH  23  24
ENDBRANCH  22  23
ENDBRANCH  21  22
ENDBRANCH  20  21
ENDBRANCH  19  20
ENDBRANCH  18  19
ENDBRANCH   1  18
TORSDOF 28
ENDMDL
MODEL 5
REMARK VINA RESULT:    12.035      3.051      9.560
REMARK INTER + INTRA:          31.248
REMARK INTER:                  32.966
REMARK INTRA:                  -1.718
REMARK UNBOUND:                -0.487
REMARK SMILES CCCCCCCCCCCCCCCCCCCCCCCCCCCCCC(=O)[O-]
REMARK SMILES IDX 16 1 17 2 18 3 19 4 20 5 21 6 22 7 23 8 24 9 25 10 26 11
REMARK SMILES IDX 27 12 28 13 29 14 30 15 31 16 32 17 15 18 14 19 13 20 12 21
REMARK SMILES IDX 11 22 10 23 9 24 8 25 7 26 6 27 5 28 4 29 3 30 2 31 1 32
REMARK H PARENT
REMARK Flexibility Score: inf
ROOT
ATOM      1  C   UNL     1      -7.746  12.990 -11.796  1.00  0.00     0.000 C 
ENDROOT
BRANCH   1   2
ATOM      2  C   UNL     1      -7.110  14.390 -11.871  1.00  0.00     0.000 C 
BRANCH   2   3
ATOM      3  C   UNL     1      -8.058  15.556 -11.526  1.00  0.00     0.000 C 
BRANCH   3   4
ATOM      4  C   UNL     1      -9.216  15.776 -12.516  1.00  0.00     0.000 C 
BRANCH   4   5
ATOM      5  C   UNL     1     -10.597  15.624 -11.862  1.00  0.00     0.000 C 
BRANCH   5   6
ATOM      6  C   UNL     1     -10.467  15.277 -10.373  1.00  0.00     0.000 C 
BRANCH   6   7
ATOM      7  C   UNL     1     -11.295  14.044  -9.967  1.00  0.00     0.000 C 
BRANCH   7   8
ATOM      8  C   UNL     1     -12.574  14.348  -9.163  1.00  0.00     0.000 C 
BRANCH   8   9
ATOM      9  C   UNL     1     -12.608  13.637  -7.800  1.00  0.00     0.000 C 
BRANCH   9  10
ATOM     10  C   UNL     1     -11.244  13.659  -7.089  1.00  0.00     0.000 C 
BRANCH  10  11
ATOM     11  C   UNL     1     -11.369  13.465  -5.568  1.00  0.00     0.000 C 
BRANCH  11  12
ATOM     12  C   UNL     1     -10.713  12.162  -5.074  1.00  0.00     0.000 C 
BRANCH  12  13
ATOM     13  C   UNL     1      -9.607  11.603  -5.987  1.00  0.00     0.006 C 
BRANCH  13  14
ATOM     14  C   UNL     1      -8.840  10.436  -5.354  1.00  0.00     0.053 C 
BRANCH  14  15
ATOM     15  C   UNL     1      -7.802  10.947  -4.405  1.00  0.00     0.041 C 
ATOM     16  O   UNL     1      -7.799  10.567  -3.204  1.00  0.00    -0.550 OA
ATOM     17  O   UNL     1      -6.809  11.806  -4.858  1.00  0.00    -0.550 OA
ENDBRANCH  14  15
ENDBRANCH  13  14
ENDBRANCH  12  13
ENDBRANCH  11  12
ENDBRANCH  10  11
ENDBRANCH   9  10
ENDBRANCH   8   9
ENDBRANCH   7   8
ENDBRANCH   6   7
ENDBRANCH   5   6
ENDBRANCH   4   5
ENDBRANCH   3   4
ENDBRANCH   2   3
ENDBRANCH   1   2
BRANCH   1  18
ATOM     18  C   UNL     1      -8.309  12.520 -13.144  1.00  0.00     0.000 C 
BRANCH  18  19
ATOM     19  C   UNL     1      -7.176  12.141 -14.109  1.00  0.00     0.000 C 
BRANCH  19  20
ATOM     20  C   UNL     1      -7.614  12.168 -15.582  1.00  0.00     0.000 C 
BRANCH  20  21
ATOM     21  C   UNL     1      -8.692  13.233 -15.854  1.00  0.00     0.000 C 
BRANCH  21  22
ATOM     22  C   UNL     1      -8.132  14.665 -15.833  1.00  0.00     0.000 C 
BRANCH  22  23
ATOM     23  C   UNL     1      -6.629  14.709 -15.507  1.00  0.00     0.000 C 
BRANCH  23  24
ATOM     24  C   UNL     1      -6.161  16.090 -15.016  1.00  0.00    -0.000 C 
BRANCH  24  25
ATOM     25  C   UNL     1      -5.876  17.123 -16.122  1.00  0.00    -0.000 C 
BRANCH  25  26
ATOM     26  C   UNL     1      -6.552  18.481 -15.866  1.00  0.00    -0.000 C 
BRANCH  26  27
ATOM     27  C   UNL     1      -8.088  18.394 -15.854  1.00  0.00    -0.000 C 
BRANCH  27  28
ATOM     28  C   UNL     1      -8.756  18.627 -14.482  1.00  0.00    -0.000 C 
BRANCH  28  29
ATOM     29  C   UNL     1      -7.838  19.217 -13.395  1.00  0.00    -0.000 C 
BRANCH  29  30
ATOM     30  C   UNL     1      -6.710  20.085 -13.974  1.00  0.00    -0.000 C 
BRANCH  30  31
ATOM     31  C   UNL     1      -6.110  21.041 -12.931  1.00  0.00    -0.003 C 
ATOM     32  C   UNL     1      -6.828  20.974 -11.582  1.00  0.00     0.004 C 
ENDBRANCH  30  31
ENDBRANCH  29  30
ENDBRANCH  28  29
ENDBRANCH  27  28
ENDBRANCH  26  27
ENDBRANCH  25  26
ENDBRANCH  24  25
ENDBRANCH  23  24
ENDBRANCH  22  23
ENDBRANCH  21  22
ENDBRANCH  20  21
ENDBRANCH  19  20
ENDBRANCH  18  19
ENDBRANCH   1  18
TORSDOF 28
ENDMDL
MODEL 6
REMARK VINA RESULT:    12.044      1.973      9.010
REMARK INTER + INTRA:          31.271
REMARK INTER:                  33.390
REMARK INTRA:                  -2.118
REMARK UNBOUND:                -0.487
REMARK SMILES CCCCCCCCCCCCCCCCCCCCCCCCCCCCCC(=O)[O-]
REMARK SMILES IDX 16 1 17 2 18 3 19 4 20 5 21 6 22 7 23 8 24 9 25 10 26 11
REMARK SMILES IDX 27 12 28 13 29 14 30 15 31 16 32 17 15 18 14 19 13 20 12 21
REMARK SMILES IDX 11 22 10 23 9 24 8 25 7 26 6 27 5 28 4 29 3 30 2 31 1 32
REMARK H PARENT
REMARK Flexibility Score: inf
ROOT
ATOM      1  C   UNL     1      -7.384  14.370 -11.861  1.00  0.00     0.000 C 
ENDROOT
BRANCH   1   2
ATOM      2  C   UNL     1      -7.988  14.223 -10.452  1.00  0.00     0.000 C 
BRANCH   2   3
ATOM      3  C   UNL     1      -7.049  14.618  -9.295  1.00  0.00     0.000 C 
BRANCH   3   4
ATOM      4  C   UNL     1      -6.336  13.444  -8.599  1.00  0.00     0.000 C 
BRANCH   4   5
ATOM      5  C   UNL     1      -6.176  13.657  -7.086  1.00  0.00     0.000 C 
BRANCH   5   6
ATOM      6  C   UNL     1      -6.218  12.320  -6.333  1.00  0.00     0.000 C 
BRANCH   6   7
ATOM      7  C   UNL     1      -7.240  12.310  -5.181  1.00  0.00     0.000 C 
BRANCH   7   8
ATOM      8  C   UNL     1      -8.399  11.307  -5.342  1.00  0.00     0.000 C 
BRANCH   8   9
ATOM      9  C   UNL     1      -9.579  11.881  -6.145  1.00  0.00     0.000 C 
BRANCH   9  10
ATOM     10  C   UNL     1      -9.488  11.552  -7.644  1.00  0.00     0.000 C 
BRANCH  10  11
ATOM     11  C   UNL     1     -10.443  12.407  -8.495  1.00  0.00     0.000 C 
BRANCH  11  12
ATOM     12  C   UNL     1     -11.047  13.588  -7.714  1.00  0.00     0.000 C 
BRANCH  12  13
ATOM     13  C   UNL     1     -12.421  14.067  -8.217  1.00  0.00     0.006 C 
BRANCH  13  14
ATOM     14  C   UNL     1     -13.305  14.633  -7.099  1.00  0.00     0.053 C 
BRANCH  14  15
ATOM     15  C   UNL     1     -13.047  16.097  -6.921  1.00  0.00     0.041 C 
ATOM     16  O   UNL     1     -13.135  16.621  -5.779  1.00  0.00    -0.550 OA
ATOM     17  O   UNL     1     -12.662  16.872  -8.007  1.00  0.00    -0.550 OA
ENDBRANCH  14  15
ENDBRANCH  13  14
ENDBRANCH  12  13
ENDBRANCH  11  12
ENDBRANCH  10  11
ENDBRANCH   9  10
ENDBRANCH   8   9
ENDBRANCH   7   8
ENDBRANCH   6   7
ENDBRANCH   5   6
ENDBRANCH   4   5
ENDBRANCH   3   4
ENDBRANCH   2   3
ENDBRANCH   1   2
BRANCH   1  18
ATOM     18  C   UNL     1      -7.137  13.018 -12.546  1.00  0.00     0.000 C 
BRANCH  18  19
ATOM     19  C   UNL     1      -6.648  13.217 -13.988  1.00  0.00     0.000 C 
BRANCH  19  20
ATOM     20  C   UNL     1      -7.798  13.257 -15.006  1.00  0.00     0.000 C 
BRANCH  20  21
ATOM     21  C   UNL     1      -7.556  14.286 -16.125  1.00  0.00     0.000 C 
BRANCH  21  22
ATOM     22  C   UNL     1      -6.420  15.270 -15.794  1.00  0.00     0.000 C 
BRANCH  22  23
ATOM     23  C   UNL     1      -6.759  16.186 -14.606  1.00  0.00     0.000 C 
BRANCH  23  24
ATOM     24  C   UNL     1      -5.875  17.444 -14.547  1.00  0.00    -0.000 C 
BRANCH  24  25
ATOM     25  C   UNL     1      -5.976  18.381 -15.766  1.00  0.00    -0.000 C 
BRANCH  25  26
ATOM     26  C   UNL     1      -6.230  19.848 -15.378  1.00  0.00    -0.000 C 
BRANCH  26  27
ATOM     27  C   UNL     1      -6.736  20.008 -13.933  1.00  0.00    -0.000 C 
BRANCH  27  28
ATOM     28  C   UNL     1      -8.261  19.866 -13.745  1.00  0.00    -0.000 C 
BRANCH  28  29
ATOM     29  C   UNL     1      -8.715  18.619 -12.964  1.00  0.00    -0.000 C 
BRANCH  29  30
ATOM     30  C   UNL     1      -9.559  17.657 -13.815  1.00  0.00    -0.000 C 
BRANCH  30  31
ATOM     31  C   UNL     1     -10.117  16.483 -12.995  1.00  0.00    -0.003 C 
ATOM     32  C   UNL     1      -9.703  16.535 -11.524  1.00  0.00     0.004 C 
ENDBRANCH  30  31
ENDBRANCH  29  30
ENDBRANCH  28  29
ENDBRANCH  27  28
ENDBRANCH  26  27
ENDBRANCH  25  26
ENDBRANCH  24  25
ENDBRANCH  23  24
ENDBRANCH  22  23
ENDBRANCH  21  22
ENDBRANCH  20  21
ENDBRANCH  19  20
ENDBRANCH  18  19
ENDBRANCH   1  18
TORSDOF 28
ENDMDL
MODEL 7
REMARK VINA RESULT:    12.197      1.397      2.823
REMARK INTER + INTRA:          31.676
REMARK INTER:                  30.423
REMARK INTRA:                   1.253
REMARK UNBOUND:                -0.487
REMARK SMILES CCCCCCCCCCCCCCCCCCCCCCCCCCCCCC(=O)[O-]
REMARK SMILES IDX 16 1 17 2 18 3 19 4 20 5 21 6 22 7 23 8 24 9 25 10 26 11
REMARK SMILES IDX 27 12 28 13 29 14 30 15 31 16 32 17 15 18 14 19 13 20 12 21
REMARK SMILES IDX 11 22 10 23 9 24 8 25 7 26 6 27 5 28 4 29 3 30 2 31 1 32
REMARK H PARENT
REMARK Flexibility Score: inf
ROOT
ATOM      1  C   UNL     1      -7.549  12.442 -14.464  1.00  0.00     0.000 C 
ENDROOT
BRANCH   1   2
ATOM      2  C   UNL     1      -8.721  13.438 -14.504  1.00  0.00     0.000 C 
BRANCH   2   3
ATOM      3  C   UNL     1      -8.895  14.189 -15.840  1.00  0.00     0.000 C 
BRANCH   3   4
ATOM      4  C   UNL     1      -7.850  15.285 -16.117  1.00  0.00     0.000 C 
BRANCH   4   5
ATOM      5  C   UNL     1      -6.513  15.029 -15.406  1.00  0.00     0.000 C 
BRANCH   5   6
ATOM      6  C   UNL     1      -5.933  16.330 -14.837  1.00  0.00     0.000 C 
BRANCH   6   7
ATOM      7  C   UNL     1      -6.090  17.528 -15.791  1.00  0.00     0.000 C 
BRANCH   7   8
ATOM      8  C   UNL     1      -6.028  18.914 -15.120  1.00  0.00     0.000 C 
BRANCH   8   9
ATOM      9  C   UNL     1      -6.300  20.067 -16.101  1.00  0.00     0.000 C 
BRANCH   9  10
ATOM     10  C   UNL     1      -7.656  20.748 -15.850  1.00  0.00     0.000 C 
BRANCH  10  11
ATOM     11  C   UNL     1      -8.799  19.735 -15.665  1.00  0.00     0.000 C 
BRANCH  11  12
ATOM     12  C   UNL     1      -8.524  18.719 -14.541  1.00  0.00     0.000 C 
BRANCH  12  13
ATOM     13  C   UNL     1      -9.179  17.339 -14.736  1.00  0.00     0.006 C 
BRANCH  13  14
ATOM     14  C   UNL     1      -9.637  16.702 -13.418  1.00  0.00     0.053 C 
BRANCH  14  15
ATOM     15  C   UNL     1      -8.732  17.111 -12.299  1.00  0.00     0.041 C 
ATOM     16  O   UNL     1      -9.180  17.793 -11.340  1.00  0.00    -0.550 OA
ATOM     17  O   UNL     1      -7.406  16.699 -12.290  1.00  0.00    -0.550 OA
ENDBRANCH  14  15
ENDBRANCH  13  14
ENDBRANCH  12  13
ENDBRANCH  11  12
ENDBRANCH  10  11
ENDBRANCH   9  10
ENDBRANCH   8   9
ENDBRANCH   7   8
ENDBRANCH   6   7
ENDBRANCH   5   6
ENDBRANCH   4   5
ENDBRANCH   3   4
ENDBRANCH   2   3
ENDBRANCH   1   2
BRANCH   1  18
ATOM     18  C   UNL     1      -6.671  12.606 -13.215  1.00  0.00     0.000 C 
BRANCH  18  19
ATOM     19  C   UNL     1      -7.489  12.371 -11.937  1.00  0.00     0.000 C 
BRANCH  19  20
ATOM     20  C   UNL     1      -8.129  13.659 -11.394  1.00  0.00     0.000 C 
BRANCH  20  21
ATOM     21  C   UNL     1      -7.595  14.037 -10.001  1.00  0.00     0.000 C 
BRANCH  21  22
ATOM     22  C   UNL     1      -6.487  13.090  -9.510  1.00  0.00     0.000 C 
BRANCH  22  23
ATOM     23  C   UNL     1      -6.070  13.371  -8.056  1.00  0.00     0.000 C 
BRANCH  23  24
ATOM     24  C   UNL     1      -6.667  12.365  -7.055  1.00  0.00    -0.000 C 
BRANCH  24  25
ATOM     25  C   UNL     1      -6.410  12.680  -5.570  1.00  0.00    -0.000 C 
BRANCH  25  26
ATOM     26  C   UNL     1      -7.647  12.450  -4.684  1.00  0.00    -0.000 C 
BRANCH  26  27
ATOM     27  C   UNL     1      -8.154  10.998  -4.724  1.00  0.00    -0.000 C 
BRANCH  27  28
ATOM     28  C   UNL     1      -9.493  10.783  -5.460  1.00  0.00    -0.000 C 
BRANCH  28  29
ATOM     29  C   UNL     1     -10.650  11.691  -5.001  1.00  0.00    -0.000 C 
BRANCH  29  30
ATOM     30  C   UNL     1     -11.545  12.149  -6.163  1.00  0.00    -0.000 C 
BRANCH  30  31
ATOM     31  C   UNL     1     -10.988  13.388  -6.881  1.00  0.00    -0.003 C 
ATOM     32  C   UNL     1     -10.769  13.161  -8.377  1.00  0.00     0.004 C 
ENDBRANCH  30  31
ENDBRANCH  29  30
ENDBRANCH  28  29
ENDBRANCH  27  28
ENDBRANCH  26  27
ENDBRANCH  25  26
ENDBRANCH  24  25
ENDBRANCH  23  24
ENDBRANCH  22  23
ENDBRANCH  21  22
ENDBRANCH  20  21
ENDBRANCH  19  20
ENDBRANCH  18  19
ENDBRANCH   1  18
TORSDOF 28
ENDMDL
MODEL 8
REMARK VINA RESULT:    12.731      2.441      9.502
REMARK INTER + INTRA:          33.084
REMARK INTER:                  33.453
REMARK INTRA:                  -0.370
REMARK UNBOUND:                -0.487
REMARK SMILES CCCCCCCCCCCCCCCCCCCCCCCCCCCCCC(=O)[O-]
REMARK SMILES IDX 16 1 17 2 18 3 19 4 20 5 21 6 22 7 23 8 24 9 25 10 26 11
REMARK SMILES IDX 27 12 28 13 29 14 30 15 31 16 32 17 15 18 14 19 13 20 12 21
REMARK SMILES IDX 11 22 10 23 9 24 8 25 7 26 6 27 5 28 4 29 3 30 2 31 1 32
REMARK H PARENT
REMARK Flexibility Score: inf
ROOT
ATOM      1  C   UNL     1      -7.544  12.152 -13.686  1.00  0.00     0.000 C 
ENDROOT
BRANCH   1   2
ATOM      2  C   UNL     1      -7.418  13.410 -12.808  1.00  0.00     0.000 C 
BRANCH   2   3
ATOM      3  C   UNL     1      -7.269  13.139 -11.297  1.00  0.00     0.000 C 
BRANCH   3   4
ATOM      4  C   UNL     1      -7.727  14.285 -10.376  1.00  0.00     0.000 C 
BRANCH   4   5
ATOM      5  C   UNL     1      -9.230  14.232 -10.062  1.00  0.00     0.000 C 
BRANCH   5   6
ATOM      6  C   UNL     1      -9.546  13.109  -9.065  1.00  0.00     0.000 C 
BRANCH   6   7
ATOM      7  C   UNL     1     -11.048  12.994  -8.743  1.00  0.00     0.000 C 
BRANCH   7   8
ATOM      8  C   UNL     1     -11.629  14.151  -7.907  1.00  0.00     0.000 C 
BRANCH   8   9
ATOM      9  C   UNL     1     -12.105  13.702  -6.515  1.00  0.00     0.000 C 
BRANCH   9  10
ATOM     10  C   UNL     1     -11.878  12.201  -6.269  1.00  0.00     0.000 C 
BRANCH  10  11
ATOM     11  C   UNL     1     -10.672  11.928  -5.354  1.00  0.00     0.000 C 
BRANCH  11  12
ATOM     12  C   UNL     1     -10.210  10.459  -5.394  1.00  0.00     0.000 C 
BRANCH  12  13
ATOM     13  C   UNL     1      -8.835  10.228  -6.047  1.00  0.00     0.006 C 
BRANCH  13  14
ATOM     14  C   UNL     1      -7.696  10.949  -5.317  1.00  0.00     0.053 C 
BRANCH  14  15
ATOM     15  C   UNL     1      -7.639  12.386  -5.728  1.00  0.00     0.041 C 
ATOM     16  O   UNL     1      -6.531  12.929  -5.981  1.00  0.00    -0.550 OA
ATOM     17  O   UNL     1      -8.813  13.113  -5.878  1.00  0.00    -0.550 OA
ENDBRANCH  14  15
ENDBRANCH  13  14
ENDBRANCH  12  13
ENDBRANCH  11  12
ENDBRANCH  10  11
ENDBRANCH   9  10
ENDBRANCH   8   9
ENDBRANCH   7   8
ENDBRANCH   6   7
ENDBRANCH   5   6
ENDBRANCH   4   5
ENDBRANCH   3   4
ENDBRANCH   2   3
ENDBRANCH   1   2
BRANCH   1  18
ATOM     18  C   UNL     1      -8.876  12.090 -14.447  1.00  0.00     0.000 C 
BRANCH  18  19
ATOM     19  C   UNL     1      -8.724  12.663 -15.864  1.00  0.00     0.000 C 
BRANCH  19  20
ATOM     20  C   UNL     1      -9.462  13.999 -16.048  1.00  0.00     0.000 C 
BRANCH  20  21
ATOM     21  C   UNL     1      -8.515  15.209 -15.957  1.00  0.00     0.000 C 
BRANCH  21  22
ATOM     22  C   UNL     1      -7.035  14.821 -16.114  1.00  0.00     0.000 C 
BRANCH  22  23
ATOM     23  C   UNL     1      -6.171  15.291 -14.932  1.00  0.00     0.000 C 
BRANCH  23  24
ATOM     24  C   UNL     1      -5.934  16.812 -14.929  1.00  0.00    -0.000 C 
BRANCH  24  25
ATOM     25  C   UNL     1      -6.534  17.577 -16.124  1.00  0.00    -0.000 C 
BRANCH  25  26
ATOM     26  C   UNL     1      -6.180  19.074 -16.119  1.00  0.00    -0.000 C 
BRANCH  26  27
ATOM     27  C   UNL     1      -6.186  19.687 -14.707  1.00  0.00    -0.000 C 
BRANCH  27  28
ATOM     28  C   UNL     1      -7.582  19.952 -14.105  1.00  0.00    -0.000 C 
BRANCH  28  29
ATOM     29  C   UNL     1      -7.814  19.369 -12.699  1.00  0.00    -0.000 C 
BRANCH  29  30
ATOM     30  C   UNL     1      -8.068  17.853 -12.717  1.00  0.00    -0.000 C 
BRANCH  30  31
ATOM     31  C   UNL     1      -9.549  17.504 -12.502  1.00  0.00    -0.003 C 
ATOM     32  C   UNL     1      -9.924  16.133 -13.068  1.00  0.00     0.004 C 
ENDBRANCH  30  31
ENDBRANCH  29  30
ENDBRANCH  28  29
ENDBRANCH  27  28
ENDBRANCH  26  27
ENDBRANCH  25  26
ENDBRANCH  24  25
ENDBRANCH  23  24
ENDBRANCH  22  23
ENDBRANCH  21  22
ENDBRANCH  20  21
ENDBRANCH  19  20
ENDBRANCH  18  19
ENDBRANCH   1  18
TORSDOF 28
ENDMDL
