MODEL 1
REMARK VINA RESULT:    -5.375      0.000      0.000
REMARK INTER + INTRA:         -17.389
REMARK INTER:                 -13.545
REMARK INTRA:                  -3.844
REMARK UNBOUND:                -3.844
REMARK SMILES CCCCCCCCCCCCCCCCCCCCCCCCCCCC(=O)[O-]
REMARK SMILES IDX 15 1 16 2 17 3 18 4 19 5 20 6 21 7 22 8 23 9 24 10 25 11
REMARK SMILES IDX 26 12 27 13 28 14 29 15 30 16 14 17 13 18 12 19 11 20 10 21
REMARK SMILES IDX 9 22 8 23 7 24 6 25 5 26 4 27 3 28 2 29 1 30
REMARK H PARENT
REMARK Flexibility Score: inf
ROOT
ATOM      1  C   UNL     1      13.866 -29.891  23.273  1.00  0.00     0.000 C 
ENDROOT
BRANCH   1   2
ATOM      2  C   UNL     1      15.376 -29.675  23.091  1.00  0.00     0.000 C 
BRANCH   2   3
ATOM      3  C   UNL     1      15.789 -29.600  21.610  1.00  0.00     0.000 C 
BRANCH   3   4
ATOM      4  C   UNL     1      17.296 -29.826  21.411  1.00  0.00     0.000 C 
BRANCH   4   5
ATOM      5  C   UNL     1      17.613 -31.247  20.912  1.00  0.00     0.000 C 
BRANCH   5   6
ATOM      6  C   UNL     1      19.123 -31.528  20.802  1.00  0.00     0.000 C 
BRANCH   6   7
ATOM      7  C   UNL     1      19.915 -31.398  22.118  1.00  0.00     0.000 C 
BRANCH   7   8
ATOM      8  C   UNL     1      21.126 -30.456  22.002  1.00  0.00     0.000 C 
BRANCH   8   9
ATOM      9  C   UNL     1      21.012 -29.497  20.798  1.00  0.00     0.000 C 
BRANCH   9  10
ATOM     10  C   UNL     1      21.120 -28.010  21.183  1.00  0.00     0.000 C 
BRANCH  10  11
ATOM     11  C   UNL     1      22.075 -27.230  20.268  1.00  0.00     0.000 C 
BRANCH  11  12
ATOM     12  C   UNL     1      21.652 -25.762  20.076  1.00  0.00     0.006 C 
BRANCH  12  13
ATOM     13  C   UNL     1      22.744 -24.873  19.457  1.00  0.00     0.053 C 
BRANCH  13  14
ATOM     14  C   UNL     1      23.296 -23.887  20.442  1.00  0.00     0.041 C 
ATOM     15  O   UNL     1      22.724 -23.712  21.550  1.00  0.00    -0.550 OA
ATOM     16  O   UNL     1      24.417 -23.131  20.117  1.00  0.00    -0.550 OA
ENDBRANCH  13  14
ENDBRANCH  12  13
ENDBRANCH  11  12
ENDBRANCH  10  11
ENDBRANCH   9  10
ENDBRANCH   8   9
ENDBRANCH   7   8
ENDBRANCH   6   7
ENDBRANCH   5   6
ENDBRANCH   4   5
ENDBRANCH   3   4
ENDBRANCH   2   3
ENDBRANCH   1   2
BRANCH   1  17
ATOM     17  C   UNL     1      13.429 -31.321  22.906  1.00  0.00     0.000 C 
BRANCH  17  18
ATOM     18  C   UNL     1      14.180 -32.396  23.705  1.00  0.00     0.000 C 
BRANCH  18  19
ATOM     19  C   UNL     1      15.063 -33.287  22.818  1.00  0.00     0.000 C 
BRANCH  19  20
ATOM     20  C   UNL     1      14.627 -33.197  21.349  1.00  0.00     0.000 C 
BRANCH  20  21
ATOM     21  C   UNL     1      15.069 -34.441  20.564  1.00  0.00     0.000 C 
BRANCH  21  22
ATOM     22  C   UNL     1      15.960 -34.095  19.360  1.00  0.00    -0.000 C 
BRANCH  22  23
ATOM     23  C   UNL     1      17.114 -35.096  19.174  1.00  0.00    -0.000 C 
BRANCH  23  24
ATOM     24  C   UNL     1      16.933 -36.371  20.015  1.00  0.00    -0.000 C 
BRANCH  24  25
ATOM     25  C   UNL     1      18.096 -36.613  20.989  1.00  0.00    -0.000 C 
BRANCH  25  26
ATOM     26  C   UNL     1      18.847 -35.307  21.280  1.00  0.00    -0.000 C 
BRANCH  26  27
ATOM     27  C   UNL     1      18.470 -34.748  22.657  1.00  0.00    -0.000 C 
BRANCH  27  28
ATOM     28  C   UNL     1      17.848 -35.840  23.541  1.00  0.00    -0.000 C 
BRANCH  28  29
ATOM     29  C   UNL     1      17.403 -35.309  24.911  1.00  0.00    -0.003 C 
ATOM     30  C   UNL     1      17.944 -36.143  26.072  1.00  0.00     0.004 C 
ENDBRANCH  28  29
ENDBRANCH  27  28
ENDBRANCH  26  27
ENDBRANCH  25  26
ENDBRANCH  24  25
ENDBRANCH  23  24
ENDBRANCH  22  23
ENDBRANCH  21  22
ENDBRANCH  20  21
ENDBRANCH  19  20
ENDBRANCH  18  19
ENDBRANCH  17  18
ENDBRANCH   1  17
TORSDOF 26
ENDMDL
MODEL 2
REMARK VINA RESULT:    -5.366      3.605      7.226
REMARK INTER + INTRA:         -17.366
REMARK INTER:                 -12.840
REMARK INTRA:                  -4.526
REMARK UNBOUND:                -3.844
REMARK SMILES CCCCCCCCCCCCCCCCCCCCCCCCCCCC(=O)[O-]
REMARK SMILES IDX 15 1 16 2 17 3 18 4 19 5 20 6 21 7 22 8 23 9 24 10 25 11
REMARK SMILES IDX 26 12 27 13 28 14 29 15 30 16 14 17 13 18 12 19 11 20 10 21
REMARK SMILES IDX 9 22 8 23 7 24 6 25 5 26 4 27 3 28 2 29 1 30
REMARK H PARENT
REMARK Flexibility Score: inf
ROOT
ATOM      1  C   UNL     1      17.625 -32.251  20.245  1.00  0.00     0.000 C 
ENDROOT
BRANCH   1   2
ATOM      2  C   UNL     1      17.856 -33.575  19.501  1.00  0.00     0.000 C 
BRANCH   2   3
ATOM      3  C   UNL     1      16.541 -34.250  19.071  1.00  0.00     0.000 C 
BRANCH   3   4
ATOM      4  C   UNL     1      16.256 -35.535  19.865  1.00  0.00     0.000 C 
BRANCH   4   5
ATOM      5  C   UNL     1      17.223 -36.675  19.497  1.00  0.00     0.000 C 
BRANCH   5   6
ATOM      6  C   UNL     1      17.892 -37.322  20.723  1.00  0.00     0.000 C 
BRANCH   6   7
ATOM      7  C   UNL     1      18.853 -36.408  21.508  1.00  0.00     0.000 C 
BRANCH   7   8
ATOM      8  C   UNL     1      18.424 -36.194  22.970  1.00  0.00     0.000 C 
BRANCH   8   9
ATOM      9  C   UNL     1      17.579 -34.915  23.153  1.00  0.00     0.000 C 
BRANCH   9  10
ATOM     10  C   UNL     1      18.335 -33.775  23.861  1.00  0.00     0.000 C 
BRANCH  10  11
ATOM     11  C   UNL     1      17.685 -33.373  25.194  1.00  0.00     0.000 C 
BRANCH  11  12
ATOM     12  C   UNL     1      18.616 -32.528  26.081  1.00  0.00     0.006 C 
BRANCH  12  13
ATOM     13  C   UNL     1      19.323 -31.384  25.334  1.00  0.00     0.053 C 
BRANCH  13  14
ATOM     14  C   UNL     1      20.244 -30.609  26.227  1.00  0.00     0.041 C 
ATOM     15  O   UNL     1      20.750 -29.527  25.830  1.00  0.00    -0.550 OA
ATOM     16  O   UNL     1      20.576 -31.105  27.483  1.00  0.00    -0.550 OA
ENDBRANCH  13  14
ENDBRANCH  12  13
ENDBRANCH  11  12
ENDBRANCH  10  11
ENDBRANCH   9  10
ENDBRANCH   8   9
ENDBRANCH   7   8
ENDBRANCH   6   7
ENDBRANCH   5   6
ENDBRANCH   4   5
ENDBRANCH   3   4
ENDBRANCH   2   3
ENDBRANCH   1   2
BRANCH   1  17
ATOM     17  C   UNL     1      18.883 -31.768  20.989  1.00  0.00     0.000 C 
BRANCH  17  18
ATOM     18  C   UNL     1      18.616 -30.542  21.875  1.00  0.00     0.000 C 
BRANCH  18  19
ATOM     19  C   UNL     1      17.457 -29.677  21.357  1.00  0.00     0.000 C 
BRANCH  19  20
ATOM     20  C   UNL     1      16.368 -29.526  22.428  1.00  0.00     0.000 C 
BRANCH  20  21
ATOM     21  C   UNL     1      16.277 -30.785  23.304  1.00  0.00     0.000 C 
BRANCH  21  22
ATOM     22  C   UNL     1      14.851 -31.356  23.371  1.00  0.00    -0.000 C 
BRANCH  22  23
ATOM     23  C   UNL     1      14.656 -32.564  22.438  1.00  0.00    -0.000 C 
BRANCH  23  24
ATOM     24  C   UNL     1      13.970 -32.185  21.114  1.00  0.00    -0.000 C 
BRANCH  24  25
ATOM     25  C   UNL     1      13.328 -30.791  21.154  1.00  0.00    -0.000 C 
BRANCH  25  26
ATOM     26  C   UNL     1      11.823 -30.889  21.431  1.00  0.00    -0.000 C 
BRANCH  26  27
ATOM     27  C   UNL     1      11.315 -29.647  22.173  1.00  0.00    -0.000 C 
BRANCH  27  28
ATOM     28  C   UNL     1      12.482 -28.859  22.787  1.00  0.00    -0.000 C 
BRANCH  28  29
ATOM     29  C   UNL     1      12.017 -27.606  23.544  1.00  0.00    -0.003 C 
ATOM     30  C   UNL     1      12.547 -27.552  24.977  1.00  0.00     0.004 C 
ENDBRANCH  28  29
ENDBRANCH  27  28
ENDBRANCH  26  27
ENDBRANCH  25  26
ENDBRANCH  24  25
ENDBRANCH  23  24
ENDBRANCH  22  23
ENDBRANCH  21  22
ENDBRANCH  20  21
ENDBRANCH  19  20
ENDBRANCH  18  19
ENDBRANCH  17  18
ENDBRANCH   1  17
TORSDOF 26
ENDMDL
MODEL 3
REMARK VINA RESULT:    -5.364      4.412      6.793
REMARK INTER + INTRA:         -17.362
REMARK INTER:                 -12.296
REMARK INTRA:                  -5.066
REMARK UNBOUND:                -3.844
REMARK SMILES CCCCCCCCCCCCCCCCCCCCCCCCCCCC(=O)[O-]
REMARK SMILES IDX 15 1 16 2 17 3 18 4 19 5 20 6 21 7 22 8 23 9 24 10 25 11
REMARK SMILES IDX 26 12 27 13 28 14 29 15 30 16 14 17 13 18 12 19 11 20 10 21
REMARK SMILES IDX 9 22 8 23 7 24 6 25 5 26 4 27 3 28 2 29 1 30
REMARK H PARENT
REMARK Flexibility Score: inf
ROOT
ATOM      1  C   UNL     1      18.361 -36.278  21.672  1.00  0.00     0.000 C 
ENDROOT
BRANCH   1   2
ATOM      2  C   UNL     1      19.787 -36.639  22.115  1.00  0.00     0.000 C 
BRANCH   2   3
ATOM      3  C   UNL     1      20.545 -35.437  22.705  1.00  0.00     0.000 C 
BRANCH   3   4
ATOM      4  C   UNL     1      20.017 -34.095  22.174  1.00  0.00     0.000 C 
BRANCH   4   5
ATOM      5  C   UNL     1      20.426 -32.911  23.069  1.00  0.00     0.000 C 
BRANCH   5   6
ATOM      6  C   UNL     1      19.824 -31.569  22.612  1.00  0.00     0.000 C 
BRANCH   6   7
ATOM      7  C   UNL     1      18.951 -31.637  21.345  1.00  0.00     0.000 C 
BRANCH   7   8
ATOM      8  C   UNL     1      18.267 -30.299  21.011  1.00  0.00     0.000 C 
BRANCH   8   9
ATOM      9  C   UNL     1      17.190 -29.914  22.048  1.00  0.00     0.000 C 
BRANCH   9  10
ATOM     10  C   UNL     1      15.800 -29.678  21.432  1.00  0.00     0.000 C 
BRANCH  10  11
ATOM     11  C   UNL     1      14.723 -29.398  22.491  1.00  0.00     0.000 C 
BRANCH  11  12
ATOM     12  C   UNL     1      14.443 -30.613  23.393  1.00  0.00     0.006 C 
BRANCH  12  13
ATOM     13  C   UNL     1      13.077 -31.276  23.143  1.00  0.00     0.053 C 
BRANCH  13  14
ATOM     14  C   UNL     1      12.433 -30.785  21.882  1.00  0.00     0.041 C 
ATOM     15  O   UNL     1      11.544 -29.896  21.930  1.00  0.00    -0.550 OA
ATOM     16  O   UNL     1      12.786 -31.342  20.658  1.00  0.00    -0.550 OA
ENDBRANCH  13  14
ENDBRANCH  12  13
ENDBRANCH  11  12
ENDBRANCH  10  11
ENDBRANCH   9  10
ENDBRANCH   8   9
ENDBRANCH   7   8
ENDBRANCH   6   7
ENDBRANCH   5   6
ENDBRANCH   4   5
ENDBRANCH   3   4
ENDBRANCH   2   3
ENDBRANCH   1   2
BRANCH   1  17
ATOM     17  C   UNL     1      17.841 -37.202  20.555  1.00  0.00     0.000 C 
BRANCH  17  18
ATOM     18  C   UNL     1      17.436 -36.434  19.288  1.00  0.00     0.000 C 
BRANCH  18  19
ATOM     19  C   UNL     1      18.208 -35.116  19.121  1.00  0.00     0.000 C 
BRANCH  19  20
ATOM     20  C   UNL     1      17.244 -33.947  18.879  1.00  0.00     0.000 C 
BRANCH  20  21
ATOM     21  C   UNL     1      15.913 -34.166  19.613  1.00  0.00     0.000 C 
BRANCH  21  22
ATOM     22  C   UNL     1      15.751 -33.244  20.832  1.00  0.00    -0.000 C 
BRANCH  22  23
ATOM     23  C   UNL     1      15.491 -34.027  22.132  1.00  0.00    -0.000 C 
BRANCH  23  24
ATOM     24  C   UNL     1      16.495 -33.680  23.243  1.00  0.00    -0.000 C 
BRANCH  24  25
ATOM     25  C   UNL     1      15.858 -33.675  24.641  1.00  0.00    -0.000 C 
BRANCH  25  26
ATOM     26  C   UNL     1      16.814 -34.274  25.680  1.00  0.00    -0.000 C 
BRANCH  26  27
ATOM     27  C   UNL     1      17.776 -35.278  25.033  1.00  0.00    -0.000 C 
BRANCH  27  28
ATOM     28  C   UNL     1      17.436 -36.715  25.456  1.00  0.00    -0.000 C 
BRANCH  28  29
ATOM     29  C   UNL     1      17.437 -36.898  26.981  1.00  0.00    -0.003 C 
ATOM     30  C   UNL     1      16.369 -37.882  27.458  1.00  0.00     0.004 C 
ENDBRANCH  28  29
ENDBRANCH  27  28
ENDBRANCH  26  27
ENDBRANCH  25  26
ENDBRANCH  24  25
ENDBRANCH  23  24
ENDBRANCH  22  23
ENDBRANCH  21  22
ENDBRANCH  20  21
ENDBRANCH  19  20
ENDBRANCH  18  19
ENDBRANCH  17  18
ENDBRANCH   1  17
TORSDOF 26
ENDMDL
MODEL 4
REMARK VINA RESULT:    -5.294      5.015      7.885
REMARK INTER + INTRA:         -17.185
REMARK INTER:                 -12.790
REMARK INTRA:                  -4.394
REMARK UNBOUND:                -3.844
REMARK SMILES CCCCCCCCCCCCCCCCCCCCCCCCCCCC(=O)[O-]
REMARK SMILES IDX 15 1 16 2 17 3 18 4 19 5 20 6 21 7 22 8 23 9 24 10 25 11
REMARK SMILES IDX 26 12 27 13 28 14 29 15 30 16 14 17 13 18 12 19 11 20 10 21
REMARK SMILES IDX 9 22 8 23 7 24 6 25 5 26 4 27 3 28 2 29 1 30
REMARK H PARENT
REMARK Flexibility Score: inf
ROOT
ATOM      1  C   UNL     1      14.757 -32.463  23.654  1.00  0.00     0.000 C 
ENDROOT
BRANCH   1   2
ATOM      2  C   UNL     1      14.995 -33.346  22.419  1.00  0.00     0.000 C 
BRANCH   2   3
ATOM      3  C   UNL     1      14.244 -32.839  21.176  1.00  0.00     0.000 C 
BRANCH   3   4
ATOM      4  C   UNL     1      14.610 -33.628  19.909  1.00  0.00     0.000 C 
BRANCH   4   5
ATOM      5  C   UNL     1      15.303 -34.964  20.233  1.00  0.00     0.000 C 
BRANCH   5   6
ATOM      6  C   UNL     1      16.683 -35.107  19.566  1.00  0.00     0.000 C 
BRANCH   6   7
ATOM      7  C   UNL     1      17.183 -36.554  19.390  1.00  0.00     0.000 C 
BRANCH   7   8
ATOM      8  C   UNL     1      17.924 -37.091  20.628  1.00  0.00     0.000 C 
BRANCH   8   9
ATOM      9  C   UNL     1      18.400 -35.959  21.565  1.00  0.00     0.000 C 
BRANCH   9  10
ATOM     10  C   UNL     1      19.671 -36.311  22.359  1.00  0.00     0.000 C 
BRANCH  10  11
ATOM     11  C   UNL     1      19.431 -36.341  23.875  1.00  0.00     0.000 C 
BRANCH  11  12
ATOM     12  C   UNL     1      17.964 -36.071  24.253  1.00  0.00     0.006 C 
BRANCH  12  13
ATOM     13  C   UNL     1      17.755 -35.710  25.734  1.00  0.00     0.053 C 
BRANCH  13  14
ATOM     14  C   UNL     1      17.669 -36.927  26.605  1.00  0.00     0.041 C 
ATOM     15  O   UNL     1      18.680 -37.322  27.243  1.00  0.00    -0.550 OA
ATOM     16  O   UNL     1      16.482 -37.648  26.678  1.00  0.00    -0.550 OA
ENDBRANCH  13  14
ENDBRANCH  12  13
ENDBRANCH  11  12
ENDBRANCH  10  11
ENDBRANCH   9  10
ENDBRANCH   8   9
ENDBRANCH   7   8
ENDBRANCH   6   7
ENDBRANCH   5   6
ENDBRANCH   4   5
ENDBRANCH   3   4
ENDBRANCH   2   3
ENDBRANCH   1   2
BRANCH   1  17
ATOM     17  C   UNL     1      13.627 -31.440  23.436  1.00  0.00     0.000 C 
BRANCH  17  18
ATOM     18  C   UNL     1      14.151 -30.013  23.218  1.00  0.00     0.000 C 
BRANCH  18  19
ATOM     19  C   UNL     1      15.678 -29.960  23.060  1.00  0.00     0.000 C 
BRANCH  19  20
ATOM     20  C   UNL     1      16.064 -29.512  21.643  1.00  0.00     0.000 C 
BRANCH  20  21
ATOM     21  C   UNL     1      17.508 -29.918  21.310  1.00  0.00     0.000 C 
BRANCH  21  22
ATOM     22  C   UNL     1      17.610 -31.358  20.781  1.00  0.00    -0.000 C 
BRANCH  22  23
ATOM     23  C   UNL     1      18.983 -31.993  21.066  1.00  0.00    -0.000 C 
BRANCH  23  24
ATOM     24  C   UNL     1      19.393 -31.880  22.544  1.00  0.00    -0.000 C 
BRANCH  24  25
ATOM     25  C   UNL     1      18.527 -32.746  23.471  1.00  0.00    -0.000 C 
BRANCH  25  26
ATOM     26  C   UNL     1      18.121 -31.966  24.728  1.00  0.00    -0.000 C 
BRANCH  26  27
ATOM     27  C   UNL     1      19.232 -31.003  25.163  1.00  0.00    -0.000 C 
BRANCH  27  28
ATOM     28  C   UNL     1      19.068 -30.607  26.638  1.00  0.00    -0.000 C 
BRANCH  28  29
ATOM     29  C   UNL     1      19.519 -29.165  26.916  1.00  0.00    -0.003 C 
ATOM     30  C   UNL     1      19.007 -28.634  28.255  1.00  0.00     0.004 C 
ENDBRANCH  28  29
ENDBRANCH  27  28
ENDBRANCH  26  27
ENDBRANCH  25  26
ENDBRANCH  24  25
ENDBRANCH  23  24
ENDBRANCH  22  23
ENDBRANCH  21  22
ENDBRANCH  20  21
ENDBRANCH  19  20
ENDBRANCH  18  19
ENDBRANCH  17  18
ENDBRANCH   1  17
TORSDOF 26
ENDMDL
MODEL 5
REMARK VINA RESULT:    -5.192      3.619      5.968
REMARK INTER + INTRA:         -16.927
REMARK INTER:                 -11.816
REMARK INTRA:                  -5.111
REMARK UNBOUND:                -3.844
REMARK SMILES CCCCCCCCCCCCCCCCCCCCCCCCCCCC(=O)[O-]
REMARK SMILES IDX 15 1 16 2 17 3 18 4 19 5 20 6 21 7 22 8 23 9 24 10 25 11
REMARK SMILES IDX 26 12 27 13 28 14 29 15 30 16 14 17 13 18 12 19 11 20 10 21
REMARK SMILES IDX 9 22 8 23 7 24 6 25 5 26 4 27 3 28 2 29 1 30
REMARK H PARENT
REMARK Flexibility Score: inf
ROOT
ATOM      1  C   UNL     1      17.734 -33.672  25.104  1.00  0.00     0.000 C 
ENDROOT
BRANCH   1   2
ATOM      2  C   UNL     1      16.390 -33.802  24.372  1.00  0.00     0.000 C 
BRANCH   2   3
ATOM      3  C   UNL     1      15.651 -32.457  24.248  1.00  0.00     0.000 C 
BRANCH   3   4
ATOM      4  C   UNL     1      14.150 -32.637  23.970  1.00  0.00     0.000 C 
BRANCH   4   5
ATOM      5  C   UNL     1      13.443 -31.298  23.691  1.00  0.00     0.000 C 
BRANCH   5   6
ATOM      6  C   UNL     1      13.049 -31.118  22.214  1.00  0.00     0.000 C 
BRANCH   6   7
ATOM      7  C   UNL     1      14.130 -30.488  21.315  1.00  0.00     0.000 C 
BRANCH   7   8
ATOM      8  C   UNL     1      14.835 -29.286  21.971  1.00  0.00     0.000 C 
BRANCH   8   9
ATOM      9  C   UNL     1      16.366 -29.470  22.041  1.00  0.00     0.000 C 
BRANCH   9  10
ATOM     10  C   UNL     1      16.875 -30.695  21.261  1.00  0.00     0.000 C 
BRANCH  10  11
ATOM     11  C   UNL     1      18.274 -30.478  20.665  1.00  0.00     0.000 C 
BRANCH  11  12
ATOM     12  C   UNL     1      19.118 -31.764  20.639  1.00  0.00     0.006 C 
BRANCH  12  13
ATOM     13  C   UNL     1      19.115 -32.542  21.966  1.00  0.00     0.053 C 
BRANCH  13  14
ATOM     14  C   UNL     1      20.125 -32.009  22.936  1.00  0.00     0.041 C 
ATOM     15  O   UNL     1      21.245 -32.571  23.056  1.00  0.00    -0.550 OA
ATOM     16  O   UNL     1      19.812 -30.918  23.739  1.00  0.00    -0.550 OA
ENDBRANCH  13  14
ENDBRANCH  12  13
ENDBRANCH  11  12
ENDBRANCH  10  11
ENDBRANCH   9  10
ENDBRANCH   8   9
ENDBRANCH   7   8
ENDBRANCH   6   7
ENDBRANCH   5   6
ENDBRANCH   4   5
ENDBRANCH   3   4
ENDBRANCH   2   3
ENDBRANCH   1   2
BRANCH   1  17
ATOM     17  C   UNL     1      18.125 -34.963  25.846  1.00  0.00     0.000 C 
BRANCH  17  18
ATOM     18  C   UNL     1      17.125 -36.107  25.619  1.00  0.00     0.000 C 
BRANCH  18  19
ATOM     19  C   UNL     1      17.612 -37.444  26.196  1.00  0.00     0.000 C 
BRANCH  19  20
ATOM     20  C   UNL     1      18.944 -37.861  25.557  1.00  0.00     0.000 C 
BRANCH  20  21
ATOM     21  C   UNL     1      18.795 -38.046  24.039  1.00  0.00     0.000 C 
BRANCH  21  22
ATOM     22  C   UNL     1      19.942 -37.396  23.249  1.00  0.00    -0.000 C 
BRANCH  22  23
ATOM     23  C   UNL     1      19.489 -36.143  22.477  1.00  0.00    -0.000 C 
BRANCH  23  24
ATOM     24  C   UNL     1      18.081 -36.293  21.878  1.00  0.00    -0.000 C 
BRANCH  24  25
ATOM     25  C   UNL     1      18.054 -37.205  20.642  1.00  0.00    -0.000 C 
BRANCH  25  26
ATOM     26  C   UNL     1      17.424 -36.484  19.444  1.00  0.00    -0.000 C 
BRANCH  26  27
ATOM     27  C   UNL     1      18.057 -35.103  19.234  1.00  0.00    -0.000 C 
BRANCH  27  28
ATOM     28  C   UNL     1      16.978 -34.033  19.013  1.00  0.00    -0.000 C 
BRANCH  28  29
ATOM     29  C   UNL     1      15.591 -34.483  19.495  1.00  0.00    -0.003 C 
ATOM     30  C   UNL     1      15.275 -34.008  20.913  1.00  0.00     0.004 C 
ENDBRANCH  28  29
ENDBRANCH  27  28
ENDBRANCH  26  27
ENDBRANCH  25  26
ENDBRANCH  24  25
ENDBRANCH  23  24
ENDBRANCH  22  23
ENDBRANCH  21  22
ENDBRANCH  20  21
ENDBRANCH  19  20
ENDBRANCH  18  19
ENDBRANCH  17  18
ENDBRANCH   1  17
TORSDOF 26
ENDMDL
MODEL 6
REMARK VINA RESULT:    -5.111      4.017      7.679
REMARK INTER + INTRA:         -16.723
REMARK INTER:                 -11.749
REMARK INTRA:                  -4.974
REMARK UNBOUND:                -3.844
REMARK SMILES CCCCCCCCCCCCCCCCCCCCCCCCCCCC(=O)[O-]
REMARK SMILES IDX 15 1 16 2 17 3 18 4 19 5 20 6 21 7 22 8 23 9 24 10 25 11
REMARK SMILES IDX 26 12 27 13 28 14 29 15 30 16 14 17 13 18 12 19 11 20 10 21
REMARK SMILES IDX 9 22 8 23 7 24 6 25 5 26 4 27 3 28 2 29 1 30
REMARK H PARENT
REMARK Flexibility Score: inf
ROOT
ATOM      1  C   UNL     1      20.418 -34.728  22.989  1.00  0.00     0.000 C 
ENDROOT
BRANCH   1   2
ATOM      2  C   UNL     1      19.471 -34.314  21.852  1.00  0.00     0.000 C 
BRANCH   2   3
ATOM      3  C   UNL     1      18.204 -35.185  21.789  1.00  0.00     0.000 C 
BRANCH   3   4
ATOM      4  C   UNL     1      18.191 -36.111  20.563  1.00  0.00     0.000 C 
BRANCH   4   5
ATOM      5  C   UNL     1      16.933 -35.917  19.697  1.00  0.00     0.000 C 
BRANCH   5   6
ATOM      6  C   UNL     1      15.768 -35.260  20.461  1.00  0.00     0.000 C 
BRANCH   6   7
ATOM      7  C   UNL     1      15.370 -33.854  19.972  1.00  0.00     0.000 C 
BRANCH   7   8
ATOM      8  C   UNL     1      14.630 -33.030  21.041  1.00  0.00     0.000 C 
BRANCH   8   9
ATOM      9  C   UNL     1      13.469 -32.204  20.447  1.00  0.00     0.000 C 
BRANCH   9  10
ATOM     10  C   UNL     1      13.336 -30.799  21.062  1.00  0.00     0.000 C 
BRANCH  10  11
ATOM     11  C   UNL     1      12.591 -30.810  22.405  1.00  0.00     0.000 C 
BRANCH  11  12
ATOM     12  C   UNL     1      13.358 -30.075  23.519  1.00  0.00     0.006 C 
BRANCH  12  13
ATOM     13  C   UNL     1      13.517 -28.564  23.278  1.00  0.00     0.053 C 
BRANCH  13  14
ATOM     14  C   UNL     1      12.447 -27.767  23.960  1.00  0.00     0.041 C 
ATOM     15  O   UNL     1      11.396 -27.457  23.339  1.00  0.00    -0.550 OA
ATOM     16  O   UNL     1      12.629 -27.330  25.267  1.00  0.00    -0.550 OA
ENDBRANCH  13  14
ENDBRANCH  12  13
ENDBRANCH  11  12
ENDBRANCH  10  11
ENDBRANCH   9  10
ENDBRANCH   8   9
ENDBRANCH   7   8
ENDBRANCH   6   7
ENDBRANCH   5   6
ENDBRANCH   4   5
ENDBRANCH   3   4
ENDBRANCH   2   3
ENDBRANCH   1   2
BRANCH   1  17
ATOM     17  C   UNL     1      21.286 -33.558  23.486  1.00  0.00     0.000 C 
BRANCH  17  18
ATOM     18  C   UNL     1      21.331 -32.387  22.494  1.00  0.00     0.000 C 
BRANCH  18  19
ATOM     19  C   UNL     1      21.644 -31.045  23.174  1.00  0.00     0.000 C 
BRANCH  19  20
ATOM     20  C   UNL     1      20.700 -29.945  22.669  1.00  0.00     0.000 C 
BRANCH  20  21
ATOM     21  C   UNL     1      20.588 -29.972  21.137  1.00  0.00     0.000 C 
BRANCH  21  22
ATOM     22  C   UNL     1      19.178 -29.613  20.640  1.00  0.00    -0.000 C 
BRANCH  22  23
ATOM     23  C   UNL     1      18.142 -30.701  20.973  1.00  0.00    -0.000 C 
BRANCH  23  24
ATOM     24  C   UNL     1      16.892 -30.136  21.668  1.00  0.00    -0.000 C 
BRANCH  24  25
ATOM     25  C   UNL     1      16.848 -30.456  23.169  1.00  0.00    -0.000 C 
BRANCH  25  26
ATOM     26  C   UNL     1      17.389 -31.865  23.445  1.00  0.00    -0.000 C 
BRANCH  26  27
ATOM     27  C   UNL     1      18.210 -31.898  24.739  1.00  0.00    -0.000 C 
BRANCH  27  28
ATOM     28  C   UNL     1      18.393 -30.484  25.309  1.00  0.00    -0.000 C 
BRANCH  28  29
ATOM     29  C   UNL     1      19.430 -30.432  26.441  1.00  0.00    -0.003 C 
ATOM     30  C   UNL     1      20.233 -31.728  26.566  1.00  0.00     0.004 C 
ENDBRANCH  28  29
ENDBRANCH  27  28
ENDBRANCH  26  27
ENDBRANCH  25  26
ENDBRANCH  24  25
ENDBRANCH  23  24
ENDBRANCH  22  23
ENDBRANCH  21  22
ENDBRANCH  20  21
ENDBRANCH  19  20
ENDBRANCH  18  19
ENDBRANCH  17  18
ENDBRANCH   1  17
TORSDOF 26
ENDMDL
MODEL 7
REMARK VINA RESULT:    -5.101      1.922      5.279
REMARK INTER + INTRA:         -16.698
REMARK INTER:                 -12.161
REMARK INTRA:                  -4.537
REMARK UNBOUND:                -3.844
REMARK SMILES CCCCCCCCCCCCCCCCCCCCCCCCCCCC(=O)[O-]
REMARK SMILES IDX 15 1 16 2 17 3 18 4 19 5 20 6 21 7 22 8 23 9 24 10 25 11
REMARK SMILES IDX 26 12 27 13 28 14 29 15 30 16 14 17 13 18 12 19 11 20 10 21
REMARK SMILES IDX 9 22 8 23 7 24 6 25 5 26 4 27 3 28 2 29 1 30
REMARK H PARENT
REMARK Flexibility Score: inf
ROOT
ATOM      1  C   UNL     1      17.410 -36.562  20.551  1.00  0.00     0.000 C 
ENDROOT
BRANCH   1   2
ATOM      2  C   UNL     1      16.343 -35.480  20.775  1.00  0.00     0.000 C 
BRANCH   2   3
ATOM      3  C   UNL     1      16.125 -34.599  19.532  1.00  0.00     0.000 C 
BRANCH   3   4
ATOM      4  C   UNL     1      17.411 -33.880  19.091  1.00  0.00     0.000 C 
BRANCH   4   5
ATOM      5  C   UNL     1      17.586 -32.518  19.787  1.00  0.00     0.000 C 
BRANCH   5   6
ATOM      6  C   UNL     1      18.774 -32.486  20.766  1.00  0.00     0.000 C 
BRANCH   6   7
ATOM      7  C   UNL     1      19.438 -31.109  20.952  1.00  0.00     0.000 C 
BRANCH   7   8
ATOM      8  C   UNL     1      19.172 -30.493  22.337  1.00  0.00     0.000 C 
BRANCH   8   9
ATOM      9  C   UNL     1      20.362 -30.679  23.302  1.00  0.00     0.000 C 
BRANCH   9  10
ATOM     10  C   UNL     1      21.705 -30.198  22.723  1.00  0.00     0.000 C 
BRANCH  10  11
ATOM     11  C   UNL     1      21.866 -28.672  22.792  1.00  0.00     0.000 C 
BRANCH  11  12
ATOM     12  C   UNL     1      21.957 -28.018  21.402  1.00  0.00     0.006 C 
BRANCH  12  13
ATOM     13  C   UNL     1      21.387 -26.590  21.344  1.00  0.00     0.053 C 
BRANCH  13  14
ATOM     14  C   UNL     1      20.141 -26.512  20.514  1.00  0.00     0.041 C 
ATOM     15  O   UNL     1      19.364 -27.500  20.444  1.00  0.00    -0.550 OA
ATOM     16  O   UNL     1      19.862 -25.362  19.784  1.00  0.00    -0.550 OA
ENDBRANCH  13  14
ENDBRANCH  12  13
ENDBRANCH  11  12
ENDBRANCH  10  11
ENDBRANCH   9  10
ENDBRANCH   8   9
ENDBRANCH   7   8
ENDBRANCH   6   7
ENDBRANCH   5   6
ENDBRANCH   4   5
ENDBRANCH   3   4
ENDBRANCH   2   3
ENDBRANCH   1   2
BRANCH   1  17
ATOM     17  C   UNL     1      18.617 -36.401  21.493  1.00  0.00     0.000 C 
BRANCH  17  18
ATOM     18  C   UNL     1      18.214 -35.945  22.904  1.00  0.00     0.000 C 
BRANCH  18  19
ATOM     19  C   UNL     1      19.138 -34.851  23.460  1.00  0.00     0.000 C 
BRANCH  19  20
ATOM     20  C   UNL     1      18.439 -34.063  24.577  1.00  0.00     0.000 C 
BRANCH  20  21
ATOM     21  C   UNL     1      17.022 -34.601  24.829  1.00  0.00     0.000 C 
BRANCH  21  22
ATOM     22  C   UNL     1      15.929 -33.613  24.390  1.00  0.00    -0.000 C 
BRANCH  22  23
ATOM     23  C   UNL     1      16.511 -32.311  23.808  1.00  0.00    -0.000 C 
BRANCH  23  24
ATOM     24  C   UNL     1      15.597 -31.677  22.746  1.00  0.00    -0.000 C 
BRANCH  24  25
ATOM     25  C   UNL     1      14.450 -32.604  22.317  1.00  0.00    -0.000 C 
BRANCH  25  26
ATOM     26  C   UNL     1      13.853 -32.154  20.978  1.00  0.00    -0.000 C 
BRANCH  26  27
ATOM     27  C   UNL     1      13.354 -30.706  21.054  1.00  0.00    -0.000 C 
BRANCH  27  28
ATOM     28  C   UNL     1      12.002 -30.630  21.780  1.00  0.00    -0.000 C 
BRANCH  28  29
ATOM     29  C   UNL     1      11.871 -29.375  22.656  1.00  0.00    -0.003 C 
ATOM     30  C   UNL     1      12.996 -29.252  23.684  1.00  0.00     0.004 C 
ENDBRANCH  28  29
ENDBRANCH  27  28
ENDBRANCH  26  27
ENDBRANCH  25  26
ENDBRANCH  24  25
ENDBRANCH  23  24
ENDBRANCH  22  23
ENDBRANCH  21  22
ENDBRANCH  20  21
ENDBRANCH  19  20
ENDBRANCH  18  19
ENDBRANCH  17  18
ENDBRANCH   1  17
TORSDOF 26
ENDMDL
MODEL 8
REMARK VINA RESULT:    -5.088      2.688      5.734
REMARK INTER + INTRA:         -16.667
REMARK INTER:                 -11.412
REMARK INTRA:                  -5.255
REMARK UNBOUND:                -3.844
REMARK SMILES CCCCCCCCCCCCCCCCCCCCCCCCCCCC(=O)[O-]
REMARK SMILES IDX 15 1 16 2 17 3 18 4 19 5 20 6 21 7 22 8 23 9 24 10 25 11
REMARK SMILES IDX 26 12 27 13 28 14 29 15 30 16 14 17 13 18 12 19 11 20 10 21
REMARK SMILES IDX 9 22 8 23 7 24 6 25 5 26 4 27 3 28 2 29 1 30
REMARK H PARENT
REMARK Flexibility Score: inf
ROOT
ATOM      1  C   UNL     1      17.492 -31.131  22.060  1.00  0.00     0.000 C 
ENDROOT
BRANCH   1   2
ATOM      2  C   UNL     1      18.125 -32.150  23.019  1.00  0.00     0.000 C 
BRANCH   2   3
ATOM      3  C   UNL     1      17.195 -32.521  24.187  1.00  0.00     0.000 C 
BRANCH   3   4
ATOM      4  C   UNL     1      17.503 -33.913  24.761  1.00  0.00     0.000 C 
BRANCH   4   5
ATOM      5  C   UNL     1      17.344 -35.027  23.710  1.00  0.00     0.000 C 
BRANCH   5   6
ATOM      6  C   UNL     1      18.617 -35.873  23.528  1.00  0.00     0.000 C 
BRANCH   6   7
ATOM      7  C   UNL     1      19.943 -35.133  23.788  1.00  0.00     0.000 C 
BRANCH   7   8
ATOM      8  C   UNL     1      20.716 -34.808  22.497  1.00  0.00     0.000 C 
BRANCH   8   9
ATOM      9  C   UNL     1      21.727 -33.657  22.691  1.00  0.00     0.000 C 
BRANCH   9  10
ATOM     10  C   UNL     1      21.662 -33.010  24.086  1.00  0.00     0.000 C 
BRANCH  10  11
ATOM     11  C   UNL     1      21.319 -31.514  24.028  1.00  0.00     0.000 C 
BRANCH  11  12
ATOM     12  C   UNL     1      21.754 -30.853  22.708  1.00  0.00     0.006 C 
BRANCH  12  13
ATOM     13  C   UNL     1      21.232 -29.417  22.526  1.00  0.00     0.053 C 
BRANCH  13  14
ATOM     14  C   UNL     1      20.574 -29.220  21.194  1.00  0.00     0.041 C 
ATOM     15  O   UNL     1      20.938 -29.903  20.201  1.00  0.00    -0.550 OA
ATOM     16  O   UNL     1      19.587 -28.252  21.041  1.00  0.00    -0.550 OA
ENDBRANCH  13  14
ENDBRANCH  12  13
ENDBRANCH  11  12
ENDBRANCH  10  11
ENDBRANCH   9  10
ENDBRANCH   8   9
ENDBRANCH   7   8
ENDBRANCH   6   7
ENDBRANCH   5   6
ENDBRANCH   4   5
ENDBRANCH   3   4
ENDBRANCH   2   3
ENDBRANCH   1   2
BRANCH   1  17
ATOM     17  C   UNL     1      17.752 -31.474  20.582  1.00  0.00     0.000 C 
BRANCH  17  18
ATOM     18  C   UNL     1      18.509 -32.798  20.403  1.00  0.00     0.000 C 
BRANCH  18  19
ATOM     19  C   UNL     1      17.958 -33.645  19.246  1.00  0.00     0.000 C 
BRANCH  19  20
ATOM     20  C   UNL     1      18.014 -35.140  19.590  1.00  0.00     0.000 C 
BRANCH  20  21
ATOM     21  C   UNL     1      16.662 -35.635  20.126  1.00  0.00     0.000 C 
BRANCH  21  22
ATOM     22  C   UNL     1      15.532 -34.613  19.915  1.00  0.00    -0.000 C 
BRANCH  22  23
ATOM     23  C   UNL     1      15.007 -34.034  21.241  1.00  0.00    -0.000 C 
BRANCH  23  24
ATOM     24  C   UNL     1      14.260 -32.703  21.052  1.00  0.00    -0.000 C 
BRANCH  24  25
ATOM     25  C   UNL     1      13.925 -32.014  22.384  1.00  0.00    -0.000 C 
BRANCH  25  26
ATOM     26  C   UNL     1      13.621 -30.526  22.169  1.00  0.00    -0.000 C 
BRANCH  26  27
ATOM     27  C   UNL     1      12.127 -30.299  21.913  1.00  0.00    -0.000 C 
BRANCH  27  28
ATOM     28  C   UNL     1      11.609 -29.096  22.715  1.00  0.00    -0.000 C 
BRANCH  28  29
ATOM     29  C   UNL     1      12.491 -28.773  23.931  1.00  0.00    -0.003 C 
ATOM     30  C   UNL     1      12.900 -27.301  23.988  1.00  0.00     0.004 C 
ENDBRANCH  28  29
ENDBRANCH  27  28
ENDBRANCH  26  27
ENDBRANCH  25  26
ENDBRANCH  24  25
ENDBRANCH  23  24
ENDBRANCH  22  23
ENDBRANCH  21  22
ENDBRANCH  20  21
ENDBRANCH  19  20
ENDBRANCH  18  19
ENDBRANCH  17  18
ENDBRANCH   1  17
TORSDOF 26
ENDMDL
MODEL 9
REMARK VINA RESULT:    -5.051      4.309      7.038
REMARK INTER + INTRA:         -16.573
REMARK INTER:                 -11.267
REMARK INTRA:                  -5.306
REMARK UNBOUND:                -3.844
REMARK SMILES CCCCCCCCCCCCCCCCCCCCCCCCCCCC(=O)[O-]
REMARK SMILES IDX 15 1 16 2 17 3 18 4 19 5 20 6 21 7 22 8 23 9 24 10 25 11
REMARK SMILES IDX 26 12 27 13 28 14 29 15 30 16 14 17 13 18 12 19 11 20 10 21
REMARK SMILES IDX 9 22 8 23 7 24 6 25 5 26 4 27 3 28 2 29 1 30
REMARK H PARENT
REMARK Flexibility Score: inf
ROOT
ATOM      1  C   UNL     1      18.308 -36.389  22.072  1.00  0.00     0.000 C 
ENDROOT
BRANCH   1   2
ATOM      2  C   UNL     1      19.777 -36.490  22.511  1.00  0.00     0.000 C 
BRANCH   2   3
ATOM      3  C   UNL     1      20.239 -35.263  23.316  1.00  0.00     0.000 C 
BRANCH   3   4
ATOM      4  C   UNL     1      21.064 -34.283  22.466  1.00  0.00     0.000 C 
BRANCH   4   5
ATOM      5  C   UNL     1      20.709 -32.814  22.760  1.00  0.00     0.000 C 
BRANCH   5   6
ATOM      6  C   UNL     1      19.652 -32.241  21.797  1.00  0.00     0.000 C 
BRANCH   6   7
ATOM      7  C   UNL     1      19.748 -30.726  21.539  1.00  0.00     0.000 C 
BRANCH   7   8
ATOM      8  C   UNL     1      18.412 -29.992  21.748  1.00  0.00     0.000 C 
BRANCH   8   9
ATOM      9  C   UNL     1      17.227 -30.729  21.088  1.00  0.00     0.000 C 
BRANCH   9  10
ATOM     10  C   UNL     1      15.856 -30.114  21.422  1.00  0.00     0.000 C 
BRANCH  10  11
ATOM     11  C   UNL     1      15.651 -29.909  22.930  1.00  0.00     0.000 C 
BRANCH  11  12
ATOM     12  C   UNL     1      14.226 -30.260  23.392  1.00  0.00     0.006 C 
BRANCH  12  13
ATOM     13  C   UNL     1      13.299 -30.733  22.259  1.00  0.00     0.053 C 
BRANCH  13  14
ATOM     14  C   UNL     1      12.002 -29.982  22.240  1.00  0.00     0.041 C 
ATOM     15  O   UNL     1      11.845 -28.971  22.974  1.00  0.00    -0.550 OA
ATOM     16  O   UNL     1      10.952 -30.426  21.444  1.00  0.00    -0.550 OA
ENDBRANCH  13  14
ENDBRANCH  12  13
ENDBRANCH  11  12
ENDBRANCH  10  11
ENDBRANCH   9  10
ENDBRANCH   8   9
ENDBRANCH   7   8
ENDBRANCH   6   7
ENDBRANCH   5   6
ENDBRANCH   4   5
ENDBRANCH   3   4
ENDBRANCH   2   3
ENDBRANCH   1   2
BRANCH   1  17
ATOM     17  C   UNL     1      18.030 -37.159  20.768  1.00  0.00     0.000 C 
BRANCH  17  18
ATOM     18  C   UNL     1      16.874 -36.557  19.956  1.00  0.00     0.000 C 
BRANCH  18  19
ATOM     19  C   UNL     1      17.303 -35.334  19.131  1.00  0.00     0.000 C 
BRANCH  19  20
ATOM     20  C   UNL     1      16.835 -34.034  19.799  1.00  0.00     0.000 C 
BRANCH  20  21
ATOM     21  C   UNL     1      15.339 -34.096  20.142  1.00  0.00     0.000 C 
BRANCH  21  22
ATOM     22  C   UNL     1      15.068 -33.900  21.642  1.00  0.00    -0.000 C 
BRANCH  22  23
ATOM     23  C   UNL     1      16.363 -33.858  22.474  1.00  0.00    -0.000 C 
BRANCH  23  24
ATOM     24  C   UNL     1      16.120 -33.419  23.927  1.00  0.00    -0.000 C 
BRANCH  24  25
ATOM     25  C   UNL     1      17.412 -33.359  24.756  1.00  0.00    -0.000 C 
BRANCH  25  26
ATOM     26  C   UNL     1      17.842 -31.907  24.996  1.00  0.00    -0.000 C 
BRANCH  26  27
ATOM     27  C   UNL     1      19.022 -31.834  25.973  1.00  0.00    -0.000 C 
BRANCH  27  28
ATOM     28  C   UNL     1      19.527 -30.391  26.116  1.00  0.00    -0.000 C 
BRANCH  28  29
ATOM     29  C   UNL     1      20.755 -30.104  25.239  1.00  0.00    -0.003 C 
ATOM     30  C   UNL     1      22.007 -30.838  25.718  1.00  0.00     0.004 C 
ENDBRANCH  28  29
ENDBRANCH  27  28
ENDBRANCH  26  27
ENDBRANCH  25  26
ENDBRANCH  24  25
ENDBRANCH  23  24
ENDBRANCH  22  23
ENDBRANCH  21  22
ENDBRANCH  20  21
ENDBRANCH  19  20
ENDBRANCH  18  19
ENDBRANCH  17  18
ENDBRANCH   1  17
TORSDOF 26
ENDMDL
