MODEL 1
REMARK VINA RESULT:    -5.150      0.000      0.000
REMARK INTER + INTRA:          -6.300
REMARK INTER:                  -6.054
REMARK INTRA:                  -0.246
REMARK UNBOUND:                -0.246
REMARK SMILES O=c1c(O)c(-c2ccc(O)cc2)oc2cc(O)cc(O)c12
REMARK SMILES IDX 5 1 3 2 2 3 1 4 21 5 19 6 18 7 16 8 15 9 14 10 13 11 6 12
REMARK SMILES IDX 7 13 8 14 9 15 12 16 11 17 10 18 4 20 20 22 17 24
REMARK H PARENT 10 19 4 21 20 23 17 25
REMARK Flexibility Score: inf
ROOT
ATOM      1  C   UNL     1     -56.442  23.889 -14.388  1.00  0.00     0.180 A 
ATOM      2  C   UNL     1     -57.287  24.039 -13.270  1.00  0.00     0.208 A 
ATOM      3  C   UNL     1     -58.273  25.038 -13.295  1.00  0.00     0.238 A 
ATOM      4  O   UNL     1     -59.042  25.175 -12.306  1.00  0.00    -0.285 OA
ATOM      5  C   UNL     1     -58.385  25.879 -14.421  1.00  0.00     0.111 A 
ATOM      6  C   UNL     1     -59.349  26.912 -14.523  1.00  0.00     0.134 A 
ATOM      7  C   UNL     1     -59.391  27.712 -15.674  1.00  0.00     0.093 A 
ATOM      8  C   UNL     1     -58.488  27.502 -16.723  1.00  0.00     0.123 A 
ATOM      9  C   UNL     1     -57.537  26.484 -16.627  1.00  0.00     0.094 A 
ATOM     10  C   UNL     1     -57.479  25.674 -15.489  1.00  0.00     0.146 A 
ATOM     11  O   UNL     1     -56.567  24.711 -15.426  1.00  0.00    -0.452 OA
ENDROOT
BRANCH   1  12
ATOM     12  C   UNL     1     -55.392  22.848 -14.446  1.00  0.00     0.021 A 
ATOM     13  C   UNL     1     -54.041  23.153 -14.196  1.00  0.00     0.016 A 
ATOM     14  C   UNL     1     -53.071  22.148 -14.233  1.00  0.00     0.047 A 
ATOM     15  C   UNL     1     -53.437  20.824 -14.508  1.00  0.00     0.115 A 
ATOM     16  C   UNL     1     -55.754  21.514 -14.700  1.00  0.00     0.016 A 
ATOM     17  C   UNL     1     -54.781  20.510 -14.737  1.00  0.00     0.047 A 
BRANCH  15  18
ATOM     18  O   UNL     1     -52.479  19.814 -14.549  1.00  0.00    -0.508 OA
ATOM     19  H   UNL     1     -52.669  18.889 -14.182  1.00  0.00     0.293 HD
ENDBRANCH  15  18
ENDBRANCH   1  12
BRANCH   2  20
ATOM     20  O   UNL     1     -57.122  23.226 -12.147  1.00  0.00    -0.502 OA
ATOM     21  H   UNL     1     -56.418  23.409 -11.442  1.00  0.00     0.293 HD
ENDBRANCH   2  20
BRANCH   6  22
ATOM     22  O   UNL     1     -60.261  27.147 -13.494  1.00  0.00    -0.507 OA
ATOM     23  H   UNL     1     -60.999  26.488 -13.275  1.00  0.00     0.293 HD
ENDBRANCH   6  22
BRANCH   8  24
ATOM     24  O   UNL     1     -58.529  28.298 -17.866  1.00  0.00    -0.508 OA
ATOM     25  H   UNL     1     -57.682  28.641 -18.303  1.00  0.00     0.293 HD
ENDBRANCH   8  24
TORSDOF 5
ENDMDL
MODEL 2
REMARK VINA RESULT:    -4.916      9.733     12.664
REMARK INTER + INTRA:          -6.025
REMARK INTER:                  -5.769
REMARK INTRA:                  -0.256
REMARK UNBOUND:                -0.246
REMARK SMILES O=c1c(O)c(-c2ccc(O)cc2)oc2cc(O)cc(O)c12
REMARK SMILES IDX 5 1 3 2 2 3 1 4 21 5 19 6 18 7 16 8 15 9 14 10 13 11 6 12
REMARK SMILES IDX 7 13 8 14 9 15 12 16 11 17 10 18 4 20 20 22 17 24
REMARK H PARENT 10 19 4 21 20 23 17 25
REMARK Flexibility Score: inf
ROOT
ATOM      1  C   UNL     1     -53.919  14.764 -11.241  1.00  0.00     0.180 A 
ATOM      2  C   UNL     1     -52.677  15.406 -11.413  1.00  0.00     0.208 A 
ATOM      3  C   UNL     1     -51.741  14.846 -12.297  1.00  0.00     0.238 A 
ATOM      4  O   UNL     1     -50.630  15.417 -12.467  1.00  0.00    -0.285 OA
ATOM      5  C   UNL     1     -52.051  13.649 -12.975  1.00  0.00     0.111 A 
ATOM      6  C   UNL     1     -51.162  13.019 -13.879  1.00  0.00     0.134 A 
ATOM      7  C   UNL     1     -51.542  11.824 -14.508  1.00  0.00     0.093 A 
ATOM      8  C   UNL     1     -52.791  11.249 -14.251  1.00  0.00     0.123 A 
ATOM      9  C   UNL     1     -53.671  11.867 -13.361  1.00  0.00     0.094 A 
ATOM     10  C   UNL     1     -53.312  13.059 -12.725  1.00  0.00     0.146 A 
ATOM     11  O   UNL     1     -54.171  13.629 -11.886  1.00  0.00    -0.452 OA
ENDROOT
BRANCH   1  12
ATOM     12  C   UNL     1     -54.965  15.302 -10.343  1.00  0.00     0.021 A 
ATOM     13  C   UNL     1     -54.892  15.133  -8.948  1.00  0.00     0.016 A 
ATOM     14  C   UNL     1     -55.881  15.671  -8.119  1.00  0.00     0.047 A 
ATOM     15  C   UNL     1     -56.947  16.394  -8.669  1.00  0.00     0.115 A 
ATOM     16  C   UNL     1     -56.027  16.046 -10.886  1.00  0.00     0.016 A 
ATOM     17  C   UNL     1     -57.014  16.583 -10.053  1.00  0.00     0.047 A 
BRANCH  15  18
ATOM     18  O   UNL     1     -57.938  16.934  -7.853  1.00  0.00    -0.508 OA
ATOM     19  H   UNL     1     -58.884  16.573  -7.861  1.00  0.00     0.293 HD
ENDBRANCH  15  18
ENDBRANCH   1  12
BRANCH   2  20
ATOM     20  O   UNL     1     -52.374  16.562 -10.691  1.00  0.00    -0.502 OA
ATOM     21  H   UNL     1     -51.479  17.030 -10.764  1.00  0.00     0.293 HD
ENDBRANCH   2  20
BRANCH   6  22
ATOM     22  O   UNL     1     -49.909  13.569 -14.155  1.00  0.00    -0.507 OA
ATOM     23  H   UNL     1     -49.054  13.146 -13.813  1.00  0.00     0.293 HD
ENDBRANCH   6  22
BRANCH   8  24
ATOM     24  O   UNL     1     -53.168  10.061 -14.875  1.00  0.00    -0.508 OA
ATOM     25  H   UNL     1     -52.481   9.427 -15.267  1.00  0.00     0.293 HD
ENDBRANCH   8  24
TORSDOF 5
ENDMDL
MODEL 3
REMARK VINA RESULT:    -4.907      9.642     12.987
REMARK INTER + INTRA:          -6.014
REMARK INTER:                  -5.762
REMARK INTRA:                  -0.252
REMARK UNBOUND:                -0.246
REMARK SMILES O=c1c(O)c(-c2ccc(O)cc2)oc2cc(O)cc(O)c12
REMARK SMILES IDX 5 1 3 2 2 3 1 4 21 5 19 6 18 7 16 8 15 9 14 10 13 11 6 12
REMARK SMILES IDX 7 13 8 14 9 15 12 16 11 17 10 18 4 20 20 22 17 24
REMARK H PARENT 10 19 4 21 20 23 17 25
REMARK Flexibility Score: inf
ROOT
ATOM      1  C   UNL     1     -53.625  14.102 -11.958  1.00  0.00     0.180 A 
ATOM      2  C   UNL     1     -53.981  12.919 -12.634  1.00  0.00     0.208 A 
ATOM      3  C   UNL     1     -53.008  12.258 -13.400  1.00  0.00     0.238 A 
ATOM      4  O   UNL     1     -53.311  11.192 -14.002  1.00  0.00    -0.285 OA
ATOM      5  C   UNL     1     -51.709  12.797 -13.495  1.00  0.00     0.111 A 
ATOM      6  C   UNL     1     -50.673  12.194 -14.249  1.00  0.00     0.134 A 
ATOM      7  C   UNL     1     -49.408  12.799 -14.300  1.00  0.00     0.093 A 
ATOM      8  C   UNL     1     -49.160  13.992 -13.613  1.00  0.00     0.123 A 
ATOM      9  C   UNL     1     -50.178  14.590 -12.867  1.00  0.00     0.094 A 
ATOM     10  C   UNL     1     -51.445  14.003 -12.803  1.00  0.00     0.146 A 
ATOM     11  O   UNL     1     -52.394  14.590 -12.082  1.00  0.00    -0.452 OA
ENDROOT
BRANCH   1  12
ATOM     12  C   UNL     1     -54.587  14.846 -11.115  1.00  0.00     0.021 A 
ATOM     13  C   UNL     1     -55.572  15.675 -11.683  1.00  0.00     0.016 A 
ATOM     14  C   UNL     1     -56.485  16.349 -10.866  1.00  0.00     0.047 A 
ATOM     15  C   UNL     1     -56.434  16.195  -9.475  1.00  0.00     0.115 A 
ATOM     16  C   UNL     1     -54.556  14.682  -9.719  1.00  0.00     0.016 A 
ATOM     17  C   UNL     1     -55.470  15.358  -8.905  1.00  0.00     0.047 A 
BRANCH  15  18
ATOM     18  O   UNL     1     -57.338  16.863  -8.652  1.00  0.00    -0.508 OA
ATOM     19  H   UNL     1     -57.048  17.637  -8.066  1.00  0.00     0.293 HD
ENDBRANCH  15  18
ENDBRANCH   1  12
BRANCH   2  20
ATOM     20  O   UNL     1     -55.288  12.433 -12.565  1.00  0.00    -0.502 OA
ATOM     21  H   UNL     1     -55.948  12.541 -13.325  1.00  0.00     0.293 HD
ENDBRANCH   2  20
BRANCH   6  22
ATOM     22  O   UNL     1     -50.891  11.005 -14.945  1.00  0.00    -0.507 OA
ATOM     23  H   UNL     1     -50.279  10.707 -15.696  1.00  0.00     0.293 HD
ENDBRANCH   6  22
BRANCH   8  24
ATOM     24  O   UNL     1     -47.904  14.593 -13.665  1.00  0.00    -0.508 OA
ATOM     25  H   UNL     1     -47.766  15.497 -14.102  1.00  0.00     0.293 HD
ENDBRANCH   8  24
TORSDOF 5
ENDMDL
MODEL 4
REMARK VINA RESULT:    -4.833      5.875      9.193
REMARK INTER + INTRA:          -5.927
REMARK INTER:                  -5.644
REMARK INTRA:                  -0.283
REMARK UNBOUND:                -0.246
REMARK SMILES O=c1c(O)c(-c2ccc(O)cc2)oc2cc(O)cc(O)c12
REMARK SMILES IDX 5 1 3 2 2 3 1 4 21 5 19 6 18 7 16 8 15 9 14 10 13 11 6 12
REMARK SMILES IDX 7 13 8 14 9 15 12 16 11 17 10 18 4 20 20 22 17 24
REMARK H PARENT 10 19 4 21 20 23 17 25
REMARK Flexibility Score: inf
ROOT
ATOM      1  C   UNL     1     -57.634  17.861 -17.596  1.00  0.00     0.180 A 
ATOM      2  C   UNL     1     -57.618  19.047 -16.837  1.00  0.00     0.208 A 
ATOM      3  C   UNL     1     -56.400  19.492 -16.298  1.00  0.00     0.238 A 
ATOM      4  O   UNL     1     -56.372  20.558 -15.625  1.00  0.00    -0.285 OA
ATOM      5  C   UNL     1     -55.228  18.737 -16.508  1.00  0.00     0.111 A 
ATOM      6  C   UNL     1     -53.962  19.114 -15.997  1.00  0.00     0.134 A 
ATOM      7  C   UNL     1     -52.844  18.304 -16.243  1.00  0.00     0.093 A 
ATOM      8  C   UNL     1     -52.967  17.126 -16.989  1.00  0.00     0.123 A 
ATOM      9  C   UNL     1     -54.213  16.751 -17.496  1.00  0.00     0.094 A 
ATOM     10  C   UNL     1     -55.339  17.545 -17.263  1.00  0.00     0.146 A 
ATOM     11  O   UNL     1     -56.511  17.167 -17.761  1.00  0.00    -0.452 OA
ENDROOT
BRANCH   1  12
ATOM     12  C   UNL     1     -58.873  17.338 -18.213  1.00  0.00     0.021 A 
ATOM     13  C   UNL     1     -59.191  17.601 -19.558  1.00  0.00     0.016 A 
ATOM     14  C   UNL     1     -60.356  17.075 -20.125  1.00  0.00     0.047 A 
ATOM     15  C   UNL     1     -61.211  16.271 -19.360  1.00  0.00     0.115 A 
ATOM     16  C   UNL     1     -59.726  16.513 -17.459  1.00  0.00     0.016 A 
ATOM     17  C   UNL     1     -60.891  15.990 -18.028  1.00  0.00     0.047 A 
BRANCH  15  18
ATOM     18  O   UNL     1     -62.375  15.743 -19.914  1.00  0.00    -0.508 OA
ATOM     19  H   UNL     1     -62.427  14.777 -20.215  1.00  0.00     0.293 HD
ENDBRANCH  15  18
ENDBRANCH   1  12
BRANCH   2  20
ATOM     20  O   UNL     1     -58.802  19.750 -16.600  1.00  0.00    -0.502 OA
ATOM     21  H   UNL     1     -59.397  20.078 -17.350  1.00  0.00     0.293 HD
ENDBRANCH   2  20
BRANCH   6  22
ATOM     22  O   UNL     1     -53.809  20.282 -15.249  1.00  0.00    -0.507 OA
ATOM     23  H   UNL     1     -52.901  20.709 -15.109  1.00  0.00     0.293 HD
ENDBRANCH   6  22
BRANCH   8  24
ATOM     24  O   UNL     1     -51.856  16.321 -17.233  1.00  0.00    -0.508 OA
ATOM     25  H   UNL     1     -51.714  15.870 -18.129  1.00  0.00     0.293 HD
ENDBRANCH   8  24
TORSDOF 5
ENDMDL
MODEL 5
REMARK VINA RESULT:    -4.823      1.385      2.909
REMARK INTER + INTRA:          -5.916
REMARK INTER:                  -5.617
REMARK INTRA:                  -0.298
REMARK UNBOUND:                -0.246
REMARK SMILES O=c1c(O)c(-c2ccc(O)cc2)oc2cc(O)cc(O)c12
REMARK SMILES IDX 5 1 3 2 2 3 1 4 21 5 19 6 18 7 16 8 15 9 14 10 13 11 6 12
REMARK SMILES IDX 7 13 8 14 9 15 12 16 11 17 10 18 4 20 20 22 17 24
REMARK H PARENT 10 19 4 21 20 23 17 25
REMARK Flexibility Score: inf
ROOT
ATOM      1  C   UNL     1     -56.419  24.608 -14.704  1.00  0.00     0.180 A 
ATOM      2  C   UNL     1     -56.008  25.424 -15.776  1.00  0.00     0.208 A 
ATOM      3  C   UNL     1     -56.819  26.504 -16.156  1.00  0.00     0.238 A 
ATOM      4  O   UNL     1     -56.457  27.248 -17.108  1.00  0.00    -0.285 OA
ATOM      5  C   UNL     1     -58.032  26.738 -15.477  1.00  0.00     0.111 A 
ATOM      6  C   UNL     1     -58.909  27.802 -15.800  1.00  0.00     0.134 A 
ATOM      7  C   UNL     1     -60.102  27.963 -15.081  1.00  0.00     0.093 A 
ATOM      8  C   UNL     1     -60.436  27.081 -14.047  1.00  0.00     0.123 A 
ATOM      9  C   UNL     1     -59.575  26.031 -13.724  1.00  0.00     0.094 A 
ATOM     10  C   UNL     1     -58.380  25.854 -14.427  1.00  0.00     0.146 A 
ATOM     11  O   UNL     1     -57.577  24.850 -14.096  1.00  0.00    -0.452 OA
ENDROOT
BRANCH   1  12
ATOM     12  C   UNL     1     -55.610  23.463 -14.232  1.00  0.00     0.021 A 
ATOM     13  C   UNL     1     -54.585  23.630 -13.282  1.00  0.00     0.016 A 
ATOM     14  C   UNL     1     -53.851  22.529 -12.833  1.00  0.00     0.047 A 
ATOM     15  C   UNL     1     -54.136  21.246 -13.317  1.00  0.00     0.115 A 
ATOM     16  C   UNL     1     -55.903  22.169 -14.697  1.00  0.00     0.016 A 
ATOM     17  C   UNL     1     -55.166  21.069 -14.246  1.00  0.00     0.047 A 
BRANCH  15  18
ATOM     18  O   UNL     1     -53.410  20.141 -12.878  1.00  0.00    -0.508 OA
ATOM     19  H   UNL     1     -53.573  19.216 -13.257  1.00  0.00     0.293 HD
ENDBRANCH  15  18
ENDBRANCH   1  12
BRANCH   2  20
ATOM     20  O   UNL     1     -54.827  25.141 -16.466  1.00  0.00    -0.502 OA
ATOM     21  H   UNL     1     -54.301  24.289 -16.317  1.00  0.00     0.293 HD
ENDBRANCH   2  20
BRANCH   6  22
ATOM     22  O   UNL     1     -58.603  28.697 -16.826  1.00  0.00    -0.507 OA
ATOM     23  H   UNL     1     -59.327  29.183 -17.343  1.00  0.00     0.293 HD
ENDBRANCH   6  22
BRANCH   8  24
ATOM     24  O   UNL     1     -61.623  27.240 -13.334  1.00  0.00    -0.508 OA
ATOM     25  H   UNL     1     -62.158  28.100 -13.380  1.00  0.00     0.293 HD
ENDBRANCH   8  24
TORSDOF 5
ENDMDL
MODEL 6
REMARK VINA RESULT:    -4.761      5.476      8.643
REMARK INTER + INTRA:          -5.842
REMARK INTER:                  -5.561
REMARK INTRA:                  -0.282
REMARK UNBOUND:                -0.246
REMARK SMILES O=c1c(O)c(-c2ccc(O)cc2)oc2cc(O)cc(O)c12
REMARK SMILES IDX 5 1 3 2 2 3 1 4 21 5 19 6 18 7 16 8 15 9 14 10 13 11 6 12
REMARK SMILES IDX 7 13 8 14 9 15 12 16 11 17 10 18 4 20 20 22 17 24
REMARK H PARENT 10 19 4 21 20 23 17 25
REMARK Flexibility Score: inf
ROOT
ATOM      1  C   UNL     1     -57.492  17.972 -17.521  1.00  0.00     0.180 A 
ATOM      2  C   UNL     1     -56.335  17.174 -17.608  1.00  0.00     0.208 A 
ATOM      3  C   UNL     1     -55.170  17.595 -16.948  1.00  0.00     0.238 A 
ATOM      4  O   UNL     1     -54.130  16.884 -17.009  1.00  0.00    -0.285 OA
ATOM      5  C   UNL     1     -55.175  18.811 -16.233  1.00  0.00     0.111 A 
ATOM      6  C   UNL     1     -54.041  19.308 -15.544  1.00  0.00     0.134 A 
ATOM      7  C   UNL     1     -54.124  20.531 -14.862  1.00  0.00     0.093 A 
ATOM      8  C   UNL     1     -55.315  21.266 -14.857  1.00  0.00     0.123 A 
ATOM      9  C   UNL     1     -56.435  20.779 -15.534  1.00  0.00     0.094 A 
ATOM     10  C   UNL     1     -56.374  19.561 -16.218  1.00  0.00     0.146 A 
ATOM     11  O   UNL     1     -57.455  19.119 -16.850  1.00  0.00    -0.452 OA
ENDROOT
BRANCH   1  12
ATOM     12  C   UNL     1     -58.764  17.586 -18.172  1.00  0.00     0.021 A 
ATOM     13  C   UNL     1     -59.014  17.879 -19.526  1.00  0.00     0.016 A 
ATOM     14  C   UNL     1     -60.213  17.483 -20.125  1.00  0.00     0.047 A 
ATOM     15  C   UNL     1     -61.173  16.780 -19.385  1.00  0.00     0.115 A 
ATOM     16  C   UNL     1     -59.724  16.863 -17.443  1.00  0.00     0.016 A 
ATOM     17  C   UNL     1     -60.923  16.469 -18.045  1.00  0.00     0.047 A 
BRANCH  15  18
ATOM     18  O   UNL     1     -62.372  16.382 -19.971  1.00  0.00    -0.508 OA
ATOM     19  H   UNL     1     -62.900  15.596 -19.613  1.00  0.00     0.293 HD
ENDBRANCH  15  18
ENDBRANCH   1  12
BRANCH   2  20
ATOM     20  O   UNL     1     -56.342  16.000 -18.364  1.00  0.00    -0.502 OA
ATOM     21  H   UNL     1     -56.653  15.976 -19.327  1.00  0.00     0.293 HD
ENDBRANCH   2  20
BRANCH   6  22
ATOM     22  O   UNL     1     -52.840  18.598 -15.532  1.00  0.00    -0.507 OA
ATOM     23  H   UNL     1     -52.722  17.740 -16.057  1.00  0.00     0.293 HD
ENDBRANCH   6  22
BRANCH   8  24
ATOM     24  O   UNL     1     -55.397  22.481 -14.180  1.00  0.00    -0.508 OA
ATOM     25  H   UNL     1     -54.851  22.661 -13.346  1.00  0.00     0.293 HD
ENDBRANCH   8  24
TORSDOF 5
ENDMDL
MODEL 7
REMARK VINA RESULT:    -4.727      1.562      2.129
REMARK INTER + INTRA:          -5.803
REMARK INTER:                  -5.867
REMARK INTRA:                   0.065
REMARK UNBOUND:                -0.246
REMARK SMILES O=c1c(O)c(-c2ccc(O)cc2)oc2cc(O)cc(O)c12
REMARK SMILES IDX 5 1 3 2 2 3 1 4 21 5 19 6 18 7 16 8 15 9 14 10 13 11 6 12
REMARK SMILES IDX 7 13 8 14 9 15 12 16 11 17 10 18 4 20 20 22 17 24
REMARK H PARENT 10 19 4 21 20 23 17 25
REMARK Flexibility Score: inf
ROOT
ATOM      1  C   UNL     1     -55.159  24.762 -14.565  1.00  0.00     0.180 A 
ATOM      2  C   UNL     1     -56.059  24.473 -13.521  1.00  0.00     0.208 A 
ATOM      3  C   UNL     1     -57.353  25.015 -13.572  1.00  0.00     0.238 A 
ATOM      4  O   UNL     1     -58.171  24.756 -12.649  1.00  0.00    -0.285 OA
ATOM      5  C   UNL     1     -57.717  25.850 -14.648  1.00  0.00     0.111 A 
ATOM      6  C   UNL     1     -58.999  26.439 -14.772  1.00  0.00     0.134 A 
ATOM      7  C   UNL     1     -59.281  27.265 -15.870  1.00  0.00     0.093 A 
ATOM      8  C   UNL     1     -58.308  27.514 -16.844  1.00  0.00     0.123 A 
ATOM      9  C   UNL     1     -57.043  26.935 -16.727  1.00  0.00     0.094 A 
ATOM     10  C   UNL     1     -56.742  26.107 -15.641  1.00  0.00     0.146 A 
ATOM     11  O   UNL     1     -55.532  25.566 -15.556  1.00  0.00    -0.452 OA
ENDROOT
BRANCH   1  12
ATOM     12  C   UNL     1     -53.785  24.213 -14.593  1.00  0.00     0.021 A 
ATOM     13  C   UNL     1     -53.530  22.857 -14.315  1.00  0.00     0.016 A 
ATOM     14  C   UNL     1     -52.226  22.357 -14.372  1.00  0.00     0.047 A 
ATOM     15  C   UNL     1     -51.162  23.199 -14.718  1.00  0.00     0.115 A 
ATOM     16  C   UNL     1     -52.714  25.047 -14.960  1.00  0.00     0.016 A 
ATOM     17  C   UNL     1     -51.410  24.543 -15.015  1.00  0.00     0.047 A 
BRANCH  15  18
ATOM     18  O   UNL     1     -49.858  22.712 -14.777  1.00  0.00    -0.508 OA
ATOM     19  H   UNL     1     -49.402  22.324 -13.960  1.00  0.00     0.293 HD
ENDBRANCH  15  18
ENDBRANCH   1  12
BRANCH   2  20
ATOM     20  O   UNL     1     -55.658  23.685 -12.440  1.00  0.00    -0.502 OA
ATOM     21  H   UNL     1     -55.593  22.676 -12.498  1.00  0.00     0.293 HD
ENDBRANCH   2  20
BRANCH   6  22
ATOM     22  O   UNL     1     -59.990  26.210 -13.817  1.00  0.00    -0.507 OA
ATOM     23  H   UNL     1     -60.632  26.939 -13.529  1.00  0.00     0.293 HD
ENDBRANCH   6  22
BRANCH   8  24
ATOM     24  O   UNL     1     -58.588  28.336 -17.934  1.00  0.00    -0.508 OA
ATOM     25  H   UNL     1     -59.540  28.517 -18.230  1.00  0.00     0.293 HD
ENDBRANCH   8  24
TORSDOF 5
ENDMDL
MODEL 8
REMARK VINA RESULT:    -4.712      3.074      6.576
REMARK INTER + INTRA:          -5.785
REMARK INTER:                  -5.494
REMARK INTRA:                  -0.291
REMARK UNBOUND:                -0.246
REMARK SMILES O=c1c(O)c(-c2ccc(O)cc2)oc2cc(O)cc(O)c12
REMARK SMILES IDX 5 1 3 2 2 3 1 4 21 5 19 6 18 7 16 8 15 9 14 10 13 11 6 12
REMARK SMILES IDX 7 13 8 14 9 15 12 16 11 17 10 18 4 20 20 22 17 24
REMARK H PARENT 10 19 4 21 20 23 17 25
REMARK Flexibility Score: inf
ROOT
ATOM      1  C   UNL     1     -59.669  26.167 -12.362  1.00  0.00     0.180 A 
ATOM      2  C   UNL     1     -58.695  25.152 -12.311  1.00  0.00     0.208 A 
ATOM      3  C   UNL     1     -57.841  24.975 -13.411  1.00  0.00     0.238 A 
ATOM      4  O   UNL     1     -56.958  24.076 -13.374  1.00  0.00    -0.285 OA
ATOM      5  C   UNL     1     -57.988  25.798 -14.547  1.00  0.00     0.111 A 
ATOM      6  C   UNL     1     -57.171  25.682 -15.698  1.00  0.00     0.134 A 
ATOM      7  C   UNL     1     -57.387  26.534 -16.791  1.00  0.00     0.093 A 
ATOM      8  C   UNL     1     -58.401  27.498 -16.756  1.00  0.00     0.123 A 
ATOM      9  C   UNL     1     -59.208  27.616 -15.623  1.00  0.00     0.094 A 
ATOM     10  C   UNL     1     -59.009  26.778 -14.522  1.00  0.00     0.146 A 
ATOM     11  O   UNL     1     -59.788  26.915 -13.455  1.00  0.00    -0.452 OA
ENDROOT
BRANCH   1  12
ATOM     12  C   UNL     1     -60.592  26.429 -11.235  1.00  0.00     0.021 A 
ATOM     13  C   UNL     1     -61.827  25.763 -11.129  1.00  0.00     0.016 A 
ATOM     14  C   UNL     1     -62.672  26.009 -10.042  1.00  0.00     0.047 A 
ATOM     15  C   UNL     1     -62.290  26.913  -9.043  1.00  0.00     0.115 A 
ATOM     16  C   UNL     1     -60.208  27.319 -10.218  1.00  0.00     0.016 A 
ATOM     17  C   UNL     1     -61.055  27.564  -9.132  1.00  0.00     0.047 A 
BRANCH  15  18
ATOM     18  O   UNL     1     -63.124  27.167  -7.957  1.00  0.00    -0.508 OA
ATOM     19  H   UNL     1     -63.213  28.097  -7.565  1.00  0.00     0.293 HD
ENDBRANCH  15  18
ENDBRANCH   1  12
BRANCH   2  20
ATOM     20  O   UNL     1     -58.603  24.316 -11.195  1.00  0.00    -0.502 OA
ATOM     21  H   UNL     1     -57.890  23.603 -11.109  1.00  0.00     0.293 HD
ENDBRANCH   2  20
BRANCH   6  22
ATOM     22  O   UNL     1     -56.152  24.732 -15.763  1.00  0.00    -0.507 OA
ATOM     23  H   UNL     1     -56.005  24.163 -16.589  1.00  0.00     0.293 HD
ENDBRANCH   6  22
BRANCH   8  24
ATOM     24  O   UNL     1     -58.615  28.343 -17.843  1.00  0.00    -0.508 OA
ATOM     25  H   UNL     1     -58.174  28.176 -18.740  1.00  0.00     0.293 HD
ENDBRANCH   8  24
TORSDOF 5
ENDMDL
MODEL 9
REMARK VINA RESULT:    -4.535      2.796      7.091
REMARK INTER + INTRA:          -5.577
REMARK INTER:                  -5.281
REMARK INTRA:                  -0.296
REMARK UNBOUND:                -0.246
REMARK SMILES O=c1c(O)c(-c2ccc(O)cc2)oc2cc(O)cc(O)c12
REMARK SMILES IDX 5 1 3 2 2 3 1 4 21 5 19 6 18 7 16 8 15 9 14 10 13 11 6 12
REMARK SMILES IDX 7 13 8 14 9 15 12 16 11 17 10 18 4 20 20 22 17 24
REMARK H PARENT 10 19 4 21 20 23 17 25
REMARK Flexibility Score: inf
ROOT
ATOM      1  C   UNL     1     -59.424  27.040 -13.312  1.00  0.00     0.180 A 
ATOM      2  C   UNL     1     -59.431  27.901 -14.426  1.00  0.00     0.208 A 
ATOM      3  C   UNL     1     -58.498  27.689 -15.453  1.00  0.00     0.238 A 
ATOM      4  O   UNL     1     -58.501  28.446 -16.461  1.00  0.00    -0.285 OA
ATOM      5  C   UNL     1     -57.564  26.638 -15.341  1.00  0.00     0.111 A 
ATOM      6  C   UNL     1     -56.589  26.360 -16.329  1.00  0.00     0.134 A 
ATOM      7  C   UNL     1     -55.690  25.300 -16.139  1.00  0.00     0.093 A 
ATOM      8  C   UNL     1     -55.746  24.516 -14.982  1.00  0.00     0.123 A 
ATOM      9  C   UNL     1     -56.706  24.786 -14.005  1.00  0.00     0.094 A 
ATOM     10  C   UNL     1     -57.613  25.836 -14.176  1.00  0.00     0.146 A 
ATOM     11  O   UNL     1     -58.519  26.068 -13.233  1.00  0.00    -0.452 OA
ENDROOT
BRANCH   1  12
ATOM     12  C   UNL     1     -60.388  27.186 -12.198  1.00  0.00     0.021 A 
ATOM     13  C   UNL     1     -61.615  26.498 -12.195  1.00  0.00     0.016 A 
ATOM     14  C   UNL     1     -62.498  26.634 -11.119  1.00  0.00     0.047 A 
ATOM     15  C   UNL     1     -62.163  27.448 -10.030  1.00  0.00     0.115 A 
ATOM     16  C   UNL     1     -60.050  27.984 -11.091  1.00  0.00     0.016 A 
ATOM     17  C   UNL     1     -60.936  28.118 -10.018  1.00  0.00     0.047 A 
BRANCH  15  18
ATOM     18  O   UNL     1     -63.036  27.592  -8.954  1.00  0.00    -0.508 OA
ATOM     19  H   UNL     1     -62.889  28.301  -8.245  1.00  0.00     0.293 HD
ENDBRANCH  15  18
ENDBRANCH   1  12
BRANCH   2  20
ATOM     20  O   UNL     1     -60.333  28.966 -14.490  1.00  0.00    -0.502 OA
ATOM     21  H   UNL     1     -60.990  29.076 -15.252  1.00  0.00     0.293 HD
ENDBRANCH   2  20
BRANCH   6  22
ATOM     22  O   UNL     1     -56.508  27.124 -17.493  1.00  0.00    -0.507 OA
ATOM     23  H   UNL     1     -56.964  28.026 -17.572  1.00  0.00     0.293 HD
ENDBRANCH   6  22
BRANCH   8  24
ATOM     24  O   UNL     1     -54.851  23.465 -14.793  1.00  0.00    -0.508 OA
ATOM     25  H   UNL     1     -54.943  22.824 -14.012  1.00  0.00     0.293 HD
ENDBRANCH   8  24
TORSDOF 5
ENDMDL
