MODEL 1
REMARK VINA RESULT:    -3.610      0.000      0.000
REMARK INTER + INTRA:         -12.568
REMARK INTER:                  -8.252
REMARK INTRA:                  -4.316
REMARK UNBOUND:                -4.316
REMARK SMILES CCCCCCCCCCCCCCCCCCCCCCCC(=O)[O-]
REMARK SMILES IDX 13 1 14 2 15 3 16 4 17 5 18 6 19 7 20 8 21 9 22 10 23 11
REMARK SMILES IDX 24 12 25 13 26 14 12 15 11 16 10 17 9 18 8 19 7 20 6 21 5 22
REMARK SMILES IDX 4 23 3 24 2 25 1 26
REMARK H PARENT
REMARK Flexibility Score: inf
ROOT
ATOM      1  C   UNL     1       4.587 128.070 113.062  1.00  0.00     0.000 C 
ENDROOT
BRANCH   1   2
ATOM      2  C   UNL     1       3.941 129.372 112.561  1.00  0.00     0.000 C 
BRANCH   2   3
ATOM      3  C   UNL     1       2.976 129.206 111.371  1.00  0.00     0.000 C 
BRANCH   3   4
ATOM      4  C   UNL     1       1.528 128.861 111.781  1.00  0.00     0.000 C 
BRANCH   4   5
ATOM      5  C   UNL     1       1.117 127.440 111.351  1.00  0.00     0.000 C 
BRANCH   5   6
ATOM      6  C   UNL     1       1.219 126.424 112.499  1.00  0.00     0.000 C 
BRANCH   6   7
ATOM      7  C   UNL     1       2.256 125.319 112.222  1.00  0.00     0.000 C 
BRANCH   7   8
ATOM      8  C   UNL     1       2.707 125.297 110.753  1.00  0.00     0.000 C 
BRANCH   8   9
ATOM      9  C   UNL     1       4.236 125.209 110.609  1.00  0.00     0.000 C 
BRANCH   9  10
ATOM     10  C   UNL     1       4.906 124.597 111.851  1.00  0.00     0.006 C 
BRANCH  10  11
ATOM     11  C   UNL     1       6.386 124.983 111.966  1.00  0.00     0.053 C 
BRANCH  11  12
ATOM     12  C   UNL     1       7.259 123.798 111.700  1.00  0.00     0.041 C 
ATOM     13  O   UNL     1       7.778 123.166 112.657  1.00  0.00    -0.550 OA
ATOM     14  O   UNL     1       7.460 123.360 110.397  1.00  0.00    -0.550 OA
ENDBRANCH  11  12
ENDBRANCH  10  11
ENDBRANCH   9  10
ENDBRANCH   8   9
ENDBRANCH   7   8
ENDBRANCH   6   7
ENDBRANCH   5   6
ENDBRANCH   4   5
ENDBRANCH   3   4
ENDBRANCH   2   3
ENDBRANCH   1   2
BRANCH   1  15
ATOM     15  C   UNL     1       4.171 127.708 114.496  1.00  0.00     0.000 C 
BRANCH  15  16
ATOM     16  C   UNL     1       5.367 127.160 115.291  1.00  0.00     0.000 C 
BRANCH  16  17
ATOM     17  C   UNL     1       5.717 128.019 116.519  1.00  0.00     0.000 C 
BRANCH  17  18
ATOM     18  C   UNL     1       5.641 129.544 116.278  1.00  0.00    -0.000 C 
BRANCH  18  19
ATOM     19  C   UNL     1       5.302 130.362 117.540  1.00  0.00    -0.000 C 
BRANCH  19  20
ATOM     20  C   UNL     1       3.979 129.984 118.233  1.00  0.00    -0.000 C 
BRANCH  20  21
ATOM     21  C   UNL     1       2.717 130.636 117.638  1.00  0.00    -0.000 C 
BRANCH  21  22
ATOM     22  C   UNL     1       1.970 129.776 116.602  1.00  0.00    -0.000 C 
BRANCH  22  23
ATOM     23  C   UNL     1       1.813 130.459 115.223  1.00  0.00    -0.000 C 
BRANCH  23  24
ATOM     24  C   UNL     1       2.105 131.973 115.231  1.00  0.00    -0.000 C 
BRANCH  24  25
ATOM     25  C   UNL     1       3.385 132.385 114.480  1.00  0.00    -0.003 C 
ATOM     26  C   UNL     1       4.371 133.161 115.354  1.00  0.00     0.004 C 
ENDBRANCH  24  25
ENDBRANCH  23  24
ENDBRANCH  22  23
ENDBRANCH  21  22
ENDBRANCH  20  21
ENDBRANCH  19  20
ENDBRANCH  18  19
ENDBRANCH  17  18
ENDBRANCH  16  17
ENDBRANCH  15  16
ENDBRANCH   1  15
TORSDOF 22
ENDMDL
MODEL 2
REMARK VINA RESULT:    -3.584      2.562      5.790
REMARK INTER + INTRA:         -12.510
REMARK INTER:                  -8.250
REMARK INTRA:                  -4.260
REMARK UNBOUND:                -4.316
REMARK SMILES CCCCCCCCCCCCCCCCCCCCCCCC(=O)[O-]
REMARK SMILES IDX 13 1 14 2 15 3 16 4 17 5 18 6 19 7 20 8 21 9 22 10 23 11
REMARK SMILES IDX 24 12 25 13 26 14 12 15 11 16 10 17 9 18 8 19 7 20 6 21 5 22
REMARK SMILES IDX 4 23 3 24 2 25 1 26
REMARK H PARENT
REMARK Flexibility Score: inf
ROOT
ATOM      1  C   UNL     1       4.155 127.330 114.618  1.00  0.00     0.000 C 
ENDROOT
BRANCH   1   2
ATOM      2  C   UNL     1       3.637 128.675 114.084  1.00  0.00     0.000 C 
BRANCH   2   3
ATOM      3  C   UNL     1       4.322 129.171 112.795  1.00  0.00     0.000 C 
BRANCH   3   4
ATOM      4  C   UNL     1       3.337 129.669 111.714  1.00  0.00     0.000 C 
BRANCH   4   5
ATOM      5  C   UNL     1       2.230 128.642 111.411  1.00  0.00     0.000 C 
BRANCH   5   6
ATOM      6  C   UNL     1       2.745 127.440 110.603  1.00  0.00     0.000 C 
BRANCH   6   7
ATOM      7  C   UNL     1       2.070 126.118 111.013  1.00  0.00     0.000 C 
BRANCH   7   8
ATOM      8  C   UNL     1       3.084 124.976 111.188  1.00  0.00     0.000 C 
BRANCH   8   9
ATOM      9  C   UNL     1       4.500 125.372 110.736  1.00  0.00     0.000 C 
BRANCH   9  10
ATOM     10  C   UNL     1       5.490 125.446 111.910  1.00  0.00     0.006 C 
BRANCH  10  11
ATOM     11  C   UNL     1       6.940 125.209 111.467  1.00  0.00     0.053 C 
BRANCH  11  12
ATOM     12  C   UNL     1       7.272 123.752 111.521  1.00  0.00     0.041 C 
ATOM     13  O   UNL     1       7.270 123.062 110.468  1.00  0.00    -0.550 OA
ATOM     14  O   UNL     1       7.633 123.164 112.727  1.00  0.00    -0.550 OA
ENDBRANCH  11  12
ENDBRANCH  10  11
ENDBRANCH   9  10
ENDBRANCH   8   9
ENDBRANCH   7   8
ENDBRANCH   6   7
ENDBRANCH   5   6
ENDBRANCH   4   5
ENDBRANCH   3   4
ENDBRANCH   2   3
ENDBRANCH   1   2
BRANCH   1  15
ATOM     15  C   UNL     1       3.035 126.300 114.834  1.00  0.00     0.000 C 
BRANCH  15  16
ATOM     16  C   UNL     1       1.652 126.956 114.680  1.00  0.00     0.000 C 
BRANCH  16  17
ATOM     17  C   UNL     1       0.531 125.937 114.408  1.00  0.00     0.000 C 
BRANCH  17  18
ATOM     18  C   UNL     1       0.406 124.821 115.471  1.00  0.00    -0.000 C 
BRANCH  18  19
ATOM     19  C   UNL     1      -0.531 123.668 115.062  1.00  0.00    -0.000 C 
BRANCH  19  20
ATOM     20  C   UNL     1       0.118 122.270 115.038  1.00  0.00    -0.000 C 
BRANCH  20  21
ATOM     21  C   UNL     1       1.127 122.036 113.898  1.00  0.00    -0.000 C 
BRANCH  21  22
ATOM     22  C   UNL     1       1.994 120.771 114.048  1.00  0.00    -0.000 C 
BRANCH  22  23
ATOM     23  C   UNL     1       3.503 121.020 113.814  1.00  0.00    -0.000 C 
BRANCH  23  24
ATOM     24  C   UNL     1       3.878 122.505 113.637  1.00  0.00    -0.000 C 
BRANCH  24  25
ATOM     25  C   UNL     1       4.739 123.090 114.773  1.00  0.00    -0.003 C 
ATOM     26  C   UNL     1       4.076 122.980 116.146  1.00  0.00     0.004 C 
ENDBRANCH  24  25
ENDBRANCH  23  24
ENDBRANCH  22  23
ENDBRANCH  21  22
ENDBRANCH  20  21
ENDBRANCH  19  20
ENDBRANCH  18  19
ENDBRANCH  17  18
ENDBRANCH  16  17
ENDBRANCH  15  16
ENDBRANCH   1  15
TORSDOF 22
ENDMDL
MODEL 3
REMARK VINA RESULT:    -3.581      2.163      4.491
REMARK INTER + INTRA:         -12.503
REMARK INTER:                  -8.064
REMARK INTRA:                  -4.438
REMARK UNBOUND:                -4.316
REMARK SMILES CCCCCCCCCCCCCCCCCCCCCCCC(=O)[O-]
REMARK SMILES IDX 13 1 14 2 15 3 16 4 17 5 18 6 19 7 20 8 21 9 22 10 23 11
REMARK SMILES IDX 24 12 25 13 26 14 12 15 11 16 10 17 9 18 8 19 7 20 6 21 5 22
REMARK SMILES IDX 4 23 3 24 2 25 1 26
REMARK H PARENT
REMARK Flexibility Score: inf
ROOT
ATOM      1  C   UNL     1       2.356 125.578 112.575  1.00  0.00     0.000 C 
ENDROOT
BRANCH   1   2
ATOM      2  C   UNL     1       3.602 126.241 113.186  1.00  0.00     0.000 C 
BRANCH   2   3
ATOM      3  C   UNL     1       3.743 126.081 114.712  1.00  0.00     0.000 C 
BRANCH   3   4
ATOM      4  C   UNL     1       2.436 125.664 115.422  1.00  0.00     0.000 C 
BRANCH   4   5
ATOM      5  C   UNL     1       2.617 124.408 116.295  1.00  0.00     0.000 C 
BRANCH   5   6
ATOM      6  C   UNL     1       3.653 123.432 115.716  1.00  0.00     0.000 C 
BRANCH   6   7
ATOM      7  C   UNL     1       3.004 122.268 114.943  1.00  0.00     0.000 C 
BRANCH   7   8
ATOM      8  C   UNL     1       3.470 122.208 113.480  1.00  0.00     0.000 C 
BRANCH   8   9
ATOM      9  C   UNL     1       4.858 122.840 113.279  1.00  0.00     0.000 C 
BRANCH   9  10
ATOM     10  C   UNL     1       5.174 123.099 111.796  1.00  0.00     0.006 C 
BRANCH  10  11
ATOM     11  C   UNL     1       6.250 124.176 111.608  1.00  0.00     0.053 C 
BRANCH  11  12
ATOM     12  C   UNL     1       7.245 124.123 112.724  1.00  0.00     0.041 C 
ATOM     13  O   UNL     1       7.196 124.969 113.656  1.00  0.00    -0.550 OA
ATOM     14  O   UNL     1       8.195 123.111 112.763  1.00  0.00    -0.550 OA
ENDBRANCH  11  12
ENDBRANCH  10  11
ENDBRANCH   9  10
ENDBRANCH   8   9
ENDBRANCH   7   8
ENDBRANCH   6   7
ENDBRANCH   5   6
ENDBRANCH   4   5
ENDBRANCH   3   4
ENDBRANCH   2   3
ENDBRANCH   1   2
BRANCH   1  15
ATOM     15  C   UNL     1       2.329 125.655 111.041  1.00  0.00     0.000 C 
BRANCH  15  16
ATOM     16  C   UNL     1       3.252 126.775 110.533  1.00  0.00     0.000 C 
BRANCH  16  17
ATOM     17  C   UNL     1       2.485 128.043 110.117  1.00  0.00     0.000 C 
BRANCH  17  18
ATOM     18  C   UNL     1       0.946 127.919 110.199  1.00  0.00    -0.000 C 
BRANCH  18  19
ATOM     19  C   UNL     1       0.294 128.869 111.223  1.00  0.00    -0.000 C 
BRANCH  19  20
ATOM     20  C   UNL     1       1.202 129.303 112.390  1.00  0.00    -0.000 C 
BRANCH  20  21
ATOM     21  C   UNL     1       0.862 128.674 113.754  1.00  0.00    -0.000 C 
BRANCH  21  22
ATOM     22  C   UNL     1       1.645 129.251 114.948  1.00  0.00    -0.000 C 
BRANCH  22  23
ATOM     23  C   UNL     1       2.770 130.232 114.538  1.00  0.00    -0.000 C 
BRANCH  23  24
ATOM     24  C   UNL     1       4.195 129.707 114.807  1.00  0.00    -0.000 C 
BRANCH  24  25
ATOM     25  C   UNL     1       5.071 129.555 113.550  1.00  0.00    -0.003 C 
ATOM     26  C   UNL     1       6.375 130.352 113.627  1.00  0.00     0.004 C 
ENDBRANCH  24  25
ENDBRANCH  23  24
ENDBRANCH  22  23
ENDBRANCH  21  22
ENDBRANCH  20  21
ENDBRANCH  19  20
ENDBRANCH  18  19
ENDBRANCH  17  18
ENDBRANCH  16  17
ENDBRANCH  15  16
ENDBRANCH   1  15
TORSDOF 22
ENDMDL
MODEL 4
REMARK VINA RESULT:    -3.549      2.469      4.892
REMARK INTER + INTRA:         -12.429
REMARK INTER:                  -8.471
REMARK INTRA:                  -3.958
REMARK UNBOUND:                -4.316
REMARK SMILES CCCCCCCCCCCCCCCCCCCCCCCC(=O)[O-]
REMARK SMILES IDX 13 1 14 2 15 3 16 4 17 5 18 6 19 7 20 8 21 9 22 10 23 11
REMARK SMILES IDX 24 12 25 13 26 14 12 15 11 16 10 17 9 18 8 19 7 20 6 21 5 22
REMARK SMILES IDX 4 23 3 24 2 25 1 26
REMARK H PARENT
REMARK Flexibility Score: inf
ROOT
ATOM      1  C   UNL     1       4.603 129.170 113.379  1.00  0.00     0.000 C 
ENDROOT
BRANCH   1   2
ATOM      2  C   UNL     1       3.545 129.508 112.316  1.00  0.00     0.000 C 
BRANCH   2   3
ATOM      3  C   UNL     1       2.095 129.566 112.836  1.00  0.00     0.000 C 
BRANCH   3   4
ATOM      4  C   UNL     1       1.046 129.051 111.826  1.00  0.00     0.000 C 
BRANCH   4   5
ATOM      5  C   UNL     1       1.063 127.517 111.692  1.00  0.00     0.000 C 
BRANCH   5   6
ATOM      6  C   UNL     1       1.826 127.043 110.446  1.00  0.00     0.000 C 
BRANCH   6   7
ATOM      7  C   UNL     1       2.701 125.806 110.722  1.00  0.00     0.000 C 
BRANCH   7   8
ATOM      8  C   UNL     1       4.171 126.032 110.335  1.00  0.00     0.000 C 
BRANCH   8   9
ATOM      9  C   UNL     1       5.068 124.840 110.710  1.00  0.00     0.000 C 
BRANCH   9  10
ATOM     10  C   UNL     1       6.517 125.024 110.231  1.00  0.00     0.006 C 
BRANCH  10  11
ATOM     11  C   UNL     1       7.488 125.279 111.391  1.00  0.00     0.053 C 
BRANCH  11  12
ATOM     12  C   UNL     1       7.925 123.986 112.002  1.00  0.00     0.041 C 
ATOM     13  O   UNL     1       7.301 122.923 111.747  1.00  0.00    -0.550 OA
ATOM     14  O   UNL     1       9.050 123.945 112.816  1.00  0.00    -0.550 OA
ENDBRANCH  11  12
ENDBRANCH  10  11
ENDBRANCH   9  10
ENDBRANCH   8   9
ENDBRANCH   7   8
ENDBRANCH   6   7
ENDBRANCH   5   6
ENDBRANCH   4   5
ENDBRANCH   3   4
ENDBRANCH   2   3
ENDBRANCH   1   2
BRANCH   1  15
ATOM     15  C   UNL     1       5.373 127.878 113.067  1.00  0.00     0.000 C 
BRANCH  15  16
ATOM     16  C   UNL     1       5.226 126.862 114.212  1.00  0.00     0.000 C 
BRANCH  16  17
ATOM     17  C   UNL     1       3.939 126.023 114.108  1.00  0.00     0.000 C 
BRANCH  17  18
ATOM     18  C   UNL     1       3.184 125.837 115.444  1.00  0.00    -0.000 C 
BRANCH  18  19
ATOM     19  C   UNL     1       1.883 126.657 115.549  1.00  0.00    -0.000 C 
BRANCH  19  20
ATOM     20  C   UNL     1       0.726 126.174 114.652  1.00  0.00    -0.000 C 
BRANCH  20  21
ATOM     21  C   UNL     1       0.471 124.655 114.674  1.00  0.00    -0.000 C 
BRANCH  21  22
ATOM     22  C   UNL     1       0.983 123.894 113.438  1.00  0.00    -0.000 C 
BRANCH  22  23
ATOM     23  C   UNL     1       1.401 122.434 113.735  1.00  0.00    -0.000 C 
BRANCH  23  24
ATOM     24  C   UNL     1       2.267 122.270 115.000  1.00  0.00    -0.000 C 
BRANCH  24  25
ATOM     25  C   UNL     1       3.779 122.139 114.732  1.00  0.00    -0.003 C 
ATOM     26  C   UNL     1       4.147 122.342 113.262  1.00  0.00     0.004 C 
ENDBRANCH  24  25
ENDBRANCH  23  24
ENDBRANCH  22  23
ENDBRANCH  21  22
ENDBRANCH  20  21
ENDBRANCH  19  20
ENDBRANCH  18  19
ENDBRANCH  17  18
ENDBRANCH  16  17
ENDBRANCH  15  16
ENDBRANCH   1  15
TORSDOF 22
ENDMDL
MODEL 5
REMARK VINA RESULT:    -3.542      2.835      7.287
REMARK INTER + INTRA:         -12.415
REMARK INTER:                  -7.916
REMARK INTRA:                  -4.498
REMARK UNBOUND:                -4.316
REMARK SMILES CCCCCCCCCCCCCCCCCCCCCCCC(=O)[O-]
REMARK SMILES IDX 13 1 14 2 15 3 16 4 17 5 18 6 19 7 20 8 21 9 22 10 23 11
REMARK SMILES IDX 24 12 25 13 26 14 12 15 11 16 10 17 9 18 8 19 7 20 6 21 5 22
REMARK SMILES IDX 4 23 3 24 2 25 1 26
REMARK H PARENT
REMARK Flexibility Score: inf
ROOT
ATOM      1  C   UNL     1       2.463 127.104 114.235  1.00  0.00     0.000 C 
ENDROOT
BRANCH   1   2
ATOM      2  C   UNL     1       3.571 127.420 115.254  1.00  0.00     0.000 C 
BRANCH   2   3
ATOM      3  C   UNL     1       4.919 127.843 114.640  1.00  0.00     0.000 C 
BRANCH   3   4
ATOM      4  C   UNL     1       4.806 128.408 113.206  1.00  0.00     0.000 C 
BRANCH   4   5
ATOM      5  C   UNL     1       4.974 129.938 113.163  1.00  0.00     0.000 C 
BRANCH   5   6
ATOM      6  C   UNL     1       3.630 130.680 113.222  1.00  0.00     0.000 C 
BRANCH   6   7
ATOM      7  C   UNL     1       3.575 131.718 114.359  1.00  0.00     0.000 C 
BRANCH   7   8
ATOM      8  C   UNL     1       2.685 131.260 115.525  1.00  0.00     0.000 C 
BRANCH   8   9
ATOM      9  C   UNL     1       3.503 130.819 116.751  1.00  0.00     0.000 C 
BRANCH   9  10
ATOM     10  C   UNL     1       4.883 131.497 116.809  1.00  0.00     0.006 C 
BRANCH  10  11
ATOM     11  C   UNL     1       6.027 130.519 116.512  1.00  0.00     0.053 C 
BRANCH  11  12
ATOM     12  C   UNL     1       7.105 131.198 115.728  1.00  0.00     0.041 C 
ATOM     13  O   UNL     1       8.011 130.518 115.178  1.00  0.00    -0.550 OA
ATOM     14  O   UNL     1       7.082 132.577 115.560  1.00  0.00    -0.550 OA
ENDBRANCH  11  12
ENDBRANCH  10  11
ENDBRANCH   9  10
ENDBRANCH   8   9
ENDBRANCH   7   8
ENDBRANCH   6   7
ENDBRANCH   5   6
ENDBRANCH   4   5
ENDBRANCH   3   4
ENDBRANCH   2   3
ENDBRANCH   1   2
BRANCH   1  15
ATOM     15  C   UNL     1       1.158 127.866 114.514  1.00  0.00     0.000 C 
BRANCH  15  16
ATOM     16  C   UNL     1       0.808 128.797 113.342  1.00  0.00     0.000 C 
BRANCH  16  17
ATOM     17  C   UNL     1       0.714 128.058 111.995  1.00  0.00     0.000 C 
BRANCH  17  18
ATOM     18  C   UNL     1       1.731 128.530 110.931  1.00  0.00    -0.000 C 
BRANCH  18  19
ATOM     19  C   UNL     1       2.594 127.397 110.342  1.00  0.00    -0.000 C 
BRANCH  19  20
ATOM     20  C   UNL     1       2.296 125.988 110.894  1.00  0.00    -0.000 C 
BRANCH  20  21
ATOM     21  C   UNL     1       3.314 124.902 110.499  1.00  0.00    -0.000 C 
BRANCH  21  22
ATOM     22  C   UNL     1       4.790 125.290 110.707  1.00  0.00    -0.000 C 
BRANCH  22  23
ATOM     23  C   UNL     1       5.543 124.368 111.695  1.00  0.00    -0.000 C 
BRANCH  23  24
ATOM     24  C   UNL     1       5.253 124.663 113.180  1.00  0.00    -0.000 C 
BRANCH  24  25
ATOM     25  C   UNL     1       4.184 123.756 113.819  1.00  0.00    -0.003 C 
ATOM     26  C   UNL     1       4.146 122.353 113.210  1.00  0.00     0.004 C 
ENDBRANCH  24  25
ENDBRANCH  23  24
ENDBRANCH  22  23
ENDBRANCH  21  22
ENDBRANCH  20  21
ENDBRANCH  19  20
ENDBRANCH  18  19
ENDBRANCH  17  18
ENDBRANCH  16  17
ENDBRANCH  15  16
ENDBRANCH   1  15
TORSDOF 22
ENDMDL
MODEL 6
REMARK VINA RESULT:    -3.516      1.558      3.494
REMARK INTER + INTRA:         -12.355
REMARK INTER:                  -8.184
REMARK INTRA:                  -4.171
REMARK UNBOUND:                -4.316
REMARK SMILES CCCCCCCCCCCCCCCCCCCCCCCC(=O)[O-]
REMARK SMILES IDX 13 1 14 2 15 3 16 4 17 5 18 6 19 7 20 8 21 9 22 10 23 11
REMARK SMILES IDX 24 12 25 13 26 14 12 15 11 16 10 17 9 18 8 19 7 20 6 21 5 22
REMARK SMILES IDX 4 23 3 24 2 25 1 26
REMARK H PARENT
REMARK Flexibility Score: inf
ROOT
ATOM      1  C   UNL     1       4.153 128.749 112.815  1.00  0.00     0.000 C 
ENDROOT
BRANCH   1   2
ATOM      2  C   UNL     1       5.196 127.695 113.222  1.00  0.00     0.000 C 
BRANCH   2   3
ATOM      3  C   UNL     1       4.639 126.503 114.025  1.00  0.00     0.000 C 
BRANCH   3   4
ATOM      4  C   UNL     1       3.097 126.420 114.035  1.00  0.00     0.000 C 
BRANCH   4   5
ATOM      5  C   UNL     1       2.588 124.973 114.166  1.00  0.00     0.000 C 
BRANCH   5   6
ATOM      6  C   UNL     1       1.877 124.480 112.896  1.00  0.00     0.000 C 
BRANCH   6   7
ATOM      7  C   UNL     1       2.334 125.232 111.632  1.00  0.00     0.000 C 
BRANCH   7   8
ATOM      8  C   UNL     1       3.488 124.516 110.912  1.00  0.00     0.000 C 
BRANCH   8   9
ATOM      9  C   UNL     1       4.503 125.501 110.307  1.00  0.00     0.000 C 
BRANCH   9  10
ATOM     10  C   UNL     1       5.950 124.991 110.416  1.00  0.00     0.006 C 
BRANCH  10  11
ATOM     11  C   UNL     1       6.128 123.979 111.555  1.00  0.00     0.053 C 
BRANCH  11  12
ATOM     12  C   UNL     1       7.429 124.205 112.258  1.00  0.00     0.041 C 
ATOM     13  O   UNL     1       7.855 125.376 112.441  1.00  0.00    -0.550 OA
ATOM     14  O   UNL     1       8.149 123.126 112.754  1.00  0.00    -0.550 OA
ENDBRANCH  11  12
ENDBRANCH  10  11
ENDBRANCH   9  10
ENDBRANCH   8   9
ENDBRANCH   7   8
ENDBRANCH   6   7
ENDBRANCH   5   6
ENDBRANCH   4   5
ENDBRANCH   3   4
ENDBRANCH   2   3
ENDBRANCH   1   2
BRANCH   1  15
ATOM     15  C   UNL     1       4.536 130.171 113.254  1.00  0.00     0.000 C 
BRANCH  15  16
ATOM     16  C   UNL     1       4.842 130.214 114.760  1.00  0.00     0.000 C 
BRANCH  16  17
ATOM     17  C   UNL     1       4.245 131.450 115.458  1.00  0.00     0.000 C 
BRANCH  17  18
ATOM     18  C   UNL     1       2.772 131.290 115.898  1.00  0.00    -0.000 C 
BRANCH  18  19
ATOM     19  C   UNL     1       2.376 129.843 116.251  1.00  0.00    -0.000 C 
BRANCH  19  20
ATOM     20  C   UNL     1       1.405 129.167 115.263  1.00  0.00    -0.000 C 
BRANCH  20  21
ATOM     21  C   UNL     1       0.447 130.124 114.528  1.00  0.00    -0.000 C 
BRANCH  21  22
ATOM     22  C   UNL     1       0.852 130.459 113.080  1.00  0.00    -0.000 C 
BRANCH  22  23
ATOM     23  C   UNL     1       0.021 129.708 112.012  1.00  0.00    -0.000 C 
BRANCH  23  24
ATOM     24  C   UNL     1       0.538 128.292 111.690  1.00  0.00    -0.000 C 
BRANCH  24  25
ATOM     25  C   UNL     1       0.866 128.050 110.205  1.00  0.00    -0.003 C 
ATOM     26  C   UNL     1       2.286 128.474 109.827  1.00  0.00     0.004 C 
ENDBRANCH  24  25
ENDBRANCH  23  24
ENDBRANCH  22  23
ENDBRANCH  21  22
ENDBRANCH  20  21
ENDBRANCH  19  20
ENDBRANCH  18  19
ENDBRANCH  17  18
ENDBRANCH  16  17
ENDBRANCH  15  16
ENDBRANCH   1  15
TORSDOF 22
ENDMDL
MODEL 7
REMARK VINA RESULT:    -3.490      3.019      6.662
REMARK INTER + INTRA:         -12.296
REMARK INTER:                  -8.451
REMARK INTRA:                  -3.844
REMARK UNBOUND:                -4.316
REMARK SMILES CCCCCCCCCCCCCCCCCCCCCCCC(=O)[O-]
REMARK SMILES IDX 13 1 14 2 15 3 16 4 17 5 18 6 19 7 20 8 21 9 22 10 23 11
REMARK SMILES IDX 24 12 25 13 26 14 12 15 11 16 10 17 9 18 8 19 7 20 6 21 5 22
REMARK SMILES IDX 4 23 3 24 2 25 1 26
REMARK H PARENT
REMARK Flexibility Score: inf
ROOT
ATOM      1  C   UNL     1       2.148 126.346 111.623  1.00  0.00     0.000 C 
ENDROOT
BRANCH   1   2
ATOM      2  C   UNL     1       2.970 127.582 111.222  1.00  0.00     0.000 C 
BRANCH   2   3
ATOM      3  C   UNL     1       2.141 128.789 110.742  1.00  0.00     0.000 C 
BRANCH   3   4
ATOM      4  C   UNL     1       0.629 128.666 111.031  1.00  0.00     0.000 C 
BRANCH   4   5
ATOM      5  C   UNL     1       0.147 129.682 112.083  1.00  0.00     0.000 C 
BRANCH   5   6
ATOM      6  C   UNL     1       0.833 129.493 113.444  1.00  0.00     0.000 C 
BRANCH   6   7
ATOM      7  C   UNL     1       1.552 130.766 113.928  1.00  0.00     0.000 C 
BRANCH   7   8
ATOM      8  C   UNL     1       3.076 130.678 113.751  1.00  0.00     0.000 C 
BRANCH   8   9
ATOM      9  C   UNL     1       3.699 129.539 114.576  1.00  0.00     0.000 C 
BRANCH   9  10
ATOM     10  C   UNL     1       4.511 130.060 115.774  1.00  0.00     0.006 C 
BRANCH  10  11
ATOM     11  C   UNL     1       5.926 129.470 115.821  1.00  0.00     0.053 C 
BRANCH  11  12
ATOM     12  C   UNL     1       6.893 130.373 115.124  1.00  0.00     0.041 C 
ATOM     13  O   UNL     1       7.563 131.213 115.782  1.00  0.00    -0.550 OA
ATOM     14  O   UNL     1       7.093 130.255 113.754  1.00  0.00    -0.550 OA
ENDBRANCH  11  12
ENDBRANCH  10  11
ENDBRANCH   9  10
ENDBRANCH   8   9
ENDBRANCH   7   8
ENDBRANCH   6   7
ENDBRANCH   5   6
ENDBRANCH   4   5
ENDBRANCH   3   4
ENDBRANCH   2   3
ENDBRANCH   1   2
BRANCH   1  15
ATOM     15  C   UNL     1       2.668 125.049 110.985  1.00  0.00     0.000 C 
BRANCH  15  16
ATOM     16  C   UNL     1       4.043 125.272 110.334  1.00  0.00     0.000 C 
BRANCH  16  17
ATOM     17  C   UNL     1       5.168 124.477 111.021  1.00  0.00     0.000 C 
BRANCH  17  18
ATOM     18  C   UNL     1       6.336 125.342 111.547  1.00  0.00    -0.000 C 
BRANCH  18  19
ATOM     19  C   UNL     1       6.405 125.435 113.084  1.00  0.00    -0.000 C 
BRANCH  19  20
ATOM     20  C   UNL     1       5.409 126.419 113.729  1.00  0.00    -0.000 C 
BRANCH  20  21
ATOM     21  C   UNL     1       4.272 125.765 114.535  1.00  0.00    -0.000 C 
BRANCH  21  22
ATOM     22  C   UNL     1       4.442 124.255 114.788  1.00  0.00    -0.000 C 
BRANCH  22  23
ATOM     23  C   UNL     1       3.363 123.384 114.102  1.00  0.00    -0.000 C 
BRANCH  23  24
ATOM     24  C   UNL     1       3.915 122.115 113.421  1.00  0.00    -0.000 C 
BRANCH  24  25
ATOM     25  C   UNL     1       3.390 120.791 114.008  1.00  0.00    -0.003 C 
ATOM     26  C   UNL     1       1.900 120.834 114.349  1.00  0.00     0.004 C 
ENDBRANCH  24  25
ENDBRANCH  23  24
ENDBRANCH  22  23
ENDBRANCH  21  22
ENDBRANCH  20  21
ENDBRANCH  19  20
ENDBRANCH  18  19
ENDBRANCH  17  18
ENDBRANCH  16  17
ENDBRANCH  15  16
ENDBRANCH   1  15
TORSDOF 22
ENDMDL
MODEL 8
REMARK VINA RESULT:    -3.467      2.820      4.954
REMARK INTER + INTRA:         -12.242
REMARK INTER:                  -7.474
REMARK INTRA:                  -4.769
REMARK UNBOUND:                -4.316
REMARK SMILES CCCCCCCCCCCCCCCCCCCCCCCC(=O)[O-]
REMARK SMILES IDX 13 1 14 2 15 3 16 4 17 5 18 6 19 7 20 8 21 9 22 10 23 11
REMARK SMILES IDX 24 12 25 13 26 14 12 15 11 16 10 17 9 18 8 19 7 20 6 21 5 22
REMARK SMILES IDX 4 23 3 24 2 25 1 26
REMARK H PARENT
REMARK Flexibility Score: inf
ROOT
ATOM      1  C   UNL     1       2.939 128.021 111.027  1.00  0.00     0.000 C 
ENDROOT
BRANCH   1   2
ATOM      2  C   UNL     1       3.582 126.659 111.334  1.00  0.00     0.000 C 
BRANCH   2   3
ATOM      3  C   UNL     1       2.744 125.434 110.919  1.00  0.00     0.000 C 
BRANCH   3   4
ATOM      4  C   UNL     1       2.131 124.661 112.108  1.00  0.00     0.000 C 
BRANCH   4   5
ATOM      5  C   UNL     1       2.311 125.402 113.446  1.00  0.00     0.000 C 
BRANCH   5   6
ATOM      6  C   UNL     1       1.035 126.134 113.890  1.00  0.00     0.000 C 
BRANCH   6   7
ATOM      7  C   UNL     1       1.334 127.374 114.754  1.00  0.00     0.000 C 
BRANCH   7   8
ATOM      8  C   UNL     1       2.839 127.568 114.995  1.00  0.00     0.000 C 
BRANCH   8   9
ATOM      9  C   UNL     1       3.354 128.909 114.443  1.00  0.00     0.000 C 
BRANCH   9  10
ATOM     10  C   UNL     1       4.870 129.079 114.639  1.00  0.00     0.006 C 
BRANCH  10  11
ATOM     11  C   UNL     1       5.527 129.839 113.480  1.00  0.00     0.053 C 
BRANCH  11  12
ATOM     12  C   UNL     1       6.807 130.471 113.926  1.00  0.00     0.041 C 
ATOM     13  O   UNL     1       7.767 130.593 113.121  1.00  0.00    -0.550 OA
ATOM     14  O   UNL     1       6.923 130.971 115.217  1.00  0.00    -0.550 OA
ENDBRANCH  11  12
ENDBRANCH  10  11
ENDBRANCH   9  10
ENDBRANCH   8   9
ENDBRANCH   7   8
ENDBRANCH   6   7
ENDBRANCH   5   6
ENDBRANCH   4   5
ENDBRANCH   3   4
ENDBRANCH   2   3
ENDBRANCH   1   2
BRANCH   1  15
ATOM     15  C   UNL     1       1.627 127.900 110.237  1.00  0.00     0.000 C 
BRANCH  15  16
ATOM     16  C   UNL     1       0.441 128.428 111.060  1.00  0.00     0.000 C 
BRANCH  16  17
ATOM     17  C   UNL     1       0.795 129.675 111.891  1.00  0.00     0.000 C 
BRANCH  17  18
ATOM     18  C   UNL     1      -0.423 130.513 112.343  1.00  0.00    -0.000 C 
BRANCH  18  19
ATOM     19  C   UNL     1      -0.792 130.333 113.828  1.00  0.00    -0.000 C 
BRANCH  19  20
ATOM     20  C   UNL     1       0.207 130.940 114.833  1.00  0.00    -0.000 C 
BRANCH  20  21
ATOM     21  C   UNL     1       0.012 130.502 116.297  1.00  0.00    -0.000 C 
BRANCH  21  22
ATOM     22  C   UNL     1       1.304 130.444 117.134  1.00  0.00    -0.000 C 
BRANCH  22  23
ATOM     23  C   UNL     1       2.037 131.802 117.239  1.00  0.00    -0.000 C 
BRANCH  23  24
ATOM     24  C   UNL     1       3.514 131.758 116.797  1.00  0.00    -0.000 C 
BRANCH  24  25
ATOM     25  C   UNL     1       3.932 132.892 115.841  1.00  0.00    -0.003 C 
ATOM     26  C   UNL     1       3.395 132.708 114.421  1.00  0.00     0.004 C 
ENDBRANCH  24  25
ENDBRANCH  23  24
ENDBRANCH  22  23
ENDBRANCH  21  22
ENDBRANCH  20  21
ENDBRANCH  19  20
ENDBRANCH  18  19
ENDBRANCH  17  18
ENDBRANCH  16  17
ENDBRANCH  15  16
ENDBRANCH   1  15
TORSDOF 22
ENDMDL
MODEL 9
REMARK VINA RESULT:    -3.452      2.318      4.576
REMARK INTER + INTRA:         -12.208
REMARK INTER:                  -8.106
REMARK INTRA:                  -4.103
REMARK UNBOUND:                -4.316
REMARK SMILES CCCCCCCCCCCCCCCCCCCCCCCC(=O)[O-]
REMARK SMILES IDX 13 1 14 2 15 3 16 4 17 5 18 6 19 7 20 8 21 9 22 10 23 11
REMARK SMILES IDX 24 12 25 13 26 14 12 15 11 16 10 17 9 18 8 19 7 20 6 21 5 22
REMARK SMILES IDX 4 23 3 24 2 25 1 26
REMARK H PARENT
REMARK Flexibility Score: inf
ROOT
ATOM      1  C   UNL     1       1.792 121.517 114.118  1.00  0.00     0.000 C 
ENDROOT
BRANCH   1   2
ATOM      2  C   UNL     1       1.313 122.658 115.031  1.00  0.00     0.000 C 
BRANCH   2   3
ATOM      3  C   UNL     1       0.540 123.783 114.316  1.00  0.00     0.000 C 
BRANCH   3   4
ATOM      4  C   UNL     1       1.103 124.145 112.924  1.00  0.00     0.000 C 
BRANCH   4   5
ATOM      5  C   UNL     1       1.650 125.584 112.868  1.00  0.00     0.000 C 
BRANCH   5   6
ATOM      6  C   UNL     1       2.095 125.991 111.455  1.00  0.00     0.000 C 
BRANCH   6   7
ATOM      7  C   UNL     1       2.992 124.932 110.788  1.00  0.00     0.000 C 
BRANCH   7   8
ATOM      8  C   UNL     1       4.413 125.454 110.524  1.00  0.00     0.000 C 
BRANCH   8   9
ATOM      9  C   UNL     1       5.075 126.021 111.791  1.00  0.00     0.000 C 
BRANCH   9  10
ATOM     10  C   UNL     1       6.610 126.051 111.687  1.00  0.00     0.006 C 
BRANCH  10  11
ATOM     11  C   UNL     1       7.142 125.082 110.624  1.00  0.00     0.053 C 
BRANCH  11  12
ATOM     12  C   UNL     1       7.464 123.757 111.238  1.00  0.00     0.041 C 
ATOM     13  O   UNL     1       8.372 123.666 112.106  1.00  0.00    -0.550 OA
ATOM     14  O   UNL     1       6.731 122.630 110.889  1.00  0.00    -0.550 OA
ENDBRANCH  11  12
ENDBRANCH  10  11
ENDBRANCH   9  10
ENDBRANCH   8   9
ENDBRANCH   7   8
ENDBRANCH   6   7
ENDBRANCH   5   6
ENDBRANCH   4   5
ENDBRANCH   3   4
ENDBRANCH   2   3
ENDBRANCH   1   2
BRANCH   1  15
ATOM     15  C   UNL     1       3.281 121.185 114.306  1.00  0.00     0.000 C 
BRANCH  15  16
ATOM     16  C   UNL     1       4.139 121.899 113.249  1.00  0.00     0.000 C 
BRANCH  16  17
ATOM     17  C   UNL     1       4.607 123.295 113.699  1.00  0.00     0.000 C 
BRANCH  17  18
ATOM     18  C   UNL     1       5.378 123.313 115.039  1.00  0.00    -0.000 C 
BRANCH  18  19
ATOM     19  C   UNL     1       6.579 124.278 115.058  1.00  0.00    -0.000 C 
BRANCH  19  20
ATOM     20  C   UNL     1       6.734 125.109 116.347  1.00  0.00    -0.000 C 
BRANCH  20  21
ATOM     21  C   UNL     1       6.405 126.607 116.204  1.00  0.00    -0.000 C 
BRANCH  21  22
ATOM     22  C   UNL     1       4.922 126.968 116.412  1.00  0.00    -0.000 C 
BRANCH  22  23
ATOM     23  C   UNL     1       4.104 127.017 115.101  1.00  0.00    -0.000 C 
BRANCH  23  24
ATOM     24  C   UNL     1       3.449 128.383 114.815  1.00  0.00    -0.000 C 
BRANCH  24  25
ATOM     25  C   UNL     1       3.969 129.093 113.550  1.00  0.00    -0.003 C 
ATOM     26  C   UNL     1       5.483 129.304 113.560  1.00  0.00     0.004 C 
ENDBRANCH  24  25
ENDBRANCH  23  24
ENDBRANCH  22  23
ENDBRANCH  21  22
ENDBRANCH  20  21
ENDBRANCH  19  20
ENDBRANCH  18  19
ENDBRANCH  17  18
ENDBRANCH  16  17
ENDBRANCH  15  16
ENDBRANCH   1  15
TORSDOF 22
ENDMDL
