MODEL 1
REMARK VINA RESULT:    -7.168      0.000      0.000
REMARK INTER + INTRA:          -8.738
REMARK INTER:                  -8.425
REMARK INTRA:                  -0.313
REMARK UNBOUND:                -0.313
REMARK SMILES O=c1cc(-c2ccc(O)c(O)c2)oc2cc(O)cc(O)c12
REMARK SMILES IDX 4 1 3 2 2 3 1 4 21 5 19 6 18 7 16 8 15 9 14 10 13 11 5 12
REMARK SMILES IDX 6 13 7 14 8 15 12 16 10 17 9 18 11 20 20 22 17 24
REMARK H PARENT 9 19 11 21 20 23 17 25
REMARK Flexibility Score: inf
ROOT
ATOM      1  C   UNL     1     -36.309 -12.405  -8.154  1.00  0.00     0.138 A 
ATOM      2  C   UNL     1     -35.440 -12.136  -9.220  1.00  0.00     0.100 A 
ATOM      3  C   UNL     1     -34.864 -10.871  -9.338  1.00  0.00     0.197 A 
ATOM      4  O   UNL     1     -34.040 -10.678 -10.269  1.00  0.00    -0.289 OA
ATOM      5  C   UNL     1     -35.187  -9.860  -8.401  1.00  0.00     0.107 A 
ATOM      6  C   UNL     1     -34.692  -8.522  -8.446  1.00  0.00     0.134 A 
ATOM      7  C   UNL     1     -34.988  -7.643  -7.397  1.00  0.00     0.093 A 
ATOM      8  C   UNL     1     -35.811  -8.034  -6.338  1.00  0.00     0.123 A 
ATOM      9  C   UNL     1     -36.343  -9.321  -6.313  1.00  0.00     0.094 A 
ATOM     10  C   UNL     1     -36.037 -10.233  -7.326  1.00  0.00     0.146 A 
ATOM     11  O   UNL     1     -36.553 -11.456  -7.257  1.00  0.00    -0.456 OA
ENDROOT
BRANCH   1  12
ATOM     12  C   UNL     1     -36.950 -13.734  -7.981  1.00  0.00     0.021 A 
ATOM     13  C   UNL     1     -36.423 -14.849  -8.654  1.00  0.00     0.016 A 
ATOM     14  C   UNL     1     -37.003 -16.111  -8.502  1.00  0.00     0.051 A 
ATOM     15  C   UNL     1     -38.112 -16.284  -7.671  1.00  0.00     0.157 A 
ATOM     16  C   UNL     1     -38.061 -13.915  -7.133  1.00  0.00     0.062 A 
ATOM     17  C   UNL     1     -38.642 -15.182  -6.980  1.00  0.00     0.158 A 
BRANCH  15  18
ATOM     18  O   UNL     1     -38.670 -17.555  -7.541  1.00  0.00    -0.504 OA
ATOM     19  H   UNL     1     -38.622 -18.077  -6.674  1.00  0.00     0.293 HD
ENDBRANCH  15  18
BRANCH  17  20
ATOM     20  O   UNL     1     -39.742 -15.351  -6.139  1.00  0.00    -0.504 OA
ATOM     21  H   UNL     1     -40.410 -14.605  -5.981  1.00  0.00     0.293 HD
ENDBRANCH  17  20
ENDBRANCH   1  12
BRANCH   6  22
ATOM     22  O   UNL     1     -33.933  -8.005  -9.499  1.00  0.00    -0.507 OA
ATOM     23  H   UNL     1     -33.467  -7.111  -9.490  1.00  0.00     0.293 HD
ENDBRANCH   6  22
BRANCH   8  24
ATOM     24  O   UNL     1     -36.112  -7.147  -5.308  1.00  0.00    -0.508 OA
ATOM     25  H   UNL     1     -35.400  -6.563  -4.885  1.00  0.00     0.293 HD
ENDBRANCH   8  24
TORSDOF 5
ENDMDL
MODEL 2
REMARK VINA RESULT:    -6.974      4.039      6.988
REMARK INTER + INTRA:          -8.510
REMARK INTER:                  -8.245
REMARK INTRA:                  -0.265
REMARK UNBOUND:                -0.313
REMARK SMILES O=c1cc(-c2ccc(O)c(O)c2)oc2cc(O)cc(O)c12
REMARK SMILES IDX 4 1 3 2 2 3 1 4 21 5 19 6 18 7 16 8 15 9 14 10 13 11 5 12
REMARK SMILES IDX 6 13 7 14 8 15 12 16 10 17 9 18 11 20 20 22 17 24
REMARK H PARENT 9 19 11 21 20 23 17 25
REMARK Flexibility Score: inf
ROOT
ATOM      1  C   UNL     1     -36.467 -13.466 -10.312  1.00  0.00     0.138 A 
ATOM      2  C   UNL     1     -35.868 -14.729 -10.216  1.00  0.00     0.100 A 
ATOM      3  C   UNL     1     -35.839 -15.565 -11.333  1.00  0.00     0.197 A 
ATOM      4  O   UNL     1     -35.240 -16.668 -11.235  1.00  0.00    -0.289 OA
ATOM      5  C   UNL     1     -36.444 -15.145 -12.543  1.00  0.00     0.107 A 
ATOM      6  C   UNL     1     -36.511 -15.930 -13.733  1.00  0.00     0.134 A 
ATOM      7  C   UNL     1     -37.030 -15.364 -14.903  1.00  0.00     0.093 A 
ATOM      8  C   UNL     1     -37.539 -14.063 -14.911  1.00  0.00     0.123 A 
ATOM      9  C   UNL     1     -37.527 -13.308 -13.741  1.00  0.00     0.094 A 
ATOM     10  C   UNL     1     -36.984 -13.832 -12.565  1.00  0.00     0.146 A 
ATOM     11  O   UNL     1     -36.978 -13.074 -11.474  1.00  0.00    -0.456 OA
ENDROOT
BRANCH   1  12
ATOM     12  C   UNL     1     -36.526 -12.537  -9.155  1.00  0.00     0.021 A 
ATOM     13  C   UNL     1     -35.752 -11.365  -9.169  1.00  0.00     0.016 A 
ATOM     14  C   UNL     1     -35.795 -10.471  -8.096  1.00  0.00     0.051 A 
ATOM     15  C   UNL     1     -36.617 -10.725  -6.996  1.00  0.00     0.157 A 
ATOM     16  C   UNL     1     -37.365 -12.783  -8.050  1.00  0.00     0.062 A 
ATOM     17  C   UNL     1     -37.409 -11.885  -6.973  1.00  0.00     0.158 A 
BRANCH  15  18
ATOM     18  O   UNL     1     -36.638  -9.815  -5.940  1.00  0.00    -0.504 OA
ATOM     19  H   UNL     1     -37.394  -9.792  -5.266  1.00  0.00     0.293 HD
ENDBRANCH  15  18
BRANCH  17  20
ATOM     20  O   UNL     1     -38.241 -12.139  -5.883  1.00  0.00    -0.504 OA
ATOM     21  H   UNL     1     -37.866 -12.330  -4.961  1.00  0.00     0.293 HD
ENDBRANCH  17  20
ENDBRANCH   1  12
BRANCH   6  22
ATOM     22  O   UNL     1     -36.108 -17.267 -13.811  1.00  0.00    -0.507 OA
ATOM     23  H   UNL     1     -36.555 -17.971 -14.378  1.00  0.00     0.293 HD
ENDBRANCH   6  22
BRANCH   8  24
ATOM     24  O   UNL     1     -38.067 -13.514 -16.076  1.00  0.00    -0.508 OA
ATOM     25  H   UNL     1     -38.536 -14.087 -16.768  1.00  0.00     0.293 HD
ENDBRANCH   8  24
TORSDOF 5
ENDMDL
MODEL 3
REMARK VINA RESULT:    -6.784      4.443      7.234
REMARK INTER + INTRA:          -8.287
REMARK INTER:                  -8.023
REMARK INTRA:                  -0.264
REMARK UNBOUND:                -0.313
REMARK SMILES O=c1cc(-c2ccc(O)c(O)c2)oc2cc(O)cc(O)c12
REMARK SMILES IDX 4 1 3 2 2 3 1 4 21 5 19 6 18 7 16 8 15 9 14 10 13 11 5 12
REMARK SMILES IDX 6 13 7 14 8 15 12 16 10 17 9 18 11 20 20 22 17 24
REMARK H PARENT 9 19 11 21 20 23 17 25
REMARK Flexibility Score: inf
ROOT
ATOM      1  C   UNL     1     -36.069 -14.094 -10.877  1.00  0.00     0.138 A 
ATOM      2  C   UNL     1     -34.702 -14.146 -11.179  1.00  0.00     0.100 A 
ATOM      3  C   UNL     1     -34.282 -14.711 -12.384  1.00  0.00     0.197 A 
ATOM      4  O   UNL     1     -33.054 -14.687 -12.656  1.00  0.00    -0.289 OA
ATOM      5  C   UNL     1     -35.237 -15.256 -13.275  1.00  0.00     0.107 A 
ATOM      6  C   UNL     1     -34.922 -15.894 -14.513  1.00  0.00     0.134 A 
ATOM      7  C   UNL     1     -35.958 -16.290 -15.367  1.00  0.00     0.093 A 
ATOM      8  C   UNL     1     -37.296 -16.128 -15.001  1.00  0.00     0.123 A 
ATOM      9  C   UNL     1     -37.614 -15.555 -13.772  1.00  0.00     0.094 A 
ATOM     10  C   UNL     1     -36.603 -15.117 -12.913  1.00  0.00     0.146 A 
ATOM     11  O   UNL     1     -36.948 -14.563 -11.755  1.00  0.00    -0.456 OA
ENDROOT
BRANCH   1  12
ATOM     12  C   UNL     1     -36.570 -13.505  -9.609  1.00  0.00     0.021 A 
ATOM     13  C   UNL     1     -37.024 -14.352  -8.585  1.00  0.00     0.016 A 
ATOM     14  C   UNL     1     -37.494 -13.823  -7.380  1.00  0.00     0.051 A 
ATOM     15  C   UNL     1     -37.509 -12.443  -7.172  1.00  0.00     0.157 A 
ATOM     16  C   UNL     1     -36.574 -12.113  -9.390  1.00  0.00     0.062 A 
ATOM     17  C   UNL     1     -37.044 -11.582  -8.180  1.00  0.00     0.158 A 
BRANCH  15  18
ATOM     18  O   UNL     1     -37.984 -11.944  -5.959  1.00  0.00    -0.504 OA
ATOM     19  H   UNL     1     -38.683 -11.212  -5.915  1.00  0.00     0.293 HD
ENDBRANCH  15  18
BRANCH  17  20
ATOM     20  O   UNL     1     -37.046 -10.203  -7.974  1.00  0.00    -0.504 OA
ATOM     21  H   UNL     1     -37.453  -9.790  -7.142  1.00  0.00     0.293 HD
ENDBRANCH  17  20
ENDBRANCH   1  12
BRANCH   6  22
ATOM     22  O   UNL     1     -33.621 -16.181 -14.934  1.00  0.00    -0.507 OA
ATOM     23  H   UNL     1     -32.831 -15.563 -14.829  1.00  0.00     0.293 HD
ENDBRANCH   6  22
BRANCH   8  24
ATOM     24  O   UNL     1     -38.320 -16.540 -15.851  1.00  0.00    -0.508 OA
ATOM     25  H   UNL     1     -38.571 -17.517 -15.945  1.00  0.00     0.293 HD
ENDBRANCH   8  24
TORSDOF 5
ENDMDL
MODEL 4
REMARK VINA RESULT:    -6.767      0.882      1.578
REMARK INTER + INTRA:          -8.267
REMARK INTER:                  -7.976
REMARK INTRA:                  -0.292
REMARK UNBOUND:                -0.313
REMARK SMILES O=c1cc(-c2ccc(O)c(O)c2)oc2cc(O)cc(O)c12
REMARK SMILES IDX 4 1 3 2 2 3 1 4 21 5 19 6 18 7 16 8 15 9 14 10 13 11 5 12
REMARK SMILES IDX 6 13 7 14 8 15 12 16 10 17 9 18 11 20 20 22 17 24
REMARK H PARENT 9 19 11 21 20 23 17 25
REMARK Flexibility Score: inf
ROOT
ATOM      1  C   UNL     1     -36.745 -12.906  -7.944  1.00  0.00     0.138 A 
ATOM      2  C   UNL     1     -35.896 -12.781  -9.052  1.00  0.00     0.100 A 
ATOM      3  C   UNL     1     -35.248 -11.569  -9.292  1.00  0.00     0.197 A 
ATOM      4  O   UNL     1     -34.443 -11.506 -10.258  1.00  0.00    -0.289 OA
ATOM      5  C   UNL     1     -35.479 -10.466  -8.435  1.00  0.00     0.107 A 
ATOM      6  C   UNL     1     -34.905  -9.170  -8.606  1.00  0.00     0.134 A 
ATOM      7  C   UNL     1     -35.113  -8.190  -7.628  1.00  0.00     0.093 A 
ATOM      8  C   UNL     1     -35.924  -8.440  -6.518  1.00  0.00     0.123 A 
ATOM      9  C   UNL     1     -36.532  -9.684  -6.370  1.00  0.00     0.094 A 
ATOM     10  C   UNL     1     -36.315 -10.694  -7.310  1.00  0.00     0.146 A 
ATOM     11  O   UNL     1     -36.902 -11.872  -7.125  1.00  0.00    -0.456 OA
ENDROOT
BRANCH   1  12
ATOM     12  C   UNL     1     -37.460 -14.172  -7.643  1.00  0.00     0.021 A 
ATOM     13  C   UNL     1     -38.614 -14.141  -6.843  1.00  0.00     0.016 A 
ATOM     14  C   UNL     1     -39.308 -15.317  -6.550  1.00  0.00     0.051 A 
ATOM     15  C   UNL     1     -38.870 -16.542  -7.059  1.00  0.00     0.157 A 
ATOM     16  C   UNL     1     -37.029 -15.407  -8.165  1.00  0.00     0.062 A 
ATOM     17  C   UNL     1     -37.727 -16.589  -7.873  1.00  0.00     0.158 A 
BRANCH  15  18
ATOM     18  O   UNL     1     -39.584 -17.699  -6.749  1.00  0.00    -0.504 OA
ATOM     19  H   UNL     1     -39.122 -18.581  -6.559  1.00  0.00     0.293 HD
ENDBRANCH  15  18
BRANCH  17  20
ATOM     20  O   UNL     1     -37.291 -17.807  -8.393  1.00  0.00    -0.504 OA
ATOM     21  H   UNL     1     -37.149 -17.939  -9.388  1.00  0.00     0.293 HD
ENDBRANCH  17  20
ENDBRANCH   1  12
BRANCH   6  22
ATOM     22  O   UNL     1     -34.150  -8.791  -9.720  1.00  0.00    -0.507 OA
ATOM     23  H   UNL     1     -33.650  -7.919  -9.808  1.00  0.00     0.293 HD
ENDBRANCH   6  22
BRANCH   8  24
ATOM     24  O   UNL     1     -36.137  -7.453  -5.559  1.00  0.00    -0.508 OA
ATOM     25  H   UNL     1     -37.003  -7.400  -5.035  1.00  0.00     0.293 HD
ENDBRANCH   8  24
TORSDOF 5
ENDMDL
MODEL 5
REMARK VINA RESULT:    -6.598      1.583      2.565
REMARK INTER + INTRA:          -8.068
REMARK INTER:                  -7.780
REMARK INTRA:                  -0.289
REMARK UNBOUND:                -0.313
REMARK SMILES O=c1cc(-c2ccc(O)c(O)c2)oc2cc(O)cc(O)c12
REMARK SMILES IDX 4 1 3 2 2 3 1 4 21 5 19 6 18 7 16 8 15 9 14 10 13 11 5 12
REMARK SMILES IDX 6 13 7 14 8 15 12 16 10 17 9 18 11 20 20 22 17 24
REMARK H PARENT 9 19 11 21 20 23 17 25
REMARK Flexibility Score: inf
ROOT
ATOM      1  C   UNL     1     -36.258 -12.321  -7.814  1.00  0.00     0.138 A 
ATOM      2  C   UNL     1     -37.008 -11.149  -7.653  1.00  0.00     0.100 A 
ATOM      3  C   UNL     1     -36.366  -9.910  -7.669  1.00  0.00     0.197 A 
ATOM      4  O   UNL     1     -37.073  -8.872  -7.585  1.00  0.00    -0.289 OA
ATOM      5  C   UNL     1     -34.959  -9.849  -7.813  1.00  0.00     0.107 A 
ATOM      6  C   UNL     1     -34.192  -8.645  -7.802  1.00  0.00     0.134 A 
ATOM      7  C   UNL     1     -32.820  -8.700  -8.071  1.00  0.00     0.093 A 
ATOM      8  C   UNL     1     -32.176  -9.920  -8.290  1.00  0.00     0.123 A 
ATOM      9  C   UNL     1     -32.905 -11.105  -8.250  1.00  0.00     0.094 A 
ATOM     10  C   UNL     1     -34.283 -11.081  -8.018  1.00  0.00     0.146 A 
ATOM     11  O   UNL     1     -34.945 -12.233  -8.002  1.00  0.00    -0.456 OA
ENDROOT
BRANCH   1  12
ATOM     12  C   UNL     1     -36.890 -13.664  -7.804  1.00  0.00     0.021 A 
ATOM     13  C   UNL     1     -36.297 -14.713  -8.526  1.00  0.00     0.016 A 
ATOM     14  C   UNL     1     -36.868 -15.988  -8.528  1.00  0.00     0.051 A 
ATOM     15  C   UNL     1     -38.034 -16.241  -7.802  1.00  0.00     0.157 A 
ATOM     16  C   UNL     1     -38.058 -13.927  -7.062  1.00  0.00     0.062 A 
ATOM     17  C   UNL     1     -38.631 -15.207  -7.062  1.00  0.00     0.158 A 
BRANCH  15  18
ATOM     18  O   UNL     1     -38.581 -17.523  -7.823  1.00  0.00    -0.504 OA
ATOM     19  H   UNL     1     -38.041 -18.335  -8.100  1.00  0.00     0.293 HD
ENDBRANCH  15  18
BRANCH  17  20
ATOM     20  O   UNL     1     -39.789 -15.457  -6.325  1.00  0.00    -0.504 OA
ATOM     21  H   UNL     1     -40.475 -14.731  -6.151  1.00  0.00     0.293 HD
ENDBRANCH  17  20
ENDBRANCH   1  12
BRANCH   6  22
ATOM     22  O   UNL     1     -34.722  -7.384  -7.510  1.00  0.00    -0.507 OA
ATOM     23  H   UNL     1     -34.385  -6.771  -6.784  1.00  0.00     0.293 HD
ENDBRANCH   6  22
BRANCH   8  24
ATOM     24  O   UNL     1     -30.807  -9.965  -8.542  1.00  0.00    -0.508 OA
ATOM     25  H   UNL     1     -30.204 -10.638  -8.082  1.00  0.00     0.293 HD
ENDBRANCH   8  24
TORSDOF 5
ENDMDL
MODEL 6
REMARK VINA RESULT:    -6.595     13.181     13.361
REMARK INTER + INTRA:          -8.066
REMARK INTER:                  -7.775
REMARK INTRA:                  -0.290
REMARK UNBOUND:                -0.313
REMARK SMILES O=c1cc(-c2ccc(O)c(O)c2)oc2cc(O)cc(O)c12
REMARK SMILES IDX 4 1 3 2 2 3 1 4 21 5 19 6 18 7 16 8 15 9 14 10 13 11 5 12
REMARK SMILES IDX 6 13 7 14 8 15 12 16 10 17 9 18 11 20 20 22 17 24
REMARK H PARENT 9 19 11 21 20 23 17 25
REMARK Flexibility Score: inf
ROOT
ATOM      1  C   UNL     1     -26.661 -16.182   0.338  1.00  0.00     0.138 A 
ATOM      2  C   UNL     1     -26.152 -15.819  -0.916  1.00  0.00     0.100 A 
ATOM      3  C   UNL     1     -26.078 -14.470  -1.267  1.00  0.00     0.197 A 
ATOM      4  O   UNL     1     -25.558 -14.171  -2.373  1.00  0.00    -0.289 OA
ATOM      5  C   UNL     1     -26.548 -13.483  -0.368  1.00  0.00     0.107 A 
ATOM      6  C   UNL     1     -26.561 -12.081  -0.635  1.00  0.00     0.134 A 
ATOM      7  C   UNL     1     -26.940 -11.191   0.377  1.00  0.00     0.093 A 
ATOM      8  C   UNL     1     -27.366 -11.654   1.624  1.00  0.00     0.123 A 
ATOM      9  C   UNL     1     -27.409 -13.023   1.876  1.00  0.00     0.094 A 
ATOM     10  C   UNL     1     -27.003 -13.936   0.899  1.00  0.00     0.146 A 
ATOM     11  O   UNL     1     -27.045 -15.233   1.184  1.00  0.00    -0.456 OA
ENDROOT
BRANCH   1  12
ATOM     12  C   UNL     1     -26.763 -17.602   0.761  1.00  0.00     0.021 A 
ATOM     13  C   UNL     1     -26.766 -17.917   2.130  1.00  0.00     0.016 A 
ATOM     14  C   UNL     1     -26.867 -19.244   2.555  1.00  0.00     0.051 A 
ATOM     15  C   UNL     1     -26.979 -20.278   1.622  1.00  0.00     0.157 A 
ATOM     16  C   UNL     1     -26.889 -18.647  -0.176  1.00  0.00     0.062 A 
ATOM     17  C   UNL     1     -26.993 -19.979   0.250  1.00  0.00     0.158 A 
BRANCH  15  18
ATOM     18  O   UNL     1     -27.078 -21.593   2.076  1.00  0.00    -0.504 OA
ATOM     19  H   UNL     1     -26.827 -21.856   3.021  1.00  0.00     0.293 HD
ENDBRANCH  15  18
BRANCH  17  20
ATOM     20  O   UNL     1     -27.115 -21.006  -0.686  1.00  0.00    -0.504 OA
ATOM     21  H   UNL     1     -27.928 -21.083  -1.287  1.00  0.00     0.293 HD
ENDBRANCH  17  20
ENDBRANCH   1  12
BRANCH   6  22
ATOM     22  O   UNL     1     -26.235 -11.518  -1.873  1.00  0.00    -0.507 OA
ATOM     23  H   UNL     1     -25.495 -11.842  -2.476  1.00  0.00     0.293 HD
ENDBRANCH   6  22
BRANCH   8  24
ATOM     24  O   UNL     1     -27.756 -10.761   2.618  1.00  0.00    -0.508 OA
ATOM     25  H   UNL     1     -27.079 -10.215   3.137  1.00  0.00     0.293 HD
ENDBRANCH   8  24
TORSDOF 5
ENDMDL
MODEL 7
REMARK VINA RESULT:    -6.502     13.256     13.610
REMARK INTER + INTRA:          -7.956
REMARK INTER:                  -7.639
REMARK INTRA:                  -0.317
REMARK UNBOUND:                -0.313
REMARK SMILES O=c1cc(-c2ccc(O)c(O)c2)oc2cc(O)cc(O)c12
REMARK SMILES IDX 4 1 3 2 2 3 1 4 21 5 19 6 18 7 16 8 15 9 14 10 13 11 5 12
REMARK SMILES IDX 6 13 7 14 8 15 12 16 10 17 9 18 11 20 20 22 17 24
REMARK H PARENT 9 19 11 21 20 23 17 25
REMARK Flexibility Score: inf
ROOT
ATOM      1  C   UNL     1     -26.573 -16.386   0.710  1.00  0.00     0.138 A 
ATOM      2  C   UNL     1     -26.256 -15.521   1.767  1.00  0.00     0.100 A 
ATOM      3  C   UNL     1     -26.129 -14.153   1.524  1.00  0.00     0.197 A 
ATOM      4  O   UNL     1     -25.907 -13.393   2.502  1.00  0.00    -0.289 OA
ATOM      5  C   UNL     1     -26.287 -13.654   0.208  1.00  0.00     0.107 A 
ATOM      6  C   UNL     1     -26.139 -12.284  -0.164  1.00  0.00     0.134 A 
ATOM      7  C   UNL     1     -26.436 -11.891  -1.475  1.00  0.00     0.093 A 
ATOM      8  C   UNL     1     -26.814 -12.826  -2.440  1.00  0.00     0.123 A 
ATOM      9  C   UNL     1     -26.909 -14.173  -2.100  1.00  0.00     0.094 A 
ATOM     10  C   UNL     1     -26.654 -14.593  -0.792  1.00  0.00     0.146 A 
ATOM     11  O   UNL     1     -26.770 -15.885  -0.504  1.00  0.00    -0.456 OA
ENDROOT
BRANCH   1  12
ATOM     12  C   UNL     1     -26.719 -17.850   0.913  1.00  0.00     0.021 A 
ATOM     13  C   UNL     1     -26.682 -18.374   2.216  1.00  0.00     0.016 A 
ATOM     14  C   UNL     1     -26.824 -19.747   2.434  1.00  0.00     0.051 A 
ATOM     15  C   UNL     1     -27.016 -20.618   1.358  1.00  0.00     0.157 A 
ATOM     16  C   UNL     1     -26.926 -18.729  -0.168  1.00  0.00     0.062 A 
ATOM     17  C   UNL     1     -27.071 -20.107   0.051  1.00  0.00     0.158 A 
BRANCH  15  18
ATOM     18  O   UNL     1     -27.154 -21.982   1.607  1.00  0.00    -0.504 OA
ATOM     19  H   UNL     1     -27.541 -22.335   2.474  1.00  0.00     0.293 HD
ENDBRANCH  15  18
BRANCH  17  20
ATOM     20  O   UNL     1     -27.274 -20.970  -1.026  1.00  0.00    -0.504 OA
ATOM     21  H   UNL     1     -26.715 -20.908  -1.869  1.00  0.00     0.293 HD
ENDBRANCH  17  20
ENDBRANCH   1  12
BRANCH   6  22
ATOM     22  O   UNL     1     -25.686 -11.284   0.701  1.00  0.00    -0.507 OA
ATOM     23  H   UNL     1     -25.284 -11.447   1.611  1.00  0.00     0.293 HD
ENDBRANCH   6  22
BRANCH   8  24
ATOM     24  O   UNL     1     -27.092 -12.428  -3.746  1.00  0.00    -0.508 OA
ATOM     25  H   UNL     1     -26.998 -11.462  -4.037  1.00  0.00     0.293 HD
ENDBRANCH   8  24
TORSDOF 5
ENDMDL
MODEL 8
REMARK VINA RESULT:    -6.442      3.969      4.930
REMARK INTER + INTRA:          -7.885
REMARK INTER:                  -7.622
REMARK INTRA:                  -0.263
REMARK UNBOUND:                -0.313
REMARK SMILES O=c1cc(-c2ccc(O)c(O)c2)oc2cc(O)cc(O)c12
REMARK SMILES IDX 4 1 3 2 2 3 1 4 21 5 19 6 18 7 16 8 15 9 14 10 13 11 5 12
REMARK SMILES IDX 6 13 7 14 8 15 12 16 10 17 9 18 11 20 20 22 17 24
REMARK H PARENT 9 19 11 21 20 23 17 25
REMARK Flexibility Score: inf
ROOT
ATOM      1  C   UNL     1     -36.236 -13.289 -11.559  1.00  0.00     0.138 A 
ATOM      2  C   UNL     1     -35.084 -12.494 -11.629  1.00  0.00     0.100 A 
ATOM      3  C   UNL     1     -34.774 -11.633 -10.575  1.00  0.00     0.197 A 
ATOM      4  O   UNL     1     -33.701 -10.978 -10.638  1.00  0.00    -0.289 OA
ATOM      5  C   UNL     1     -35.642 -11.545  -9.460  1.00  0.00     0.107 A 
ATOM      6  C   UNL     1     -35.449 -10.672  -8.347  1.00  0.00     0.134 A 
ATOM      7  C   UNL     1     -36.311 -10.758  -7.248  1.00  0.00     0.093 A 
ATOM      8  C   UNL     1     -37.394 -11.640  -7.247  1.00  0.00     0.123 A 
ATOM      9  C   UNL     1     -37.623 -12.457  -8.351  1.00  0.00     0.094 A 
ATOM     10  C   UNL     1     -36.760 -12.421  -9.449  1.00  0.00     0.146 A 
ATOM     11  O   UNL     1     -37.004 -13.228 -10.477  1.00  0.00    -0.456 OA
ENDROOT
BRANCH   1  12
ATOM     12  C   UNL     1     -36.612 -14.221 -12.652  1.00  0.00     0.021 A 
ATOM     13  C   UNL     1     -37.523 -13.800 -13.636  1.00  0.00     0.016 A 
ATOM     14  C   UNL     1     -37.888 -14.656 -14.678  1.00  0.00     0.051 A 
ATOM     15  C   UNL     1     -37.345 -15.940 -14.763  1.00  0.00     0.157 A 
ATOM     16  C   UNL     1     -36.056 -15.512 -12.748  1.00  0.00     0.062 A 
ATOM     17  C   UNL     1     -36.422 -16.370 -13.796  1.00  0.00     0.158 A 
BRANCH  15  18
ATOM     18  O   UNL     1     -37.730 -16.771 -15.814  1.00  0.00    -0.504 OA
ATOM     19  H   UNL     1     -37.578 -17.772 -15.792  1.00  0.00     0.293 HD
ENDBRANCH  15  18
BRANCH  17  20
ATOM     20  O   UNL     1     -35.868 -17.647 -13.882  1.00  0.00    -0.504 OA
ATOM     21  H   UNL     1     -35.352 -18.055 -13.110  1.00  0.00     0.293 HD
ENDBRANCH  17  20
ENDBRANCH   1  12
BRANCH   6  22
ATOM     22  O   UNL     1     -34.450  -9.697  -8.283  1.00  0.00    -0.507 OA
ATOM     23  H   UNL     1     -34.349  -8.931  -8.932  1.00  0.00     0.293 HD
ENDBRANCH   6  22
BRANCH   8  24
ATOM     24  O   UNL     1     -38.256 -11.706  -6.154  1.00  0.00    -0.508 OA
ATOM     25  H   UNL     1     -38.661 -10.872  -5.747  1.00  0.00     0.293 HD
ENDBRANCH   8  24
TORSDOF 5
ENDMDL
MODEL 9
REMARK VINA RESULT:    -6.439      3.759      7.023
REMARK INTER + INTRA:          -7.882
REMARK INTER:                  -7.613
REMARK INTRA:                  -0.269
REMARK UNBOUND:                -0.313
REMARK SMILES O=c1cc(-c2ccc(O)c(O)c2)oc2cc(O)cc(O)c12
REMARK SMILES IDX 4 1 3 2 2 3 1 4 21 5 19 6 18 7 16 8 15 9 14 10 13 11 5 12
REMARK SMILES IDX 6 13 7 14 8 15 12 16 10 17 9 18 11 20 20 22 17 24
REMARK H PARENT 9 19 11 21 20 23 17 25
REMARK Flexibility Score: inf
ROOT
ATOM      1  C   UNL     1     -36.251 -13.371 -10.350  1.00  0.00     0.138 A 
ATOM      2  C   UNL     1     -36.849 -13.070 -11.581  1.00  0.00     0.100 A 
ATOM      3  C   UNL     1     -36.693 -13.945 -12.656  1.00  0.00     0.197 A 
ATOM      4  O   UNL     1     -37.293 -13.680 -13.730  1.00  0.00    -0.289 OA
ATOM      5  C   UNL     1     -35.906 -15.111 -12.506  1.00  0.00     0.107 A 
ATOM      6  C   UNL     1     -35.643 -16.054 -13.545  1.00  0.00     0.134 A 
ATOM      7  C   UNL     1     -34.947 -17.232 -13.247  1.00  0.00     0.093 A 
ATOM      8  C   UNL     1     -34.451 -17.471 -11.964  1.00  0.00     0.123 A 
ATOM      9  C   UNL     1     -34.655 -16.532 -10.956  1.00  0.00     0.094 A 
ATOM     10  C   UNL     1     -35.377 -15.363 -11.212  1.00  0.00     0.146 A 
ATOM     11  O   UNL     1     -35.562 -14.500 -10.220  1.00  0.00    -0.456 OA
ENDROOT
BRANCH   1  12
ATOM     12  C   UNL     1     -36.384 -12.475  -9.173  1.00  0.00     0.021 A 
ATOM     13  C   UNL     1     -35.651 -11.277  -9.131  1.00  0.00     0.016 A 
ATOM     14  C   UNL     1     -35.764 -10.413  -8.038  1.00  0.00     0.051 A 
ATOM     15  C   UNL     1     -36.616 -10.723  -6.976  1.00  0.00     0.157 A 
ATOM     16  C   UNL     1     -37.252 -12.778  -8.106  1.00  0.00     0.062 A 
ATOM     17  C   UNL     1     -37.367 -11.910  -7.010  1.00  0.00     0.158 A 
BRANCH  15  18
ATOM     18  O   UNL     1     -36.707  -9.842  -5.899  1.00  0.00    -0.504 OA
ATOM     19  H   UNL     1     -35.969  -9.183  -5.679  1.00  0.00     0.293 HD
ENDBRANCH  15  18
BRANCH  17  20
ATOM     20  O   UNL     1     -38.228 -12.220  -5.958  1.00  0.00    -0.504 OA
ATOM     21  H   UNL     1     -38.516 -11.521  -5.284  1.00  0.00     0.293 HD
ENDBRANCH  17  20
ENDBRANCH   1  12
BRANCH   6  22
ATOM     22  O   UNL     1     -36.020 -15.871 -14.879  1.00  0.00    -0.507 OA
ATOM     23  H   UNL     1     -36.675 -16.454 -15.378  1.00  0.00     0.293 HD
ENDBRANCH   6  22
BRANCH   8  24
ATOM     24  O   UNL     1     -33.746 -18.639 -11.681  1.00  0.00    -0.508 OA
ATOM     25  H   UNL     1     -34.046 -19.277 -10.953  1.00  0.00     0.293 HD
ENDBRANCH   8  24
TORSDOF 5
ENDMDL
